MODEL        1
REMARK 921   NORMALIZED FREE ENERGY PREDICTED BY IDOCK:   -5.20 KCAL/MOL
REMARK 922        TOTAL FREE ENERGY PREDICTED BY IDOCK:   -5.60 KCAL/MOL
REMARK 923 INTER-LIGAND FREE ENERGY PREDICTED BY IDOCK:   -5.50 KCAL/MOL
REMARK 924 INTRA-LIGAND FREE ENERGY PREDICTED BY IDOCK:   -0.10 KCAL/MOL
REMARK 927      BINDING AFFINITY PREDICTED BY RF-SCORE:    0.00 PKD
ROOT
HETATM    1  O   UNL     1     -13.382  12.943  64.832  1.00  0.00    -0.716 OA 
HETATM    2  H   UNL     1     -14.283  12.916  64.531  1.00  0.00     0.000 HD 
HETATM    3  N   UNL     1     -13.010  13.784  65.592  1.00  0.00    -0.594 NA 
HETATM    4  H   UNL     1     -13.671  14.487  65.923  1.00  0.00     0.000 HD 
ENDROOT
BRANCH   3   5
HETATM    5 FE   UNL     1     -11.130  13.839  66.221  1.00  0.00    -0.285 Fe 
HETATM    6  C   UNL     1     -11.695  14.795  67.920  1.00  0.00    -0.341 C  
HETATM    7  C   UNL     1     -10.857  15.625  65.298  1.00  0.00    -0.406 C  
HETATM    8  C   UNL     1     -10.549  12.882  64.533  1.00  0.00    -0.382 C  
HETATM    9  C   UNL     1      -9.208  13.882  66.858  1.00  0.00    -0.259 C  
HETATM   10  C   UNL     1     -11.396  12.055  67.141  1.00  0.00    -0.333 C  
HETATM   11  N   UNL     1      -8.110  13.907  67.223  1.00  0.00    -0.171 NA 
HETATM   12  N   UNL     1     -10.700  16.644  64.773  1.00  0.00    -0.730 NA 
HETATM   13  N   UNL     1     -10.216  12.336  63.568  1.00  0.00    -0.421 NA 
HETATM   14  N   UNL     1     -12.018  15.339  68.888  1.00  0.00    -0.301 NA 
HETATM   15  N   UNL     1     -11.548  11.035  67.667  1.00  0.00    -0.562 NA 
ENDBRANCH   3   5
TORSDOF 1
ENDMDL
MODEL        2
REMARK 921   NORMALIZED FREE ENERGY PREDICTED BY IDOCK:   -5.17 KCAL/MOL
REMARK 922        TOTAL FREE ENERGY PREDICTED BY IDOCK:   -5.57 KCAL/MOL
REMARK 923 INTER-LIGAND FREE ENERGY PREDICTED BY IDOCK:   -5.42 KCAL/MOL
REMARK 924 INTRA-LIGAND FREE ENERGY PREDICTED BY IDOCK:   -0.15 KCAL/MOL
REMARK 927      BINDING AFFINITY PREDICTED BY RF-SCORE:    0.00 PKD
ROOT
HETATM    1  O   UNL     1     -10.141  12.845  63.606  1.00  0.00    -0.676 OA 
HETATM    2  H   UNL     1      -9.713  12.486  62.838  1.00  0.00     0.000 HD 
HETATM    3  N   UNL     1      -9.555  13.559  64.361  1.00  0.00    -0.241 NA 
HETATM    4  H   UNL     1      -8.578  13.787  64.179  1.00  0.00     0.000 HD 
ENDROOT
BRANCH   3   5
HETATM    5 FE   UNL     1     -10.449  14.310  65.964  1.00  0.00    -0.262 Fe 
HETATM    6  C   UNL     1      -8.734  15.241  66.522  1.00  0.00    -0.279 C  
HETATM    7  C   UNL     1      -9.921  12.675  67.043  1.00  0.00    -0.219 C  
HETATM    8  C   UNL     1     -12.171  13.391  65.421  1.00  0.00    -0.452 C  
HETATM    9  C   UNL     1     -11.374  15.079  67.594  1.00  0.00    -0.334 C  
HETATM   10  C   UNL     1     -10.982  15.942  64.892  1.00  0.00    -0.411 C  
HETATM   11  N   UNL     1     -11.902  15.519  68.526  1.00  0.00    -0.324 NA 
HETATM   12  N   UNL     1      -9.621  11.743  67.660  1.00  0.00    -0.180 NA 
HETATM   13  N   UNL     1     -13.155  12.866  65.111  1.00  0.00    -0.708 NA 
HETATM   14  N   UNL     1      -7.756  15.771  66.839  1.00  0.00    -0.230 NA 
HETATM   15  N   UNL     1     -11.286  16.876  64.278  1.00  0.00    -1.103 NA 
ENDBRANCH   3   5
TORSDOF 1
ENDMDL
MODEL        3
REMARK 921   NORMALIZED FREE ENERGY PREDICTED BY IDOCK:   -5.14 KCAL/MOL
REMARK 922        TOTAL FREE ENERGY PREDICTED BY IDOCK:   -5.53 KCAL/MOL
REMARK 923 INTER-LIGAND FREE ENERGY PREDICTED BY IDOCK:   -5.46 KCAL/MOL
REMARK 924 INTRA-LIGAND FREE ENERGY PREDICTED BY IDOCK:   -0.07 KCAL/MOL
REMARK 927      BINDING AFFINITY PREDICTED BY RF-SCORE:    0.00 PKD
ROOT
HETATM    1  O   UNL     1     -13.409  12.872  64.951  1.00  0.00    -0.716 OA 
HETATM    2  H   UNL     1     -14.311  12.832  64.654  1.00  0.00     0.000 HD 
HETATM    3  N   UNL     1     -13.002  13.813  65.561  1.00  0.00    -0.672 NA 
HETATM    4  H   UNL     1     -13.632  14.588  65.766  1.00  0.00     0.000 HD 
ENDROOT
BRANCH   3   5
HETATM    5 FE   UNL     1     -11.120  13.895  66.181  1.00  0.00    -0.285 Fe 
HETATM    6  C   UNL     1     -11.336  12.133  67.165  1.00  0.00    -0.331 C  
HETATM    7  C   UNL     1     -11.696  14.902  67.845  1.00  0.00    -0.321 C  
HETATM    8  C   UNL     1     -10.885  15.653  65.202  1.00  0.00    -0.431 C  
HETATM    9  C   UNL     1      -9.193  13.984  66.803  1.00  0.00    -0.265 C  
HETATM   10  C   UNL     1     -10.538  12.892  64.521  1.00  0.00    -0.382 C  
HETATM   11  N   UNL     1      -8.093  14.034  67.158  1.00  0.00    -0.147 NA 
HETATM   12  N   UNL     1     -12.023  15.477  68.795  1.00  0.00    -0.304 NA 
HETATM   13  N   UNL     1     -10.751  16.657  64.643  1.00  0.00    -0.707 NA 
HETATM   14  N   UNL     1     -11.459  11.128  67.725  1.00  0.00    -0.483 NA 
HETATM   15  N   UNL     1     -10.206  12.319  63.572  1.00  0.00    -0.421 NA 
ENDBRANCH   3   5
TORSDOF 1
ENDMDL
MODEL        4
REMARK 921   NORMALIZED FREE ENERGY PREDICTED BY IDOCK:   -5.13 KCAL/MOL
REMARK 922        TOTAL FREE ENERGY PREDICTED BY IDOCK:   -5.53 KCAL/MOL
REMARK 923 INTER-LIGAND FREE ENERGY PREDICTED BY IDOCK:   -5.46 KCAL/MOL
REMARK 924 INTRA-LIGAND FREE ENERGY PREDICTED BY IDOCK:   -0.07 KCAL/MOL
REMARK 927      BINDING AFFINITY PREDICTED BY RF-SCORE:    0.00 PKD
ROOT
HETATM    1  O   UNL     1     -13.383  12.841  64.939  1.00  0.00    -0.736 OA 
HETATM    2  H   UNL     1     -14.279  12.815  64.621  1.00  0.00     0.000 HD 
HETATM    3  N   UNL     1     -12.947  13.812  65.477  1.00  0.00    -0.672 NA 
HETATM    4  H   UNL     1     -13.545  14.629  65.597  1.00  0.00     0.000 HD 
ENDROOT
BRANCH   3   5
HETATM    5 FE   UNL     1     -11.079  13.864  66.140  1.00  0.00    -0.285 Fe 
HETATM    6  C   UNL     1     -10.420  12.961  64.445  1.00  0.00    -0.396 C  
HETATM    7  C   UNL     1     -11.324  12.051  67.018  1.00  0.00    -0.336 C  
HETATM    8  C   UNL     1     -11.718  14.767  67.837  1.00  0.00    -0.341 C  
HETATM    9  C   UNL     1      -9.173  13.929  66.824  1.00  0.00    -0.254 C  
HETATM   10  C   UNL     1     -10.829  15.674  65.269  1.00  0.00    -0.406 C  
HETATM   11  N   UNL     1      -8.084  13.967  67.213  1.00  0.00    -0.171 NA 
HETATM   12  N   UNL     1     -11.462  11.017  67.519  1.00  0.00    -0.515 NA 
HETATM   13  N   UNL     1     -12.083  15.284  68.807  1.00  0.00    -0.227 NA 
HETATM   14  N   UNL     1     -10.046  12.448  63.479  1.00  0.00    -0.389 NA 
HETATM   15  N   UNL     1     -10.687  16.709  64.771  1.00  0.00    -0.730 NA 
ENDBRANCH   3   5
TORSDOF 1
ENDMDL
MODEL        5
REMARK 921   NORMALIZED FREE ENERGY PREDICTED BY IDOCK:   -5.13 KCAL/MOL
REMARK 922        TOTAL FREE ENERGY PREDICTED BY IDOCK:   -5.53 KCAL/MOL
REMARK 923 INTER-LIGAND FREE ENERGY PREDICTED BY IDOCK:   -5.46 KCAL/MOL
REMARK 924 INTRA-LIGAND FREE ENERGY PREDICTED BY IDOCK:   -0.07 KCAL/MOL
REMARK 927      BINDING AFFINITY PREDICTED BY RF-SCORE:    0.00 PKD
ROOT
HETATM    1  O   UNL     1     -13.363  12.708  64.702  1.00  0.00    -0.767 OA 
HETATM    2  H   UNL     1     -14.256  12.633  64.385  1.00  0.00     0.000 HD 
HETATM    3  N   UNL     1     -13.021  13.638  65.366  1.00  0.00    -0.699 NA 
HETATM    4  H   UNL     1     -13.697  14.365  65.596  1.00  0.00     0.000 HD 
ENDROOT
BRANCH   3   5
HETATM    5 FE   UNL     1     -11.158  13.793  66.029  1.00  0.00    -0.282 Fe 
HETATM    6  C   UNL     1     -10.973  15.623  65.170  1.00  0.00    -0.398 C  
HETATM    7  C   UNL     1     -10.465  12.920  64.333  1.00  0.00    -0.396 C  
HETATM    8  C   UNL     1     -11.326  11.969  66.895  1.00  0.00    -0.341 C  
HETATM    9  C   UNL     1      -9.259  13.945  66.717  1.00  0.00    -0.254 C  
HETATM   10  C   UNL     1     -11.842  14.661  67.724  1.00  0.00    -0.329 C  
HETATM   11  N   UNL     1      -8.174  14.033  67.111  1.00  0.00    -0.163 NA 
HETATM   12  N   UNL     1     -10.069  12.422  63.366  1.00  0.00    -0.392 NA 
HETATM   13  N   UNL     1     -11.421  10.927  67.389  1.00  0.00    -0.489 NA 
HETATM   14  N   UNL     1     -10.868  16.666  64.681  1.00  0.00    -0.822 NA 
HETATM   15  N   UNL     1     -12.235  15.158  68.693  1.00  0.00    -0.124 NA 
ENDBRANCH   3   5
TORSDOF 1
ENDMDL
MODEL        6
REMARK 921   NORMALIZED FREE ENERGY PREDICTED BY IDOCK:   -5.11 KCAL/MOL
REMARK 922        TOTAL FREE ENERGY PREDICTED BY IDOCK:   -5.51 KCAL/MOL
REMARK 923 INTER-LIGAND FREE ENERGY PREDICTED BY IDOCK:   -5.36 KCAL/MOL
REMARK 924 INTRA-LIGAND FREE ENERGY PREDICTED BY IDOCK:   -0.15 KCAL/MOL
REMARK 927      BINDING AFFINITY PREDICTED BY RF-SCORE:    0.00 PKD
ROOT
HETATM    1  O   UNL     1     -10.110  12.772  63.397  1.00  0.00    -0.613 OA 
HETATM    2  H   UNL     1      -9.656  12.457  62.624  1.00  0.00     0.000 HD 
HETATM    3  N   UNL     1      -9.548  13.431  64.217  1.00  0.00    -0.265 NA 
HETATM    4  H   UNL     1      -8.562  13.659  64.086  1.00  0.00     0.000 HD 
ENDROOT
BRANCH   3   5
HETATM    5 FE   UNL     1     -10.496  14.089  65.829  1.00  0.00    -0.262 Fe 
HETATM    6  C   UNL     1     -11.058  15.775  64.847  1.00  0.00    -0.399 C  
HETATM    7  C   UNL     1      -8.806  15.015  66.464  1.00  0.00    -0.251 C  
HETATM    8  C   UNL     1      -9.946  12.412  66.824  1.00  0.00    -0.225 C  
HETATM    9  C   UNL     1     -11.469  14.749  67.480  1.00  0.00    -0.354 C  
HETATM   10  C   UNL     1     -12.184  13.165  65.203  1.00  0.00    -0.450 C  
HETATM   11  N   UNL     1     -12.025  15.126  68.421  1.00  0.00    -0.258 NA 
HETATM   12  N   UNL     1      -7.843  15.544  66.828  1.00  0.00    -0.192 NA 
HETATM   13  N   UNL     1      -9.633  11.454  67.393  1.00  0.00    -0.173 NA 
HETATM   14  N   UNL     1     -11.379  16.734  64.287  1.00  0.00    -1.111 NA 
HETATM   15  N   UNL     1     -13.150  12.636  64.844  1.00  0.00    -0.809 NA 
ENDBRANCH   3   5
TORSDOF 1
ENDMDL
MODEL        7
REMARK 921   NORMALIZED FREE ENERGY PREDICTED BY IDOCK:   -4.97 KCAL/MOL
REMARK 922        TOTAL FREE ENERGY PREDICTED BY IDOCK:   -5.36 KCAL/MOL
REMARK 923 INTER-LIGAND FREE ENERGY PREDICTED BY IDOCK:   -5.27 KCAL/MOL
REMARK 924 INTRA-LIGAND FREE ENERGY PREDICTED BY IDOCK:   -0.09 KCAL/MOL
REMARK 927      BINDING AFFINITY PREDICTED BY RF-SCORE:    0.00 PKD
ROOT
HETATM    1  O   UNL     1     -10.002  12.649  63.532  1.00  0.00    -0.617 OA 
HETATM    2  H   UNL     1      -9.522  12.366  62.763  1.00  0.00     0.000 HD 
HETATM    3  N   UNL     1      -9.560  13.482  64.263  1.00  0.00    -0.213 NA 
HETATM    4  H   UNL     1      -8.651  13.896  64.059  1.00  0.00     0.000 HD 
ENDROOT
BRANCH   3   5
HETATM    5 FE   UNL     1     -10.564  14.074  65.868  1.00  0.00    -0.269 Fe 
HETATM    6  C   UNL     1     -12.272  13.255  65.139  1.00  0.00    -0.443 C  
HETATM    7  C   UNL     1     -11.011  15.832  64.959  1.00  0.00    -0.417 C  
HETATM    8  C   UNL     1      -8.868  14.894  66.612  1.00  0.00    -0.254 C  
HETATM    9  C   UNL     1     -11.578  14.676  67.515  1.00  0.00    -0.375 C  
HETATM   10  C   UNL     1     -10.118  12.323  66.781  1.00  0.00    -0.209 C  
HETATM   11  N   UNL     1     -12.158  15.019  68.456  1.00  0.00    -0.208 NA 
HETATM   12  N   UNL     1     -11.267  16.835  64.441  1.00  0.00    -1.107 NA 
HETATM   13  N   UNL     1      -7.899  15.364  67.037  1.00  0.00    -0.219 NA 
HETATM   14  N   UNL     1     -13.245  12.787  64.723  1.00  0.00    -0.754 NA 
HETATM   15  N   UNL     1      -9.863  11.322  67.303  1.00  0.00    -0.181 NA 
ENDBRANCH   3   5
TORSDOF 1
ENDMDL
MODEL        8
REMARK 921   NORMALIZED FREE ENERGY PREDICTED BY IDOCK:   -4.90 KCAL/MOL
REMARK 922        TOTAL FREE ENERGY PREDICTED BY IDOCK:   -5.28 KCAL/MOL
REMARK 923 INTER-LIGAND FREE ENERGY PREDICTED BY IDOCK:   -5.17 KCAL/MOL
REMARK 924 INTRA-LIGAND FREE ENERGY PREDICTED BY IDOCK:   -0.11 KCAL/MOL
REMARK 927      BINDING AFFINITY PREDICTED BY RF-SCORE:    0.00 PKD
ROOT
HETATM    1  O   UNL     1      -9.588  12.591  64.393  1.00  0.00    -0.513 OA 
HETATM    2  H   UNL     1      -9.263  12.212  63.584  1.00  0.00     0.000 HD 
HETATM    3  N   UNL     1      -9.888  13.743  64.458  1.00  0.00    -0.653 NA 
HETATM    4  H   UNL     1      -9.793  14.333  63.631  1.00  0.00     0.000 HD 
ENDROOT
BRANCH   3   5
HETATM    5 FE   UNL     1     -10.567  14.532  66.146  1.00  0.00    -0.272 Fe 
HETATM    6  C   UNL     1     -10.253  12.782  67.125  1.00  0.00    -0.233 C  
HETATM    7  C   UNL     1     -12.451  13.942  65.682  1.00  0.00    -0.505 C  
HETATM    8  C   UNL     1     -10.883  16.287  65.185  1.00  0.00    -0.318 C  
HETATM    9  C   UNL     1     -11.254  15.351  67.867  1.00  0.00    -0.329 C  
HETATM   10  C   UNL     1      -8.689  15.126  66.613  1.00  0.00    -0.272 C  
HETATM   11  N   UNL     1     -11.646  15.817  68.850  1.00  0.00    -0.379 NA 
HETATM   12  N   UNL     1     -13.527  13.606  65.418  1.00  0.00    -0.389 NA 
HETATM   13  N   UNL     1     -11.065  17.290  64.636  1.00  0.00    -0.959 NA 
HETATM   14  N   UNL     1     -10.073  11.785  67.683  1.00  0.00    -0.191 NA 
HETATM   15  N   UNL     1      -7.614  15.466  66.879  1.00  0.00    -0.155 NA 
ENDBRANCH   3   5
TORSDOF 1
ENDMDL
MODEL        9
REMARK 921   NORMALIZED FREE ENERGY PREDICTED BY IDOCK:   -4.79 KCAL/MOL
REMARK 922        TOTAL FREE ENERGY PREDICTED BY IDOCK:   -5.17 KCAL/MOL
REMARK 923 INTER-LIGAND FREE ENERGY PREDICTED BY IDOCK:   -5.10 KCAL/MOL
REMARK 924 INTRA-LIGAND FREE ENERGY PREDICTED BY IDOCK:   -0.07 KCAL/MOL
REMARK 927      BINDING AFFINITY PREDICTED BY RF-SCORE:    0.00 PKD
ROOT
HETATM    1  O   UNL     1      -9.948  13.268  64.100  1.00  0.00    -0.711 OA 
HETATM    2  H   UNL     1      -9.497  12.850  63.376  1.00  0.00     0.000 HD 
HETATM    3  N   UNL     1      -9.670  13.012  65.231  1.00  0.00    -0.497 NA 
HETATM    4  H   UNL     1      -8.935  12.332  65.424  1.00  0.00     0.000 HD 
ENDROOT
BRANCH   3   5
HETATM    5 FE   UNL     1     -10.611  13.887  66.741  1.00  0.00    -0.257 Fe 
HETATM    6  C   UNL     1     -12.313  14.020  65.642  1.00  0.00    -0.479 C  
HETATM    7  C   UNL     1     -10.027  15.710  66.070  1.00  0.00    -0.333 C  
HETATM    8  C   UNL     1      -8.923  13.759  67.853  1.00  0.00    -0.193 C  
HETATM    9  C   UNL     1     -11.567  14.772  68.293  1.00  0.00    -0.323 C  
HETATM   10  C   UNL     1     -11.195  12.070  67.417  1.00  0.00    -0.307 C  
HETATM   11  N   UNL     1     -12.113  15.277  69.179  1.00  0.00    -0.276 NA 
HETATM   12  N   UNL     1      -9.695  16.751  65.689  1.00  0.00    -0.553 NA 
HETATM   13  N   UNL     1      -7.959  13.686  68.489  1.00  0.00    -0.142 NA 
HETATM   14  N   UNL     1     -13.282  14.096  65.016  1.00  0.00    -0.532 NA 
HETATM   15  N   UNL     1     -11.528  11.031  67.804  1.00  0.00    -0.499 NA 
ENDBRANCH   3   5
TORSDOF 1
ENDMDL
MODEL       10
REMARK 921   NORMALIZED FREE ENERGY PREDICTED BY IDOCK:   -4.76 KCAL/MOL
REMARK 922        TOTAL FREE ENERGY PREDICTED BY IDOCK:   -5.13 KCAL/MOL
REMARK 923 INTER-LIGAND FREE ENERGY PREDICTED BY IDOCK:   -5.01 KCAL/MOL
REMARK 924 INTRA-LIGAND FREE ENERGY PREDICTED BY IDOCK:   -0.12 KCAL/MOL
REMARK 927      BINDING AFFINITY PREDICTED BY RF-SCORE:    0.00 PKD
ROOT
HETATM    1  O   UNL     1     -10.237  12.954  64.164  1.00  0.00    -0.518 OA 
HETATM    2  H   UNL     1      -9.849  12.500  63.425  1.00  0.00     0.000 HD 
HETATM    3  N   UNL     1      -9.780  12.850  65.261  1.00  0.00    -0.485 NA 
HETATM    4  H   UNL     1      -8.959  12.263  65.408  1.00  0.00     0.000 HD 
ENDROOT
BRANCH   3   5
HETATM    5 FE   UNL     1     -10.590  13.798  66.803  1.00  0.00    -0.254 Fe 
HETATM    6  C   UNL     1      -9.923  15.580  66.096  1.00  0.00    -0.309 C  
HETATM    7  C   UNL     1      -8.876  13.570  67.864  1.00  0.00    -0.190 C  
HETATM    8  C   UNL     1     -11.266  12.029  67.521  1.00  0.00    -0.294 C  
HETATM    9  C   UNL     1     -11.428  14.758  68.378  1.00  0.00    -0.314 C  
HETATM   10  C   UNL     1     -12.304  14.027  65.751  1.00  0.00    -0.480 C  
HETATM   11  N   UNL     1     -11.907  15.307  69.277  1.00  0.00    -0.328 NA 
HETATM   12  N   UNL     1      -7.898  13.440  68.470  1.00  0.00    -0.133 NA 
HETATM   13  N   UNL     1     -11.653  11.018  67.933  1.00  0.00    -0.545 NA 
HETATM   14  N   UNL     1      -9.543  16.596  65.692  1.00  0.00    -0.519 NA 
HETATM   15  N   UNL     1     -13.285  14.157  65.149  1.00  0.00    -0.646 NA 
ENDBRANCH   3   5
TORSDOF 1
ENDMDL
MODEL       11
REMARK 921   NORMALIZED FREE ENERGY PREDICTED BY IDOCK:   -4.75 KCAL/MOL
REMARK 922        TOTAL FREE ENERGY PREDICTED BY IDOCK:   -5.12 KCAL/MOL
REMARK 923 INTER-LIGAND FREE ENERGY PREDICTED BY IDOCK:   -5.01 KCAL/MOL
REMARK 924 INTRA-LIGAND FREE ENERGY PREDICTED BY IDOCK:   -0.11 KCAL/MOL
REMARK 927      BINDING AFFINITY PREDICTED BY RF-SCORE:    0.00 PKD
ROOT
HETATM    1  O   UNL     1     -10.113  14.204  64.303  1.00  0.00    -0.648 OA 
HETATM    2  H   UNL     1      -9.621  14.682  63.646  1.00  0.00     0.000 HD 
HETATM    3  N   UNL     1      -9.560  13.612  65.178  1.00  0.00    -0.506 NA 
HETATM    4  H   UNL     1      -8.541  13.619  65.221  1.00  0.00     0.000 HD 
ENDROOT
BRANCH   3   5
HETATM    5 FE   UNL     1     -10.587  12.613  66.549  1.00  0.00    -0.236 Fe 
HETATM    6  C   UNL     1     -10.112  10.849  65.664  1.00  0.00    -0.261 C  
HETATM    7  C   UNL     1     -12.261  12.741  65.410  1.00  0.00    -0.478 C  
HETATM    8  C   UNL     1     -11.069  14.364  67.447  1.00  0.00    -0.308 C  
HETATM    9  C   UNL     1     -11.632  11.602  67.960  1.00  0.00    -0.313 C  
HETATM   10  C   UNL     1      -8.921  12.485  67.691  1.00  0.00    -0.185 C  
HETATM   11  N   UNL     1     -12.228  11.024  68.765  1.00  0.00    -0.513 NA 
HETATM   12  N   UNL     1     -13.217  12.813  64.762  1.00  0.00    -0.754 NA 
HETATM   13  N   UNL     1     -11.344  15.364  67.961  1.00  0.00    -0.339 NA 
HETATM   14  N   UNL     1      -9.840   9.844  65.159  1.00  0.00    -0.313 NA 
HETATM   15  N   UNL     1      -7.967  12.412  68.344  1.00  0.00    -0.156 NA 
ENDBRANCH   3   5
TORSDOF 1
ENDMDL
MODEL       12
REMARK 921   NORMALIZED FREE ENERGY PREDICTED BY IDOCK:   -4.73 KCAL/MOL
REMARK 922        TOTAL FREE ENERGY PREDICTED BY IDOCK:   -5.11 KCAL/MOL
REMARK 923 INTER-LIGAND FREE ENERGY PREDICTED BY IDOCK:   -5.00 KCAL/MOL
REMARK 924 INTRA-LIGAND FREE ENERGY PREDICTED BY IDOCK:   -0.11 KCAL/MOL
REMARK 927      BINDING AFFINITY PREDICTED BY RF-SCORE:    0.00 PKD
ROOT
HETATM    1  O   UNL     1     -10.102  13.942  64.148  1.00  0.00    -0.681 OA 
HETATM    2  H   UNL     1      -9.623  14.447  63.502  1.00  0.00     0.000 HD 
HETATM    3  N   UNL     1      -9.649  13.738  65.233  1.00  0.00    -0.540 NA 
HETATM    4  H   UNL     1      -8.731  14.113  65.470  1.00  0.00     0.000 HD 
ENDROOT
BRANCH   3   5
HETATM    5 FE   UNL     1     -10.651  12.684  66.580  1.00  0.00    -0.232 Fe 
HETATM    6  C   UNL     1     -12.304  12.691  65.401  1.00  0.00    -0.436 C  
HETATM    7  C   UNL     1     -11.275  14.393  67.477  1.00  0.00    -0.315 C  
HETATM    8  C   UNL     1      -9.011  12.663  67.768  1.00  0.00    -0.189 C  
HETATM    9  C   UNL     1     -11.663  11.599  67.960  1.00  0.00    -0.281 C  
HETATM   10  C   UNL     1     -10.030  10.974  65.692  1.00  0.00    -0.248 C  
HETATM   11  N   UNL     1     -12.242  10.979  68.747  1.00  0.00    -0.513 NA 
HETATM   12  N   UNL     1     -11.632  15.368  67.990  1.00  0.00    -0.331 NA 
HETATM   13  N   UNL     1      -8.074  12.652  68.448  1.00  0.00    -0.155 NA 
HETATM   14  N   UNL     1     -13.245  12.695  64.729  1.00  0.00    -0.780 NA 
HETATM   15  N   UNL     1      -9.674   9.997  65.184  1.00  0.00    -0.296 NA 
ENDBRANCH   3   5
TORSDOF 1
ENDMDL
MODEL       13
REMARK 921   NORMALIZED FREE ENERGY PREDICTED BY IDOCK:   -4.71 KCAL/MOL
REMARK 922        TOTAL FREE ENERGY PREDICTED BY IDOCK:   -5.08 KCAL/MOL
REMARK 923 INTER-LIGAND FREE ENERGY PREDICTED BY IDOCK:   -4.97 KCAL/MOL
REMARK 924 INTRA-LIGAND FREE ENERGY PREDICTED BY IDOCK:   -0.11 KCAL/MOL
REMARK 927      BINDING AFFINITY PREDICTED BY RF-SCORE:    0.00 PKD
ROOT
HETATM    1  O   UNL     1      -9.915  13.701  64.028  1.00  0.00    -0.679 OA 
HETATM    2  H   UNL     1      -9.442  14.198  63.370  1.00  0.00     0.000 HD 
HETATM    3  N   UNL     1      -9.592  13.733  65.175  1.00  0.00    -0.511 NA 
HETATM    4  H   UNL     1      -8.794  14.303  65.455  1.00  0.00     0.000 HD 
ENDROOT
BRANCH   3   5
HETATM    5 FE   UNL     1     -10.579  12.696  66.547  1.00  0.00    -0.236 Fe 
HETATM    6  C   UNL     1     -11.266  14.409  67.391  1.00  0.00    -0.325 C  
HETATM    7  C   UNL     1      -8.959  12.737  67.767  1.00  0.00    -0.190 C  
HETATM    8  C   UNL     1      -9.905  10.976  65.716  1.00  0.00    -0.235 C  
HETATM    9  C   UNL     1     -11.591  11.627  67.939  1.00  0.00    -0.298 C  
HETATM   10  C   UNL     1     -12.198  12.649  65.333  1.00  0.00    -0.459 C  
HETATM   11  N   UNL     1     -12.170  11.017  68.734  1.00  0.00    -0.513 NA 
HETATM   12  N   UNL     1      -8.035  12.760  68.464  1.00  0.00    -0.129 NA 
HETATM   13  N   UNL     1      -9.521   9.993  65.242  1.00  0.00    -0.241 NA 
HETATM   14  N   UNL     1     -11.658  15.386  67.871  1.00  0.00    -0.307 NA 
HETATM   15  N   UNL     1     -13.124  12.622  64.638  1.00  0.00    -0.848 NA 
ENDBRANCH   3   5
TORSDOF 1
ENDMDL
MODEL       14
REMARK 921   NORMALIZED FREE ENERGY PREDICTED BY IDOCK:   -4.70 KCAL/MOL
REMARK 922        TOTAL FREE ENERGY PREDICTED BY IDOCK:   -5.07 KCAL/MOL
REMARK 923 INTER-LIGAND FREE ENERGY PREDICTED BY IDOCK:   -4.99 KCAL/MOL
REMARK 924 INTRA-LIGAND FREE ENERGY PREDICTED BY IDOCK:   -0.09 KCAL/MOL
REMARK 927      BINDING AFFINITY PREDICTED BY RF-SCORE:    0.00 PKD
ROOT
HETATM    1  O   UNL     1      -9.990  13.248  63.727  1.00  0.00    -0.699 OA 
HETATM    2  H   UNL     1      -9.530  13.669  63.010  1.00  0.00     0.000 HD 
HETATM    3  N   UNL     1      -9.668  13.434  64.860  1.00  0.00    -0.560 NA 
HETATM    4  H   UNL     1      -8.885  14.055  65.063  1.00  0.00     0.000 HD 
ENDROOT
BRANCH   3   5
HETATM    5 FE   UNL     1     -10.629  12.555  66.356  1.00  0.00    -0.232 Fe 
HETATM    6  C   UNL     1      -8.964  12.636  67.513  1.00  0.00    -0.187 C  
HETATM    7  C   UNL     1     -10.069  10.732  65.666  1.00  0.00    -0.267 C  
HETATM    8  C   UNL     1     -12.302  12.469  65.216  1.00  0.00    -0.403 C  
HETATM    9  C   UNL     1     -11.623  11.665  67.880  1.00  0.00    -0.298 C  
HETATM   10  C   UNL     1     -11.195  14.372  67.048  1.00  0.00    -0.328 C  
HETATM   11  N   UNL     1     -12.189  11.157  68.752  1.00  0.00    -0.535 NA 
HETATM   12  N   UNL     1      -9.749   9.691  65.273  1.00  0.00    -0.299 NA 
HETATM   13  N   UNL     1     -13.257  12.419  64.565  1.00  0.00    -0.771 NA 
HETATM   14  N   UNL     1      -8.014  12.684  68.173  1.00  0.00    -0.149 NA 
HETATM   15  N   UNL     1     -11.518  15.411  67.443  1.00  0.00    -0.258 NA 
ENDBRANCH   3   5
TORSDOF 1
ENDMDL
MODEL       15
REMARK 921   NORMALIZED FREE ENERGY PREDICTED BY IDOCK:   -4.64 KCAL/MOL
REMARK 922        TOTAL FREE ENERGY PREDICTED BY IDOCK:   -5.01 KCAL/MOL
REMARK 923 INTER-LIGAND FREE ENERGY PREDICTED BY IDOCK:   -4.93 KCAL/MOL
REMARK 924 INTRA-LIGAND FREE ENERGY PREDICTED BY IDOCK:   -0.07 KCAL/MOL
REMARK 927      BINDING AFFINITY PREDICTED BY RF-SCORE:    0.00 PKD
ROOT
HETATM    1  O   UNL     1      -9.110  11.780  65.529  1.00  0.00    -0.395 OA 
HETATM    2  H   UNL     1      -8.703  11.301  64.816  1.00  0.00     0.000 HD 
HETATM    3  N   UNL     1      -9.776  12.747  65.322  1.00  0.00    -0.476 NA 
HETATM    4  H   UNL     1      -9.910  13.067  64.363  1.00  0.00     0.000 HD 
ENDROOT
BRANCH   3   5
HETATM    5 FE   UNL     1     -10.626  13.744  66.811  1.00  0.00    -0.254 Fe 
HETATM    6  C   UNL     1     -11.363  12.019  67.585  1.00  0.00    -0.307 C  
HETATM    7  C   UNL     1     -12.314  13.979  65.710  1.00  0.00    -0.480 C  
HETATM    8  C   UNL     1      -9.896  15.476  66.054  1.00  0.00    -0.335 C  
HETATM    9  C   UNL     1     -11.484  14.771  68.332  1.00  0.00    -0.314 C  
HETATM   10  C   UNL     1      -8.944  13.516  67.913  1.00  0.00    -0.200 C  
HETATM   11  N   UNL     1     -11.974  15.357  69.201  1.00  0.00    -0.326 NA 
HETATM   12  N   UNL     1     -13.278  14.114  65.083  1.00  0.00    -0.646 NA 
HETATM   13  N   UNL     1      -9.480  16.465  65.622  1.00  0.00    -0.484 NA 
HETATM   14  N   UNL     1     -11.782  11.035  68.026  1.00  0.00    -0.582 NA 
HETATM   15  N   UNL     1      -7.981  13.385  68.543  1.00  0.00    -0.132 NA 
ENDBRANCH   3   5
TORSDOF 1
ENDMDL
MODEL       16
REMARK 921   NORMALIZED FREE ENERGY PREDICTED BY IDOCK:   -4.60 KCAL/MOL
REMARK 922        TOTAL FREE ENERGY PREDICTED BY IDOCK:   -4.97 KCAL/MOL
REMARK 923 INTER-LIGAND FREE ENERGY PREDICTED BY IDOCK:   -4.85 KCAL/MOL
REMARK 924 INTRA-LIGAND FREE ENERGY PREDICTED BY IDOCK:   -0.12 KCAL/MOL
REMARK 927      BINDING AFFINITY PREDICTED BY RF-SCORE:    0.00 PKD
ROOT
HETATM    1  O   UNL     1      -8.944  12.369  68.937  1.00  0.00    -0.378 OA 
HETATM    2  H   UNL     1      -8.188  12.269  69.505  1.00  0.00     0.000 HD 
HETATM    3  N   UNL     1      -9.130  13.378  68.330  1.00  0.00    -0.286 NA 
HETATM    4  H   UNL     1      -8.467  14.148  68.422  1.00  0.00     0.000 HD 
ENDROOT
BRANCH   3   5
HETATM    5 FE   UNL     1     -10.707  13.585  67.146  1.00  0.00    -0.252 Fe 
HETATM    6  C   UNL     1      -9.913  12.278  65.811  1.00  0.00    -0.254 C  
HETATM    7  C   UNL     1      -9.802  15.126  66.184  1.00  0.00    -0.300 C  
HETATM    8  C   UNL     1     -11.515  14.890  68.468  1.00  0.00    -0.315 C  
HETATM    9  C   UNL     1     -12.326  13.798  65.947  1.00  0.00    -0.476 C  
HETATM   10  C   UNL     1     -11.616  12.051  68.103  1.00  0.00    -0.340 C  
HETATM   11  N   UNL     1     -13.251  13.918  65.261  1.00  0.00    -0.721 NA 
HETATM   12  N   UNL     1      -9.287  16.005  65.635  1.00  0.00    -0.397 NA 
HETATM   13  N   UNL     1     -11.977  15.636  69.223  1.00  0.00    -0.360 NA 
HETATM   14  N   UNL     1      -9.461  11.532  65.051  1.00  0.00    -0.196 NA 
HETATM   15  N   UNL     1     -12.136  11.173  68.650  1.00  0.00    -0.575 NA 
ENDBRANCH   3   5
TORSDOF 1
ENDMDL
MODEL       17
REMARK 921   NORMALIZED FREE ENERGY PREDICTED BY IDOCK:   -4.57 KCAL/MOL
REMARK 922        TOTAL FREE ENERGY PREDICTED BY IDOCK:   -4.94 KCAL/MOL
REMARK 923 INTER-LIGAND FREE ENERGY PREDICTED BY IDOCK:   -4.84 KCAL/MOL
REMARK 924 INTRA-LIGAND FREE ENERGY PREDICTED BY IDOCK:   -0.10 KCAL/MOL
REMARK 927      BINDING AFFINITY PREDICTED BY RF-SCORE:    0.00 PKD
ROOT
HETATM    1  O   UNL     1      -8.943  12.371  68.941  1.00  0.00    -0.378 OA 
HETATM    2  H   UNL     1      -8.177  12.268  69.494  1.00  0.00     0.000 HD 
HETATM    3  N   UNL     1      -9.133  13.378  68.332  1.00  0.00    -0.286 NA 
HETATM    4  H   UNL     1      -8.463  14.143  68.407  1.00  0.00     0.000 HD 
ENDROOT
BRANCH   3   5
HETATM    5 FE   UNL     1     -10.731  13.591  67.177  1.00  0.00    -0.252 Fe 
HETATM    6  C   UNL     1     -11.557  14.884  68.507  1.00  0.00    -0.323 C  
HETATM    7  C   UNL     1     -11.637  12.037  68.115  1.00  0.00    -0.340 C  
HETATM    8  C   UNL     1      -9.921  12.306  65.837  1.00  0.00    -0.254 C  
HETATM    9  C   UNL     1     -12.355  13.809  65.986  1.00  0.00    -0.457 C  
HETATM   10  C   UNL     1      -9.832  15.141  66.234  1.00  0.00    -0.295 C  
HETATM   11  N   UNL     1     -13.283  13.934  65.306  1.00  0.00    -0.721 NA 
HETATM   12  N   UNL     1     -12.154  11.151  68.650  1.00  0.00    -0.575 NA 
HETATM   13  N   UNL     1      -9.459  11.571  65.072  1.00  0.00    -0.196 NA 
HETATM   14  N   UNL     1     -12.027  15.621  69.264  1.00  0.00    -0.360 NA 
HETATM   15  N   UNL     1      -9.318  16.027  65.696  1.00  0.00    -0.397 NA 
ENDBRANCH   3   5
TORSDOF 1
ENDMDL
MODEL       18
REMARK 921   NORMALIZED FREE ENERGY PREDICTED BY IDOCK:   -4.56 KCAL/MOL
REMARK 922        TOTAL FREE ENERGY PREDICTED BY IDOCK:   -4.92 KCAL/MOL
REMARK 923 INTER-LIGAND FREE ENERGY PREDICTED BY IDOCK:   -4.85 KCAL/MOL
REMARK 924 INTRA-LIGAND FREE ENERGY PREDICTED BY IDOCK:   -0.07 KCAL/MOL
REMARK 927      BINDING AFFINITY PREDICTED BY RF-SCORE:    0.00 PKD
ROOT
HETATM    1  O   UNL     1      -8.789  14.226  69.130  1.00  0.00    -0.378 OA 
HETATM    2  H   UNL     1      -8.066  14.124  69.738  1.00  0.00     0.000 HD 
HETATM    3  N   UNL     1      -9.175  13.311  68.471  1.00  0.00    -0.355 NA 
HETATM    4  H   UNL     1      -8.720  12.402  68.560  1.00  0.00     0.000 HD 
ENDROOT
BRANCH   3   5
HETATM    5 FE   UNL     1     -10.686  13.525  67.204  1.00  0.00    -0.252 Fe 
HETATM    6  C   UNL     1     -11.705  12.027  68.119  1.00  0.00    -0.333 C  
HETATM    7  C   UNL     1      -9.837  12.183  65.940  1.00  0.00    -0.247 C  
HETATM    8  C   UNL     1      -9.684  15.024  66.280  1.00  0.00    -0.291 C  
HETATM    9  C   UNL     1     -12.227  13.757  65.910  1.00  0.00    -0.466 C  
HETATM   10  C   UNL     1     -11.537  14.866  68.459  1.00  0.00    -0.323 C  
HETATM   11  N   UNL     1     -13.108  13.889  65.171  1.00  0.00    -0.764 NA 
HETATM   12  N   UNL     1      -9.353  11.418  65.219  1.00  0.00    -0.204 NA 
HETATM   13  N   UNL     1      -9.112  15.880  65.752  1.00  0.00    -0.330 NA 
HETATM   14  N   UNL     1     -12.286  11.173  68.642  1.00  0.00    -0.549 NA 
HETATM   15  N   UNL     1     -12.023  15.633  69.177  1.00  0.00    -0.357 NA 
ENDBRANCH   3   5
TORSDOF 1
ENDMDL
MODEL       19
REMARK 921   NORMALIZED FREE ENERGY PREDICTED BY IDOCK:   -4.55 KCAL/MOL
REMARK 922        TOTAL FREE ENERGY PREDICTED BY IDOCK:   -4.91 KCAL/MOL
REMARK 923 INTER-LIGAND FREE ENERGY PREDICTED BY IDOCK:   -4.80 KCAL/MOL
REMARK 924 INTRA-LIGAND FREE ENERGY PREDICTED BY IDOCK:   -0.12 KCAL/MOL
REMARK 927      BINDING AFFINITY PREDICTED BY RF-SCORE:    0.00 PKD
ROOT
HETATM    1  O   UNL     1      -9.436  15.060  65.442  1.00  0.00    -0.419 OA 
HETATM    2  H   UNL     1      -8.989  15.585  64.788  1.00  0.00     0.000 HD 
HETATM    3  N   UNL     1      -9.698  13.914  65.241  1.00  0.00    -0.572 NA 
HETATM    4  H   UNL     1      -9.438  13.490  64.351  1.00  0.00     0.000 HD 
ENDROOT
BRANCH   3   5
HETATM    5 FE   UNL     1     -10.630  12.821  66.607  1.00  0.00    -0.239 Fe 
HETATM    6  C   UNL     1      -8.973  12.819  67.780  1.00  0.00    -0.190 C  
HETATM    7  C   UNL     1      -9.998  11.120  65.700  1.00  0.00    -0.249 C  
HETATM    8  C   UNL     1     -12.294  12.814  65.452  1.00  0.00    -0.470 C  
HETATM    9  C   UNL     1     -11.594  11.710  68.001  1.00  0.00    -0.313 C  
HETATM   10  C   UNL     1     -11.267  14.514  67.515  1.00  0.00    -0.321 C  
HETATM   11  N   UNL     1     -12.144  11.077  68.798  1.00  0.00    -0.535 NA 
HETATM   12  N   UNL     1      -9.637  10.149  65.184  1.00  0.00    -0.269 NA 
HETATM   13  N   UNL     1     -13.244  12.810  64.792  1.00  0.00    -0.754 NA 
HETATM   14  N   UNL     1      -8.029  12.819  68.448  1.00  0.00    -0.149 NA 
HETATM   15  N   UNL     1     -11.631  15.483  68.034  1.00  0.00    -0.317 NA 
ENDBRANCH   3   5
TORSDOF 1
ENDMDL
MODEL       20
REMARK 921   NORMALIZED FREE ENERGY PREDICTED BY IDOCK:   -4.55 KCAL/MOL
REMARK 922        TOTAL FREE ENERGY PREDICTED BY IDOCK:   -4.91 KCAL/MOL
REMARK 923 INTER-LIGAND FREE ENERGY PREDICTED BY IDOCK:   -4.77 KCAL/MOL
REMARK 924 INTRA-LIGAND FREE ENERGY PREDICTED BY IDOCK:   -0.14 KCAL/MOL
REMARK 927      BINDING AFFINITY PREDICTED BY RF-SCORE:    0.00 PKD
ROOT
HETATM    1  O   UNL     1     -12.256  10.992  68.349  1.00  0.00    -0.770 OA 
HETATM    2  H   UNL     1     -12.751  10.212  68.572  1.00  0.00     0.000 HD 
HETATM    3  N   UNL     1     -11.721  11.101  67.289  1.00  0.00    -0.506 NA 
HETATM    4  H   UNL     1     -11.794  10.343  66.610  1.00  0.00     0.000 HD 
ENDROOT
BRANCH   3   5
HETATM    5 FE   UNL     1     -10.689  12.729  66.824  1.00  0.00    -0.240 Fe 
HETATM    6  C   UNL     1     -12.255  13.451  65.753  1.00  0.00    -0.458 C  
HETATM    7  C   UNL     1      -9.965  11.816  65.163  1.00  0.00    -0.253 C  
HETATM    8  C   UNL     1      -9.118  12.025  67.891  1.00  0.00    -0.183 C  
HETATM    9  C   UNL     1      -9.629  14.393  66.362  1.00  0.00    -0.299 C  
HETATM   10  C   UNL     1     -11.405  13.645  68.481  1.00  0.00    -0.290 C  
HETATM   11  N   UNL     1      -9.025  15.344  66.098  1.00  0.00    -0.310 NA 
HETATM   12  N   UNL     1      -9.552  11.296  64.216  1.00  0.00    -0.237 NA 
HETATM   13  N   UNL     1      -8.220  11.624  68.501  1.00  0.00    -0.153 NA 
HETATM   14  N   UNL     1     -13.147  13.863  65.143  1.00  0.00    -0.764 NA 
HETATM   15  N   UNL     1     -11.815  14.169  69.429  1.00  0.00    -0.309 NA 
ENDBRANCH   3   5
TORSDOF 1
ENDMDL
MODEL       21
REMARK 921   NORMALIZED FREE ENERGY PREDICTED BY IDOCK:   -4.54 KCAL/MOL
REMARK 922        TOTAL FREE ENERGY PREDICTED BY IDOCK:   -4.90 KCAL/MOL
REMARK 923 INTER-LIGAND FREE ENERGY PREDICTED BY IDOCK:   -4.78 KCAL/MOL
REMARK 924 INTRA-LIGAND FREE ENERGY PREDICTED BY IDOCK:   -0.12 KCAL/MOL
REMARK 927      BINDING AFFINITY PREDICTED BY RF-SCORE:    0.00 PKD
ROOT
HETATM    1  O   UNL     1     -12.246  15.242  68.628  1.00  0.00    -0.575 OA 
HETATM    2  H   UNL     1     -12.909  15.817  68.992  1.00  0.00     0.000 HD 
HETATM    3  N   UNL     1     -12.414  14.690  67.585  1.00  0.00    -0.452 NA 
HETATM    4  H   UNL     1     -13.285  14.836  67.075  1.00  0.00     0.000 HD 
ENDROOT
BRANCH   3   5
HETATM    5 FE   UNL     1     -11.029  13.491  66.824  1.00  0.00    -0.268 Fe 
HETATM    6  C   UNL     1     -11.658  11.965  68.006  1.00  0.00    -0.332 C  
HETATM    7  C   UNL     1      -9.717  14.071  68.260  1.00  0.00    -0.225 C  
HETATM    8  C   UNL     1     -10.390  15.002  65.636  1.00  0.00    -0.353 C  
HETATM    9  C   UNL     1      -9.616  12.273  66.035  1.00  0.00    -0.222 C  
HETATM   10  C   UNL     1     -12.332  12.911  65.388  1.00  0.00    -0.485 C  
HETATM   11  N   UNL     1      -8.809  11.576  65.585  1.00  0.00    -0.084 NA 
HETATM   12  N   UNL     1      -8.968  14.400  69.078  1.00  0.00    -0.063 NA 
HETATM   13  N   UNL     1     -10.024  15.865  64.956  1.00  0.00    -0.340 NA 
HETATM   14  N   UNL     1     -12.018  11.096  68.679  1.00  0.00    -0.546 NA 
HETATM   15  N   UNL     1     -13.077  12.580  64.566  1.00  0.00    -0.839 NA 
ENDBRANCH   3   5
TORSDOF 1
ENDMDL
MODEL       22
REMARK 921   NORMALIZED FREE ENERGY PREDICTED BY IDOCK:   -4.54 KCAL/MOL
REMARK 922        TOTAL FREE ENERGY PREDICTED BY IDOCK:   -4.90 KCAL/MOL
REMARK 923 INTER-LIGAND FREE ENERGY PREDICTED BY IDOCK:   -4.76 KCAL/MOL
REMARK 924 INTRA-LIGAND FREE ENERGY PREDICTED BY IDOCK:   -0.14 KCAL/MOL
REMARK 927      BINDING AFFINITY PREDICTED BY RF-SCORE:    0.00 PKD
ROOT
HETATM    1  O   UNL     1     -12.337  11.084  68.446  1.00  0.00    -0.762 OA 
HETATM    2  H   UNL     1     -12.845  10.315  68.680  1.00  0.00     0.000 HD 
HETATM    3  N   UNL     1     -11.828  11.183  67.373  1.00  0.00    -0.513 NA 
HETATM    4  H   UNL     1     -11.938  10.430  66.694  1.00  0.00     0.000 HD 
ENDROOT
BRANCH   3   5
HETATM    5 FE   UNL     1     -10.770  12.788  66.885  1.00  0.00    -0.234 Fe 
HETATM    6  C   UNL     1     -10.118  11.880  65.191  1.00  0.00    -0.261 C  
HETATM    7  C   UNL     1      -9.170  12.061  67.899  1.00  0.00    -0.190 C  
HETATM    8  C   UNL     1     -11.413  13.711  68.570  1.00  0.00    -0.312 C  
HETATM    9  C   UNL     1      -9.699  14.436  66.392  1.00  0.00    -0.302 C  
HETATM   10  C   UNL     1     -12.364  13.521  65.875  1.00  0.00    -0.456 C  
HETATM   11  N   UNL     1      -9.088  15.377  66.109  1.00  0.00    -0.321 NA 
HETATM   12  N   UNL     1      -8.257  11.647  68.477  1.00  0.00    -0.153 NA 
HETATM   13  N   UNL     1     -11.780  14.238  69.533  1.00  0.00    -0.295 NA 
HETATM   14  N   UNL     1      -9.747  11.363  64.225  1.00  0.00    -0.238 NA 
HETATM   15  N   UNL     1     -13.275  13.940  65.297  1.00  0.00    -0.721 NA 
ENDBRANCH   3   5
TORSDOF 1
ENDMDL
MODEL       23
REMARK 921   NORMALIZED FREE ENERGY PREDICTED BY IDOCK:   -4.54 KCAL/MOL
REMARK 922        TOTAL FREE ENERGY PREDICTED BY IDOCK:   -4.90 KCAL/MOL
REMARK 923 INTER-LIGAND FREE ENERGY PREDICTED BY IDOCK:   -4.81 KCAL/MOL
REMARK 924 INTRA-LIGAND FREE ENERGY PREDICTED BY IDOCK:   -0.09 KCAL/MOL
REMARK 927      BINDING AFFINITY PREDICTED BY RF-SCORE:    0.00 PKD
ROOT
HETATM    1  O   UNL     1     -12.312  11.086  68.517  1.00  0.00    -0.762 OA 
HETATM    2  H   UNL     1     -12.841  10.331  68.747  1.00  0.00     0.000 HD 
HETATM    3  N   UNL     1     -11.872  11.220  67.417  1.00  0.00    -0.560 NA 
HETATM    4  H   UNL     1     -12.067  10.511  66.710  1.00  0.00     0.000 HD 
ENDROOT
BRANCH   3   5
HETATM    5 FE   UNL     1     -10.769  12.797  66.938  1.00  0.00    -0.234 Fe 
HETATM    6  C   UNL     1     -11.463  13.810  68.554  1.00  0.00    -0.307 C  
HETATM    7  C   UNL     1     -12.287  13.537  65.813  1.00  0.00    -0.468 C  
HETATM    8  C   UNL     1     -10.063  11.799  65.322  1.00  0.00    -0.262 C  
HETATM    9  C   UNL     1      -9.632  14.399  66.445  1.00  0.00    -0.299 C  
HETATM   10  C   UNL     1      -9.250  12.062  68.056  1.00  0.00    -0.192 C  
HETATM   11  N   UNL     1      -8.982  15.315  66.164  1.00  0.00    -0.283 NA 
HETATM   12  N   UNL     1     -13.152  13.960  65.172  1.00  0.00    -0.764 NA 
HETATM   13  N   UNL     1      -9.660  11.229  64.399  1.00  0.00    -0.237 NA 
HETATM   14  N   UNL     1     -11.859  14.387  69.475  1.00  0.00    -0.309 NA 
HETATM   15  N   UNL     1      -8.381  11.642  68.695  1.00  0.00    -0.135 NA 
ENDBRANCH   3   5
TORSDOF 1
ENDMDL
MODEL       24
REMARK 921   NORMALIZED FREE ENERGY PREDICTED BY IDOCK:   -4.53 KCAL/MOL
REMARK 922        TOTAL FREE ENERGY PREDICTED BY IDOCK:   -4.90 KCAL/MOL
REMARK 923 INTER-LIGAND FREE ENERGY PREDICTED BY IDOCK:   -4.82 KCAL/MOL
REMARK 924 INTRA-LIGAND FREE ENERGY PREDICTED BY IDOCK:   -0.07 KCAL/MOL
REMARK 927      BINDING AFFINITY PREDICTED BY RF-SCORE:    0.00 PKD
ROOT
HETATM    1  O   UNL     1      -8.625  14.222  69.105  1.00  0.00    -0.356 OA 
HETATM    2  H   UNL     1      -7.897  14.089  69.701  1.00  0.00     0.000 HD 
HETATM    3  N   UNL     1      -9.155  13.302  68.563  1.00  0.00    -0.352 NA 
HETATM    4  H   UNL     1      -8.821  12.355  68.742  1.00  0.00     0.000 HD 
ENDROOT
BRANCH   3   5
HETATM    5 FE   UNL     1     -10.675  13.581  67.320  1.00  0.00    -0.243 Fe 
HETATM    6  C   UNL     1      -9.706  15.130  66.435  1.00  0.00    -0.278 C  
HETATM    7  C   UNL     1     -11.536  14.863  68.636  1.00  0.00    -0.318 C  
HETATM    8  C   UNL     1     -11.656  12.036  68.190  1.00  0.00    -0.340 C  
HETATM    9  C   UNL     1     -12.230  13.853  66.050  1.00  0.00    -0.462 C  
HETATM   10  C   UNL     1      -9.823  12.301  66.004  1.00  0.00    -0.248 C  
HETATM   11  N   UNL     1     -13.117  14.008  65.324  1.00  0.00    -0.765 NA 
HETATM   12  N   UNL     1     -12.028  15.595  69.386  1.00  0.00    -0.364 NA 
HETATM   13  N   UNL     1     -12.217  11.154  68.686  1.00  0.00    -0.549 NA 
HETATM   14  N   UNL     1      -9.153  16.012  65.931  1.00  0.00    -0.365 NA 
HETATM   15  N   UNL     1      -9.336  11.568  65.252  1.00  0.00    -0.183 NA 
ENDBRANCH   3   5
TORSDOF 1
ENDMDL
MODEL       25
REMARK 921   NORMALIZED FREE ENERGY PREDICTED BY IDOCK:   -4.51 KCAL/MOL
REMARK 922        TOTAL FREE ENERGY PREDICTED BY IDOCK:   -4.88 KCAL/MOL
REMARK 923 INTER-LIGAND FREE ENERGY PREDICTED BY IDOCK:   -4.78 KCAL/MOL
REMARK 924 INTRA-LIGAND FREE ENERGY PREDICTED BY IDOCK:   -0.10 KCAL/MOL
REMARK 927      BINDING AFFINITY PREDICTED BY RF-SCORE:    0.00 PKD
ROOT
HETATM    1  O   UNL     1     -12.205  10.956  68.437  1.00  0.00    -0.813 OA 
HETATM    2  H   UNL     1     -12.715  10.175  68.616  1.00  0.00     0.000 HD 
HETATM    3  N   UNL     1     -11.774  11.175  67.348  1.00  0.00    -0.548 NA 
HETATM    4  H   UNL     1     -11.955  10.512  66.594  1.00  0.00     0.000 HD 
ENDROOT
BRANCH   3   5
HETATM    5 FE   UNL     1     -10.709  12.807  66.976  1.00  0.00    -0.232 Fe 
HETATM    6  C   UNL     1      -9.135  12.052  68.012  1.00  0.00    -0.188 C  
HETATM    7  C   UNL     1     -11.417  13.673  68.668  1.00  0.00    -0.307 C  
HETATM    8  C   UNL     1     -12.268  13.574  65.935  1.00  0.00    -0.460 C  
HETATM    9  C   UNL     1      -9.627  14.474  66.583  1.00  0.00    -0.276 C  
HETATM   10  C   UNL     1     -10.002  11.948  65.284  1.00  0.00    -0.251 C  
HETATM   11  N   UNL     1      -9.008  15.425  66.358  1.00  0.00    -0.303 NA 
HETATM   12  N   UNL     1     -11.820  14.169  69.633  1.00  0.00    -0.303 NA 
HETATM   13  N   UNL     1     -13.159  14.012  65.340  1.00  0.00    -0.739 NA 
HETATM   14  N   UNL     1      -8.238  11.622  68.603  1.00  0.00    -0.140 NA 
HETATM   15  N   UNL     1      -9.597  11.457  64.317  1.00  0.00    -0.216 NA 
ENDBRANCH   3   5
TORSDOF 1
ENDMDL
MODEL       26
REMARK 921   NORMALIZED FREE ENERGY PREDICTED BY IDOCK:   -4.49 KCAL/MOL
REMARK 922        TOTAL FREE ENERGY PREDICTED BY IDOCK:   -4.85 KCAL/MOL
REMARK 923 INTER-LIGAND FREE ENERGY PREDICTED BY IDOCK:   -4.75 KCAL/MOL
REMARK 924 INTRA-LIGAND FREE ENERGY PREDICTED BY IDOCK:   -0.09 KCAL/MOL
REMARK 927      BINDING AFFINITY PREDICTED BY RF-SCORE:    0.00 PKD
ROOT
HETATM    1  O   UNL     1     -12.579  14.461  68.724  1.00  0.00    -0.548 OA 
HETATM    2  H   UNL     1     -13.144  15.099  69.144  1.00  0.00     0.000 HD 
HETATM    3  N   UNL     1     -12.125  14.658  67.639  1.00  0.00    -0.584 NA 
HETATM    4  H   UNL     1     -12.347  15.527  67.154  1.00  0.00     0.000 HD 
ENDROOT
BRANCH   3   5
HETATM    5 FE   UNL     1     -10.946  13.326  66.763  1.00  0.00    -0.262 Fe 
HETATM    6  C   UNL     1     -12.392  12.895  65.405  1.00  0.00    -0.485 C  
HETATM    7  C   UNL     1     -11.654  11.871  67.988  1.00  0.00    -0.332 C  
HETATM    8  C   UNL     1      -9.491  13.745  68.109  1.00  0.00    -0.212 C  
HETATM    9  C   UNL     1      -9.731  11.973  65.871  1.00  0.00    -0.239 C  
HETATM   10  C   UNL     1     -10.234  14.773  65.540  1.00  0.00    -0.374 C  
HETATM   11  N   UNL     1      -9.037  11.200  65.360  1.00  0.00    -0.199 NA 
HETATM   12  N   UNL     1     -12.057  11.041  68.686  1.00  0.00    -0.555 NA 
HETATM   13  N   UNL     1      -8.659  13.984  68.877  1.00  0.00    -0.023 NA 
HETATM   14  N   UNL     1     -13.216  12.650  64.631  1.00  0.00    -0.775 NA 
HETATM   15  N   UNL     1      -9.826  15.601  64.841  1.00  0.00    -0.163 NA 
ENDBRANCH   3   5
TORSDOF 1
ENDMDL
MODEL       27
REMARK 921   NORMALIZED FREE ENERGY PREDICTED BY IDOCK:   -4.46 KCAL/MOL
REMARK 922        TOTAL FREE ENERGY PREDICTED BY IDOCK:   -4.82 KCAL/MOL
REMARK 923 INTER-LIGAND FREE ENERGY PREDICTED BY IDOCK:   -4.71 KCAL/MOL
REMARK 924 INTRA-LIGAND FREE ENERGY PREDICTED BY IDOCK:   -0.11 KCAL/MOL
REMARK 927      BINDING AFFINITY PREDICTED BY RF-SCORE:    0.00 PKD
ROOT
HETATM    1  O   UNL     1     -12.251  15.366  68.785  1.00  0.00    -0.581 OA 
HETATM    2  H   UNL     1     -12.925  15.939  69.132  1.00  0.00     0.000 HD 
HETATM    3  N   UNL     1     -12.410  14.775  67.762  1.00  0.00    -0.518 NA 
HETATM    4  H   UNL     1     -13.285  14.887  67.250  1.00  0.00     0.000 HD 
ENDROOT
BRANCH   3   5
HETATM    5 FE   UNL     1     -11.003  13.579  67.039  1.00  0.00    -0.261 Fe 
HETATM    6  C   UNL     1      -9.708  14.182  68.482  1.00  0.00    -0.219 C  
HETATM    7  C   UNL     1     -10.346  15.063  65.821  1.00  0.00    -0.335 C  
HETATM    8  C   UNL     1     -12.283  12.964  65.594  1.00  0.00    -0.463 C  
HETATM    9  C   UNL     1      -9.575  12.348  66.298  1.00  0.00    -0.241 C  
HETATM   10  C   UNL     1     -11.656  12.094  68.250  1.00  0.00    -0.325 C  
HETATM   11  N   UNL     1      -8.759  11.644  65.876  1.00  0.00    -0.070 NA 
HETATM   12  N   UNL     1      -9.970  15.908  65.126  1.00  0.00    -0.402 NA 
HETATM   13  N   UNL     1     -13.013  12.613  64.768  1.00  0.00    -0.867 NA 
HETATM   14  N   UNL     1      -8.971  14.525  69.305  1.00  0.00     0.035 NA 
HETATM   15  N   UNL     1     -12.030  11.245  68.943  1.00  0.00    -0.462 NA 
ENDBRANCH   3   5
TORSDOF 1
ENDMDL
MODEL       28
REMARK 921   NORMALIZED FREE ENERGY PREDICTED BY IDOCK:   -4.42 KCAL/MOL
REMARK 922        TOTAL FREE ENERGY PREDICTED BY IDOCK:   -4.77 KCAL/MOL
REMARK 923 INTER-LIGAND FREE ENERGY PREDICTED BY IDOCK:   -4.69 KCAL/MOL
REMARK 924 INTRA-LIGAND FREE ENERGY PREDICTED BY IDOCK:   -0.08 KCAL/MOL
REMARK 927      BINDING AFFINITY PREDICTED BY RF-SCORE:    0.00 PKD
ROOT
HETATM    1  O   UNL     1     -12.649  14.563  68.804  1.00  0.00    -0.555 OA 
HETATM    2  H   UNL     1     -13.300  15.133  69.195  1.00  0.00     0.000 HD 
HETATM    3  N   UNL     1     -12.470  14.549  67.625  1.00  0.00    -0.514 NA 
HETATM    4  H   UNL     1     -13.027  15.159  67.026  1.00  0.00     0.000 HD 
ENDROOT
BRANCH   3   5
HETATM    5 FE   UNL     1     -11.110  13.359  66.808  1.00  0.00    -0.265 Fe 
HETATM    6  C   UNL     1     -10.441  14.876  65.638  1.00  0.00    -0.349 C  
HETATM    7  C   UNL     1     -12.428  12.817  65.364  1.00  0.00    -0.416 C  
HETATM    8  C   UNL     1     -11.763  11.833  67.970  1.00  0.00    -0.293 C  
HETATM    9  C   UNL     1      -9.719  12.137  65.986  1.00  0.00    -0.244 C  
HETATM   10  C   UNL     1      -9.792  13.892  68.248  1.00  0.00    -0.231 C  
HETATM   11  N   UNL     1      -8.924  11.440  65.517  1.00  0.00    -0.144 NA 
HETATM   12  N   UNL     1     -13.179  12.508  64.539  1.00  0.00    -0.779 NA 
HETATM   13  N   UNL     1     -12.136  10.961  68.634  1.00  0.00    -0.516 NA 
HETATM   14  N   UNL     1     -10.060  15.742  64.972  1.00  0.00    -0.411 NA 
HETATM   15  N   UNL     1      -9.038  14.197  69.072  1.00  0.00     0.022 NA 
ENDBRANCH   3   5
TORSDOF 1
ENDMDL
MODEL       29
REMARK 921   NORMALIZED FREE ENERGY PREDICTED BY IDOCK:   -4.33 KCAL/MOL
REMARK 922        TOTAL FREE ENERGY PREDICTED BY IDOCK:   -4.68 KCAL/MOL
REMARK 923 INTER-LIGAND FREE ENERGY PREDICTED BY IDOCK:   -4.53 KCAL/MOL
REMARK 924 INTRA-LIGAND FREE ENERGY PREDICTED BY IDOCK:   -0.15 KCAL/MOL
REMARK 927      BINDING AFFINITY PREDICTED BY RF-SCORE:    0.00 PKD
ROOT
HETATM    1  O   UNL     1     -10.449  17.326  65.255  1.00  0.00    -0.661 OA 
HETATM    2  H   UNL     1     -10.975  16.909  64.582  1.00  0.00     0.000 HD 
HETATM    3  N   UNL     1      -9.498  16.780  65.722  1.00  0.00    -0.527 NA 
HETATM    4  H   UNL     1      -9.244  15.848  65.394  1.00  0.00     0.000 HD 
ENDROOT
BRANCH   3   5
HETATM    5 FE   UNL     1      -8.401  17.652  67.126  1.00  0.00    -0.194 Fe 
HETATM    6  C   UNL     1      -7.112  18.354  65.724  1.00  0.00    -0.223 C  
HETATM    7  C   UNL     1      -7.284  15.969  67.320  1.00  0.00    -0.206 C  
HETATM    8  C   UNL     1      -9.679  16.961  68.538  1.00  0.00    -0.264 C  
HETATM    9  C   UNL     1      -7.293  18.546  68.566  1.00  0.00    -0.295 C  
HETATM   10  C   UNL     1      -9.514  19.332  66.939  1.00  0.00    -0.325 C  
HETATM   11  N   UNL     1      -6.659  19.057  69.389  1.00  0.00    -0.302 NA 
HETATM   12  N   UNL     1      -6.646  15.010  67.431  1.00  0.00    -0.296 NA 
HETATM   13  N   UNL     1     -10.409  16.567  69.345  1.00  0.00    -0.301 NA 
HETATM   14  N   UNL     1      -6.378  18.755  64.925  1.00  0.00    -0.485 NA 
HETATM   15  N   UNL     1     -10.151  20.293  66.832  1.00  0.00    -0.452 NA 
ENDBRANCH   3   5
TORSDOF 1
ENDMDL
MODEL       30
REMARK 921   NORMALIZED FREE ENERGY PREDICTED BY IDOCK:   -4.30 KCAL/MOL
REMARK 922        TOTAL FREE ENERGY PREDICTED BY IDOCK:   -4.65 KCAL/MOL
REMARK 923 INTER-LIGAND FREE ENERGY PREDICTED BY IDOCK:   -4.50 KCAL/MOL
REMARK 924 INTRA-LIGAND FREE ENERGY PREDICTED BY IDOCK:   -0.15 KCAL/MOL
REMARK 927      BINDING AFFINITY PREDICTED BY RF-SCORE:    0.00 PKD
ROOT
HETATM    1  O   UNL     1      -7.336  18.869  65.351  1.00  0.00    -0.478 OA 
HETATM    2  H   UNL     1      -6.652  19.069  64.722  1.00  0.00     0.000 HD 
HETATM    3  N   UNL     1      -7.539  17.749  65.707  1.00  0.00    -0.547 NA 
HETATM    4  H   UNL     1      -6.968  16.993  65.330  1.00  0.00     0.000 HD 
ENDROOT
BRANCH   3   5
HETATM    5 FE   UNL     1      -8.967  17.334  67.019  1.00  0.00    -0.203 Fe 
HETATM    6  C   UNL     1      -8.502  15.359  66.944  1.00  0.00    -0.252 C  
HETATM    7  C   UNL     1     -10.301  17.084  65.511  1.00  0.00    -0.143 C  
HETATM    8  C   UNL     1      -9.442  19.301  67.108  1.00  0.00    -0.323 C  
HETATM    9  C   UNL     1     -10.423  16.921  68.366  1.00  0.00    -0.355 C  
HETATM   10  C   UNL     1      -7.641  17.585  68.528  1.00  0.00    -0.266 C  
HETATM   11  N   UNL     1     -11.254  16.685  69.135  1.00  0.00    -0.222 NA 
HETATM   12  N   UNL     1     -11.063  16.941  64.652  1.00  0.00    -0.990 NA 
HETATM   13  N   UNL     1      -9.714  20.425  67.160  1.00  0.00    -0.448 NA 
HETATM   14  N   UNL     1      -8.237  14.234  66.901  1.00  0.00    -0.084 NA 
HETATM   15  N   UNL     1      -6.883  17.728  69.391  1.00  0.00    -0.189 NA 
ENDBRANCH   3   5
TORSDOF 1
ENDMDL
MODEL       31
REMARK 921   NORMALIZED FREE ENERGY PREDICTED BY IDOCK:   -4.29 KCAL/MOL
REMARK 922        TOTAL FREE ENERGY PREDICTED BY IDOCK:   -4.64 KCAL/MOL
REMARK 923 INTER-LIGAND FREE ENERGY PREDICTED BY IDOCK:   -4.52 KCAL/MOL
REMARK 924 INTRA-LIGAND FREE ENERGY PREDICTED BY IDOCK:   -0.12 KCAL/MOL
REMARK 927      BINDING AFFINITY PREDICTED BY RF-SCORE:    0.00 PKD
ROOT
HETATM    1  O   UNL     1     -12.522  15.531  69.378  1.00  0.00    -0.598 OA 
HETATM    2  H   UNL     1     -13.056  16.178  69.825  1.00  0.00     0.000 HD 
HETATM    3  N   UNL     1     -12.001  15.777  68.334  1.00  0.00    -0.438 NA 
HETATM    4  H   UNL     1     -12.131  16.696  67.913  1.00  0.00     0.000 HD 
ENDROOT
BRANCH   3   5
HETATM    5 FE   UNL     1     -10.886  14.427  67.402  1.00  0.00    -0.258 Fe 
HETATM    6  C   UNL     1     -12.407  14.009  66.125  1.00  0.00    -0.458 C  
HETATM    7  C   UNL     1     -11.544  12.985  68.669  1.00  0.00    -0.318 C  
HETATM    8  C   UNL     1      -9.356  14.834  68.666  1.00  0.00    -0.198 C  
HETATM    9  C   UNL     1      -9.736  13.056  66.452  1.00  0.00    -0.268 C  
HETATM   10  C   UNL     1     -10.223  15.861  66.137  1.00  0.00    -0.324 C  
HETATM   11  N   UNL     1      -9.080  12.274  65.908  1.00  0.00    -0.036 NA 
HETATM   12  N   UNL     1     -11.919  12.162  69.391  1.00  0.00    -0.295 NA 
HETATM   13  N   UNL     1      -8.482  15.066  69.388  1.00  0.00    -0.167 NA 
HETATM   14  N   UNL     1     -13.274  13.771  65.397  1.00  0.00    -0.662 NA 
HETATM   15  N   UNL     1      -9.844  16.682  65.414  1.00  0.00    -0.505 NA 
ENDBRANCH   3   5
TORSDOF 1
ENDMDL
MODEL       32
REMARK 921   NORMALIZED FREE ENERGY PREDICTED BY IDOCK:   -4.27 KCAL/MOL
REMARK 922        TOTAL FREE ENERGY PREDICTED BY IDOCK:   -4.61 KCAL/MOL
REMARK 923 INTER-LIGAND FREE ENERGY PREDICTED BY IDOCK:   -4.50 KCAL/MOL
REMARK 924 INTRA-LIGAND FREE ENERGY PREDICTED BY IDOCK:   -0.12 KCAL/MOL
REMARK 927      BINDING AFFINITY PREDICTED BY RF-SCORE:    0.00 PKD
ROOT
HETATM    1  O   UNL     1     -10.416  17.307  65.223  1.00  0.00    -0.661 OA 
HETATM    2  H   UNL     1     -10.908  16.853  64.548  1.00  0.00     0.000 HD 
HETATM    3  N   UNL     1      -9.471  16.800  65.743  1.00  0.00    -0.527 NA 
HETATM    4  H   UNL     1      -9.185  15.863  65.460  1.00  0.00     0.000 HD 
ENDROOT
BRANCH   3   5
HETATM    5 FE   UNL     1      -8.446  17.748  67.152  1.00  0.00    -0.203 Fe 
HETATM    6  C   UNL     1      -9.609  19.396  66.931  1.00  0.00    -0.339 C  
HETATM    7  C   UNL     1      -7.158  18.462  65.756  1.00  0.00    -0.223 C  
HETATM    8  C   UNL     1      -7.277  16.110  67.388  1.00  0.00    -0.182 C  
HETATM    9  C   UNL     1      -7.397  18.704  68.598  1.00  0.00    -0.304 C  
HETATM   10  C   UNL     1      -9.725  17.036  68.550  1.00  0.00    -0.282 C  
HETATM   11  N   UNL     1      -6.800  19.251  69.424  1.00  0.00    -0.306 NA 
HETATM   12  N   UNL     1      -6.423  18.869  64.961  1.00  0.00    -0.491 NA 
HETATM   13  N   UNL     1      -6.608  15.175  67.523  1.00  0.00    -0.239 NA 
HETATM   14  N   UNL     1     -10.273  20.335  66.805  1.00  0.00    -0.419 NA 
HETATM   15  N   UNL     1     -10.457  16.629  69.349  1.00  0.00    -0.324 NA 
ENDBRANCH   3   5
TORSDOF 1
ENDMDL
MODEL       33
REMARK 921   NORMALIZED FREE ENERGY PREDICTED BY IDOCK:   -4.26 KCAL/MOL
REMARK 922        TOTAL FREE ENERGY PREDICTED BY IDOCK:   -4.61 KCAL/MOL
REMARK 923 INTER-LIGAND FREE ENERGY PREDICTED BY IDOCK:   -4.48 KCAL/MOL
REMARK 924 INTRA-LIGAND FREE ENERGY PREDICTED BY IDOCK:   -0.13 KCAL/MOL
REMARK 927      BINDING AFFINITY PREDICTED BY RF-SCORE:    0.00 PKD
ROOT
HETATM    1  O   UNL     1      -7.460  17.637  68.913  1.00  0.00    -0.262 OA 
HETATM    2  H   UNL     1      -6.968  17.739  69.719  1.00  0.00     0.000 HD 
HETATM    3  N   UNL     1      -8.550  17.152  68.914  1.00  0.00    -0.236 NA 
HETATM    4  H   UNL     1      -8.960  16.841  69.794  1.00  0.00     0.000 HD 
ENDROOT
BRANCH   3   5
HETATM    5 FE   UNL     1      -9.578  16.939  67.231  1.00  0.00    -0.223 Fe 
HETATM    6  C   UNL     1      -8.852  15.059  66.990  1.00  0.00    -0.234 C  
HETATM    7  C   UNL     1      -8.019  17.684  66.166  1.00  0.00    -0.213 C  
HETATM    8  C   UNL     1     -10.314  18.813  67.457  1.00  0.00    -0.416 C  
HETATM    9  C   UNL     1     -10.638  16.729  65.518  1.00  0.00    -0.230 C  
HETATM   10  C   UNL     1     -11.137  16.199  68.288  1.00  0.00    -0.348 C  
HETATM   11  N   UNL     1     -11.244  16.608  64.539  1.00  0.00    -0.982 NA 
HETATM   12  N   UNL     1      -7.131  18.109  65.558  1.00  0.00    -0.526 NA 
HETATM   13  N   UNL     1     -10.735  19.883  67.585  1.00  0.00    -0.335 NA 
HETATM   14  N   UNL     1      -8.439  13.987  66.854  1.00  0.00    -0.138 NA 
HETATM   15  N   UNL     1     -12.029  15.775  68.892  1.00  0.00    -0.343 NA 
ENDBRANCH   3   5
TORSDOF 1
ENDMDL
MODEL       34
REMARK 921   NORMALIZED FREE ENERGY PREDICTED BY IDOCK:   -4.25 KCAL/MOL
REMARK 922        TOTAL FREE ENERGY PREDICTED BY IDOCK:   -4.59 KCAL/MOL
REMARK 923 INTER-LIGAND FREE ENERGY PREDICTED BY IDOCK:   -4.45 KCAL/MOL
REMARK 924 INTRA-LIGAND FREE ENERGY PREDICTED BY IDOCK:   -0.14 KCAL/MOL
REMARK 927      BINDING AFFINITY PREDICTED BY RF-SCORE:    0.00 PKD
ROOT
HETATM    1  O   UNL     1      -7.423  17.264  68.989  1.00  0.00    -0.248 OA 
HETATM    2  H   UNL     1      -6.920  17.288  69.795  1.00  0.00     0.000 HD 
HETATM    3  N   UNL     1      -8.499  16.751  68.949  1.00  0.00    -0.242 NA 
HETATM    4  H   UNL     1      -8.885  16.330  69.794  1.00  0.00     0.000 HD 
ENDROOT
BRANCH   3   5
HETATM    5 FE   UNL     1      -9.548  16.701  67.267  1.00  0.00    -0.220 Fe 
HETATM    6  C   UNL     1     -10.238  18.580  67.607  1.00  0.00    -0.387 C  
HETATM    7  C   UNL     1     -11.138  15.930  68.264  1.00  0.00    -0.345 C  
HETATM    8  C   UNL     1      -8.867  14.827  66.910  1.00  0.00    -0.248 C  
HETATM    9  C   UNL     1     -10.610  16.644  65.543  1.00  0.00    -0.258 C  
HETATM   10  C   UNL     1      -7.964  17.468  66.266  1.00  0.00    -0.268 C  
HETATM   11  N   UNL     1     -11.216  16.612  64.558  1.00  0.00    -0.982 NA 
HETATM   12  N   UNL     1     -12.046  15.490  68.831  1.00  0.00    -0.267 NA 
HETATM   13  N   UNL     1      -8.479  13.756  66.706  1.00  0.00    -0.058 NA 
HETATM   14  N   UNL     1     -10.630  19.651  67.801  1.00  0.00    -0.433 NA 
HETATM   15  N   UNL     1      -7.058  17.906  65.695  1.00  0.00    -0.495 NA 
ENDBRANCH   3   5
TORSDOF 1
ENDMDL
MODEL       35
REMARK 921   NORMALIZED FREE ENERGY PREDICTED BY IDOCK:   -4.25 KCAL/MOL
REMARK 922        TOTAL FREE ENERGY PREDICTED BY IDOCK:   -4.59 KCAL/MOL
REMARK 923 INTER-LIGAND FREE ENERGY PREDICTED BY IDOCK:   -4.49 KCAL/MOL
REMARK 924 INTRA-LIGAND FREE ENERGY PREDICTED BY IDOCK:   -0.10 KCAL/MOL
REMARK 927      BINDING AFFINITY PREDICTED BY RF-SCORE:    0.00 PKD
ROOT
HETATM    1  O   UNL     1      -7.262  18.950  65.330  1.00  0.00    -0.494 OA 
HETATM    2  H   UNL     1      -6.657  19.160  64.628  1.00  0.00     0.000 HD 
HETATM    3  N   UNL     1      -7.509  17.818  65.613  1.00  0.00    -0.502 NA 
HETATM    4  H   UNL     1      -7.064  17.063  65.092  1.00  0.00     0.000 HD 
ENDROOT
BRANCH   3   5
HETATM    5 FE   UNL     1      -8.771  17.380  67.079  1.00  0.00    -0.200 Fe 
HETATM    6  C   UNL     1      -7.502  18.174  68.450  1.00  0.00    -0.280 C  
HETATM    7  C   UNL     1      -7.896  15.564  67.311  1.00  0.00    -0.204 C  
HETATM    8  C   UNL     1     -10.052  16.586  65.724  1.00  0.00    -0.303 C  
HETATM    9  C   UNL     1     -10.071  16.935  68.568  1.00  0.00    -0.297 C  
HETATM   10  C   UNL     1      -9.650  19.189  66.851  1.00  0.00    -0.325 C  
HETATM   11  N   UNL     1     -10.813  16.682  69.419  1.00  0.00    -0.318 NA 
HETATM   12  N   UNL     1      -7.398  14.528  67.444  1.00  0.00    -0.190 NA 
HETATM   13  N   UNL     1     -10.783  16.132  64.951  1.00  0.00    -0.659 NA 
HETATM   14  N   UNL     1      -6.778  18.627  69.230  1.00  0.00    -0.269 NA 
HETATM   15  N   UNL     1     -10.153  20.224  66.720  1.00  0.00    -0.450 NA 
ENDBRANCH   3   5
TORSDOF 1
ENDMDL
MODEL       36
REMARK 921   NORMALIZED FREE ENERGY PREDICTED BY IDOCK:   -4.24 KCAL/MOL
REMARK 922        TOTAL FREE ENERGY PREDICTED BY IDOCK:   -4.58 KCAL/MOL
REMARK 923 INTER-LIGAND FREE ENERGY PREDICTED BY IDOCK:   -4.47 KCAL/MOL
REMARK 924 INTRA-LIGAND FREE ENERGY PREDICTED BY IDOCK:   -0.11 KCAL/MOL
REMARK 927      BINDING AFFINITY PREDICTED BY RF-SCORE:    0.00 PKD
ROOT
HETATM    1  O   UNL     1      -7.423  17.264  68.989  1.00  0.00    -0.248 OA 
HETATM    2  H   UNL     1      -6.920  17.288  69.795  1.00  0.00     0.000 HD 
HETATM    3  N   UNL     1      -8.499  16.751  68.949  1.00  0.00    -0.242 NA 
HETATM    4  H   UNL     1      -8.885  16.330  69.794  1.00  0.00     0.000 HD 
ENDROOT
BRANCH   3   5
HETATM    5 FE   UNL     1      -9.548  16.701  67.267  1.00  0.00    -0.220 Fe 
HETATM    6  C   UNL     1      -7.956  17.397  66.218  1.00  0.00    -0.279 C  
HETATM    7  C   UNL     1     -10.178  18.603  67.586  1.00  0.00    -0.384 C  
HETATM    8  C   UNL     1     -11.146  16.003  68.298  1.00  0.00    -0.351 C  
HETATM    9  C   UNL     1     -10.626  16.639  65.553  1.00  0.00    -0.258 C  
HETATM   10  C   UNL     1      -8.926  14.802  66.945  1.00  0.00    -0.253 C  
HETATM   11  N   UNL     1     -11.241  16.603  64.574  1.00  0.00    -0.982 NA 
HETATM   12  N   UNL     1     -10.538  19.688  67.766  1.00  0.00    -0.433 NA 
HETATM   13  N   UNL     1     -12.060  15.604  68.886  1.00  0.00    -0.265 NA 
HETATM   14  N   UNL     1      -7.048  17.794  65.620  1.00  0.00    -0.454 NA 
HETATM   15  N   UNL     1      -8.569  13.716  66.761  1.00  0.00    -0.101 NA 
ENDBRANCH   3   5
TORSDOF 1
ENDMDL
MODEL       37
REMARK 921   NORMALIZED FREE ENERGY PREDICTED BY IDOCK:   -4.23 KCAL/MOL
REMARK 922        TOTAL FREE ENERGY PREDICTED BY IDOCK:   -4.57 KCAL/MOL
REMARK 923 INTER-LIGAND FREE ENERGY PREDICTED BY IDOCK:   -4.48 KCAL/MOL
REMARK 924 INTRA-LIGAND FREE ENERGY PREDICTED BY IDOCK:   -0.09 KCAL/MOL
REMARK 927      BINDING AFFINITY PREDICTED BY RF-SCORE:    0.00 PKD
ROOT
HETATM    1  O   UNL     1      -7.321  18.893  65.333  1.00  0.00    -0.478 OA 
HETATM    2  H   UNL     1      -6.681  19.108  64.663  1.00  0.00     0.000 HD 
HETATM    3  N   UNL     1      -7.548  17.760  65.628  1.00  0.00    -0.502 NA 
HETATM    4  H   UNL     1      -7.048  17.009  65.153  1.00  0.00     0.000 HD 
ENDROOT
BRANCH   3   5
HETATM    5 FE   UNL     1      -8.881  17.313  67.027  1.00  0.00    -0.198 Fe 
HETATM    6  C   UNL     1      -9.669  19.181  66.915  1.00  0.00    -0.328 C  
HETATM    7  C   UNL     1      -7.598  17.934  68.470  1.00  0.00    -0.289 C  
HETATM    8  C   UNL     1      -8.109  15.444  67.149  1.00  0.00    -0.217 C  
HETATM    9  C   UNL     1     -10.244  16.844  68.450  1.00  0.00    -0.322 C  
HETATM   10  C   UNL     1     -10.165  16.690  65.591  1.00  0.00    -0.262 C  
HETATM   11  N   UNL     1     -11.023  16.576  69.262  1.00  0.00    -0.318 NA 
HETATM   12  N   UNL     1      -6.867  18.288  69.295  1.00  0.00    -0.235 NA 
HETATM   13  N   UNL     1      -7.669  14.376  67.220  1.00  0.00    -0.182 NA 
HETATM   14  N   UNL     1     -10.118  20.245  66.850  1.00  0.00    -0.452 NA 
HETATM   15  N   UNL     1     -10.898  16.333  64.769  1.00  0.00    -0.699 NA 
ENDBRANCH   3   5
TORSDOF 1
ENDMDL
MODEL       38
REMARK 921   NORMALIZED FREE ENERGY PREDICTED BY IDOCK:   -4.23 KCAL/MOL
REMARK 922        TOTAL FREE ENERGY PREDICTED BY IDOCK:   -4.57 KCAL/MOL
REMARK 923 INTER-LIGAND FREE ENERGY PREDICTED BY IDOCK:   -4.45 KCAL/MOL
REMARK 924 INTRA-LIGAND FREE ENERGY PREDICTED BY IDOCK:   -0.13 KCAL/MOL
REMARK 927      BINDING AFFINITY PREDICTED BY RF-SCORE:    0.00 PKD
ROOT
HETATM    1  O   UNL     1     -10.625  17.670  65.325  1.00  0.00    -0.663 OA 
HETATM    2  H   UNL     1     -11.195  17.323  64.648  1.00  0.00     0.000 HD 
HETATM    3  N   UNL     1      -9.708  17.034  65.744  1.00  0.00    -0.547 NA 
HETATM    4  H   UNL     1      -9.533  16.101  65.371  1.00  0.00     0.000 HD 
ENDROOT
BRANCH   3   5
HETATM    5 FE   UNL     1      -8.518  17.759  67.156  1.00  0.00    -0.203 Fe 
HETATM    6  C   UNL     1      -9.769  17.076  68.602  1.00  0.00    -0.282 C  
HETATM    7  C   UNL     1      -9.519  19.524  67.115  1.00  0.00    -0.332 C  
HETATM    8  C   UNL     1      -7.258  18.444  65.726  1.00  0.00    -0.187 C  
HETATM    9  C   UNL     1      -7.292  18.496  68.590  1.00  0.00    -0.293 C  
HETATM   10  C   UNL     1      -7.514  16.002  67.200  1.00  0.00    -0.218 C  
HETATM   11  N   UNL     1      -6.592  18.916  69.410  1.00  0.00    -0.285 NA 
HETATM   12  N   UNL     1     -10.089  20.531  67.092  1.00  0.00    -0.378 NA 
HETATM   13  N   UNL     1      -6.537  18.836  64.909  1.00  0.00    -0.491 NA 
HETATM   14  N   UNL     1     -10.481  16.687  69.426  1.00  0.00    -0.324 NA 
HETATM   15  N   UNL     1      -6.940  14.997  67.224  1.00  0.00    -0.244 NA 
ENDBRANCH   3   5
TORSDOF 1
ENDMDL
MODEL       39
REMARK 921   NORMALIZED FREE ENERGY PREDICTED BY IDOCK:   -4.22 KCAL/MOL
REMARK 922        TOTAL FREE ENERGY PREDICTED BY IDOCK:   -4.56 KCAL/MOL
REMARK 923 INTER-LIGAND FREE ENERGY PREDICTED BY IDOCK:   -4.42 KCAL/MOL
REMARK 924 INTRA-LIGAND FREE ENERGY PREDICTED BY IDOCK:   -0.14 KCAL/MOL
REMARK 927      BINDING AFFINITY PREDICTED BY RF-SCORE:    0.00 PKD
ROOT
HETATM    1  O   UNL     1     -10.443  16.794  65.189  1.00  0.00    -0.658 OA 
HETATM    2  H   UNL     1     -10.843  16.236  64.532  1.00  0.00     0.000 HD 
HETATM    3  N   UNL     1      -9.430  16.478  65.733  1.00  0.00    -0.513 NA 
HETATM    4  H   UNL     1      -8.985  15.593  65.489  1.00  0.00     0.000 HD 
ENDROOT
BRANCH   3   5
HETATM    5 FE   UNL     1      -8.596  17.644  67.103  1.00  0.00    -0.203 Fe 
HETATM    6  C   UNL     1      -7.372  16.133  67.686  1.00  0.00    -0.142 C  
HETATM    7  C   UNL     1      -9.979  17.058  68.466  1.00  0.00    -0.293 C  
HETATM    8  C   UNL     1      -9.807  19.164  66.531  1.00  0.00    -0.371 C  
HETATM    9  C   UNL     1      -7.744  18.846  68.494  1.00  0.00    -0.331 C  
HETATM   10  C   UNL     1      -7.214  18.235  65.746  1.00  0.00    -0.183 C  
HETATM   11  N   UNL     1      -7.257  19.532  69.288  1.00  0.00    -0.350 NA 
HETATM   12  N   UNL     1     -10.768  16.725  69.245  1.00  0.00    -0.340 NA 
HETATM   13  N   UNL     1     -10.499  20.032  66.206  1.00  0.00    -0.449 NA 
HETATM   14  N   UNL     1      -6.674  15.272  68.018  1.00  0.00    -0.130 NA 
HETATM   15  N   UNL     1      -6.424  18.572  64.970  1.00  0.00    -0.463 NA 
ENDBRANCH   3   5
TORSDOF 1
ENDMDL
MODEL       40
REMARK 921   NORMALIZED FREE ENERGY PREDICTED BY IDOCK:   -4.14 KCAL/MOL
REMARK 922        TOTAL FREE ENERGY PREDICTED BY IDOCK:   -4.48 KCAL/MOL
REMARK 923 INTER-LIGAND FREE ENERGY PREDICTED BY IDOCK:   -4.40 KCAL/MOL
REMARK 924 INTRA-LIGAND FREE ENERGY PREDICTED BY IDOCK:   -0.08 KCAL/MOL
REMARK 927      BINDING AFFINITY PREDICTED BY RF-SCORE:    0.00 PKD
ROOT
HETATM    1  O   UNL     1      -9.695  20.439  65.768  1.00  0.00    -0.640 OA 
HETATM    2  H   UNL     1     -10.011  21.116  65.180  1.00  0.00     0.000 HD 
HETATM    3  N   UNL     1      -8.530  20.312  65.992  1.00  0.00    -0.575 NA 
HETATM    4  H   UNL     1      -7.863  20.939  65.545  1.00  0.00     0.000 HD 
ENDROOT
BRANCH   3   5
HETATM    5 FE   UNL     1      -7.871  18.900  67.219  1.00  0.00    -0.221 Fe 
HETATM    6  C   UNL     1      -6.611  20.219  68.109  1.00  0.00    -0.301 C  
HETATM    7  C   UNL     1      -6.421  18.400  65.891  1.00  0.00    -0.255 C  
HETATM    8  C   UNL     1      -9.125  17.570  66.345  1.00  0.00    -0.240 C  
HETATM    9  C   UNL     1      -7.211  17.452  68.473  1.00  0.00    -0.230 C  
HETATM   10  C   UNL     1      -9.318  19.391  68.547  1.00  0.00    -0.388 C  
HETATM   11  N   UNL     1      -6.834  16.626  69.190  1.00  0.00    -0.215 NA 
HETATM   12  N   UNL     1      -5.594  18.115  65.134  1.00  0.00    -0.120 NA 
HETATM   13  N   UNL     1      -9.841  16.810  65.845  1.00  0.00    -0.511 NA 
HETATM   14  N   UNL     1      -5.894  20.972  68.616  1.00  0.00    -0.342 NA 
HETATM   15  N   UNL     1     -10.146  19.672  69.306  1.00  0.00    -0.363 NA 
ENDBRANCH   3   5
TORSDOF 1
ENDMDL
MODEL       41
REMARK 921   NORMALIZED FREE ENERGY PREDICTED BY IDOCK:   -4.13 KCAL/MOL
REMARK 922        TOTAL FREE ENERGY PREDICTED BY IDOCK:   -4.47 KCAL/MOL
REMARK 923 INTER-LIGAND FREE ENERGY PREDICTED BY IDOCK:   -4.40 KCAL/MOL
REMARK 924 INTRA-LIGAND FREE ENERGY PREDICTED BY IDOCK:   -0.07 KCAL/MOL
REMARK 927      BINDING AFFINITY PREDICTED BY RF-SCORE:    0.00 PKD
ROOT
HETATM    1  O   UNL     1     -12.299  15.718  68.744  1.00  0.00    -0.537 OA 
HETATM    2  H   UNL     1     -13.111  15.367  69.089  1.00  0.00     0.000 HD 
HETATM    3  N   UNL     1     -11.846  15.326  67.713  1.00  0.00    -0.385 NA 
HETATM    4  H   UNL     1     -12.339  14.600  67.193  1.00  0.00     0.000 HD 
ENDROOT
BRANCH   3   5
HETATM    5 FE   UNL     1     -10.151  16.059  66.992  1.00  0.00    -0.235 Fe 
HETATM    6  C   UNL     1     -10.687  17.934  67.558  1.00  0.00    -0.321 C  
HETATM    7  C   UNL     1     -11.026  16.348  65.184  1.00  0.00    -0.232 C  
HETATM    8  C   UNL     1      -9.598  14.195  66.424  1.00  0.00    -0.293 C  
HETATM    9  C   UNL     1      -8.412  16.798  66.260  1.00  0.00    -0.307 C  
HETATM   10  C   UNL     1      -9.271  15.772  68.792  1.00  0.00    -0.216 C  
HETATM   11  N   UNL     1      -7.419  17.220  65.843  1.00  0.00    -0.408 NA 
HETATM   12  N   UNL     1     -11.523  16.513  64.153  1.00  0.00    -1.092 NA 
HETATM   13  N   UNL     1      -9.282  13.131  66.098  1.00  0.00    -0.068 NA 
HETATM   14  N   UNL     1     -10.992  19.002  67.881  1.00  0.00    -0.203 NA 
HETATM   15  N   UNL     1      -8.769  15.607  69.822  1.00  0.00    -0.100 NA 
ENDBRANCH   3   5
TORSDOF 1
ENDMDL
MODEL       42
REMARK 921   NORMALIZED FREE ENERGY PREDICTED BY IDOCK:   -4.12 KCAL/MOL
REMARK 922        TOTAL FREE ENERGY PREDICTED BY IDOCK:   -4.46 KCAL/MOL
REMARK 923 INTER-LIGAND FREE ENERGY PREDICTED BY IDOCK:   -4.35 KCAL/MOL
REMARK 924 INTRA-LIGAND FREE ENERGY PREDICTED BY IDOCK:   -0.11 KCAL/MOL
REMARK 927      BINDING AFFINITY PREDICTED BY RF-SCORE:    0.00 PKD
ROOT
HETATM    1  O   UNL     1      -6.979  18.525  65.089  1.00  0.00    -0.516 OA 
HETATM    2  H   UNL     1      -6.481  18.148  64.373  1.00  0.00     0.000 HD 
HETATM    3  N   UNL     1      -7.691  17.851  65.767  1.00  0.00    -0.551 NA 
HETATM    4  H   UNL     1      -7.768  16.853  65.575  1.00  0.00     0.000 HD 
ENDROOT
BRANCH   3   5
HETATM    5 FE   UNL     1      -8.729  18.640  67.262  1.00  0.00    -0.248 Fe 
HETATM    6  C   UNL     1     -10.089  19.395  65.958  1.00  0.00    -0.410 C  
HETATM    7  C   UNL     1      -7.646  20.350  67.133  1.00  0.00    -0.324 C  
HETATM    8  C   UNL     1      -7.384  17.890  68.578  1.00  0.00    -0.268 C  
HETATM    9  C   UNL     1      -9.787  19.434  68.796  1.00  0.00    -0.456 C  
HETATM   10  C   UNL     1      -9.812  16.935  67.397  1.00  0.00    -0.261 C  
HETATM   11  N   UNL     1     -10.392  19.888  69.672  1.00  0.00     0.009 NA 
HETATM   12  N   UNL     1      -7.028  21.326  67.061  1.00  0.00    -0.483 NA 
HETATM   13  N   UNL     1      -6.615  17.463  69.330  1.00  0.00    -0.246 NA 
HETATM   14  N   UNL     1     -10.864  19.825  65.214  1.00  0.00    -0.302 NA 
HETATM   15  N   UNL     1     -10.431  15.959  67.475  1.00  0.00    -0.292 NA 
ENDBRANCH   3   5
TORSDOF 1
ENDMDL
MODEL       43
REMARK 921   NORMALIZED FREE ENERGY PREDICTED BY IDOCK:   -4.12 KCAL/MOL
REMARK 922        TOTAL FREE ENERGY PREDICTED BY IDOCK:   -4.46 KCAL/MOL
REMARK 923 INTER-LIGAND FREE ENERGY PREDICTED BY IDOCK:   -4.31 KCAL/MOL
REMARK 924 INTRA-LIGAND FREE ENERGY PREDICTED BY IDOCK:   -0.15 KCAL/MOL
REMARK 927      BINDING AFFINITY PREDICTED BY RF-SCORE:    0.00 PKD
ROOT
HETATM    1  O   UNL     1      -7.317  16.981  68.877  1.00  0.00    -0.229 OA 
HETATM    2  H   UNL     1      -6.803  16.948  69.675  1.00  0.00     0.000 HD 
HETATM    3  N   UNL     1      -8.482  16.727  68.882  1.00  0.00    -0.242 NA 
HETATM    4  H   UNL     1      -8.935  16.468  69.758  1.00  0.00     0.000 HD 
ENDROOT
BRANCH   3   5
HETATM    5 FE   UNL     1      -9.554  16.799  67.214  1.00  0.00    -0.216 Fe 
HETATM    6  C   UNL     1     -11.214  16.205  68.220  1.00  0.00    -0.343 C  
HETATM    7  C   UNL     1      -9.094  14.863  66.817  1.00  0.00    -0.270 C  
HETATM    8  C   UNL     1      -7.908  17.396  66.195  1.00  0.00    -0.258 C  
HETATM    9  C   UNL     1     -10.642  16.883  65.507  1.00  0.00    -0.202 C  
HETATM   10  C   UNL     1     -10.014  18.731  67.604  1.00  0.00    -0.345 C  
HETATM   11  N   UNL     1     -11.264  16.932  64.533  1.00  0.00    -1.066 NA 
HETATM   12  N   UNL     1      -8.832  13.759  66.589  1.00  0.00    -0.133 NA 
HETATM   13  N   UNL     1      -6.968  17.737  65.612  1.00  0.00    -0.417 NA 
HETATM   14  N   UNL     1     -12.159  15.866  68.794  1.00  0.00    -0.174 NA 
HETATM   15  N   UNL     1     -10.277  19.836  67.827  1.00  0.00    -0.417 NA 
ENDBRANCH   3   5
TORSDOF 1
ENDMDL
MODEL       44
REMARK 921   NORMALIZED FREE ENERGY PREDICTED BY IDOCK:   -4.08 KCAL/MOL
REMARK 922        TOTAL FREE ENERGY PREDICTED BY IDOCK:   -4.42 KCAL/MOL
REMARK 923 INTER-LIGAND FREE ENERGY PREDICTED BY IDOCK:   -4.29 KCAL/MOL
REMARK 924 INTRA-LIGAND FREE ENERGY PREDICTED BY IDOCK:   -0.13 KCAL/MOL
REMARK 927      BINDING AFFINITY PREDICTED BY RF-SCORE:    0.00 PKD
ROOT
HETATM    1  O   UNL     1      -6.991  18.536  65.084  1.00  0.00    -0.516 OA 
HETATM    2  H   UNL     1      -6.492  18.152  64.372  1.00  0.00     0.000 HD 
HETATM    3  N   UNL     1      -7.613  17.853  65.839  1.00  0.00    -0.534 NA 
HETATM    4  H   UNL     1      -7.610  16.841  65.718  1.00  0.00     0.000 HD 
ENDROOT
BRANCH   3   5
HETATM    5 FE   UNL     1      -8.653  18.654  67.325  1.00  0.00    -0.245 Fe 
HETATM    6  C   UNL     1      -7.292  17.989  68.676  1.00  0.00    -0.282 C  
HETATM    7  C   UNL     1      -9.710  16.935  67.534  1.00  0.00    -0.249 C  
HETATM    8  C   UNL     1     -10.020  19.329  65.991  1.00  0.00    -0.337 C  
HETATM    9  C   UNL     1      -9.719  19.484  68.836  1.00  0.00    -0.426 C  
HETATM   10  C   UNL     1      -7.605  20.374  67.121  1.00  0.00    -0.324 C  
HETATM   11  N   UNL     1     -10.327  19.957  69.699  1.00  0.00     0.009 NA 
HETATM   12  N   UNL     1     -10.313  15.955  67.653  1.00  0.00    -0.274 NA 
HETATM   13  N   UNL     1     -10.801  19.714  65.229  1.00  0.00    -0.361 NA 
HETATM   14  N   UNL     1      -6.515  17.610  69.446  1.00  0.00    -0.250 NA 
HETATM   15  N   UNL     1      -7.005  21.357  67.003  1.00  0.00    -0.503 NA 
ENDBRANCH   3   5
TORSDOF 1
ENDMDL
MODEL       45
REMARK 921   NORMALIZED FREE ENERGY PREDICTED BY IDOCK:   -4.07 KCAL/MOL
REMARK 922        TOTAL FREE ENERGY PREDICTED BY IDOCK:   -4.41 KCAL/MOL
REMARK 923 INTER-LIGAND FREE ENERGY PREDICTED BY IDOCK:   -4.34 KCAL/MOL
REMARK 924 INTRA-LIGAND FREE ENERGY PREDICTED BY IDOCK:   -0.07 KCAL/MOL
REMARK 927      BINDING AFFINITY PREDICTED BY RF-SCORE:    0.00 PKD
ROOT
HETATM    1  O   UNL     1      -7.319  18.861  65.377  1.00  0.00    -0.478 OA 
HETATM    2  H   UNL     1      -6.711  19.076  64.679  1.00  0.00     0.000 HD 
HETATM    3  N   UNL     1      -7.562  17.727  65.654  1.00  0.00    -0.502 NA 
HETATM    4  H   UNL     1      -7.111  16.976  65.133  1.00  0.00     0.000 HD 
ENDROOT
BRANCH   3   5
HETATM    5 FE   UNL     1      -8.830  17.278  67.111  1.00  0.00    -0.201 Fe 
HETATM    6  C   UNL     1      -9.941  16.152  65.838  1.00  0.00    -0.356 C  
HETATM    7  C   UNL     1      -9.952  18.907  66.659  1.00  0.00    -0.373 C  
HETATM    8  C   UNL     1      -7.733  18.395  68.396  1.00  0.00    -0.297 C  
HETATM    9  C   UNL     1     -10.115  16.819  68.609  1.00  0.00    -0.279 C  
HETATM   10  C   UNL     1      -7.714  15.653  67.570  1.00  0.00    -0.168 C  
HETATM   11  N   UNL     1     -10.850  16.555  69.463  1.00  0.00    -0.323 NA 
HETATM   12  N   UNL     1     -10.592  19.836  66.401  1.00  0.00    -0.481 NA 
HETATM   13  N   UNL     1      -7.106  19.033  69.131  1.00  0.00    -0.317 NA 
HETATM   14  N   UNL     1     -10.573  15.510  65.113  1.00  0.00    -0.421 NA 
HETATM   15  N   UNL     1      -7.076  14.723  67.832  1.00  0.00    -0.140 NA 
ENDBRANCH   3   5
TORSDOF 1
ENDMDL
MODEL       46
REMARK 921   NORMALIZED FREE ENERGY PREDICTED BY IDOCK:   -4.07 KCAL/MOL
REMARK 922        TOTAL FREE ENERGY PREDICTED BY IDOCK:   -4.41 KCAL/MOL
REMARK 923 INTER-LIGAND FREE ENERGY PREDICTED BY IDOCK:   -4.33 KCAL/MOL
REMARK 924 INTRA-LIGAND FREE ENERGY PREDICTED BY IDOCK:   -0.07 KCAL/MOL
REMARK 927      BINDING AFFINITY PREDICTED BY RF-SCORE:    0.00 PKD
ROOT
HETATM    1  O   UNL     1      -9.897  20.431  65.838  1.00  0.00    -0.642 OA 
HETATM    2  H   UNL     1     -10.295  21.074  65.264  1.00  0.00     0.000 HD 
HETATM    3  N   UNL     1      -8.716  20.266  65.855  1.00  0.00    -0.552 NA 
HETATM    4  H   UNL     1      -8.123  20.826  65.243  1.00  0.00     0.000 HD 
ENDROOT
BRANCH   3   5
HETATM    5 FE   UNL     1      -7.885  18.923  67.055  1.00  0.00    -0.221 Fe 
HETATM    6  C   UNL     1      -9.296  19.273  68.472  1.00  0.00    -0.388 C  
HETATM    7  C   UNL     1      -6.703  20.357  67.868  1.00  0.00    -0.300 C  
HETATM    8  C   UNL     1      -6.471  18.559  65.650  1.00  0.00    -0.284 C  
HETATM    9  C   UNL     1      -7.034  17.543  68.269  1.00  0.00    -0.210 C  
HETATM   10  C   UNL     1      -9.060  17.487  66.245  1.00  0.00    -0.193 C  
HETATM   11  N   UNL     1      -6.549  16.754  68.963  1.00  0.00    -0.192 NA 
HETATM   12  N   UNL     1      -6.028  21.174  68.333  1.00  0.00    -0.304 NA 
HETATM   13  N   UNL     1      -5.663  18.351  64.848  1.00  0.00    -0.175 NA 
HETATM   14  N   UNL     1     -10.100  19.472  69.279  1.00  0.00    -0.343 NA 
HETATM   15  N   UNL     1      -9.732  16.666  65.782  1.00  0.00    -0.531 NA 
ENDBRANCH   3   5
TORSDOF 1
ENDMDL
MODEL       47
REMARK 921   NORMALIZED FREE ENERGY PREDICTED BY IDOCK:   -4.04 KCAL/MOL
REMARK 922        TOTAL FREE ENERGY PREDICTED BY IDOCK:   -4.38 KCAL/MOL
REMARK 923 INTER-LIGAND FREE ENERGY PREDICTED BY IDOCK:   -4.26 KCAL/MOL
REMARK 924 INTRA-LIGAND FREE ENERGY PREDICTED BY IDOCK:   -0.12 KCAL/MOL
REMARK 927      BINDING AFFINITY PREDICTED BY RF-SCORE:    0.00 PKD
ROOT
HETATM    1  O   UNL     1     -10.595  17.736  69.112  1.00  0.00    -0.406 OA 
HETATM    2  H   UNL     1     -11.147  17.448  69.830  1.00  0.00     0.000 HD 
HETATM    3  N   UNL     1      -9.576  17.174  68.854  1.00  0.00    -0.261 NA 
HETATM    4  H   UNL     1      -9.291  16.371  69.415  1.00  0.00     0.000 HD 
ENDROOT
BRANCH   3   5
HETATM    5 FE   UNL     1      -8.424  17.774  67.355  1.00  0.00    -0.207 Fe 
HETATM    6  C   UNL     1      -9.790  17.117  66.004  1.00  0.00    -0.219 C  
HETATM    7  C   UNL     1      -7.506  15.965  67.315  1.00  0.00    -0.210 C  
HETATM    8  C   UNL     1      -7.052  18.437  68.689  1.00  0.00    -0.279 C  
HETATM    9  C   UNL     1      -7.245  18.398  65.831  1.00  0.00    -0.232 C  
HETATM   10  C   UNL     1      -9.335  19.581  67.392  1.00  0.00    -0.319 C  
HETATM   11  N   UNL     1      -6.572  18.755  64.960  1.00  0.00    -0.517 NA 
HETATM   12  N   UNL     1      -6.981  14.934  67.292  1.00  0.00    -0.244 NA 
HETATM   13  N   UNL     1      -6.267  18.817  69.451  1.00  0.00    -0.264 NA 
HETATM   14  N   UNL     1     -10.569  16.744  65.235  1.00  0.00    -0.648 NA 
HETATM   15  N   UNL     1      -9.855  20.615  67.413  1.00  0.00    -0.454 NA 
ENDBRANCH   3   5
TORSDOF 1
ENDMDL
MODEL       48
REMARK 921   NORMALIZED FREE ENERGY PREDICTED BY IDOCK:   -4.03 KCAL/MOL
REMARK 922        TOTAL FREE ENERGY PREDICTED BY IDOCK:   -4.37 KCAL/MOL
REMARK 923 INTER-LIGAND FREE ENERGY PREDICTED BY IDOCK:   -4.22 KCAL/MOL
REMARK 924 INTRA-LIGAND FREE ENERGY PREDICTED BY IDOCK:   -0.15 KCAL/MOL
REMARK 927      BINDING AFFINITY PREDICTED BY RF-SCORE:    0.00 PKD
ROOT
HETATM    1  O   UNL     1     -10.578  18.003  69.170  1.00  0.00    -0.400 OA 
HETATM    2  H   UNL     1     -11.174  17.739  69.861  1.00  0.00     0.000 HD 
HETATM    3  N   UNL     1      -9.708  17.279  68.796  1.00  0.00    -0.280 NA 
HETATM    4  H   UNL     1      -9.600  16.360  69.226  1.00  0.00     0.000 HD 
ENDROOT
BRANCH   3   5
HETATM    5 FE   UNL     1      -8.465  17.831  67.353  1.00  0.00    -0.207 Fe 
HETATM    6  C   UNL     1      -7.548  16.020  67.410  1.00  0.00    -0.171 C  
HETATM    7  C   UNL     1      -7.157  18.544  68.730  1.00  0.00    -0.291 C  
HETATM    8  C   UNL     1      -9.370  19.641  67.280  1.00  0.00    -0.332 C  
HETATM    9  C   UNL     1      -7.205  18.401  65.872  1.00  0.00    -0.232 C  
HETATM   10  C   UNL     1      -9.767  17.124  65.973  1.00  0.00    -0.189 C  
HETATM   11  N   UNL     1      -6.486  18.726  65.026  1.00  0.00    -0.502 NA 
HETATM   12  N   UNL     1      -6.410  18.951  69.515  1.00  0.00    -0.271 NA 
HETATM   13  N   UNL     1      -9.887  20.676  67.239  1.00  0.00    -0.460 NA 
HETATM   14  N   UNL     1      -7.026  14.989  67.442  1.00  0.00    -0.208 NA 
HETATM   15  N   UNL     1     -10.512  16.719  65.185  1.00  0.00    -0.678 NA 
ENDBRANCH   3   5
TORSDOF 1
ENDMDL
MODEL       49
REMARK 921   NORMALIZED FREE ENERGY PREDICTED BY IDOCK:   -4.03 KCAL/MOL
REMARK 922        TOTAL FREE ENERGY PREDICTED BY IDOCK:   -4.36 KCAL/MOL
REMARK 923 INTER-LIGAND FREE ENERGY PREDICTED BY IDOCK:   -4.26 KCAL/MOL
REMARK 924 INTRA-LIGAND FREE ENERGY PREDICTED BY IDOCK:   -0.10 KCAL/MOL
REMARK 927      BINDING AFFINITY PREDICTED BY RF-SCORE:    0.00 PKD
ROOT
HETATM    1  O   UNL     1     -12.237  14.150  67.758  1.00  0.00    -0.548 OA 
HETATM    2  H   UNL     1     -13.106  13.876  68.029  1.00  0.00     0.000 HD 
HETATM    3  N   UNL     1     -12.015  15.279  67.449  1.00  0.00    -0.224 NA 
HETATM    4  H   UNL     1     -12.770  15.964  67.475  1.00  0.00     0.000 HD 
ENDROOT
BRANCH   3   5
HETATM    5 FE   UNL     1     -10.201  15.849  66.884  1.00  0.00    -0.238 Fe 
HETATM    6  C   UNL     1      -9.467  15.452  68.735  1.00  0.00    -0.211 C  
HETATM    7  C   UNL     1     -10.607  17.755  67.447  1.00  0.00    -0.335 C  
HETATM    8  C   UNL     1     -10.915  16.247  65.031  1.00  0.00    -0.298 C  
HETATM    9  C   UNL     1      -8.350  16.425  66.295  1.00  0.00    -0.327 C  
HETATM   10  C   UNL     1      -9.790  13.949  66.319  1.00  0.00    -0.306 C  
HETATM   11  N   UNL     1      -7.293  16.753  65.959  1.00  0.00    -0.025 NA 
HETATM   12  N   UNL     1     -10.838  18.843  67.767  1.00  0.00    -0.345 NA 
HETATM   13  N   UNL     1     -11.322  16.475  63.972  1.00  0.00    -1.064 NA 
HETATM   14  N   UNL     1      -9.050  15.226  69.790  1.00  0.00    -0.134 NA 
HETATM   15  N   UNL     1      -9.556  12.863  65.995  1.00  0.00    -0.212 NA 
ENDBRANCH   3   5
TORSDOF 1
ENDMDL
MODEL       50
REMARK 921   NORMALIZED FREE ENERGY PREDICTED BY IDOCK:   -3.97 KCAL/MOL
REMARK 922        TOTAL FREE ENERGY PREDICTED BY IDOCK:   -4.30 KCAL/MOL
REMARK 923 INTER-LIGAND FREE ENERGY PREDICTED BY IDOCK:   -4.18 KCAL/MOL
REMARK 924 INTRA-LIGAND FREE ENERGY PREDICTED BY IDOCK:   -0.12 KCAL/MOL
REMARK 927      BINDING AFFINITY PREDICTED BY RF-SCORE:    0.00 PKD
ROOT
HETATM    1  O   UNL     1     -10.513  17.829  69.199  1.00  0.00    -0.426 OA 
HETATM    2  H   UNL     1     -11.082  17.530  69.899  1.00  0.00     0.000 HD 
HETATM    3  N   UNL     1      -9.698  17.105  68.716  1.00  0.00    -0.273 NA 
HETATM    4  H   UNL     1      -9.610  16.149  69.059  1.00  0.00     0.000 HD 
ENDROOT
BRANCH   3   5
HETATM    5 FE   UNL     1      -8.510  17.730  67.256  1.00  0.00    -0.208 Fe 
HETATM    6  C   UNL     1      -9.412  19.548  67.259  1.00  0.00    -0.329 C  
HETATM    7  C   UNL     1      -9.837  17.067  65.871  1.00  0.00    -0.177 C  
HETATM    8  C   UNL     1      -7.596  15.922  67.240  1.00  0.00    -0.203 C  
HETATM    9  C   UNL     1      -7.286  18.360  65.770  1.00  0.00    -0.187 C  
HETATM   10  C   UNL     1      -7.180  18.391  68.632  1.00  0.00    -0.286 C  
HETATM   11  N   UNL     1      -6.587  18.722  64.921  1.00  0.00    -0.491 NA 
HETATM   12  N   UNL     1     -10.593  16.689  65.081  1.00  0.00    -0.676 NA 
HETATM   13  N   UNL     1      -7.074  14.889  67.231  1.00  0.00    -0.214 NA 
HETATM   14  N   UNL     1      -9.926  20.585  67.262  1.00  0.00    -0.439 NA 
HETATM   15  N   UNL     1      -6.420  18.768  69.419  1.00  0.00    -0.275 NA 
ENDBRANCH   3   5
TORSDOF 1
ENDMDL
MODEL       51
REMARK 921   NORMALIZED FREE ENERGY PREDICTED BY IDOCK:   -3.93 KCAL/MOL
REMARK 922        TOTAL FREE ENERGY PREDICTED BY IDOCK:   -4.26 KCAL/MOL
REMARK 923 INTER-LIGAND FREE ENERGY PREDICTED BY IDOCK:   -4.18 KCAL/MOL
REMARK 924 INTRA-LIGAND FREE ENERGY PREDICTED BY IDOCK:   -0.07 KCAL/MOL
REMARK 927      BINDING AFFINITY PREDICTED BY RF-SCORE:    0.00 PKD
ROOT
HETATM    1  O   UNL     1     -10.555  17.409  69.092  1.00  0.00    -0.354 OA 
HETATM    2  H   UNL     1     -11.081  17.075  69.809  1.00  0.00     0.000 HD 
HETATM    3  N   UNL     1      -9.461  16.984  68.879  1.00  0.00    -0.259 NA 
HETATM    4  H   UNL     1      -9.084  16.250  69.478  1.00  0.00     0.000 HD 
ENDROOT
BRANCH   3   5
HETATM    5 FE   UNL     1      -8.363  17.682  67.382  1.00  0.00    -0.193 Fe 
HETATM    6  C   UNL     1      -7.001  18.428  68.689  1.00  0.00    -0.269 C  
HETATM    7  C   UNL     1      -9.382  19.435  67.431  1.00  0.00    -0.315 C  
HETATM    8  C   UNL     1      -9.710  16.940  66.064  1.00  0.00    -0.233 C  
HETATM    9  C   UNL     1      -7.245  18.383  65.845  1.00  0.00    -0.232 C  
HETATM   10  C   UNL     1      -7.345  15.933  67.326  1.00  0.00    -0.216 C  
HETATM   11  N   UNL     1      -6.605  18.783  64.968  1.00  0.00    -0.517 NA 
HETATM   12  N   UNL     1      -9.962  20.436  67.458  1.00  0.00    -0.420 NA 
HETATM   13  N   UNL     1     -10.480  16.517  65.310  1.00  0.00    -0.637 NA 
HETATM   14  N   UNL     1      -6.225  18.853  69.434  1.00  0.00    -0.263 NA 
HETATM   15  N   UNL     1      -6.763  14.933  67.294  1.00  0.00    -0.274 NA 
ENDBRANCH   3   5
TORSDOF 1
ENDMDL
MODEL       52
REMARK 921   NORMALIZED FREE ENERGY PREDICTED BY IDOCK:   -3.90 KCAL/MOL
REMARK 922        TOTAL FREE ENERGY PREDICTED BY IDOCK:   -4.23 KCAL/MOL
REMARK 923 INTER-LIGAND FREE ENERGY PREDICTED BY IDOCK:   -4.12 KCAL/MOL
REMARK 924 INTRA-LIGAND FREE ENERGY PREDICTED BY IDOCK:   -0.11 KCAL/MOL
REMARK 927      BINDING AFFINITY PREDICTED BY RF-SCORE:    0.00 PKD
ROOT
HETATM    1  O   UNL     1     -11.588   6.400  68.818  1.00  0.00    -0.550 OA 
HETATM    2  H   UNL     1     -12.168   6.081  68.136  1.00  0.00     0.000 HD 
HETATM    3  N   UNL     1     -12.016   6.782  69.863  1.00  0.00    -0.659 NA 
HETATM    4  H   UNL     1     -13.022   6.767  70.028  1.00  0.00     0.000 HD 
ENDROOT
BRANCH   3   5
HETATM    5 FE   UNL     1     -10.804   7.447  71.285  1.00  0.00    -0.225 Fe 
HETATM    6  C   UNL     1     -11.268   5.861  72.464  1.00  0.00    -0.294 C  
HETATM    7  C   UNL     1     -12.324   8.511  72.106  1.00  0.00    -0.382 C  
HETATM    8  C   UNL     1     -10.326   9.035  70.121  1.00  0.00    -0.210 C  
HETATM    9  C   UNL     1      -9.556   8.131  72.728  1.00  0.00    -0.283 C  
HETATM   10  C   UNL     1      -9.282   6.391  70.469  1.00  0.00    -0.158 C  
HETATM   11  N   UNL     1      -8.844   8.520  73.552  1.00  0.00    -0.267 NA 
HETATM   12  N   UNL     1     -13.191   9.118  72.575  1.00  0.00    -0.441 NA 
HETATM   13  N   UNL     1     -10.053   9.942  69.456  1.00  0.00    -0.207 NA 
HETATM   14  N   UNL     1     -11.532   4.957  73.135  1.00  0.00    -0.320 NA 
HETATM   15  N   UNL     1      -8.411   5.787  70.003  1.00  0.00    -0.122 NA 
ENDBRANCH   3   5
TORSDOF 1
ENDMDL
MODEL       53
REMARK 921   NORMALIZED FREE ENERGY PREDICTED BY IDOCK:   -3.89 KCAL/MOL
REMARK 922        TOTAL FREE ENERGY PREDICTED BY IDOCK:   -4.21 KCAL/MOL
REMARK 923 INTER-LIGAND FREE ENERGY PREDICTED BY IDOCK:   -4.07 KCAL/MOL
REMARK 924 INTRA-LIGAND FREE ENERGY PREDICTED BY IDOCK:   -0.14 KCAL/MOL
REMARK 927      BINDING AFFINITY PREDICTED BY RF-SCORE:    0.00 PKD
ROOT
HETATM    1  O   UNL     1      -9.969  15.269  64.496  1.00  0.00    -0.316 OA 
HETATM    2  H   UNL     1      -9.499  15.589  63.734  1.00  0.00     0.000 HD 
HETATM    3  N   UNL     1      -9.386  14.880  65.461  1.00  0.00    -0.419 NA 
HETATM    4  H   UNL     1      -8.366  14.891  65.469  1.00  0.00     0.000 HD 
ENDROOT
BRANCH   3   5
HETATM    5 FE   UNL     1     -10.366  14.213  67.051  1.00  0.00    -0.244 Fe 
HETATM    6  C   UNL     1      -8.664  14.257  68.156  1.00  0.00    -0.174 C  
HETATM    7  C   UNL     1      -9.973  12.298  66.509  1.00  0.00    -0.220 C  
HETATM    8  C   UNL     1     -12.075  14.166  65.964  1.00  0.00    -0.432 C  
HETATM    9  C   UNL     1     -11.378  13.539  68.671  1.00  0.00    -0.288 C  
HETATM   10  C   UNL     1     -10.764  16.122  67.595  1.00  0.00    -0.318 C  
HETATM   11  N   UNL     1     -11.956  13.155  69.598  1.00  0.00    -0.317 NA 
HETATM   12  N   UNL     1      -9.749  11.205  66.201  1.00  0.00    -0.210 NA 
HETATM   13  N   UNL     1     -13.051  14.139  65.344  1.00  0.00    -0.705 NA 
HETATM   14  N   UNL     1      -7.694  14.283  68.785  1.00  0.00    -0.137 NA 
HETATM   15  N   UNL     1     -10.992  17.214  67.906  1.00  0.00    -0.293 NA 
ENDBRANCH   3   5
TORSDOF 1
ENDMDL
MODEL       54
REMARK 921   NORMALIZED FREE ENERGY PREDICTED BY IDOCK:   -3.87 KCAL/MOL
REMARK 922        TOTAL FREE ENERGY PREDICTED BY IDOCK:   -4.20 KCAL/MOL
REMARK 923 INTER-LIGAND FREE ENERGY PREDICTED BY IDOCK:   -4.07 KCAL/MOL
REMARK 924 INTRA-LIGAND FREE ENERGY PREDICTED BY IDOCK:   -0.13 KCAL/MOL
REMARK 927      BINDING AFFINITY PREDICTED BY RF-SCORE:    0.00 PKD
ROOT
HETATM    1  O   UNL     1     -11.520   6.270  68.857  1.00  0.00    -0.533 OA 
HETATM    2  H   UNL     1     -12.092   5.938  68.175  1.00  0.00     0.000 HD 
HETATM    3  N   UNL     1     -11.963   6.763  69.849  1.00  0.00    -0.659 NA 
HETATM    4  H   UNL     1     -12.974   6.829  69.967  1.00  0.00     0.000 HD 
ENDROOT
BRANCH   3   5
HETATM    5 FE   UNL     1     -10.767   7.455  71.272  1.00  0.00    -0.212 Fe 
HETATM    6  C   UNL     1     -12.296   8.517  72.081  1.00  0.00    -0.382 C  
HETATM    7  C   UNL     1     -10.273   9.041  70.107  1.00  0.00    -0.197 C  
HETATM    8  C   UNL     1      -9.231   6.398  70.479  1.00  0.00    -0.158 C  
HETATM    9  C   UNL     1      -9.540   8.150  72.726  1.00  0.00    -0.283 C  
HETATM   10  C   UNL     1     -11.254   5.873  72.438  1.00  0.00    -0.291 C  
HETATM   11  N   UNL     1      -8.839   8.547  73.557  1.00  0.00    -0.267 NA 
HETATM   12  N   UNL     1      -9.990   9.946  69.443  1.00  0.00    -0.199 NA 
HETATM   13  N   UNL     1      -8.353   5.795  70.027  1.00  0.00    -0.121 NA 
HETATM   14  N   UNL     1     -13.168   9.122  72.542  1.00  0.00    -0.441 NA 
HETATM   15  N   UNL     1     -11.533   4.969  73.104  1.00  0.00    -0.326 NA 
ENDBRANCH   3   5
TORSDOF 1
ENDMDL
MODEL       55
REMARK 921   NORMALIZED FREE ENERGY PREDICTED BY IDOCK:   -3.87 KCAL/MOL
REMARK 922        TOTAL FREE ENERGY PREDICTED BY IDOCK:   -4.20 KCAL/MOL
REMARK 923 INTER-LIGAND FREE ENERGY PREDICTED BY IDOCK:   -4.12 KCAL/MOL
REMARK 924 INTRA-LIGAND FREE ENERGY PREDICTED BY IDOCK:   -0.07 KCAL/MOL
REMARK 927      BINDING AFFINITY PREDICTED BY RF-SCORE:    0.00 PKD
ROOT
HETATM    1  O   UNL     1     -10.960  19.557  67.290  1.00  0.00    -0.499 OA 
HETATM    2  H   UNL     1     -11.483  20.349  67.304  1.00  0.00     0.000 HD 
HETATM    3  N   UNL     1      -9.772  19.600  67.380  1.00  0.00    -0.335 NA 
HETATM    4  H   UNL     1      -9.309  20.504  67.474  1.00  0.00     0.000 HD 
ENDROOT
BRANCH   3   5
HETATM    5 FE   UNL     1      -8.680  17.945  67.351  1.00  0.00    -0.219 Fe 
HETATM    6  C   UNL     1      -7.525  18.698  65.861  1.00  0.00    -0.180 C  
HETATM    7  C   UNL     1      -9.929  17.126  65.978  1.00  0.00    -0.253 C  
HETATM    8  C   UNL     1      -9.820  17.180  68.840  1.00  0.00    -0.273 C  
HETATM    9  C   UNL     1      -7.565  16.253  67.335  1.00  0.00    -0.155 C  
HETATM   10  C   UNL     1      -7.431  18.755  68.723  1.00  0.00    -0.306 C  
HETATM   11  N   UNL     1      -6.928  15.288  67.326  1.00  0.00    -0.230 NA 
HETATM   12  N   UNL     1     -10.642  16.658  65.195  1.00  0.00    -0.676 NA 
HETATM   13  N   UNL     1     -10.471  16.742  69.691  1.00  0.00    -0.261 NA 
HETATM   14  N   UNL     1      -6.867  19.127  65.012  1.00  0.00    -0.442 NA 
HETATM   15  N   UNL     1      -6.717  19.219  69.508  1.00  0.00    -0.296 NA 
ENDBRANCH   3   5
TORSDOF 1
ENDMDL
MODEL       56
REMARK 921   NORMALIZED FREE ENERGY PREDICTED BY IDOCK:   -3.86 KCAL/MOL
REMARK 922        TOTAL FREE ENERGY PREDICTED BY IDOCK:   -4.19 KCAL/MOL
REMARK 923 INTER-LIGAND FREE ENERGY PREDICTED BY IDOCK:   -4.11 KCAL/MOL
REMARK 924 INTRA-LIGAND FREE ENERGY PREDICTED BY IDOCK:   -0.07 KCAL/MOL
REMARK 927      BINDING AFFINITY PREDICTED BY RF-SCORE:    0.00 PKD
ROOT
HETATM    1  O   UNL     1     -11.536   6.469  68.726  1.00  0.00    -0.588 OA 
HETATM    2  H   UNL     1     -12.134   6.128  68.072  1.00  0.00     0.000 HD 
HETATM    3  N   UNL     1     -11.893   6.659  69.848  1.00  0.00    -0.653 NA 
HETATM    4  H   UNL     1     -12.857   6.452  70.110  1.00  0.00     0.000 HD 
ENDROOT
BRANCH   3   5
HETATM    5 FE   UNL     1     -10.644   7.372  71.214  1.00  0.00    -0.207 Fe 
HETATM    6  C   UNL     1      -9.126   6.262  70.449  1.00  0.00    -0.154 C  
HETATM    7  C   UNL     1     -11.128   5.855  72.471  1.00  0.00    -0.283 C  
HETATM    8  C   UNL     1     -12.146   8.489  71.989  1.00  0.00    -0.364 C  
HETATM    9  C   UNL     1      -9.375   8.113  72.608  1.00  0.00    -0.272 C  
HETATM   10  C   UNL     1     -10.159   8.890  69.966  1.00  0.00    -0.192 C  
HETATM   11  N   UNL     1      -8.649   8.536  73.404  1.00  0.00    -0.357 NA 
HETATM   12  N   UNL     1     -11.404   4.990  73.189  1.00  0.00    -0.332 NA 
HETATM   13  N   UNL     1     -13.004   9.127  72.432  1.00  0.00    -0.412 NA 
HETATM   14  N   UNL     1      -8.262   5.630  70.012  1.00  0.00    -0.108 NA 
HETATM   15  N   UNL     1      -9.882   9.758  69.251  1.00  0.00    -0.188 NA 
ENDBRANCH   3   5
TORSDOF 1
ENDMDL
MODEL       57
REMARK 921   NORMALIZED FREE ENERGY PREDICTED BY IDOCK:   -3.86 KCAL/MOL
REMARK 922        TOTAL FREE ENERGY PREDICTED BY IDOCK:   -4.19 KCAL/MOL
REMARK 923 INTER-LIGAND FREE ENERGY PREDICTED BY IDOCK:   -4.10 KCAL/MOL
REMARK 924 INTRA-LIGAND FREE ENERGY PREDICTED BY IDOCK:   -0.09 KCAL/MOL
REMARK 927      BINDING AFFINITY PREDICTED BY RF-SCORE:    0.00 PKD
ROOT
HETATM    1  O   UNL     1     -11.585   6.410  68.842  1.00  0.00    -0.576 OA 
HETATM    2  H   UNL     1     -12.183   6.095  68.174  1.00  0.00     0.000 HD 
HETATM    3  N   UNL     1     -11.987   6.807  69.892  1.00  0.00    -0.659 NA 
HETATM    4  H   UNL     1     -12.990   6.810  70.076  1.00  0.00     0.000 HD 
ENDROOT
BRANCH   3   5
HETATM    5 FE   UNL     1     -10.738   7.462  71.286  1.00  0.00    -0.212 Fe 
HETATM    6  C   UNL     1     -10.280   9.085  70.156  1.00  0.00    -0.197 C  
HETATM    7  C   UNL     1      -9.216   6.429  70.430  1.00  0.00    -0.155 C  
HETATM    8  C   UNL     1     -11.185   5.850  72.429  1.00  0.00    -0.291 C  
HETATM    9  C   UNL     1      -9.471   8.127  72.720  1.00  0.00    -0.279 C  
HETATM   10  C   UNL     1     -12.253   8.493  72.146  1.00  0.00    -0.382 C  
HETATM   11  N   UNL     1      -8.747   8.507  73.539  1.00  0.00    -0.308 NA 
HETATM   12  N   UNL     1      -8.347   5.840  69.943  1.00  0.00    -0.117 NA 
HETATM   13  N   UNL     1     -11.440   4.929  73.082  1.00  0.00    -0.320 NA 
HETATM   14  N   UNL     1     -10.020  10.010  69.511  1.00  0.00    -0.216 NA 
HETATM   15  N   UNL     1     -13.120   9.082  72.638  1.00  0.00    -0.384 NA 
ENDBRANCH   3   5
TORSDOF 1
ENDMDL
MODEL       58
REMARK 921   NORMALIZED FREE ENERGY PREDICTED BY IDOCK:   -3.86 KCAL/MOL
REMARK 922        TOTAL FREE ENERGY PREDICTED BY IDOCK:   -4.18 KCAL/MOL
REMARK 923 INTER-LIGAND FREE ENERGY PREDICTED BY IDOCK:   -4.07 KCAL/MOL
REMARK 924 INTRA-LIGAND FREE ENERGY PREDICTED BY IDOCK:   -0.11 KCAL/MOL
REMARK 927      BINDING AFFINITY PREDICTED BY RF-SCORE:    0.00 PKD
ROOT
HETATM    1  O   UNL     1     -10.282  19.710  68.229  1.00  0.00    -0.420 OA 
HETATM    2  H   UNL     1     -10.736  20.544  68.259  1.00  0.00     0.000 HD 
HETATM    3  N   UNL     1      -9.433  19.499  67.419  1.00  0.00    -0.310 NA 
HETATM    4  H   UNL     1      -9.190  20.226  66.746  1.00  0.00     0.000 HD 
ENDROOT
BRANCH   3   5
HETATM    5 FE   UNL     1      -8.486  17.757  67.357  1.00  0.00    -0.207 Fe 
HETATM    6  C   UNL     1      -9.684  17.019  68.820  1.00  0.00    -0.273 C  
HETATM    7  C   UNL     1      -7.167  18.407  68.755  1.00  0.00    -0.284 C  
HETATM    8  C   UNL     1      -7.283  18.476  65.894  1.00  0.00    -0.230 C  
HETATM    9  C   UNL     1      -7.517  15.979  67.279  1.00  0.00    -0.201 C  
HETATM   10  C   UNL     1      -9.796  17.104  65.959  1.00  0.00    -0.219 C  
HETATM   11  N   UNL     1      -6.965  14.964  67.235  1.00  0.00    -0.244 NA 
HETATM   12  N   UNL     1      -6.414  18.776  69.553  1.00  0.00    -0.256 NA 
HETATM   13  N   UNL     1      -6.595  18.886  65.058  1.00  0.00    -0.502 NA 
HETATM   14  N   UNL     1     -10.367  16.599  69.653  1.00  0.00    -0.241 NA 
HETATM   15  N   UNL     1     -10.546  16.732  65.159  1.00  0.00    -0.682 NA 
ENDBRANCH   3   5
TORSDOF 1
ENDMDL
MODEL       59
REMARK 921   NORMALIZED FREE ENERGY PREDICTED BY IDOCK:   -3.83 KCAL/MOL
REMARK 922        TOTAL FREE ENERGY PREDICTED BY IDOCK:   -4.15 KCAL/MOL
REMARK 923 INTER-LIGAND FREE ENERGY PREDICTED BY IDOCK:   -4.02 KCAL/MOL
REMARK 924 INTRA-LIGAND FREE ENERGY PREDICTED BY IDOCK:   -0.13 KCAL/MOL
REMARK 927      BINDING AFFINITY PREDICTED BY RF-SCORE:    0.00 PKD
ROOT
HETATM    1  O   UNL     1     -13.128   7.332  70.668  1.00  0.00    -0.591 OA 
HETATM    2  H   UNL     1     -13.922   6.821  70.560  1.00  0.00     0.000 HD 
HETATM    3  N   UNL     1     -12.074   6.922  70.290  1.00  0.00    -0.627 NA 
HETATM    4  H   UNL     1     -12.023   6.006  69.845  1.00  0.00     0.000 HD 
ENDROOT
BRANCH   3   5
HETATM    5 FE   UNL     1     -10.419   7.991  70.514  1.00  0.00    -0.196 Fe 
HETATM    6  C   UNL     1     -10.397   8.428  68.532  1.00  0.00    -0.200 C  
HETATM    7  C   UNL     1      -9.288   6.342  70.170  1.00  0.00    -0.157 C  
HETATM    8  C   UNL     1     -10.426   7.569  72.495  1.00  0.00    -0.249 C  
HETATM    9  C   UNL     1      -8.732   9.088  70.755  1.00  0.00    -0.224 C  
HETATM   10  C   UNL     1     -11.541   9.640  70.861  1.00  0.00    -0.344 C  
HETATM   11  N   UNL     1      -7.770   9.715  70.892  1.00  0.00    -0.312 NA 
HETATM   12  N   UNL     1      -8.642   5.402  69.974  1.00  0.00    -0.120 NA 
HETATM   13  N   UNL     1     -10.430   7.327  73.627  1.00  0.00    -0.370 NA 
HETATM   14  N   UNL     1     -10.386   8.677  67.402  1.00  0.00    -0.263 NA 
HETATM   15  N   UNL     1     -12.183  10.582  71.060  1.00  0.00    -0.368 NA 
ENDBRANCH   3   5
TORSDOF 1
ENDMDL
MODEL       60
REMARK 921   NORMALIZED FREE ENERGY PREDICTED BY IDOCK:   -3.82 KCAL/MOL
REMARK 922        TOTAL FREE ENERGY PREDICTED BY IDOCK:   -4.15 KCAL/MOL
REMARK 923 INTER-LIGAND FREE ENERGY PREDICTED BY IDOCK:   -4.00 KCAL/MOL
REMARK 924 INTRA-LIGAND FREE ENERGY PREDICTED BY IDOCK:   -0.15 KCAL/MOL
REMARK 927      BINDING AFFINITY PREDICTED BY RF-SCORE:    0.00 PKD
ROOT
HETATM    1  O   UNL     1      -6.268  15.503  67.201  1.00  0.00    -0.316 OA 
HETATM    2  H   UNL     1      -5.703  14.795  66.912  1.00  0.00     0.000 HD 
HETATM    3  N   UNL     1      -7.292  15.742  66.639  1.00  0.00    -0.223 NA 
HETATM    4  H   UNL     1      -7.567  15.178  65.835  1.00  0.00     0.000 HD 
ENDROOT
BRANCH   3   5
HETATM    5 FE   UNL     1      -8.470  17.219  67.242  1.00  0.00    -0.181 Fe 
HETATM    6  C   UNL     1      -9.422  15.974  68.532  1.00  0.00    -0.216 C  
HETATM    7  C   UNL     1      -9.815  16.758  65.795  1.00  0.00    -0.180 C  
HETATM    8  C   UNL     1      -7.530  18.477  65.962  1.00  0.00    -0.224 C  
HETATM    9  C   UNL     1      -9.663  18.737  67.856  1.00  0.00    -0.329 C  
HETATM   10  C   UNL     1      -7.131  17.686  68.686  1.00  0.00    -0.245 C  
HETATM   11  N   UNL     1     -10.344  19.604  68.208  1.00  0.00    -0.441 NA 
HETATM   12  N   UNL     1     -10.584  16.496  64.969  1.00  0.00    -0.698 NA 
HETATM   13  N   UNL     1      -6.993  19.196  65.231  1.00  0.00    -0.470 NA 
HETATM   14  N   UNL     1      -9.963  15.264  69.268  1.00  0.00    -0.238 NA 
HETATM   15  N   UNL     1      -6.365  17.953  69.511  1.00  0.00    -0.238 NA 
ENDBRANCH   3   5
TORSDOF 1
ENDMDL
MODEL       61
REMARK 921   NORMALIZED FREE ENERGY PREDICTED BY IDOCK:   -3.78 KCAL/MOL
REMARK 922        TOTAL FREE ENERGY PREDICTED BY IDOCK:   -4.10 KCAL/MOL
REMARK 923 INTER-LIGAND FREE ENERGY PREDICTED BY IDOCK:   -3.99 KCAL/MOL
REMARK 924 INTRA-LIGAND FREE ENERGY PREDICTED BY IDOCK:   -0.10 KCAL/MOL
REMARK 927      BINDING AFFINITY PREDICTED BY RF-SCORE:    0.00 PKD
ROOT
HETATM    1  O   UNL     1     -13.230   7.378  70.821  1.00  0.00    -0.603 OA 
HETATM    2  H   UNL     1     -14.044   6.899  70.713  1.00  0.00     0.000 HD 
HETATM    3  N   UNL     1     -12.194   6.928  70.441  1.00  0.00    -0.615 NA 
HETATM    4  H   UNL     1     -12.180   6.012  69.992  1.00  0.00     0.000 HD 
ENDROOT
BRANCH   3   5
HETATM    5 FE   UNL     1     -10.497   7.929  70.667  1.00  0.00    -0.198 Fe 
HETATM    6  C   UNL     1     -10.481   7.512  72.653  1.00  0.00    -0.271 C  
HETATM    7  C   UNL     1     -11.533   9.635  71.027  1.00  0.00    -0.371 C  
HETATM    8  C   UNL     1     -10.495   8.351  68.686  1.00  0.00    -0.166 C  
HETATM    9  C   UNL     1      -8.759   8.946  70.885  1.00  0.00    -0.210 C  
HETATM   10  C   UNL     1      -9.457   6.230  70.306  1.00  0.00    -0.161 C  
HETATM   11  N   UNL     1      -7.766   9.527  71.011  1.00  0.00    -0.322 NA 
HETATM   12  N   UNL     1     -12.123  10.610  71.232  1.00  0.00    -0.331 NA 
HETATM   13  N   UNL     1     -10.494   8.594  67.554  1.00  0.00    -0.268 NA 
HETATM   14  N   UNL     1     -10.472   7.273  73.785  1.00  0.00    -0.353 NA 
HETATM   15  N   UNL     1      -8.863   5.258  70.099  1.00  0.00    -0.122 NA 
ENDBRANCH   3   5
TORSDOF 1
ENDMDL
MODEL       62
REMARK 921   NORMALIZED FREE ENERGY PREDICTED BY IDOCK:   -3.78 KCAL/MOL
REMARK 922        TOTAL FREE ENERGY PREDICTED BY IDOCK:   -4.09 KCAL/MOL
REMARK 923 INTER-LIGAND FREE ENERGY PREDICTED BY IDOCK:   -4.01 KCAL/MOL
REMARK 924 INTRA-LIGAND FREE ENERGY PREDICTED BY IDOCK:   -0.08 KCAL/MOL
REMARK 927      BINDING AFFINITY PREDICTED BY RF-SCORE:    0.00 PKD
ROOT
HETATM    1  O   UNL     1     -13.169   7.221  70.824  1.00  0.00    -0.596 OA 
HETATM    2  H   UNL     1     -13.976   6.734  70.697  1.00  0.00     0.000 HD 
HETATM    3  N   UNL     1     -12.166   6.909  70.261  1.00  0.00    -0.624 NA 
HETATM    4  H   UNL     1     -12.173   6.105  69.632  1.00  0.00     0.000 HD 
ENDROOT
BRANCH   3   5
HETATM    5 FE   UNL     1     -10.484   7.925  70.525  1.00  0.00    -0.196 Fe 
HETATM    6  C   UNL     1      -9.384   6.261  70.147  1.00  0.00    -0.156 C  
HETATM    7  C   UNL     1     -10.502   7.471  72.502  1.00  0.00    -0.249 C  
HETATM    8  C   UNL     1     -11.565   9.596  70.902  1.00  0.00    -0.344 C  
HETATM    9  C   UNL     1      -8.771   8.974  70.789  1.00  0.00    -0.224 C  
HETATM   10  C   UNL     1     -10.461   8.383  68.554  1.00  0.00    -0.164 C  
HETATM   11  N   UNL     1      -7.792   9.573  70.939  1.00  0.00    -0.322 NA 
HETATM   12  N   UNL     1     -10.511   7.213  73.631  1.00  0.00    -0.378 NA 
HETATM   13  N   UNL     1     -12.183  10.551  71.117  1.00  0.00    -0.375 NA 
HETATM   14  N   UNL     1      -8.758   5.313  69.931  1.00  0.00    -0.104 NA 
HETATM   15  N   UNL     1     -10.449   8.646  67.426  1.00  0.00    -0.282 NA 
ENDBRANCH   3   5
TORSDOF 1
ENDMDL
MODEL       63
REMARK 921   NORMALIZED FREE ENERGY PREDICTED BY IDOCK:   -3.78 KCAL/MOL
REMARK 922        TOTAL FREE ENERGY PREDICTED BY IDOCK:   -4.09 KCAL/MOL
REMARK 923 INTER-LIGAND FREE ENERGY PREDICTED BY IDOCK:   -4.02 KCAL/MOL
REMARK 924 INTRA-LIGAND FREE ENERGY PREDICTED BY IDOCK:   -0.07 KCAL/MOL
REMARK 927      BINDING AFFINITY PREDICTED BY RF-SCORE:    0.00 PKD
ROOT
HETATM    1  O   UNL     1     -10.756  17.100  64.998  1.00  0.00    -0.712 OA 
HETATM    2  H   UNL     1     -11.393  17.390  64.355  1.00  0.00     0.000 HD 
HETATM    3  N   UNL     1     -10.987  17.161  66.166  1.00  0.00     0.069 NA 
HETATM    4  H   UNL     1     -11.884  17.531  66.481  1.00  0.00     0.000 HD 
ENDROOT
BRANCH   3   5
HETATM    5 FE   UNL     1      -9.658  16.554  67.507  1.00  0.00    -0.213 Fe 
HETATM    6  C   UNL     1      -9.800  18.324  68.492  1.00  0.00    -0.381 C  
HETATM    7  C   UNL     1      -8.150  17.299  66.372  1.00  0.00    -0.293 C  
HETATM    8  C   UNL     1      -9.506  14.781  66.539  1.00  0.00    -0.293 C  
HETATM    9  C   UNL     1      -8.305  15.922  68.877  1.00  0.00    -0.226 C  
HETATM   10  C   UNL     1     -11.158  15.806  68.643  1.00  0.00    -0.327 C  
HETATM   11  N   UNL     1      -7.533  15.561  69.659  1.00  0.00    -0.194 NA 
HETATM   12  N   UNL     1      -7.289  17.723  65.726  1.00  0.00    -0.525 NA 
HETATM   13  N   UNL     1      -9.419  13.768  65.986  1.00  0.00    -0.166 NA 
HETATM   14  N   UNL     1      -9.881  19.332  69.053  1.00  0.00    -0.427 NA 
HETATM   15  N   UNL     1     -12.016  15.379  69.292  1.00  0.00    -0.329 NA 
ENDBRANCH   3   5
TORSDOF 1
ENDMDL
MODEL       64
REMARK 921   NORMALIZED FREE ENERGY PREDICTED BY IDOCK:   -3.77 KCAL/MOL
REMARK 922        TOTAL FREE ENERGY PREDICTED BY IDOCK:   -4.09 KCAL/MOL
REMARK 923 INTER-LIGAND FREE ENERGY PREDICTED BY IDOCK:   -3.96 KCAL/MOL
REMARK 924 INTRA-LIGAND FREE ENERGY PREDICTED BY IDOCK:   -0.13 KCAL/MOL
REMARK 927      BINDING AFFINITY PREDICTED BY RF-SCORE:    0.00 PKD
ROOT
HETATM    1  O   UNL     1     -12.316  10.675  69.078  1.00  0.00    -0.770 OA 
HETATM    2  H   UNL     1     -13.228  10.857  69.274  1.00  0.00     0.000 HD 
HETATM    3  N   UNL     1     -11.886  10.801  67.973  1.00  0.00    -0.773 NA 
HETATM    4  H   UNL     1     -12.507  11.107  67.225  1.00  0.00     0.000 HD 
ENDROOT
BRANCH   3   5
HETATM    5 FE   UNL     1      -9.982  10.423  67.566  1.00  0.00    -0.156 Fe 
HETATM    6  C   UNL     1     -10.423   8.483  67.162  1.00  0.00    -0.299 C  
HETATM    7  C   UNL     1      -9.644   9.949  69.509  1.00  0.00    -0.225 C  
HETATM    8  C   UNL     1      -9.525  12.356  67.961  1.00  0.00    -0.208 C  
HETATM    9  C   UNL     1      -8.036  10.049  67.143  1.00  0.00    -0.117 C  
HETATM   10  C   UNL     1     -10.312  10.897  65.626  1.00  0.00    -0.242 C  
HETATM   11  N   UNL     1      -6.925   9.835  66.902  1.00  0.00    -0.087 NA 
HETATM   12  N   UNL     1      -9.450   9.678  70.618  1.00  0.00    -0.203 NA 
HETATM   13  N   UNL     1      -9.263  13.461  68.188  1.00  0.00    -0.211 NA 
HETATM   14  N   UNL     1     -10.675   7.377  66.932  1.00  0.00    -0.334 NA 
HETATM   15  N   UNL     1     -10.502  11.169  64.516  1.00  0.00    -0.338 NA 
ENDBRANCH   3   5
TORSDOF 1
ENDMDL
MODEL       65
REMARK 921   NORMALIZED FREE ENERGY PREDICTED BY IDOCK:   -3.75 KCAL/MOL
REMARK 922        TOTAL FREE ENERGY PREDICTED BY IDOCK:   -4.07 KCAL/MOL
REMARK 923 INTER-LIGAND FREE ENERGY PREDICTED BY IDOCK:   -3.94 KCAL/MOL
REMARK 924 INTRA-LIGAND FREE ENERGY PREDICTED BY IDOCK:   -0.13 KCAL/MOL
REMARK 927      BINDING AFFINITY PREDICTED BY RF-SCORE:    0.00 PKD
ROOT
HETATM    1  O   UNL     1     -12.393  10.478  68.853  1.00  0.00    -0.779 OA 
HETATM    2  H   UNL     1     -13.297  10.707  69.037  1.00  0.00     0.000 HD 
HETATM    3  N   UNL     1     -11.879  10.781  67.820  1.00  0.00    -0.683 NA 
HETATM    4  H   UNL     1     -12.418  11.294  67.123  1.00  0.00     0.000 HD 
ENDROOT
BRANCH   3   5
HETATM    5 FE   UNL     1      -9.992  10.305  67.437  1.00  0.00    -0.157 Fe 
HETATM    6  C   UNL     1     -10.268  10.681  65.461  1.00  0.00    -0.262 C  
HETATM    7  C   UNL     1     -10.523   8.368  67.149  1.00  0.00    -0.310 C  
HETATM    8  C   UNL     1      -9.698   9.929  69.405  1.00  0.00    -0.214 C  
HETATM    9  C   UNL     1      -8.061   9.825  67.057  1.00  0.00    -0.113 C  
HETATM   10  C   UNL     1      -9.456  12.236  67.725  1.00  0.00    -0.197 C  
HETATM   11  N   UNL     1      -6.958   9.551  66.839  1.00  0.00    -0.081 NA 
HETATM   12  N   UNL     1     -10.824   7.263  66.985  1.00  0.00    -0.354 NA 
HETATM   13  N   UNL     1      -9.530   9.713  70.530  1.00  0.00    -0.238 NA 
HETATM   14  N   UNL     1     -10.425  10.896  64.335  1.00  0.00    -0.361 NA 
HETATM   15  N   UNL     1      -9.149  13.340  67.891  1.00  0.00    -0.194 NA 
ENDBRANCH   3   5
TORSDOF 1
ENDMDL
MODEL       66
REMARK 921   NORMALIZED FREE ENERGY PREDICTED BY IDOCK:   -3.75 KCAL/MOL
REMARK 922        TOTAL FREE ENERGY PREDICTED BY IDOCK:   -4.06 KCAL/MOL
REMARK 923 INTER-LIGAND FREE ENERGY PREDICTED BY IDOCK:   -3.99 KCAL/MOL
REMARK 924 INTRA-LIGAND FREE ENERGY PREDICTED BY IDOCK:   -0.08 KCAL/MOL
REMARK 927      BINDING AFFINITY PREDICTED BY RF-SCORE:    0.00 PKD
ROOT
HETATM    1  O   UNL     1     -11.453   4.624  65.257  1.00  0.00    -1.070 OA 
HETATM    2  H   UNL     1     -12.250   4.433  64.777  1.00  0.00     0.000 HD 
HETATM    3  N   UNL     1     -11.400   5.531  66.030  1.00  0.00    -0.635 NA 
HETATM    4  H   UNL     1     -12.224   6.112  66.178  1.00  0.00     0.000 HD 
ENDROOT
BRANCH   3   5
HETATM    5 FE   UNL     1      -9.735   5.927  67.032  1.00  0.00    -0.123 Fe 
HETATM    6  C   UNL     1      -9.930   7.908  66.632  1.00  0.00    -0.246 C  
HETATM    7  C   UNL     1      -8.641   5.686  65.341  1.00  0.00    -0.150 C  
HETATM    8  C   UNL     1      -9.526   3.955  67.444  1.00  0.00    -0.195 C  
HETATM    9  C   UNL     1      -8.038   6.323  68.066  1.00  0.00    -0.115 C  
HETATM   10  C   UNL     1     -10.821   6.166  68.724  1.00  0.00    -0.336 C  
HETATM   11  N   UNL     1      -7.069   6.549  68.656  1.00  0.00    -0.080 NA 
HETATM   12  N   UNL     1      -8.015   5.549  64.377  1.00  0.00    -0.113 NA 
HETATM   13  N   UNL     1      -9.406   2.828  67.680  1.00  0.00    -0.198 NA 
HETATM   14  N   UNL     1     -10.043   9.036  66.404  1.00  0.00    -0.299 NA 
HETATM   15  N   UNL     1     -11.442   6.302  69.691  1.00  0.00    -0.429 NA 
ENDBRANCH   3   5
TORSDOF 1
ENDMDL
MODEL       67
REMARK 921   NORMALIZED FREE ENERGY PREDICTED BY IDOCK:   -3.75 KCAL/MOL
REMARK 922        TOTAL FREE ENERGY PREDICTED BY IDOCK:   -4.06 KCAL/MOL
REMARK 923 INTER-LIGAND FREE ENERGY PREDICTED BY IDOCK:   -3.97 KCAL/MOL
REMARK 924 INTRA-LIGAND FREE ENERGY PREDICTED BY IDOCK:   -0.09 KCAL/MOL
REMARK 927      BINDING AFFINITY PREDICTED BY RF-SCORE:    0.00 PKD
ROOT
HETATM    1  O   UNL     1      -6.342  15.556  67.167  1.00  0.00    -0.311 OA 
HETATM    2  H   UNL     1      -5.800  14.872  66.791  1.00  0.00     0.000 HD 
HETATM    3  N   UNL     1      -7.273  16.002  66.571  1.00  0.00    -0.150 NA 
HETATM    4  H   UNL     1      -7.491  15.645  65.641  1.00  0.00     0.000 HD 
ENDROOT
BRANCH   3   5
HETATM    5 FE   UNL     1      -8.405  17.429  67.357  1.00  0.00    -0.186 Fe 
HETATM    6  C   UNL     1      -6.975  17.845  68.736  1.00  0.00    -0.262 C  
HETATM    7  C   UNL     1      -9.245  16.085  68.624  1.00  0.00    -0.216 C  
HETATM    8  C   UNL     1      -9.842  17.029  65.986  1.00  0.00    -0.241 C  
HETATM    9  C   UNL     1      -9.566  18.889  68.147  1.00  0.00    -0.338 C  
HETATM   10  C   UNL     1      -7.573  18.773  66.093  1.00  0.00    -0.258 C  
HETATM   11  N   UNL     1     -10.228  19.724  68.599  1.00  0.00    -0.448 NA 
HETATM   12  N   UNL     1      -9.725  15.320  69.348  1.00  0.00    -0.250 NA 
HETATM   13  N   UNL     1     -10.663  16.801  65.204  1.00  0.00    -0.654 NA 
HETATM   14  N   UNL     1      -6.159  18.082  69.521  1.00  0.00    -0.243 NA 
HETATM   15  N   UNL     1      -7.097  19.542  65.370  1.00  0.00    -0.412 NA 
ENDBRANCH   3   5
TORSDOF 1
ENDMDL
MODEL       68
REMARK 921   NORMALIZED FREE ENERGY PREDICTED BY IDOCK:   -3.75 KCAL/MOL
REMARK 922        TOTAL FREE ENERGY PREDICTED BY IDOCK:   -4.06 KCAL/MOL
REMARK 923 INTER-LIGAND FREE ENERGY PREDICTED BY IDOCK:   -3.99 KCAL/MOL
REMARK 924 INTRA-LIGAND FREE ENERGY PREDICTED BY IDOCK:   -0.07 KCAL/MOL
REMARK 927      BINDING AFFINITY PREDICTED BY RF-SCORE:    0.00 PKD
ROOT
HETATM    1  O   UNL     1     -11.439   4.671  65.281  1.00  0.00    -1.070 OA 
HETATM    2  H   UNL     1     -12.239   4.495  64.799  1.00  0.00     0.000 HD 
HETATM    3  N   UNL     1     -11.381   5.556  66.078  1.00  0.00    -0.635 NA 
HETATM    4  H   UNL     1     -12.204   6.135  66.245  1.00  0.00     0.000 HD 
ENDROOT
BRANCH   3   5
HETATM    5 FE   UNL     1      -9.712   5.923  67.083  1.00  0.00    -0.120 Fe 
HETATM    6  C   UNL     1      -8.609   5.697  65.394  1.00  0.00    -0.150 C  
HETATM    7  C   UNL     1      -9.504   3.947  67.491  1.00  0.00    -0.190 C  
HETATM    8  C   UNL     1     -10.796   6.156  68.778  1.00  0.00    -0.336 C  
HETATM    9  C   UNL     1      -8.013   6.308  68.118  1.00  0.00    -0.108 C  
HETATM   10  C   UNL     1      -9.914   7.897  66.682  1.00  0.00    -0.246 C  
HETATM   11  N   UNL     1      -7.042   6.528  68.708  1.00  0.00    -0.080 NA 
HETATM   12  N   UNL     1      -9.385   2.820  67.725  1.00  0.00    -0.206 NA 
HETATM   13  N   UNL     1     -11.415   6.288  69.747  1.00  0.00    -0.440 NA 
HETATM   14  N   UNL     1      -7.982   5.569  64.431  1.00  0.00    -0.113 NA 
HETATM   15  N   UNL     1     -10.031   9.026  66.453  1.00  0.00    -0.294 NA 
ENDBRANCH   3   5
TORSDOF 1
ENDMDL
MODEL       69
REMARK 921   NORMALIZED FREE ENERGY PREDICTED BY IDOCK:   -3.72 KCAL/MOL
REMARK 922        TOTAL FREE ENERGY PREDICTED BY IDOCK:   -4.03 KCAL/MOL
REMARK 923 INTER-LIGAND FREE ENERGY PREDICTED BY IDOCK:   -3.96 KCAL/MOL
REMARK 924 INTRA-LIGAND FREE ENERGY PREDICTED BY IDOCK:   -0.07 KCAL/MOL
REMARK 927      BINDING AFFINITY PREDICTED BY RF-SCORE:    0.00 PKD
ROOT
HETATM    1  O   UNL     1     -11.413   4.550  65.161  1.00  0.00    -1.105 OA 
HETATM    2  H   UNL     1     -12.212   4.373  64.678  1.00  0.00     0.000 HD 
HETATM    3  N   UNL     1     -11.374   5.398  65.998  1.00  0.00    -0.650 NA 
HETATM    4  H   UNL     1     -12.212   5.944  66.198  1.00  0.00     0.000 HD 
ENDROOT
BRANCH   3   5
HETATM    5 FE   UNL     1      -9.706   5.766  67.007  1.00  0.00    -0.123 Fe 
HETATM    6  C   UNL     1      -9.483   3.791  67.416  1.00  0.00    -0.196 C  
HETATM    7  C   UNL     1     -10.774   6.006  68.715  1.00  0.00    -0.308 C  
HETATM    8  C   UNL     1      -9.912   7.741  66.605  1.00  0.00    -0.228 C  
HETATM    9  C   UNL     1      -8.000   6.152  68.028  1.00  0.00    -0.110 C  
HETATM   10  C   UNL     1      -8.636   5.532  65.305  1.00  0.00    -0.149 C  
HETATM   11  N   UNL     1      -7.024   6.371  68.611  1.00  0.00    -0.077 NA 
HETATM   12  N   UNL     1     -11.382   6.143  69.690  1.00  0.00    -0.426 NA 
HETATM   13  N   UNL     1     -10.029   8.870  66.377  1.00  0.00    -0.283 NA 
HETATM   14  N   UNL     1      -9.355   2.665  67.648  1.00  0.00    -0.189 NA 
HETATM   15  N   UNL     1      -8.024   5.397  64.331  1.00  0.00    -0.110 NA 
ENDBRANCH   3   5
TORSDOF 1
ENDMDL
MODEL       70
REMARK 921   NORMALIZED FREE ENERGY PREDICTED BY IDOCK:   -3.70 KCAL/MOL
REMARK 922        TOTAL FREE ENERGY PREDICTED BY IDOCK:   -4.02 KCAL/MOL
REMARK 923 INTER-LIGAND FREE ENERGY PREDICTED BY IDOCK:   -3.94 KCAL/MOL
REMARK 924 INTRA-LIGAND FREE ENERGY PREDICTED BY IDOCK:   -0.07 KCAL/MOL
REMARK 927      BINDING AFFINITY PREDICTED BY RF-SCORE:    0.00 PKD
ROOT
HETATM    1  O   UNL     1     -10.780  17.108  65.005  1.00  0.00    -0.712 OA 
HETATM    2  H   UNL     1     -11.406  17.384  64.345  1.00  0.00     0.000 HD 
HETATM    3  N   UNL     1     -10.972  17.320  66.163  1.00  0.00     0.074 NA 
HETATM    4  H   UNL     1     -11.821  17.807  66.449  1.00  0.00     0.000 HD 
ENDROOT
BRANCH   3   5
HETATM    5 FE   UNL     1      -9.667  16.743  67.540  1.00  0.00    -0.226 Fe 
HETATM    6  C   UNL     1      -8.124  17.401  66.397  1.00  0.00    -0.280 C  
HETATM    7  C   UNL     1      -9.538  14.914  66.673  1.00  0.00    -0.266 C  
HETATM    8  C   UNL     1     -11.195  16.084  68.695  1.00  0.00    -0.366 C  
HETATM    9  C   UNL     1      -8.343  16.158  68.957  1.00  0.00    -0.247 C  
HETATM   10  C   UNL     1      -9.794  18.566  68.412  1.00  0.00    -0.372 C  
HETATM   11  N   UNL     1      -7.586  15.824  69.766  1.00  0.00    -0.071 NA 
HETATM   12  N   UNL     1      -9.463  13.869  66.179  1.00  0.00    -0.221 NA 
HETATM   13  N   UNL     1     -12.067  15.706  69.356  1.00  0.00    -0.328 NA 
HETATM   14  N   UNL     1      -7.245  17.777  65.745  1.00  0.00    -0.495 NA 
HETATM   15  N   UNL     1      -9.867  19.608  68.910  1.00  0.00    -0.431 NA 
ENDBRANCH   3   5
TORSDOF 1
ENDMDL
MODEL       71
REMARK 921   NORMALIZED FREE ENERGY PREDICTED BY IDOCK:   -3.69 KCAL/MOL
REMARK 922        TOTAL FREE ENERGY PREDICTED BY IDOCK:   -4.00 KCAL/MOL
REMARK 923 INTER-LIGAND FREE ENERGY PREDICTED BY IDOCK:   -3.93 KCAL/MOL
REMARK 924 INTRA-LIGAND FREE ENERGY PREDICTED BY IDOCK:   -0.07 KCAL/MOL
REMARK 927      BINDING AFFINITY PREDICTED BY RF-SCORE:    0.00 PKD
ROOT
HETATM    1  O   UNL     1     -10.634  17.863  65.205  1.00  0.00    -0.637 OA 
HETATM    2  H   UNL     1     -11.281  18.287  64.654  1.00  0.00     0.000 HD 
HETATM    3  N   UNL     1     -10.724  17.891  66.394  1.00  0.00    -0.201 NA 
HETATM    4  H   UNL     1     -11.508  18.380  66.826  1.00  0.00     0.000 HD 
ENDROOT
BRANCH   3   5
HETATM    5 FE   UNL     1      -9.373  17.006  67.545  1.00  0.00    -0.214 Fe 
HETATM    6  C   UNL     1      -9.570  15.278  66.497  1.00  0.00    -0.271 C  
HETATM    7  C   UNL     1     -10.831  16.405  68.821  1.00  0.00    -0.338 C  
HETATM    8  C   UNL     1      -9.161  18.722  68.599  1.00  0.00    -0.347 C  
HETATM    9  C   UNL     1      -7.986  16.112  68.721  1.00  0.00    -0.216 C  
HETATM   10  C   UNL     1      -7.913  17.604  66.277  1.00  0.00    -0.257 C  
HETATM   11  N   UNL     1      -7.194  15.602  69.392  1.00  0.00    -0.202 NA 
HETATM   12  N   UNL     1     -11.662  16.062  69.550  1.00  0.00    -0.308 NA 
HETATM   13  N   UNL     1      -9.040  19.703  69.202  1.00  0.00    -0.191 NA 
HETATM   14  N   UNL     1      -9.682  14.294  65.900  1.00  0.00    -0.291 NA 
HETATM   15  N   UNL     1      -7.078  17.946  65.551  1.00  0.00    -0.456 NA 
ENDBRANCH   3   5
TORSDOF 1
ENDMDL
MODEL       72
REMARK 921   NORMALIZED FREE ENERGY PREDICTED BY IDOCK:   -3.69 KCAL/MOL
REMARK 922        TOTAL FREE ENERGY PREDICTED BY IDOCK:   -4.00 KCAL/MOL
REMARK 923 INTER-LIGAND FREE ENERGY PREDICTED BY IDOCK:   -3.93 KCAL/MOL
REMARK 924 INTRA-LIGAND FREE ENERGY PREDICTED BY IDOCK:   -0.07 KCAL/MOL
REMARK 927      BINDING AFFINITY PREDICTED BY RF-SCORE:    0.00 PKD
ROOT
HETATM    1  O   UNL     1     -10.632  17.856  65.218  1.00  0.00    -0.637 OA 
HETATM    2  H   UNL     1     -11.276  18.281  64.664  1.00  0.00     0.000 HD 
HETATM    3  N   UNL     1     -10.771  17.809  66.402  1.00  0.00    -0.185 NA 
HETATM    4  H   UNL     1     -11.595  18.233  66.827  1.00  0.00     0.000 HD 
ENDROOT
BRANCH   3   5
HETATM    5 FE   UNL     1      -9.426  16.920  67.557  1.00  0.00    -0.220 Fe 
HETATM    6  C   UNL     1     -10.889  16.248  68.794  1.00  0.00    -0.317 C  
HETATM    7  C   UNL     1      -9.247  18.605  68.672  1.00  0.00    -0.329 C  
HETATM    8  C   UNL     1      -7.954  17.578  66.331  1.00  0.00    -0.285 C  
HETATM    9  C   UNL     1      -8.045  16.008  68.726  1.00  0.00    -0.212 C  
HETATM   10  C   UNL     1      -9.598  15.236  66.446  1.00  0.00    -0.292 C  
HETATM   11  N   UNL     1      -7.257  15.486  69.394  1.00  0.00    -0.190 NA 
HETATM   12  N   UNL     1      -9.144  19.565  69.309  1.00  0.00    -0.148 NA 
HETATM   13  N   UNL     1      -7.112  17.955  65.632  1.00  0.00    -0.495 NA 
HETATM   14  N   UNL     1     -11.723  15.865  69.498  1.00  0.00    -0.343 NA 
HETATM   15  N   UNL     1      -9.696  14.273  65.810  1.00  0.00    -0.274 NA 
ENDBRANCH   3   5
TORSDOF 1
ENDMDL
MODEL       73
REMARK 921   NORMALIZED FREE ENERGY PREDICTED BY IDOCK:   -3.68 KCAL/MOL
REMARK 922        TOTAL FREE ENERGY PREDICTED BY IDOCK:   -3.99 KCAL/MOL
REMARK 923 INTER-LIGAND FREE ENERGY PREDICTED BY IDOCK:   -3.92 KCAL/MOL
REMARK 924 INTRA-LIGAND FREE ENERGY PREDICTED BY IDOCK:   -0.07 KCAL/MOL
REMARK 927      BINDING AFFINITY PREDICTED BY RF-SCORE:    0.00 PKD
ROOT
HETATM    1  O   UNL     1     -11.449   4.490  65.289  1.00  0.00    -1.068 OA 
HETATM    2  H   UNL     1     -12.230   4.297  64.784  1.00  0.00     0.000 HD 
HETATM    3  N   UNL     1     -11.375   5.473  65.960  1.00  0.00    -0.635 NA 
HETATM    4  H   UNL     1     -12.164   6.118  65.992  1.00  0.00     0.000 HD 
ENDROOT
BRANCH   3   5
HETATM    5 FE   UNL     1      -9.745   5.874  67.015  1.00  0.00    -0.123 Fe 
HETATM    6  C   UNL     1     -10.852   6.077  68.705  1.00  0.00    -0.307 C  
HETATM    7  C   UNL     1      -9.962   7.854  66.627  1.00  0.00    -0.246 C  
HETATM    8  C   UNL     1      -8.624   5.672  65.340  1.00  0.00    -0.150 C  
HETATM    9  C   UNL     1      -8.072   6.275  68.085  1.00  0.00    -0.115 C  
HETATM   10  C   UNL     1      -9.521   3.900  67.404  1.00  0.00    -0.195 C  
HETATM   11  N   UNL     1      -7.117   6.504  68.698  1.00  0.00    -0.080 NA 
HETATM   12  N   UNL     1     -10.085   8.983  66.406  1.00  0.00    -0.299 NA 
HETATM   13  N   UNL     1      -7.984   5.557  64.383  1.00  0.00    -0.113 NA 
HETATM   14  N   UNL     1     -11.483   6.193  69.667  1.00  0.00    -0.391 NA 
HETATM   15  N   UNL     1      -9.393   2.771  67.625  1.00  0.00    -0.198 NA 
ENDBRANCH   3   5
TORSDOF 1
ENDMDL
MODEL       74
REMARK 921   NORMALIZED FREE ENERGY PREDICTED BY IDOCK:   -3.66 KCAL/MOL
REMARK 922        TOTAL FREE ENERGY PREDICTED BY IDOCK:   -3.97 KCAL/MOL
REMARK 923 INTER-LIGAND FREE ENERGY PREDICTED BY IDOCK:   -3.83 KCAL/MOL
REMARK 924 INTRA-LIGAND FREE ENERGY PREDICTED BY IDOCK:   -0.15 KCAL/MOL
REMARK 927      BINDING AFFINITY PREDICTED BY RF-SCORE:    0.00 PKD
ROOT
HETATM    1  O   UNL     1     -12.581  10.594  69.304  1.00  0.00    -0.715 OA 
HETATM    2  H   UNL     1     -13.510  10.718  69.462  1.00  0.00     0.000 HD 
HETATM    3  N   UNL     1     -12.114  10.746  68.218  1.00  0.00    -0.807 NA 
HETATM    4  H   UNL     1     -12.722  11.013  67.444  1.00  0.00     0.000 HD 
ENDROOT
BRANCH   3   5
HETATM    5 FE   UNL     1     -10.175  10.488  67.890  1.00  0.00    -0.156 Fe 
HETATM    6  C   UNL     1      -9.797  12.407  68.434  1.00  0.00    -0.198 C  
HETATM    7  C   UNL     1     -10.407  11.073  65.961  1.00  0.00    -0.254 C  
HETATM    8  C   UNL     1     -10.533   8.569  67.348  1.00  0.00    -0.280 C  
HETATM    9  C   UNL     1      -8.195  10.211  67.561  1.00  0.00    -0.114 C  
HETATM   10  C   UNL     1      -9.938   9.901  69.813  1.00  0.00    -0.243 C  
HETATM   11  N   UNL     1      -7.064  10.054  67.374  1.00  0.00    -0.084 NA 
HETATM   12  N   UNL     1     -10.538  11.406  64.861  1.00  0.00    -0.302 NA 
HETATM   13  N   UNL     1     -10.737   7.473  67.038  1.00  0.00    -0.352 NA 
HETATM   14  N   UNL     1      -9.583  13.501  68.744  1.00  0.00    -0.063 NA 
HETATM   15  N   UNL     1      -9.802   9.565  70.913  1.00  0.00    -0.260 NA 
ENDBRANCH   3   5
TORSDOF 1
ENDMDL
MODEL       75
REMARK 921   NORMALIZED FREE ENERGY PREDICTED BY IDOCK:   -3.66 KCAL/MOL
REMARK 922        TOTAL FREE ENERGY PREDICTED BY IDOCK:   -3.97 KCAL/MOL
REMARK 923 INTER-LIGAND FREE ENERGY PREDICTED BY IDOCK:   -3.85 KCAL/MOL
REMARK 924 INTRA-LIGAND FREE ENERGY PREDICTED BY IDOCK:   -0.11 KCAL/MOL
REMARK 927      BINDING AFFINITY PREDICTED BY RF-SCORE:    0.00 PKD
ROOT
HETATM    1  O   UNL     1      -7.990  12.689  67.369  1.00  0.00    -0.160 OA 
HETATM    2  H   UNL     1      -7.076  12.683  67.629  1.00  0.00     0.000 HD 
HETATM    3  N   UNL     1      -8.310  12.507  66.235  1.00  0.00    -0.313 NA 
HETATM    4  H   UNL     1      -7.590  12.344  65.532  1.00  0.00     0.000 HD 
ENDROOT
BRANCH   3   5
HETATM    5 FE   UNL     1     -10.218  12.518  65.694  1.00  0.00    -0.233 Fe 
HETATM    6  C   UNL     1     -10.778  13.047  67.571  1.00  0.00    -0.238 C  
HETATM    7  C   UNL     1     -10.386  10.558  66.189  1.00  0.00    -0.210 C  
HETATM    8  C   UNL     1      -9.676  11.993  63.814  1.00  0.00    -0.173 C  
HETATM    9  C   UNL     1     -12.163  12.534  65.128  1.00  0.00    -0.448 C  
HETATM   10  C   UNL     1     -10.056  14.473  65.195  1.00  0.00    -0.327 C  
HETATM   11  N   UNL     1     -13.274  12.544  64.806  1.00  0.00    -0.740 NA 
HETATM   12  N   UNL     1     -10.483   9.439  66.471  1.00  0.00    -0.180 NA 
HETATM   13  N   UNL     1      -9.367  11.693  62.739  1.00  0.00    -0.318 NA 
HETATM   14  N   UNL     1     -11.097  13.349  68.642  1.00  0.00    -0.252 NA 
HETATM   15  N   UNL     1      -9.962  15.591  64.910  1.00  0.00    -0.262 NA 
ENDBRANCH   3   5
TORSDOF 1
ENDMDL
MODEL       76
REMARK 921   NORMALIZED FREE ENERGY PREDICTED BY IDOCK:   -3.65 KCAL/MOL
REMARK 922        TOTAL FREE ENERGY PREDICTED BY IDOCK:   -3.96 KCAL/MOL
REMARK 923 INTER-LIGAND FREE ENERGY PREDICTED BY IDOCK:   -3.81 KCAL/MOL
REMARK 924 INTRA-LIGAND FREE ENERGY PREDICTED BY IDOCK:   -0.15 KCAL/MOL
REMARK 927      BINDING AFFINITY PREDICTED BY RF-SCORE:    0.00 PKD
ROOT
HETATM    1  O   UNL     1      -9.714  11.510  69.319  1.00  0.00    -0.407 OA 
HETATM    2  H   UNL     1      -9.874  10.884  70.016  1.00  0.00     0.000 HD 
HETATM    3  N   UNL     1     -10.320  12.535  69.260  1.00  0.00    -0.393 NA 
HETATM    4  H   UNL     1     -11.023  12.743  69.969  1.00  0.00     0.000 HD 
ENDROOT
BRANCH   3   5
HETATM    5 FE   UNL     1      -9.985  13.841  67.806  1.00  0.00    -0.208 Fe 
HETATM    6  C   UNL     1     -11.285  15.155  68.646  1.00  0.00    -0.286 C  
HETATM    7  C   UNL     1     -11.494  13.037  66.714  1.00  0.00    -0.345 C  
HETATM    8  C   UNL     1      -8.682  12.544  66.956  1.00  0.00    -0.205 C  
HETATM    9  C   UNL     1      -9.629  15.172  66.321  1.00  0.00    -0.297 C  
HETATM   10  C   UNL     1      -8.477  14.647  68.889  1.00  0.00    -0.136 C  
HETATM   11  N   UNL     1      -9.427  15.933  65.473  1.00  0.00    -0.373 NA 
HETATM   12  N   UNL     1     -12.354  12.578  66.090  1.00  0.00    -0.539 NA 
HETATM   13  N   UNL     1      -7.938  11.803  66.469  1.00  0.00    -0.072 NA 
HETATM   14  N   UNL     1     -12.025  15.903  69.126  1.00  0.00    -0.337 NA 
HETATM   15  N   UNL     1      -7.614  15.107  69.509  1.00  0.00    -0.212 NA 
ENDBRANCH   3   5
TORSDOF 1
ENDMDL
MODEL       77
REMARK 921   NORMALIZED FREE ENERGY PREDICTED BY IDOCK:   -3.63 KCAL/MOL
REMARK 922        TOTAL FREE ENERGY PREDICTED BY IDOCK:   -3.94 KCAL/MOL
REMARK 923 INTER-LIGAND FREE ENERGY PREDICTED BY IDOCK:   -3.87 KCAL/MOL
REMARK 924 INTRA-LIGAND FREE ENERGY PREDICTED BY IDOCK:   -0.07 KCAL/MOL
REMARK 927      BINDING AFFINITY PREDICTED BY RF-SCORE:    0.00 PKD
ROOT
HETATM    1  O   UNL     1      -9.187  15.449  65.442  1.00  0.00    -0.280 OA 
HETATM    2  H   UNL     1      -8.635  15.453  64.668  1.00  0.00     0.000 HD 
HETATM    3  N   UNL     1      -9.059  14.617  66.286  1.00  0.00    -0.479 NA 
HETATM    4  H   UNL     1      -8.345  13.897  66.176  1.00  0.00     0.000 HD 
ENDROOT
BRANCH   3   5
HETATM    5 FE   UNL     1     -10.211  14.608  67.900  1.00  0.00    -0.210 Fe 
HETATM    6  C   UNL     1     -11.846  14.200  66.768  1.00  0.00    -0.425 C  
HETATM    7  C   UNL     1     -10.551  16.597  67.687  1.00  0.00    -0.321 C  
HETATM    8  C   UNL     1      -8.590  15.012  69.046  1.00  0.00    -0.205 C  
HETATM    9  C   UNL     1     -11.377  14.594  69.557  1.00  0.00    -0.280 C  
HETATM   10  C   UNL     1      -9.873  12.625  68.121  1.00  0.00    -0.226 C  
HETATM   11  N   UNL     1     -12.044  14.585  70.502  1.00  0.00    -0.303 NA 
HETATM   12  N   UNL     1     -10.746  17.732  67.566  1.00  0.00    -0.353 NA 
HETATM   13  N   UNL     1      -7.664  15.243  69.701  1.00  0.00    -0.208 NA 
HETATM   14  N   UNL     1     -12.777  13.967  66.123  1.00  0.00    -0.386 NA 
HETATM   15  N   UNL     1      -9.679  11.490  68.246  1.00  0.00    -0.192 NA 
ENDBRANCH   3   5
TORSDOF 1
ENDMDL
MODEL       78
REMARK 921   NORMALIZED FREE ENERGY PREDICTED BY IDOCK:   -3.62 KCAL/MOL
REMARK 922        TOTAL FREE ENERGY PREDICTED BY IDOCK:   -3.93 KCAL/MOL
REMARK 923 INTER-LIGAND FREE ENERGY PREDICTED BY IDOCK:   -3.79 KCAL/MOL
REMARK 924 INTRA-LIGAND FREE ENERGY PREDICTED BY IDOCK:   -0.14 KCAL/MOL
REMARK 927      BINDING AFFINITY PREDICTED BY RF-SCORE:    0.00 PKD
ROOT
HETATM    1  O   UNL     1      -9.354  12.228  64.551  1.00  0.00    -0.415 OA 
HETATM    2  H   UNL     1      -8.801  12.224  63.778  1.00  0.00     0.000 HD 
HETATM    3  N   UNL     1      -8.940  11.860  65.607  1.00  0.00    -0.413 NA 
HETATM    4  H   UNL     1      -7.978  11.532  65.681  1.00  0.00     0.000 HD 
ENDROOT
BRANCH   3   5
HETATM    5 FE   UNL     1     -10.094  11.871  67.220  1.00  0.00    -0.184 Fe 
HETATM    6  C   UNL     1      -9.795  13.865  67.457  1.00  0.00    -0.236 C  
HETATM    7  C   UNL     1      -8.485  11.483  68.393  1.00  0.00    -0.159 C  
HETATM    8  C   UNL     1     -10.407   9.882  66.997  1.00  0.00    -0.239 C  
HETATM    9  C   UNL     1     -11.281  11.873  68.861  1.00  0.00    -0.254 C  
HETATM   10  C   UNL     1     -11.704  12.255  66.054  1.00  0.00    -0.388 C  
HETATM   11  N   UNL     1     -11.960  11.875  69.799  1.00  0.00    -0.315 NA 
HETATM   12  N   UNL     1      -7.568  11.262  69.063  1.00  0.00    -0.126 NA 
HETATM   13  N   UNL     1     -10.585   8.745  66.870  1.00  0.00    -0.249 NA 
HETATM   14  N   UNL     1      -9.624  15.001  67.591  1.00  0.00    -0.202 NA 
HETATM   15  N   UNL     1     -12.625  12.474  65.387  1.00  0.00    -0.615 NA 
ENDBRANCH   3   5
TORSDOF 1
ENDMDL
MODEL       79
REMARK 921   NORMALIZED FREE ENERGY PREDICTED BY IDOCK:   -3.62 KCAL/MOL
REMARK 922        TOTAL FREE ENERGY PREDICTED BY IDOCK:   -3.93 KCAL/MOL
REMARK 923 INTER-LIGAND FREE ENERGY PREDICTED BY IDOCK:   -3.78 KCAL/MOL
REMARK 924 INTRA-LIGAND FREE ENERGY PREDICTED BY IDOCK:   -0.15 KCAL/MOL
REMARK 927      BINDING AFFINITY PREDICTED BY RF-SCORE:    0.00 PKD
ROOT
HETATM    1  O   UNL     1      -9.838  15.284  70.113  1.00  0.00    -0.476 OA 
HETATM    2  H   UNL     1     -10.176  14.764  70.833  1.00  0.00     0.000 HD 
HETATM    3  N   UNL     1      -8.910  14.909  69.464  1.00  0.00    -0.437 NA 
HETATM    4  H   UNL     1      -8.471  14.016  69.687  1.00  0.00     0.000 HD 
ENDROOT
BRANCH   3   5
HETATM    5 FE   UNL     1      -8.206  15.994  67.961  1.00  0.00    -0.137 Fe 
HETATM    6  C   UNL     1      -6.821  14.570  67.543  1.00  0.00    -0.143 C  
HETATM    7  C   UNL     1      -6.897  16.908  69.213  1.00  0.00    -0.228 C  
HETATM    8  C   UNL     1      -9.583  17.424  68.362  1.00  0.00    -0.292 C  
HETATM    9  C   UNL     1      -7.499  17.106  66.422  1.00  0.00    -0.306 C  
HETATM   10  C   UNL     1      -9.511  15.088  66.707  1.00  0.00    -0.246 C  
HETATM   11  N   UNL     1      -7.095  17.740  65.543  1.00  0.00    -0.391 NA 
HETATM   12  N   UNL     1      -6.150  17.430  69.926  1.00  0.00    -0.231 NA 
HETATM   13  N   UNL     1     -10.369  18.242  68.591  1.00  0.00    -0.340 NA 
HETATM   14  N   UNL     1      -6.032  13.757  67.305  1.00  0.00    -0.253 NA 
HETATM   15  N   UNL     1     -10.258  14.569  65.991  1.00  0.00    -0.300 NA 
ENDBRANCH   3   5
TORSDOF 1
ENDMDL
MODEL       80
REMARK 921   NORMALIZED FREE ENERGY PREDICTED BY IDOCK:   -3.61 KCAL/MOL
REMARK 922        TOTAL FREE ENERGY PREDICTED BY IDOCK:   -3.92 KCAL/MOL
REMARK 923 INTER-LIGAND FREE ENERGY PREDICTED BY IDOCK:   -3.77 KCAL/MOL
REMARK 924 INTRA-LIGAND FREE ENERGY PREDICTED BY IDOCK:   -0.15 KCAL/MOL
REMARK 927      BINDING AFFINITY PREDICTED BY RF-SCORE:    0.00 PKD
ROOT
HETATM    1  O   UNL     1      -9.094  11.952  64.831  1.00  0.00    -0.410 OA 
HETATM    2  H   UNL     1      -8.499  11.955  64.090  1.00  0.00     0.000 HD 
HETATM    3  N   UNL     1      -8.741  11.575  65.906  1.00  0.00    -0.370 NA 
HETATM    4  H   UNL     1      -7.783  11.249  66.032  1.00  0.00     0.000 HD 
ENDROOT
BRANCH   3   5
HETATM    5 FE   UNL     1      -9.984  11.571  67.450  1.00  0.00    -0.176 Fe 
HETATM    6  C   UNL     1      -8.472  11.062  68.705  1.00  0.00    -0.157 C  
HETATM    7  C   UNL     1     -10.393   9.609  67.136  1.00  0.00    -0.254 C  
HETATM    8  C   UNL     1     -11.505  12.082  66.214  1.00  0.00    -0.345 C  
HETATM    9  C   UNL     1     -11.261  11.578  69.023  1.00  0.00    -0.262 C  
HETATM   10  C   UNL     1      -9.583  13.529  67.768  1.00  0.00    -0.219 C  
HETATM   11  N   UNL     1     -11.990  11.582  69.922  1.00  0.00    -0.336 NA 
HETATM   12  N   UNL     1     -10.627   8.489  66.958  1.00  0.00    -0.290 NA 
HETATM   13  N   UNL     1     -12.374  12.374  65.508  1.00  0.00    -0.624 NA 
HETATM   14  N   UNL     1      -7.609  10.772  69.419  1.00  0.00    -0.132 NA 
HETATM   15  N   UNL     1      -9.353  14.650  67.949  1.00  0.00    -0.195 NA 
ENDBRANCH   3   5
TORSDOF 1
ENDMDL
MODEL       81
REMARK 921   NORMALIZED FREE ENERGY PREDICTED BY IDOCK:   -3.60 KCAL/MOL
REMARK 922        TOTAL FREE ENERGY PREDICTED BY IDOCK:   -3.91 KCAL/MOL
REMARK 923 INTER-LIGAND FREE ENERGY PREDICTED BY IDOCK:   -3.77 KCAL/MOL
REMARK 924 INTRA-LIGAND FREE ENERGY PREDICTED BY IDOCK:   -0.14 KCAL/MOL
REMARK 927      BINDING AFFINITY PREDICTED BY RF-SCORE:    0.00 PKD
ROOT
HETATM    1  O   UNL     1      -9.499  20.536  66.954  1.00  0.00    -0.547 OA 
HETATM    2  H   UNL     1     -10.015  21.288  66.683  1.00  0.00     0.000 HD 
HETATM    3  N   UNL     1      -9.756  19.439  66.564  1.00  0.00    -0.350 NA 
HETATM    4  H   UNL     1     -10.543  19.304  65.930  1.00  0.00     0.000 HD 
ENDROOT
BRANCH   3   5
HETATM    5 FE   UNL     1      -8.680  17.872  67.129  1.00  0.00    -0.217 Fe 
HETATM    6  C   UNL     1      -9.620  16.698  65.766  1.00  0.00    -0.116 C  
HETATM    7  C   UNL     1     -10.079  17.392  68.518  1.00  0.00    -0.352 C  
HETATM    8  C   UNL     1      -7.729  19.031  68.492  1.00  0.00    -0.333 C  
HETATM    9  C   UNL     1      -7.569  16.280  67.708  1.00  0.00    -0.136 C  
HETATM   10  C   UNL     1      -7.279  18.348  65.747  1.00  0.00    -0.187 C  
HETATM   11  N   UNL     1      -6.935  15.370  68.037  1.00  0.00    -0.121 NA 
HETATM   12  N   UNL     1     -10.876  17.117  69.310  1.00  0.00    -0.154 NA 
HETATM   13  N   UNL     1      -7.186  19.692  69.271  1.00  0.00    -0.347 NA 
HETATM   14  N   UNL     1     -10.155  16.029  64.989  1.00  0.00    -0.419 NA 
HETATM   15  N   UNL     1      -6.478  18.620  64.957  1.00  0.00    -0.490 NA 
ENDBRANCH   3   5
TORSDOF 1
ENDMDL
MODEL       82
REMARK 921   NORMALIZED FREE ENERGY PREDICTED BY IDOCK:   -3.60 KCAL/MOL
REMARK 922        TOTAL FREE ENERGY PREDICTED BY IDOCK:   -3.91 KCAL/MOL
REMARK 923 INTER-LIGAND FREE ENERGY PREDICTED BY IDOCK:   -3.79 KCAL/MOL
REMARK 924 INTRA-LIGAND FREE ENERGY PREDICTED BY IDOCK:   -0.12 KCAL/MOL
REMARK 927      BINDING AFFINITY PREDICTED BY RF-SCORE:    0.00 PKD
ROOT
HETATM    1  O   UNL     1      -7.636  14.945  69.940  1.00  0.00    -0.372 OA 
HETATM    2  H   UNL     1      -7.315  14.961  70.834  1.00  0.00     0.000 HD 
HETATM    3  N   UNL     1      -8.804  14.891  69.705  1.00  0.00    -0.441 NA 
HETATM    4  H   UNL     1      -9.469  14.861  70.477  1.00  0.00     0.000 HD 
ENDROOT
BRANCH   3   5
HETATM    5 FE   UNL     1      -9.473  14.859  67.838  1.00  0.00    -0.182 Fe 
HETATM    6  C   UNL     1     -11.258  14.119  68.460  1.00  0.00    -0.260 C  
HETATM    7  C   UNL     1      -8.766  12.973  67.601  1.00  0.00    -0.189 C  
HETATM    8  C   UNL     1      -7.699  15.601  67.201  1.00  0.00    -0.223 C  
HETATM    9  C   UNL     1     -10.150  14.838  65.929  1.00  0.00    -0.321 C  
HETATM   10  C   UNL     1     -10.178  16.743  68.068  1.00  0.00    -0.300 C  
HETATM   11  N   UNL     1     -10.538  14.827  64.839  1.00  0.00    -0.428 NA 
HETATM   12  N   UNL     1      -8.363  11.896  67.464  1.00  0.00    -0.150 NA 
HETATM   13  N   UNL     1      -6.685  16.024  66.836  1.00  0.00    -0.270 NA 
HETATM   14  N   UNL     1     -12.275  13.697  68.814  1.00  0.00    -0.280 NA 
HETATM   15  N   UNL     1     -10.581  17.820  68.200  1.00  0.00    -0.371 NA 
ENDBRANCH   3   5
TORSDOF 1
ENDMDL
MODEL       83
REMARK 921   NORMALIZED FREE ENERGY PREDICTED BY IDOCK:   -3.57 KCAL/MOL
REMARK 922        TOTAL FREE ENERGY PREDICTED BY IDOCK:   -3.88 KCAL/MOL
REMARK 923 INTER-LIGAND FREE ENERGY PREDICTED BY IDOCK:   -3.80 KCAL/MOL
REMARK 924 INTRA-LIGAND FREE ENERGY PREDICTED BY IDOCK:   -0.07 KCAL/MOL
REMARK 927      BINDING AFFINITY PREDICTED BY RF-SCORE:    0.00 PKD
ROOT
HETATM    1  O   UNL     1      -8.018  19.642  68.392  1.00  0.00    -0.328 OA 
HETATM    2  H   UNL     1      -7.679  20.219  69.067  1.00  0.00     0.000 HD 
HETATM    3  N   UNL     1      -8.334  18.520  68.641  1.00  0.00    -0.324 NA 
HETATM    4  H   UNL     1      -8.238  18.172  69.595  1.00  0.00     0.000 HD 
ENDROOT
BRANCH   3   5
HETATM    5 FE   UNL     1      -9.043  17.318  67.232  1.00  0.00    -0.209 Fe 
HETATM    6  C   UNL     1      -7.566  17.888  65.961  1.00  0.00    -0.214 C  
HETATM    7  C   UNL     1     -10.228  18.809  66.534  1.00  0.00    -0.413 C  
HETATM    8  C   UNL     1     -10.521  16.735  68.488  1.00  0.00    -0.335 C  
HETATM    9  C   UNL     1      -9.770  16.080  65.802  1.00  0.00    -0.305 C  
HETATM   10  C   UNL     1      -7.865  15.825  67.926  1.00  0.00    -0.139 C  
HETATM   11  N   UNL     1     -10.184  15.373  64.985  1.00  0.00    -0.350 NA 
HETATM   12  N   UNL     1     -10.904  19.659  66.134  1.00  0.00    -0.386 NA 
HETATM   13  N   UNL     1     -11.367  16.402  69.205  1.00  0.00    -0.283 NA 
HETATM   14  N   UNL     1      -6.723  18.212  65.238  1.00  0.00    -0.410 NA 
HETATM   15  N   UNL     1      -7.191  14.971  68.323  1.00  0.00    -0.106 NA 
ENDBRANCH   3   5
TORSDOF 1
ENDMDL
MODEL       84
REMARK 921   NORMALIZED FREE ENERGY PREDICTED BY IDOCK:   -3.57 KCAL/MOL
REMARK 922        TOTAL FREE ENERGY PREDICTED BY IDOCK:   -3.87 KCAL/MOL
REMARK 923 INTER-LIGAND FREE ENERGY PREDICTED BY IDOCK:   -3.75 KCAL/MOL
REMARK 924 INTRA-LIGAND FREE ENERGY PREDICTED BY IDOCK:   -0.13 KCAL/MOL
REMARK 927      BINDING AFFINITY PREDICTED BY RF-SCORE:    0.00 PKD
ROOT
HETATM    1  O   UNL     1      -9.092  11.934  64.852  1.00  0.00    -0.410 OA 
HETATM    2  H   UNL     1      -8.478  11.976  64.128  1.00  0.00     0.000 HD 
HETATM    3  N   UNL     1      -8.741  11.591  65.939  1.00  0.00    -0.370 NA 
HETATM    4  H   UNL     1      -7.766  11.337  66.093  1.00  0.00     0.000 HD 
ENDROOT
BRANCH   3   5
HETATM    5 FE   UNL     1     -10.023  11.506  67.450  1.00  0.00    -0.176 Fe 
HETATM    6  C   UNL     1     -10.410   9.554  67.050  1.00  0.00    -0.250 C  
HETATM    7  C   UNL     1     -11.536  12.065  66.219  1.00  0.00    -0.345 C  
HETATM    8  C   UNL     1      -9.646  13.452  67.865  1.00  0.00    -0.216 C  
HETATM    9  C   UNL     1     -11.323  11.427  69.001  1.00  0.00    -0.280 C  
HETATM   10  C   UNL     1      -8.517  10.951  68.684  1.00  0.00    -0.152 C  
HETATM   11  N   UNL     1     -12.066  11.381  69.887  1.00  0.00    -0.327 NA 
HETATM   12  N   UNL     1     -12.400  12.384  65.518  1.00  0.00    -0.624 NA 
HETATM   13  N   UNL     1      -9.431  14.565  68.103  1.00  0.00    -0.202 NA 
HETATM   14  N   UNL     1     -10.630   8.441  66.822  1.00  0.00    -0.253 NA 
HETATM   15  N   UNL     1      -7.655  10.633  69.389  1.00  0.00    -0.139 NA 
ENDBRANCH   3   5
TORSDOF 1
ENDMDL
MODEL       85
REMARK 921   NORMALIZED FREE ENERGY PREDICTED BY IDOCK:   -3.56 KCAL/MOL
REMARK 922        TOTAL FREE ENERGY PREDICTED BY IDOCK:   -3.87 KCAL/MOL
REMARK 923 INTER-LIGAND FREE ENERGY PREDICTED BY IDOCK:   -3.74 KCAL/MOL
REMARK 924 INTRA-LIGAND FREE ENERGY PREDICTED BY IDOCK:   -0.13 KCAL/MOL
REMARK 927      BINDING AFFINITY PREDICTED BY RF-SCORE:    0.00 PKD
ROOT
HETATM    1  O   UNL     1     -12.209  15.385  69.141  1.00  0.00    -0.558 OA 
HETATM    2  H   UNL     1     -13.088  15.184  69.441  1.00  0.00     0.000 HD 
HETATM    3  N   UNL     1     -12.001  15.702  68.011  1.00  0.00    -0.316 NA 
HETATM    4  H   UNL     1     -12.779  15.758  67.354  1.00  0.00     0.000 HD 
ENDROOT
BRANCH   3   5
HETATM    5 FE   UNL     1     -10.166  16.123  67.386  1.00  0.00    -0.234 Fe 
HETATM    6  C   UNL     1      -9.897  14.203  66.787  1.00  0.00    -0.272 C  
HETATM    7  C   UNL     1      -9.421  15.663  69.216  1.00  0.00    -0.264 C  
HETATM    8  C   UNL     1     -10.418  18.045  67.975  1.00  0.00    -0.375 C  
HETATM    9  C   UNL     1      -8.296  16.566  66.743  1.00  0.00    -0.239 C  
HETATM   10  C   UNL     1     -10.904  16.586  65.559  1.00  0.00    -0.188 C  
HETATM   11  N   UNL     1      -7.228  16.818  66.376  1.00  0.00    -0.240 NA 
HETATM   12  N   UNL     1      -8.994  15.401  70.260  1.00  0.00     0.487 NA 
HETATM   13  N   UNL     1     -10.561  19.143  68.312  1.00  0.00    -0.271 NA 
HETATM   14  N   UNL     1      -9.745  13.108  66.445  1.00  0.00    -0.267 NA 
HETATM   15  N   UNL     1     -11.326  16.851  64.514  1.00  0.00    -1.002 NA 
ENDBRANCH   3   5
TORSDOF 1
ENDMDL
MODEL       86
REMARK 921   NORMALIZED FREE ENERGY PREDICTED BY IDOCK:   -3.55 KCAL/MOL
REMARK 922        TOTAL FREE ENERGY PREDICTED BY IDOCK:   -3.86 KCAL/MOL
REMARK 923 INTER-LIGAND FREE ENERGY PREDICTED BY IDOCK:   -3.71 KCAL/MOL
REMARK 924 INTRA-LIGAND FREE ENERGY PREDICTED BY IDOCK:   -0.14 KCAL/MOL
REMARK 927      BINDING AFFINITY PREDICTED BY RF-SCORE:    0.00 PKD
ROOT
HETATM    1  O   UNL     1      -6.232  15.509  67.249  1.00  0.00    -0.310 OA 
HETATM    2  H   UNL     1      -5.717  14.845  66.804  1.00  0.00     0.000 HD 
HETATM    3  N   UNL     1      -7.192  15.992  66.734  1.00  0.00    -0.176 NA 
HETATM    4  H   UNL     1      -7.466  15.689  65.800  1.00  0.00     0.000 HD 
ENDROOT
BRANCH   3   5
HETATM    5 FE   UNL     1      -8.265  17.377  67.663  1.00  0.00    -0.184 Fe 
HETATM    6  C   UNL     1      -9.694  17.277  66.226  1.00  0.00    -0.266 C  
HETATM    7  C   UNL     1      -7.312  18.836  66.623  1.00  0.00    -0.225 C  
HETATM    8  C   UNL     1      -6.850  17.488  69.109  1.00  0.00    -0.232 C  
HETATM    9  C   UNL     1      -9.357  18.787  68.625  1.00  0.00    -0.351 C  
HETATM   10  C   UNL     1      -9.217  15.927  68.706  1.00  0.00    -0.218 C  
HETATM   11  N   UNL     1      -9.982  19.592  69.174  1.00  0.00    -0.427 NA 
HETATM   12  N   UNL     1      -6.769  19.669  66.031  1.00  0.00    -0.222 NA 
HETATM   13  N   UNL     1      -6.042  17.552  69.935  1.00  0.00    -0.225 NA 
HETATM   14  N   UNL     1     -10.509  17.220  65.406  1.00  0.00    -0.646 NA 
HETATM   15  N   UNL     1      -9.762  15.098  69.303  1.00  0.00    -0.230 NA 
ENDBRANCH   3   5
TORSDOF 1
ENDMDL
MODEL       87
REMARK 921   NORMALIZED FREE ENERGY PREDICTED BY IDOCK:   -3.50 KCAL/MOL
REMARK 922        TOTAL FREE ENERGY PREDICTED BY IDOCK:   -3.80 KCAL/MOL
REMARK 923 INTER-LIGAND FREE ENERGY PREDICTED BY IDOCK:   -3.66 KCAL/MOL
REMARK 924 INTRA-LIGAND FREE ENERGY PREDICTED BY IDOCK:   -0.15 KCAL/MOL
REMARK 927      BINDING AFFINITY PREDICTED BY RF-SCORE:    0.00 PKD
ROOT
HETATM    1  O   UNL     1      -9.925  11.438  69.220  1.00  0.00    -0.419 OA 
HETATM    2  H   UNL     1     -10.119  10.816  69.912  1.00  0.00     0.000 HD 
HETATM    3  N   UNL     1     -10.424  12.520  69.206  1.00  0.00    -0.422 NA 
HETATM    4  H   UNL     1     -11.071  12.783  69.950  1.00  0.00     0.000 HD 
ENDROOT
BRANCH   3   5
HETATM    5 FE   UNL     1     -10.019  13.818  67.763  1.00  0.00    -0.208 Fe 
HETATM    6  C   UNL     1      -8.418  14.515  68.798  1.00  0.00    -0.145 C  
HETATM    7  C   UNL     1     -11.205  15.203  68.653  1.00  0.00    -0.286 C  
HETATM    8  C   UNL     1     -11.611  13.133  66.715  1.00  0.00    -0.366 C  
HETATM    9  C   UNL     1      -9.608  15.134  66.278  1.00  0.00    -0.297 C  
HETATM   10  C   UNL     1      -8.837  12.440  66.868  1.00  0.00    -0.205 C  
HETATM   11  N   UNL     1      -9.373  15.886  65.431  1.00  0.00    -0.271 NA 
HETATM   12  N   UNL     1     -11.881  15.994  69.160  1.00  0.00    -0.326 NA 
HETATM   13  N   UNL     1     -12.521  12.742  66.115  1.00  0.00    -0.451 NA 
HETATM   14  N   UNL     1      -7.505  14.911  69.388  1.00  0.00    -0.178 NA 
HETATM   15  N   UNL     1      -8.161  11.651  66.357  1.00  0.00    -0.084 NA 
ENDBRANCH   3   5
TORSDOF 1
ENDMDL
MODEL       88
REMARK 921   NORMALIZED FREE ENERGY PREDICTED BY IDOCK:   -3.50 KCAL/MOL
REMARK 922        TOTAL FREE ENERGY PREDICTED BY IDOCK:   -3.80 KCAL/MOL
REMARK 923 INTER-LIGAND FREE ENERGY PREDICTED BY IDOCK:   -3.70 KCAL/MOL
REMARK 924 INTRA-LIGAND FREE ENERGY PREDICTED BY IDOCK:   -0.10 KCAL/MOL
REMARK 927      BINDING AFFINITY PREDICTED BY RF-SCORE:    0.00 PKD
ROOT
HETATM    1  O   UNL     1     -10.845   7.283  74.014  1.00  0.00    -0.556 OA 
HETATM    2  H   UNL     1     -10.743   7.615  74.899  1.00  0.00     0.000 HD 
HETATM    3  N   UNL     1     -10.576   7.956  73.068  1.00  0.00    -0.365 NA 
HETATM    4  H   UNL     1     -10.231   8.905  73.210  1.00  0.00     0.000 HD 
ENDROOT
BRANCH   3   5
HETATM    5 FE   UNL     1     -10.789   7.262  71.222  1.00  0.00    -0.223 Fe 
HETATM    6  C   UNL     1     -10.949   9.152  70.498  1.00  0.00    -0.258 C  
HETATM    7  C   UNL     1     -12.801   7.178  71.469  1.00  0.00    -0.391 C  
HETATM    8  C   UNL     1     -10.627   5.370  71.927  1.00  0.00    -0.226 C  
HETATM    9  C   UNL     1     -10.997   6.543  69.340  1.00  0.00    -0.337 C  
HETATM   10  C   UNL     1      -8.781   7.341  70.971  1.00  0.00    -0.140 C  
HETATM   11  N   UNL     1     -11.115   6.133  68.264  1.00  0.00    -0.319 NA 
HETATM   12  N   UNL     1     -13.949   7.130  71.608  1.00  0.00    -0.361 NA 
HETATM   13  N   UNL     1     -10.535   4.289  72.329  1.00  0.00    -0.140 NA 
HETATM   14  N   UNL     1     -11.041  10.229  70.086  1.00  0.00    -0.299 NA 
HETATM   15  N   UNL     1      -7.634   7.385  70.827  1.00  0.00    -0.082 NA 
ENDBRANCH   3   5
TORSDOF 1
ENDMDL
MODEL       89
REMARK 921   NORMALIZED FREE ENERGY PREDICTED BY IDOCK:   -3.50 KCAL/MOL
REMARK 922        TOTAL FREE ENERGY PREDICTED BY IDOCK:   -3.80 KCAL/MOL
REMARK 923 INTER-LIGAND FREE ENERGY PREDICTED BY IDOCK:   -3.68 KCAL/MOL
REMARK 924 INTRA-LIGAND FREE ENERGY PREDICTED BY IDOCK:   -0.12 KCAL/MOL
REMARK 927      BINDING AFFINITY PREDICTED BY RF-SCORE:    0.00 PKD
ROOT
HETATM    1  O   UNL     1      -8.451  13.266  68.713  1.00  0.00    -0.351 OA 
HETATM    2  H   UNL     1      -8.240  14.139  69.023  1.00  0.00     0.000 HD 
HETATM    3  N   UNL     1      -9.522  12.781  68.916  1.00  0.00    -0.389 NA 
HETATM    4  H   UNL     1     -10.222  13.313  69.433  1.00  0.00     0.000 HD 
ENDROOT
BRANCH   3   5
HETATM    5 FE   UNL     1      -9.962  10.960  68.268  1.00  0.00    -0.149 Fe 
HETATM    6  C   UNL     1     -11.207  11.728  66.862  1.00  0.00    -0.327 C  
HETATM    7  C   UNL     1     -11.504  10.848  69.582  1.00  0.00    -0.305 C  
HETATM    8  C   UNL     1      -8.720  10.175  69.664  1.00  0.00    -0.158 C  
HETATM    9  C   UNL     1     -10.398   9.095  67.608  1.00  0.00    -0.255 C  
HETATM   10  C   UNL     1      -8.423  11.064  66.957  1.00  0.00    -0.141 C  
HETATM   11  N   UNL     1     -10.648   8.030  67.230  1.00  0.00    -0.313 NA 
HETATM   12  N   UNL     1     -12.384  10.782  70.331  1.00  0.00    -0.330 NA 
HETATM   13  N   UNL     1      -8.011   9.726  70.461  1.00  0.00    -0.258 NA 
HETATM   14  N   UNL     1     -11.917  12.167  66.060  1.00  0.00    -0.585 NA 
HETATM   15  N   UNL     1      -7.543  11.124  66.208  1.00  0.00    -0.116 NA 
ENDBRANCH   3   5
TORSDOF 1
ENDMDL
MODEL       90
REMARK 921   NORMALIZED FREE ENERGY PREDICTED BY IDOCK:   -3.48 KCAL/MOL
REMARK 922        TOTAL FREE ENERGY PREDICTED BY IDOCK:   -3.78 KCAL/MOL
REMARK 923 INTER-LIGAND FREE ENERGY PREDICTED BY IDOCK:   -3.65 KCAL/MOL
REMARK 924 INTRA-LIGAND FREE ENERGY PREDICTED BY IDOCK:   -0.12 KCAL/MOL
REMARK 927      BINDING AFFINITY PREDICTED BY RF-SCORE:    0.00 PKD
ROOT
HETATM    1  O   UNL     1     -10.766   7.292  74.019  1.00  0.00    -0.545 OA 
HETATM    2  H   UNL     1     -10.670   7.621  74.906  1.00  0.00     0.000 HD 
HETATM    3  N   UNL     1     -10.626   8.009  73.077  1.00  0.00    -0.334 NA 
HETATM    4  H   UNL     1     -10.400   8.992  73.225  1.00  0.00     0.000 HD 
ENDROOT
BRANCH   3   5
HETATM    5 FE   UNL     1     -10.825   7.322  71.227  1.00  0.00    -0.223 Fe 
HETATM    6  C   UNL     1      -8.821   7.454  70.930  1.00  0.00    -0.148 C  
HETATM    7  C   UNL     1     -11.059   9.213  70.533  1.00  0.00    -0.260 C  
HETATM    8  C   UNL     1     -12.826   7.180  71.507  1.00  0.00    -0.391 C  
HETATM    9  C   UNL     1     -11.038   6.610  69.342  1.00  0.00    -0.310 C  
HETATM   10  C   UNL     1     -10.595   5.431  71.915  1.00  0.00    -0.226 C  
HETATM   11  N   UNL     1     -11.159   6.204  68.266  1.00  0.00    -0.319 NA 
HETATM   12  N   UNL     1     -11.193  10.292  70.135  1.00  0.00    -0.296 NA 
HETATM   13  N   UNL     1     -13.970   7.099  71.666  1.00  0.00    -0.361 NA 
HETATM   14  N   UNL     1      -7.679   7.529  70.762  1.00  0.00    -0.082 NA 
HETATM   15  N   UNL     1     -10.463   4.351  72.308  1.00  0.00    -0.161 NA 
ENDBRANCH   3   5
TORSDOF 1
ENDMDL
MODEL       91
REMARK 921   NORMALIZED FREE ENERGY PREDICTED BY IDOCK:   -3.48 KCAL/MOL
REMARK 922        TOTAL FREE ENERGY PREDICTED BY IDOCK:   -3.78 KCAL/MOL
REMARK 923 INTER-LIGAND FREE ENERGY PREDICTED BY IDOCK:   -3.71 KCAL/MOL
REMARK 924 INTRA-LIGAND FREE ENERGY PREDICTED BY IDOCK:   -0.07 KCAL/MOL
REMARK 927      BINDING AFFINITY PREDICTED BY RF-SCORE:    0.00 PKD
ROOT
HETATM    1  O   UNL     1     -10.262  13.395  69.192  1.00  0.00    -0.430 OA 
HETATM    2  H   UNL     1     -10.016  14.265  69.484  1.00  0.00     0.000 HD 
HETATM    3  N   UNL     1      -9.444  12.620  68.804  1.00  0.00    -0.408 NA 
HETATM    4  H   UNL     1      -8.462  12.896  68.784  1.00  0.00     0.000 HD 
ENDROOT
BRANCH   3   5
HETATM    5 FE   UNL     1      -9.959  10.804  68.195  1.00  0.00    -0.145 Fe 
HETATM    6  C   UNL     1     -11.435  10.724  69.587  1.00  0.00    -0.305 C  
HETATM    7  C   UNL     1      -8.660   9.976  69.515  1.00  0.00    -0.186 C  
HETATM    8  C   UNL     1      -8.493  10.869  66.798  1.00  0.00    -0.139 C  
HETATM    9  C   UNL     1     -10.483   8.953  67.560  1.00  0.00    -0.269 C  
HETATM   10  C   UNL     1     -11.255  11.625  66.874  1.00  0.00    -0.313 C  
HETATM   11  N   UNL     1     -10.783   7.896  67.197  1.00  0.00    -0.302 NA 
HETATM   12  N   UNL     1      -7.919   9.502  70.267  1.00  0.00    -0.162 NA 
HETATM   13  N   UNL     1      -7.656  10.905  66.000  1.00  0.00    -0.129 NA 
HETATM   14  N   UNL     1     -12.276  10.679  70.380  1.00  0.00    -0.318 NA 
HETATM   15  N   UNL     1     -11.996  12.095  66.118  1.00  0.00    -0.600 NA 
ENDBRANCH   3   5
TORSDOF 1
ENDMDL
MODEL       92
REMARK 921   NORMALIZED FREE ENERGY PREDICTED BY IDOCK:   -3.46 KCAL/MOL
REMARK 922        TOTAL FREE ENERGY PREDICTED BY IDOCK:   -3.76 KCAL/MOL
REMARK 923 INTER-LIGAND FREE ENERGY PREDICTED BY IDOCK:   -3.64 KCAL/MOL
REMARK 924 INTRA-LIGAND FREE ENERGY PREDICTED BY IDOCK:   -0.12 KCAL/MOL
REMARK 927      BINDING AFFINITY PREDICTED BY RF-SCORE:    0.00 PKD
ROOT
HETATM    1  O   UNL     1     -12.320  10.892  68.346  1.00  0.00    -0.803 OA 
HETATM    2  H   UNL     1     -13.216  10.669  68.572  1.00  0.00     0.000 HD 
HETATM    3  N   UNL     1     -11.627  10.128  67.748  1.00  0.00    -0.567 NA 
HETATM    4  H   UNL     1     -12.001   9.220  67.474  1.00  0.00     0.000 HD 
ENDROOT
BRANCH   3   5
HETATM    5 FE   UNL     1      -9.758  10.595  67.276  1.00  0.00    -0.153 Fe 
HETATM    6  C   UNL     1      -9.129  10.083  69.137  1.00  0.00    -0.184 C  
HETATM    7  C   UNL     1     -10.061  12.503  67.896  1.00  0.00    -0.214 C  
HETATM    8  C   UNL     1     -10.367  11.107  65.413  1.00  0.00    -0.271 C  
HETATM    9  C   UNL     1      -7.850  11.066  66.782  1.00  0.00    -0.149 C  
HETATM   10  C   UNL     1      -9.450   8.693  66.653  1.00  0.00    -0.207 C  
HETATM   11  N   UNL     1      -6.761  11.334  66.500  1.00  0.00    -0.130 NA 
HETATM   12  N   UNL     1     -10.232  13.591  68.249  1.00  0.00    -0.245 NA 
HETATM   13  N   UNL     1     -10.714  11.400  64.349  1.00  0.00    -0.335 NA 
HETATM   14  N   UNL     1      -8.771   9.791  70.198  1.00  0.00    -0.211 NA 
HETATM   15  N   UNL     1      -9.274   7.606  66.297  1.00  0.00    -0.173 NA 
ENDBRANCH   3   5
TORSDOF 1
ENDMDL
MODEL       93
REMARK 921   NORMALIZED FREE ENERGY PREDICTED BY IDOCK:   -3.43 KCAL/MOL
REMARK 922        TOTAL FREE ENERGY PREDICTED BY IDOCK:   -3.72 KCAL/MOL
REMARK 923 INTER-LIGAND FREE ENERGY PREDICTED BY IDOCK:   -3.65 KCAL/MOL
REMARK 924 INTRA-LIGAND FREE ENERGY PREDICTED BY IDOCK:   -0.07 KCAL/MOL
REMARK 927      BINDING AFFINITY PREDICTED BY RF-SCORE:    0.00 PKD
ROOT
HETATM    1  O   UNL     1      -9.501  15.399  70.171  1.00  0.00    -0.367 OA 
HETATM    2  H   UNL     1      -9.877  14.875  70.870  1.00  0.00     0.000 HD 
HETATM    3  N   UNL     1      -8.956  14.887  69.242  1.00  0.00    -0.383 NA 
HETATM    4  H   UNL     1      -8.891  13.871  69.197  1.00  0.00     0.000 HD 
ENDROOT
BRANCH   3   5
HETATM    5 FE   UNL     1      -8.172  15.981  67.785  1.00  0.00    -0.137 Fe 
HETATM    6  C   UNL     1      -9.335  15.039  66.413  1.00  0.00    -0.303 C  
HETATM    7  C   UNL     1      -6.714  14.597  67.509  1.00  0.00    -0.122 C  
HETATM    8  C   UNL     1      -7.007  16.933  69.141  1.00  0.00    -0.234 C  
HETATM    9  C   UNL     1      -7.372  17.109  66.304  1.00  0.00    -0.291 C  
HETATM   10  C   UNL     1      -9.623  17.366  68.057  1.00  0.00    -0.276 C  
HETATM   11  N   UNL     1      -6.916  17.753  65.458  1.00  0.00    -0.377 NA 
HETATM   12  N   UNL     1      -5.882  13.809  67.351  1.00  0.00    -0.335 NA 
HETATM   13  N   UNL     1      -6.341  17.478  69.915  1.00  0.00    -0.131 NA 
HETATM   14  N   UNL     1      -9.998  14.502  65.632  1.00  0.00    -0.346 NA 
HETATM   15  N   UNL     1     -10.452  18.159  68.213  1.00  0.00    -0.349 NA 
ENDBRANCH   3   5
TORSDOF 1
ENDMDL
MODEL       94
REMARK 921   NORMALIZED FREE ENERGY PREDICTED BY IDOCK:   -3.42 KCAL/MOL
REMARK 922        TOTAL FREE ENERGY PREDICTED BY IDOCK:   -3.71 KCAL/MOL
REMARK 923 INTER-LIGAND FREE ENERGY PREDICTED BY IDOCK:   -3.64 KCAL/MOL
REMARK 924 INTRA-LIGAND FREE ENERGY PREDICTED BY IDOCK:   -0.07 KCAL/MOL
REMARK 927      BINDING AFFINITY PREDICTED BY RF-SCORE:    0.00 PKD
ROOT
HETATM    1  O   UNL     1     -10.864   7.349  73.907  1.00  0.00    -0.540 OA 
HETATM    2  H   UNL     1     -10.736   7.654  74.798  1.00  0.00     0.000 HD 
HETATM    3  N   UNL     1     -10.428   7.957  72.979  1.00  0.00    -0.357 NA 
HETATM    4  H   UNL     1      -9.910   8.819  73.143  1.00  0.00     0.000 HD 
ENDROOT
BRANCH   3   5
HETATM    5 FE   UNL     1     -10.695   7.319  71.120  1.00  0.00    -0.215 Fe 
HETATM    6  C   UNL     1     -12.698   7.183  71.422  1.00  0.00    -0.391 C  
HETATM    7  C   UNL     1     -10.466   5.398  71.729  1.00  0.00    -0.226 C  
HETATM    8  C   UNL     1      -8.699   7.452  70.799  1.00  0.00    -0.145 C  
HETATM    9  C   UNL     1     -10.958   6.676  69.217  1.00  0.00    -0.295 C  
HETATM   10  C   UNL     1     -10.922   9.234  70.505  1.00  0.00    -0.265 C  
HETATM   11  N   UNL     1     -11.109   6.310  68.130  1.00  0.00    -0.326 NA 
HETATM   12  N   UNL     1     -10.335   4.301  72.076  1.00  0.00    -0.145 NA 
HETATM   13  N   UNL     1      -7.559   7.527  70.616  1.00  0.00    -0.084 NA 
HETATM   14  N   UNL     1     -13.839   7.106  71.595  1.00  0.00    -0.355 NA 
HETATM   15  N   UNL     1     -11.051  10.330  70.153  1.00  0.00    -0.299 NA 
ENDBRANCH   3   5
TORSDOF 1
ENDMDL
MODEL       95
REMARK 921   NORMALIZED FREE ENERGY PREDICTED BY IDOCK:   -3.41 KCAL/MOL
REMARK 922        TOTAL FREE ENERGY PREDICTED BY IDOCK:   -3.71 KCAL/MOL
REMARK 923 INTER-LIGAND FREE ENERGY PREDICTED BY IDOCK:   -3.58 KCAL/MOL
REMARK 924 INTRA-LIGAND FREE ENERGY PREDICTED BY IDOCK:   -0.13 KCAL/MOL
REMARK 927      BINDING AFFINITY PREDICTED BY RF-SCORE:    0.00 PKD
ROOT
HETATM    1  O   UNL     1     -11.772  10.051  67.889  1.00  0.00    -0.593 OA 
HETATM    2  H   UNL     1     -12.241  10.137  67.067  1.00  0.00     0.000 HD 
HETATM    3  N   UNL     1     -11.090   9.099  68.114  1.00  0.00    -0.482 NA 
HETATM    4  H   UNL     1     -11.009   8.364  67.413  1.00  0.00     0.000 HD 
ENDROOT
BRANCH   3   5
HETATM    5 FE   UNL     1     -10.111   8.923  69.830  1.00  0.00    -0.172 Fe 
HETATM    6  C   UNL     1      -8.950   7.451  69.050  1.00  0.00    -0.131 C  
HETATM    7  C   UNL     1     -11.449   7.538  70.469  1.00  0.00    -0.237 C  
HETATM    8  C   UNL     1     -11.257  10.392  70.623  1.00  0.00    -0.275 C  
HETATM    9  C   UNL     1      -9.111   8.756  71.584  1.00  0.00    -0.244 C  
HETATM   10  C   UNL     1      -8.774  10.306  69.199  1.00  0.00    -0.172 C  
HETATM   11  N   UNL     1      -8.539   8.660  72.585  1.00  0.00    -0.407 NA 
HETATM   12  N   UNL     1     -12.211   6.748  70.835  1.00  0.00    -0.377 NA 
HETATM   13  N   UNL     1     -11.912  11.231  71.077  1.00  0.00    -0.224 NA 
HETATM   14  N   UNL     1      -8.289   6.613  68.605  1.00  0.00    -0.122 NA 
HETATM   15  N   UNL     1      -8.010  11.097  68.838  1.00  0.00    -0.142 NA 
ENDBRANCH   3   5
TORSDOF 1
ENDMDL
MODEL       96
REMARK 921   NORMALIZED FREE ENERGY PREDICTED BY IDOCK:   -3.41 KCAL/MOL
REMARK 922        TOTAL FREE ENERGY PREDICTED BY IDOCK:   -3.71 KCAL/MOL
REMARK 923 INTER-LIGAND FREE ENERGY PREDICTED BY IDOCK:   -3.63 KCAL/MOL
REMARK 924 INTRA-LIGAND FREE ENERGY PREDICTED BY IDOCK:   -0.08 KCAL/MOL
REMARK 927      BINDING AFFINITY PREDICTED BY RF-SCORE:    0.00 PKD
ROOT
HETATM    1  O   UNL     1     -11.723  10.242  67.586  1.00  0.00    -0.570 OA 
HETATM    2  H   UNL     1     -12.249  10.339  66.801  1.00  0.00     0.000 HD 
HETATM    3  N   UNL     1     -11.015   9.295  67.740  1.00  0.00    -0.493 NA 
HETATM    4  H   UNL     1     -10.974   8.576  67.018  1.00  0.00     0.000 HD 
ENDROOT
BRANCH   3   5
HETATM    5 FE   UNL     1      -9.915   9.094  69.379  1.00  0.00    -0.164 Fe 
HETATM    6  C   UNL     1      -8.903  10.799  68.945  1.00  0.00    -0.150 C  
HETATM    7  C   UNL     1      -8.546   8.010  68.345  1.00  0.00    -0.127 C  
HETATM    8  C   UNL     1     -10.917   7.391  69.829  1.00  0.00    -0.200 C  
HETATM    9  C   UNL     1      -8.804   8.883  71.059  1.00  0.00    -0.230 C  
HETATM   10  C   UNL     1     -11.279  10.171  70.416  1.00  0.00    -0.330 C  
HETATM   11  N   UNL     1      -8.168   8.764  72.019  1.00  0.00    -0.366 NA 
HETATM   12  N   UNL     1      -7.764   7.392  67.757  1.00  0.00    -0.110 NA 
HETATM   13  N   UNL     1     -11.489   6.419  70.086  1.00  0.00    -0.413 NA 
HETATM   14  N   UNL     1      -8.327  11.771  68.698  1.00  0.00    -0.121 NA 
HETATM   15  N   UNL     1     -12.060  10.788  71.008  1.00  0.00    -0.352 NA 
ENDBRANCH   3   5
TORSDOF 1
ENDMDL
MODEL       97
REMARK 921   NORMALIZED FREE ENERGY PREDICTED BY IDOCK:   -3.41 KCAL/MOL
REMARK 922        TOTAL FREE ENERGY PREDICTED BY IDOCK:   -3.71 KCAL/MOL
REMARK 923 INTER-LIGAND FREE ENERGY PREDICTED BY IDOCK:   -3.64 KCAL/MOL
REMARK 924 INTRA-LIGAND FREE ENERGY PREDICTED BY IDOCK:   -0.07 KCAL/MOL
REMARK 927      BINDING AFFINITY PREDICTED BY RF-SCORE:    0.00 PKD
ROOT
HETATM    1  O   UNL     1     -10.911   7.429  73.852  1.00  0.00    -0.536 OA 
HETATM    2  H   UNL     1     -10.817   7.755  74.740  1.00  0.00     0.000 HD 
HETATM    3  N   UNL     1     -10.545   8.072  72.917  1.00  0.00    -0.356 NA 
HETATM    4  H   UNL     1     -10.124   8.988  73.073  1.00  0.00     0.000 HD 
ENDROOT
BRANCH   3   5
HETATM    5 FE   UNL     1     -10.742   7.392  71.065  1.00  0.00    -0.216 Fe 
HETATM    6  C   UNL     1     -10.513   5.481  71.711  1.00  0.00    -0.228 C  
HETATM    7  C   UNL     1      -8.739   7.542  70.780  1.00  0.00    -0.140 C  
HETATM    8  C   UNL     1     -10.975   9.292  70.403  1.00  0.00    -0.255 C  
HETATM    9  C   UNL     1     -10.952   6.706  69.170  1.00  0.00    -0.287 C  
HETATM   10  C   UNL     1     -12.742   7.242  71.342  1.00  0.00    -0.389 C  
HETATM   11  N   UNL     1     -11.073   6.313  68.089  1.00  0.00    -0.326 NA 
HETATM   12  N   UNL     1      -7.596   7.627  70.617  1.00  0.00    -0.079 NA 
HETATM   13  N   UNL     1     -11.108  10.377  70.024  1.00  0.00    -0.294 NA 
HETATM   14  N   UNL     1     -10.383   4.392  72.080  1.00  0.00    -0.174 NA 
HETATM   15  N   UNL     1     -13.885   7.157  71.500  1.00  0.00    -0.356 NA 
ENDBRANCH   3   5
TORSDOF 1
ENDMDL
MODEL       98
REMARK 921   NORMALIZED FREE ENERGY PREDICTED BY IDOCK:   -3.40 KCAL/MOL
REMARK 922        TOTAL FREE ENERGY PREDICTED BY IDOCK:   -3.70 KCAL/MOL
REMARK 923 INTER-LIGAND FREE ENERGY PREDICTED BY IDOCK:   -3.62 KCAL/MOL
REMARK 924 INTRA-LIGAND FREE ENERGY PREDICTED BY IDOCK:   -0.08 KCAL/MOL
REMARK 927      BINDING AFFINITY PREDICTED BY RF-SCORE:    0.00 PKD
ROOT
HETATM    1  O   UNL     1     -11.227   7.216  67.451  1.00  0.00    -0.576 OA 
HETATM    2  H   UNL     1     -11.697   6.897  66.689  1.00  0.00     0.000 HD 
HETATM    3  N   UNL     1     -11.475   6.807  68.543  1.00  0.00    -0.542 NA 
HETATM    4  H   UNL     1     -12.204   6.103  68.662  1.00  0.00     0.000 HD 
ENDROOT
BRANCH   3   5
HETATM    5 FE   UNL     1     -10.495   7.473  70.134  1.00  0.00    -0.194 Fe 
HETATM    6  C   UNL     1     -10.133   5.571  70.744  1.00  0.00    -0.212 C  
HETATM    7  C   UNL     1     -12.218   7.495  71.205  1.00  0.00    -0.329 C  
HETATM    8  C   UNL     1     -10.845   9.377  69.538  1.00  0.00    -0.213 C  
HETATM    9  C   UNL     1      -9.489   8.164  71.750  1.00  0.00    -0.188 C  
HETATM   10  C   UNL     1      -8.774   7.456  69.069  1.00  0.00    -0.133 C  
HETATM   11  N   UNL     1      -8.913   8.557  72.674  1.00  0.00    -0.347 NA 
HETATM   12  N   UNL     1     -13.200   7.509  71.818  1.00  0.00    -0.337 NA 
HETATM   13  N   UNL     1     -11.045  10.465  69.199  1.00  0.00    -0.234 NA 
HETATM   14  N   UNL     1      -9.926   4.487  71.091  1.00  0.00    -0.197 NA 
HETATM   15  N   UNL     1      -7.789   7.446  68.459  1.00  0.00    -0.120 NA 
ENDBRANCH   3   5
TORSDOF 1
ENDMDL
MODEL       99
REMARK 921   NORMALIZED FREE ENERGY PREDICTED BY IDOCK:   -3.39 KCAL/MOL
REMARK 922        TOTAL FREE ENERGY PREDICTED BY IDOCK:   -3.69 KCAL/MOL
REMARK 923 INTER-LIGAND FREE ENERGY PREDICTED BY IDOCK:   -3.60 KCAL/MOL
REMARK 924 INTRA-LIGAND FREE ENERGY PREDICTED BY IDOCK:   -0.09 KCAL/MOL
REMARK 927      BINDING AFFINITY PREDICTED BY RF-SCORE:    0.00 PKD
ROOT
HETATM    1  O   UNL     1     -11.413  14.563  68.713  1.00  0.00    -0.264 OA 
HETATM    2  H   UNL     1     -11.499  14.864  69.610  1.00  0.00     0.000 HD 
HETATM    3  N   UNL     1     -10.590  13.756  68.409  1.00  0.00    -0.247 NA 
HETATM    4  H   UNL     1      -9.967  13.382  69.124  1.00  0.00     0.000 HD 
ENDROOT
BRANCH   3   5
HETATM    5 FE   UNL     1     -10.412  13.128  66.536  1.00  0.00    -0.252 Fe 
HETATM    6  C   UNL     1      -9.732  14.951  65.958  1.00  0.00    -0.328 C  
HETATM    7  C   UNL     1     -12.317  13.707  66.145  1.00  0.00    -0.426 C  
HETATM    8  C   UNL     1     -11.086  11.301  67.096  1.00  0.00    -0.301 C  
HETATM    9  C   UNL     1     -10.227  12.474  64.628  1.00  0.00    -0.290 C  
HETATM   10  C   UNL     1      -8.512  12.545  66.921  1.00  0.00    -0.130 C  
HETATM   11  N   UNL     1     -10.120  12.102  63.537  1.00  0.00    -0.423 NA 
HETATM   12  N   UNL     1     -13.403  14.037  65.920  1.00  0.00    -0.219 NA 
HETATM   13  N   UNL     1     -11.472  10.258  67.415  1.00  0.00    -0.174 NA 
HETATM   14  N   UNL     1      -9.344  15.990  65.629  1.00  0.00    -0.397 NA 
HETATM   15  N   UNL     1      -7.426  12.212  67.142  1.00  0.00    -0.148 NA 
ENDBRANCH   3   5
TORSDOF 1
ENDMDL
MODEL      100
REMARK 921   NORMALIZED FREE ENERGY PREDICTED BY IDOCK:   -3.36 KCAL/MOL
REMARK 922        TOTAL FREE ENERGY PREDICTED BY IDOCK:   -3.66 KCAL/MOL
REMARK 923 INTER-LIGAND FREE ENERGY PREDICTED BY IDOCK:   -3.57 KCAL/MOL
REMARK 924 INTRA-LIGAND FREE ENERGY PREDICTED BY IDOCK:   -0.09 KCAL/MOL
REMARK 927      BINDING AFFINITY PREDICTED BY RF-SCORE:    0.00 PKD
ROOT
HETATM    1  O   UNL     1      -8.442   8.578  73.600  1.00  0.00    -0.353 OA 
HETATM    2  H   UNL     1      -8.080   8.914  74.412  1.00  0.00     0.000 HD 
HETATM    3  N   UNL     1      -9.430   7.911  73.595  1.00  0.00    -0.294 NA 
HETATM    4  H   UNL     1      -9.894   7.696  74.477  1.00  0.00     0.000 HD 
ENDROOT
BRANCH   3   5
HETATM    5 FE   UNL     1     -10.186   7.211  71.900  1.00  0.00    -0.183 Fe 
HETATM    6  C   UNL     1     -11.028   5.649  72.886  1.00  0.00    -0.282 C  
HETATM    7  C   UNL     1      -8.507   6.115  71.586  1.00  0.00    -0.130 C  
HETATM    8  C   UNL     1      -9.355   8.764  70.901  1.00  0.00    -0.214 C  
HETATM    9  C   UNL     1     -10.960   6.509  70.165  1.00  0.00    -0.317 C  
HETATM   10  C   UNL     1     -11.862   8.303  72.207  1.00  0.00    -0.388 C  
HETATM   11  N   UNL     1     -11.403   6.107  69.174  1.00  0.00    -0.355 NA 
HETATM   12  N   UNL     1      -7.550   5.490  71.406  1.00  0.00    -0.100 NA 
HETATM   13  N   UNL     1      -8.880   9.652  70.329  1.00  0.00    -0.233 NA 
HETATM   14  N   UNL     1     -11.508   4.759  73.449  1.00  0.00    -0.319 NA 
HETATM   15  N   UNL     1     -12.820   8.929  72.382  1.00  0.00    -0.399 NA 
ENDBRANCH   3   5
TORSDOF 1
ENDMDL
MODEL      101
REMARK 921   NORMALIZED FREE ENERGY PREDICTED BY IDOCK:   -3.36 KCAL/MOL
REMARK 922        TOTAL FREE ENERGY PREDICTED BY IDOCK:   -3.66 KCAL/MOL
REMARK 923 INTER-LIGAND FREE ENERGY PREDICTED BY IDOCK:   -3.56 KCAL/MOL
REMARK 924 INTRA-LIGAND FREE ENERGY PREDICTED BY IDOCK:   -0.10 KCAL/MOL
REMARK 927      BINDING AFFINITY PREDICTED BY RF-SCORE:    0.00 PKD
ROOT
HETATM    1  O   UNL     1      -7.606  10.553  70.450  1.00  0.00    -0.446 OA 
HETATM    2  H   UNL     1      -7.042  11.309  70.333  1.00  0.00     0.000 HD 
HETATM    3  N   UNL     1      -8.519  10.344  69.713  1.00  0.00    -0.375 NA 
HETATM    4  H   UNL     1      -8.699  10.988  68.943  1.00  0.00     0.000 HD 
ENDROOT
BRANCH   3   5
HETATM    5 FE   UNL     1      -9.695   8.766  69.959  1.00  0.00    -0.154 Fe 
HETATM    6  C   UNL     1     -11.226   9.962  70.548  1.00  0.00    -0.330 C  
HETATM    7  C   UNL     1      -9.083   8.591  71.885  1.00  0.00    -0.244 C  
HETATM    8  C   UNL     1      -8.179   7.558  69.370  1.00  0.00    -0.130 C  
HETATM    9  C   UNL     1     -10.891   7.149  70.199  1.00  0.00    -0.257 C  
HETATM   10  C   UNL     1     -10.308   8.934  68.037  1.00  0.00    -0.219 C  
HETATM   11  N   UNL     1     -11.575   6.225  70.336  1.00  0.00    -0.360 NA 
HETATM   12  N   UNL     1      -8.734   8.489  72.984  1.00  0.00    -0.371 NA 
HETATM   13  N   UNL     1      -7.314   6.867  69.034  1.00  0.00    -0.091 NA 
HETATM   14  N   UNL     1     -12.099  10.644  70.883  1.00  0.00    -0.361 NA 
HETATM   15  N   UNL     1     -10.658   9.031  66.938  1.00  0.00    -0.221 NA 
ENDBRANCH   3   5
TORSDOF 1
ENDMDL
MODEL      102
REMARK 921   NORMALIZED FREE ENERGY PREDICTED BY IDOCK:   -3.35 KCAL/MOL
REMARK 922        TOTAL FREE ENERGY PREDICTED BY IDOCK:   -3.65 KCAL/MOL
REMARK 923 INTER-LIGAND FREE ENERGY PREDICTED BY IDOCK:   -3.50 KCAL/MOL
REMARK 924 INTRA-LIGAND FREE ENERGY PREDICTED BY IDOCK:   -0.15 KCAL/MOL
REMARK 927      BINDING AFFINITY PREDICTED BY RF-SCORE:    0.00 PKD
ROOT
HETATM    1  O   UNL     1      -9.326   7.589  74.370  1.00  0.00    -0.424 OA 
HETATM    2  H   UNL     1      -8.924   7.949  75.152  1.00  0.00     0.000 HD 
HETATM    3  N   UNL     1      -9.298   8.180  73.334  1.00  0.00    -0.242 NA 
HETATM    4  H   UNL     1      -8.835   9.088  73.288  1.00  0.00     0.000 HD 
ENDROOT
BRANCH   3   5
HETATM    5 FE   UNL     1     -10.138   7.429  71.702  1.00  0.00    -0.177 Fe 
HETATM    6  C   UNL     1      -8.446   6.393  71.273  1.00  0.00    -0.123 C  
HETATM    7  C   UNL     1      -9.460   9.000  70.612  1.00  0.00    -0.236 C  
HETATM    8  C   UNL     1     -11.835   8.454  72.117  1.00  0.00    -0.375 C  
HETATM    9  C   UNL     1     -11.008   6.661  70.042  1.00  0.00    -0.311 C  
HETATM   10  C   UNL     1     -10.820   5.861  72.786  1.00  0.00    -0.252 C  
HETATM   11  N   UNL     1     -11.504   6.221  69.094  1.00  0.00    -0.315 NA 
HETATM   12  N   UNL     1      -9.074   9.896  69.988  1.00  0.00    -0.218 NA 
HETATM   13  N   UNL     1     -12.805   9.040  72.354  1.00  0.00    -0.401 NA 
HETATM   14  N   UNL     1      -7.482   5.802  71.029  1.00  0.00    -0.088 NA 
HETATM   15  N   UNL     1     -11.210   4.964  73.406  1.00  0.00    -0.339 NA 
ENDBRANCH   3   5
TORSDOF 1
ENDMDL
MODEL      103
REMARK 921   NORMALIZED FREE ENERGY PREDICTED BY IDOCK:   -3.34 KCAL/MOL
REMARK 922        TOTAL FREE ENERGY PREDICTED BY IDOCK:   -3.64 KCAL/MOL
REMARK 923 INTER-LIGAND FREE ENERGY PREDICTED BY IDOCK:   -3.51 KCAL/MOL
REMARK 924 INTRA-LIGAND FREE ENERGY PREDICTED BY IDOCK:   -0.13 KCAL/MOL
REMARK 927      BINDING AFFINITY PREDICTED BY RF-SCORE:    0.00 PKD
ROOT
HETATM    1  O   UNL     1      -9.939  11.673  69.226  1.00  0.00    -0.413 OA 
HETATM    2  H   UNL     1     -10.144  11.038  69.902  1.00  0.00     0.000 HD 
HETATM    3  N   UNL     1     -10.533  12.705  69.148  1.00  0.00    -0.434 NA 
HETATM    4  H   UNL     1     -11.273  12.908  69.819  1.00  0.00     0.000 HD 
ENDROOT
BRANCH   3   5
HETATM    5 FE   UNL     1     -10.105  14.030  67.736  1.00  0.00    -0.212 Fe 
HETATM    6  C   UNL     1     -11.454  13.175  66.483  1.00  0.00    -0.338 C  
HETATM    7  C   UNL     1      -8.652  12.813  67.013  1.00  0.00    -0.177 C  
HETATM    8  C   UNL     1      -8.757  14.898  68.974  1.00  0.00    -0.177 C  
HETATM    9  C   UNL     1      -9.667  15.394  66.304  1.00  0.00    -0.299 C  
HETATM   10  C   UNL     1     -11.552  15.250  68.455  1.00  0.00    -0.352 C  
HETATM   11  N   UNL     1      -9.417  16.172  65.485  1.00  0.00    -0.409 NA 
HETATM   12  N   UNL     1      -7.823  12.120  66.599  1.00  0.00     0.010 NA 
HETATM   13  N   UNL     1      -7.987  15.394  69.681  1.00  0.00    -0.198 NA 
HETATM   14  N   UNL     1     -12.223  12.688  65.770  1.00  0.00    -0.598 NA 
HETATM   15  N   UNL     1     -12.379  15.947  68.867  1.00  0.00     0.088 NA 
ENDBRANCH   3   5
TORSDOF 1
ENDMDL
MODEL      104
REMARK 921   NORMALIZED FREE ENERGY PREDICTED BY IDOCK:   -3.33 KCAL/MOL
REMARK 922        TOTAL FREE ENERGY PREDICTED BY IDOCK:   -3.63 KCAL/MOL
REMARK 923 INTER-LIGAND FREE ENERGY PREDICTED BY IDOCK:   -3.55 KCAL/MOL
REMARK 924 INTRA-LIGAND FREE ENERGY PREDICTED BY IDOCK:   -0.07 KCAL/MOL
REMARK 927      BINDING AFFINITY PREDICTED BY RF-SCORE:    0.00 PKD
ROOT
HETATM    1  O   UNL     1      -7.607  10.621  70.190  1.00  0.00    -0.411 OA 
HETATM    2  H   UNL     1      -7.096  11.422  70.165  1.00  0.00     0.000 HD 
HETATM    3  N   UNL     1      -8.722  10.587  69.768  1.00  0.00    -0.380 NA 
HETATM    4  H   UNL     1      -9.134  11.433  69.374  1.00  0.00     0.000 HD 
ENDROOT
BRANCH   3   5
HETATM    5 FE   UNL     1      -9.787   8.915  69.820  1.00  0.00    -0.160 Fe 
HETATM    6  C   UNL     1      -8.171   7.832  69.242  1.00  0.00    -0.129 C  
HETATM    7  C   UNL     1     -10.316   9.174  67.878  1.00  0.00    -0.232 C  
HETATM    8  C   UNL     1     -11.410   9.980  70.400  1.00  0.00    -0.320 C  
HETATM    9  C   UNL     1     -10.882   7.212  69.884  1.00  0.00    -0.254 C  
HETATM   10  C   UNL     1      -9.265   8.653  71.758  1.00  0.00    -0.268 C  
HETATM   11  N   UNL     1     -11.507   6.239  69.921  1.00  0.00    -0.436 NA 
HETATM   12  N   UNL     1     -10.619   9.320  66.771  1.00  0.00    -0.188 NA 
HETATM   13  N   UNL     1     -12.337  10.588  70.732  1.00  0.00    -0.345 NA 
HETATM   14  N   UNL     1      -7.249   7.215  68.913  1.00  0.00    -0.088 NA 
HETATM   15  N   UNL     1      -8.966   8.504  72.867  1.00  0.00    -0.340 NA 
ENDBRANCH   3   5
TORSDOF 1
ENDMDL
MODEL      105
REMARK 921   NORMALIZED FREE ENERGY PREDICTED BY IDOCK:   -3.32 KCAL/MOL
REMARK 922        TOTAL FREE ENERGY PREDICTED BY IDOCK:   -3.61 KCAL/MOL
REMARK 923 INTER-LIGAND FREE ENERGY PREDICTED BY IDOCK:   -3.54 KCAL/MOL
REMARK 924 INTRA-LIGAND FREE ENERGY PREDICTED BY IDOCK:   -0.07 KCAL/MOL
REMARK 927      BINDING AFFINITY PREDICTED BY RF-SCORE:    0.00 PKD
ROOT
HETATM    1  O   UNL     1      -8.837  11.397  69.262  1.00  0.00    -0.376 OA 
HETATM    2  H   UNL     1      -8.235  12.126  69.162  1.00  0.00     0.000 HD 
HETATM    3  N   UNL     1      -8.479  10.360  69.729  1.00  0.00    -0.375 NA 
HETATM    4  H   UNL     1      -7.509  10.252  70.024  1.00  0.00     0.000 HD 
ENDROOT
BRANCH   3   5
HETATM    5 FE   UNL     1      -9.737   8.841  69.938  1.00  0.00    -0.158 Fe 
HETATM    6  C   UNL     1     -10.290   8.992  67.991  1.00  0.00    -0.224 C  
HETATM    7  C   UNL     1     -11.219  10.122  70.466  1.00  0.00    -0.336 C  
HETATM    8  C   UNL     1      -9.194   8.674  71.883  1.00  0.00    -0.275 C  
HETATM    9  C   UNL     1     -11.013   7.284  70.161  1.00  0.00    -0.260 C  
HETATM   10  C   UNL     1      -8.261   7.558  69.416  1.00  0.00    -0.130 C  
HETATM   11  N   UNL     1     -11.741   6.394  70.287  1.00  0.00    -0.393 NA 
HETATM   12  N   UNL     1     -12.066  10.851  70.767  1.00  0.00    -0.350 NA 
HETATM   13  N   UNL     1      -8.884   8.579  72.994  1.00  0.00    -0.348 NA 
HETATM   14  N   UNL     1     -10.605   9.078  66.881  1.00  0.00    -0.221 NA 
HETATM   15  N   UNL     1      -7.416   6.825  69.117  1.00  0.00    -0.093 NA 
ENDBRANCH   3   5
TORSDOF 1
ENDMDL
MODEL      106
REMARK 921   NORMALIZED FREE ENERGY PREDICTED BY IDOCK:   -3.32 KCAL/MOL
REMARK 922        TOTAL FREE ENERGY PREDICTED BY IDOCK:   -3.61 KCAL/MOL
REMARK 923 INTER-LIGAND FREE ENERGY PREDICTED BY IDOCK:   -3.53 KCAL/MOL
REMARK 924 INTRA-LIGAND FREE ENERGY PREDICTED BY IDOCK:   -0.07 KCAL/MOL
REMARK 927      BINDING AFFINITY PREDICTED BY RF-SCORE:    0.00 PKD
ROOT
HETATM    1  O   UNL     1      -7.497  10.713  70.240  1.00  0.00    -0.447 OA 
HETATM    2  H   UNL     1      -6.988  11.515  70.227  1.00  0.00     0.000 HD 
HETATM    3  N   UNL     1      -8.560  10.649  69.702  1.00  0.00    -0.383 NA 
HETATM    4  H   UNL     1      -8.928  11.469  69.221  1.00  0.00     0.000 HD 
ENDROOT
BRANCH   3   5
HETATM    5 FE   UNL     1      -9.622   8.974  69.728  1.00  0.00    -0.148 Fe 
HETATM    6  C   UNL     1      -9.199   8.701  71.695  1.00  0.00    -0.256 C  
HETATM    7  C   UNL     1      -7.976   7.903  69.218  1.00  0.00    -0.117 C  
HETATM    8  C   UNL     1     -10.057   9.233  67.767  1.00  0.00    -0.204 C  
HETATM    9  C   UNL     1     -10.717   7.269  69.746  1.00  0.00    -0.239 C  
HETATM   10  C   UNL     1     -11.269  10.037  70.234  1.00  0.00    -0.313 C  
HETATM   11  N   UNL     1     -11.342   6.296  69.758  1.00  0.00    -0.434 NA 
HETATM   12  N   UNL     1      -7.038   7.291  68.927  1.00  0.00    -0.081 NA 
HETATM   13  N   UNL     1     -10.306   9.380  66.646  1.00  0.00    -0.238 NA 
HETATM   14  N   UNL     1      -8.957   8.546  72.815  1.00  0.00    -0.345 NA 
HETATM   15  N   UNL     1     -12.210  10.646  70.524  1.00  0.00    -0.328 NA 
ENDBRANCH   3   5
TORSDOF 1
ENDMDL
MODEL      107
REMARK 921   NORMALIZED FREE ENERGY PREDICTED BY IDOCK:   -3.30 KCAL/MOL
REMARK 922        TOTAL FREE ENERGY PREDICTED BY IDOCK:   -3.59 KCAL/MOL
REMARK 923 INTER-LIGAND FREE ENERGY PREDICTED BY IDOCK:   -3.45 KCAL/MOL
REMARK 924 INTRA-LIGAND FREE ENERGY PREDICTED BY IDOCK:   -0.15 KCAL/MOL
REMARK 927      BINDING AFFINITY PREDICTED BY RF-SCORE:    0.00 PKD
ROOT
HETATM    1  O   UNL     1     -12.995  13.448  65.389  1.00  0.00    -0.625 OA 
HETATM    2  H   UNL     1     -13.870  13.481  65.020  1.00  0.00     0.000 HD 
HETATM    3  N   UNL     1     -12.750  12.762  66.334  1.00  0.00     0.026 NA 
HETATM    4  H   UNL     1     -13.493  12.203  66.753  1.00  0.00     0.000 HD 
ENDROOT
BRANCH   3   5
HETATM    5 FE   UNL     1     -10.924  12.693  67.104  1.00  0.00    -0.226 Fe 
HETATM    6  C   UNL     1     -11.507  11.277  68.436  1.00  0.00    -0.307 C  
HETATM    7  C   UNL     1     -11.410  14.150  68.430  1.00  0.00    -0.287 C  
HETATM    8  C   UNL     1     -10.323  14.103  65.780  1.00  0.00    -0.325 C  
HETATM    9  C   UNL     1      -9.053  12.623  67.878  1.00  0.00    -0.200 C  
HETATM   10  C   UNL     1     -10.431  11.241  65.782  1.00  0.00    -0.254 C  
HETATM   11  N   UNL     1      -7.984  12.583  68.320  1.00  0.00    -0.148 NA 
HETATM   12  N   UNL     1     -11.686  14.981  69.186  1.00  0.00    -0.305 NA 
HETATM   13  N   UNL     1      -9.980  14.909  65.023  1.00  0.00    -0.272 NA 
HETATM   14  N   UNL     1     -11.840  10.469  69.195  1.00  0.00    -0.202 NA 
HETATM   15  N   UNL     1     -10.150  10.411  65.026  1.00  0.00    -0.323 NA 
ENDBRANCH   3   5
TORSDOF 1
ENDMDL
MODEL      108
REMARK 921   NORMALIZED FREE ENERGY PREDICTED BY IDOCK:   -3.30 KCAL/MOL
REMARK 922        TOTAL FREE ENERGY PREDICTED BY IDOCK:   -3.59 KCAL/MOL
REMARK 923 INTER-LIGAND FREE ENERGY PREDICTED BY IDOCK:   -3.47 KCAL/MOL
REMARK 924 INTRA-LIGAND FREE ENERGY PREDICTED BY IDOCK:   -0.12 KCAL/MOL
REMARK 927      BINDING AFFINITY PREDICTED BY RF-SCORE:    0.00 PKD
ROOT
HETATM    1  O   UNL     1     -11.255   6.190  66.515  1.00  0.00    -0.741 OA 
HETATM    2  H   UNL     1     -11.938   5.959  65.897  1.00  0.00     0.000 HD 
HETATM    3  N   UNL     1     -11.518   6.515  67.632  1.00  0.00    -0.688 NA 
HETATM    4  H   UNL     1     -12.494   6.547  67.928  1.00  0.00     0.000 HD 
ENDROOT
BRANCH   3   5
HETATM    5 FE   UNL     1     -10.092   6.997  68.923  1.00  0.00    -0.151 Fe 
HETATM    6  C   UNL     1     -10.394   8.972  68.566  1.00  0.00    -0.203 C  
HETATM    7  C   UNL     1      -8.708   6.935  67.441  1.00  0.00    -0.119 C  
HETATM    8  C   UNL     1      -9.778   5.030  69.293  1.00  0.00    -0.179 C  
HETATM    9  C   UNL     1      -8.638   7.478  70.250  1.00  0.00    -0.144 C  
HETATM   10  C   UNL     1     -11.467   7.058  70.407  1.00  0.00    -0.310 C  
HETATM   11  N   UNL     1      -7.809   7.754  71.008  1.00  0.00    -0.087 NA 
HETATM   12  N   UNL     1      -7.917   6.899  66.596  1.00  0.00    -0.106 NA 
HETATM   13  N   UNL     1      -9.598   3.907  69.505  1.00  0.00    -0.193 NA 
HETATM   14  N   UNL     1     -10.568  10.098  68.363  1.00  0.00    -0.204 NA 
HETATM   15  N   UNL     1     -12.254   7.092  71.255  1.00  0.00    -0.347 NA 
ENDBRANCH   3   5
TORSDOF 1
ENDMDL
MODEL      109
REMARK 921   NORMALIZED FREE ENERGY PREDICTED BY IDOCK:   -3.30 KCAL/MOL
REMARK 922        TOTAL FREE ENERGY PREDICTED BY IDOCK:   -3.59 KCAL/MOL
REMARK 923 INTER-LIGAND FREE ENERGY PREDICTED BY IDOCK:   -3.44 KCAL/MOL
REMARK 924 INTRA-LIGAND FREE ENERGY PREDICTED BY IDOCK:   -0.15 KCAL/MOL
REMARK 927      BINDING AFFINITY PREDICTED BY RF-SCORE:    0.00 PKD
ROOT
HETATM    1  O   UNL     1     -11.429   6.537  66.994  1.00  0.00    -0.752 OA 
HETATM    2  H   UNL     1     -12.125   6.403  66.360  1.00  0.00     0.000 HD 
HETATM    3  N   UNL     1     -11.661   6.580  68.163  1.00  0.00    -0.511 NA 
HETATM    4  H   UNL     1     -12.622   6.473  68.488  1.00  0.00     0.000 HD 
ENDROOT
BRANCH   3   5
HETATM    5 FE   UNL     1     -10.209   6.857  69.485  1.00  0.00    -0.163 Fe 
HETATM    6  C   UNL     1     -11.521   6.625  71.017  1.00  0.00    -0.330 C  
HETATM    7  C   UNL     1     -10.562   8.855  69.477  1.00  0.00    -0.228 C  
HETATM    8  C   UNL     1      -8.886   7.088  67.969  1.00  0.00    -0.124 C  
HETATM    9  C   UNL     1      -8.718   7.134  70.828  1.00  0.00    -0.147 C  
HETATM   10  C   UNL     1      -9.850   4.865  69.496  1.00  0.00    -0.217 C  
HETATM   11  N   UNL     1      -7.866   7.291  71.596  1.00  0.00    -0.091 NA 
HETATM   12  N   UNL     1     -10.763   9.995  69.473  1.00  0.00    -0.228 NA 
HETATM   13  N   UNL     1      -8.130   7.221  67.102  1.00  0.00    -0.113 NA 
HETATM   14  N   UNL     1     -12.268   6.492  71.890  1.00  0.00    -0.348 NA 
HETATM   15  N   UNL     1      -9.645   3.726  69.501  1.00  0.00    -0.189 NA 
ENDBRANCH   3   5
TORSDOF 1
ENDMDL
MODEL      110
REMARK 921   NORMALIZED FREE ENERGY PREDICTED BY IDOCK:   -3.29 KCAL/MOL
REMARK 922        TOTAL FREE ENERGY PREDICTED BY IDOCK:   -3.57 KCAL/MOL
REMARK 923 INTER-LIGAND FREE ENERGY PREDICTED BY IDOCK:   -3.43 KCAL/MOL
REMARK 924 INTRA-LIGAND FREE ENERGY PREDICTED BY IDOCK:   -0.15 KCAL/MOL
REMARK 927      BINDING AFFINITY PREDICTED BY RF-SCORE:    0.00 PKD
ROOT
HETATM    1  O   UNL     1      -7.972  19.529  68.770  1.00  0.00    -0.352 OA 
HETATM    2  H   UNL     1      -7.689  20.279  69.280  1.00  0.00     0.000 HD 
HETATM    3  N   UNL     1      -7.643  18.422  69.066  1.00  0.00    -0.218 NA 
HETATM    4  H   UNL     1      -7.047  18.277  69.881  1.00  0.00     0.000 HD 
ENDROOT
BRANCH   3   5
HETATM    5 FE   UNL     1      -8.236  16.857  68.001  1.00  0.00    -0.171 Fe 
HETATM    6  C   UNL     1      -9.958  16.745  69.068  1.00  0.00    -0.272 C  
HETATM    7  C   UNL     1      -7.332  15.601  69.313  1.00  0.00    -0.207 C  
HETATM    8  C   UNL     1      -6.523  16.957  66.923  1.00  0.00    -0.213 C  
HETATM    9  C   UNL     1      -8.835  15.265  66.901  1.00  0.00    -0.254 C  
HETATM   10  C   UNL     1      -9.136  18.105  66.686  1.00  0.00    -0.282 C  
HETATM   11  N   UNL     1      -9.179  14.356  66.273  1.00  0.00    -0.221 NA 
HETATM   12  N   UNL     1      -6.817  14.884  70.061  1.00  0.00    -0.173 NA 
HETATM   13  N   UNL     1      -5.545  17.013  66.307  1.00  0.00    -0.329 NA 
HETATM   14  N   UNL     1     -10.940  16.681  69.677  1.00  0.00    -0.290 NA 
HETATM   15  N   UNL     1      -9.651  18.819  65.934  1.00  0.00    -0.447 NA 
ENDBRANCH   3   5
TORSDOF 1
ENDMDL
MODEL      111
REMARK 921   NORMALIZED FREE ENERGY PREDICTED BY IDOCK:   -3.28 KCAL/MOL
REMARK 922        TOTAL FREE ENERGY PREDICTED BY IDOCK:   -3.57 KCAL/MOL
REMARK 923 INTER-LIGAND FREE ENERGY PREDICTED BY IDOCK:   -3.48 KCAL/MOL
REMARK 924 INTRA-LIGAND FREE ENERGY PREDICTED BY IDOCK:   -0.09 KCAL/MOL
REMARK 927      BINDING AFFINITY PREDICTED BY RF-SCORE:    0.00 PKD
ROOT
HETATM    1  O   UNL     1     -10.341  15.043  70.099  1.00  0.00    -0.468 OA 
HETATM    2  H   UNL     1     -10.714  14.539  70.813  1.00  0.00     0.000 HD 
HETATM    3  N   UNL     1      -9.335  14.698  69.560  1.00  0.00    -0.410 NA 
HETATM    4  H   UNL     1      -8.867  13.847  69.871  1.00  0.00     0.000 HD 
ENDROOT
BRANCH   3   5
HETATM    5 FE   UNL     1      -8.558  15.750  68.069  1.00  0.00    -0.150 Fe 
HETATM    6  C   UNL     1      -9.640  17.379  68.615  1.00  0.00    -0.295 C  
HETATM    7  C   UNL     1     -10.062  15.154  66.844  1.00  0.00    -0.255 C  
HETATM    8  C   UNL     1      -7.469  14.136  67.512  1.00  0.00    -0.174 C  
HETATM    9  C   UNL     1      -7.752  16.819  66.548  1.00  0.00    -0.299 C  
HETATM   10  C   UNL     1      -7.054  16.346  69.285  1.00  0.00    -0.222 C  
HETATM   11  N   UNL     1      -7.292  17.430  65.680  1.00  0.00    -0.279 NA 
HETATM   12  N   UNL     1     -10.919  14.815  66.144  1.00  0.00    -0.327 NA 
HETATM   13  N   UNL     1      -6.846  13.214  67.193  1.00  0.00    -0.083 NA 
HETATM   14  N   UNL     1     -10.257  18.306  68.927  1.00  0.00    -0.357 NA 
HETATM   15  N   UNL     1      -6.194  16.687  69.982  1.00  0.00    -0.162 NA 
ENDBRANCH   3   5
TORSDOF 1
ENDMDL
MODEL      112
REMARK 921   NORMALIZED FREE ENERGY PREDICTED BY IDOCK:   -3.25 KCAL/MOL
REMARK 922        TOTAL FREE ENERGY PREDICTED BY IDOCK:   -3.54 KCAL/MOL
REMARK 923 INTER-LIGAND FREE ENERGY PREDICTED BY IDOCK:   -3.46 KCAL/MOL
REMARK 924 INTRA-LIGAND FREE ENERGY PREDICTED BY IDOCK:   -0.07 KCAL/MOL
REMARK 927      BINDING AFFINITY PREDICTED BY RF-SCORE:    0.00 PKD
ROOT
HETATM    1  O   UNL     1      -8.728  19.145  68.023  1.00  0.00    -0.292 OA 
HETATM    2  H   UNL     1      -8.664  19.981  68.472  1.00  0.00     0.000 HD 
HETATM    3  N   UNL     1      -9.091  18.164  68.596  1.00  0.00    -0.301 NA 
HETATM    4  H   UNL     1      -9.335  18.222  69.584  1.00  0.00     0.000 HD 
ENDROOT
BRANCH   3   5
HETATM    5 FE   UNL     1      -9.225  16.422  67.659  1.00  0.00    -0.188 Fe 
HETATM    6  C   UNL     1     -10.200  17.297  66.108  1.00  0.00    -0.331 C  
HETATM    7  C   UNL     1     -10.999  16.050  68.572  1.00  0.00    -0.326 C  
HETATM    8  C   UNL     1      -8.251  15.532  69.196  1.00  0.00    -0.247 C  
HETATM    9  C   UNL     1      -9.350  14.638  66.707  1.00  0.00    -0.257 C  
HETATM   10  C   UNL     1      -7.455  16.785  66.747  1.00  0.00    -0.244 C  
HETATM   11  N   UNL     1      -9.422  13.620  66.162  1.00  0.00    -0.202 NA 
HETATM   12  N   UNL     1     -12.010  15.837  69.093  1.00  0.00    -0.361 NA 
HETATM   13  N   UNL     1      -7.695  15.023  70.075  1.00  0.00     0.056 NA 
HETATM   14  N   UNL     1     -10.755  17.796  65.225  1.00  0.00    -0.565 NA 
HETATM   15  N   UNL     1      -6.443  16.993  66.226  1.00  0.00    -0.206 NA 
ENDBRANCH   3   5
TORSDOF 1
ENDMDL
MODEL      113
REMARK 921   NORMALIZED FREE ENERGY PREDICTED BY IDOCK:   -3.24 KCAL/MOL
REMARK 922        TOTAL FREE ENERGY PREDICTED BY IDOCK:   -3.53 KCAL/MOL
REMARK 923 INTER-LIGAND FREE ENERGY PREDICTED BY IDOCK:   -3.46 KCAL/MOL
REMARK 924 INTRA-LIGAND FREE ENERGY PREDICTED BY IDOCK:   -0.07 KCAL/MOL
REMARK 927      BINDING AFFINITY PREDICTED BY RF-SCORE:    0.00 PKD
ROOT
HETATM    1  O   UNL     1     -11.184   7.023  67.123  1.00  0.00    -0.590 OA 
HETATM    2  H   UNL     1     -11.730   6.856  66.364  1.00  0.00     0.000 HD 
HETATM    3  N   UNL     1     -11.031   8.130  67.541  1.00  0.00    -0.493 NA 
HETATM    4  H   UNL     1     -11.494   8.910  67.075  1.00  0.00     0.000 HD 
ENDROOT
BRANCH   3   5
HETATM    5 FE   UNL     1      -9.891   8.478  69.126  1.00  0.00    -0.163 Fe 
HETATM    6  C   UNL     1     -11.110   9.994  69.706  1.00  0.00    -0.274 C  
HETATM    7  C   UNL     1      -8.769   9.783  68.052  1.00  0.00    -0.118 C  
HETATM    8  C   UNL     1      -8.666   6.966  68.564  1.00  0.00    -0.125 C  
HETATM    9  C   UNL     1      -8.725   8.820  70.747  1.00  0.00    -0.189 C  
HETATM   10  C   UNL     1     -11.005   7.175  70.202  1.00  0.00    -0.267 C  
HETATM   11  N   UNL     1      -8.060   9.016  71.673  1.00  0.00    -0.347 NA 
HETATM   12  N   UNL     1      -8.128  10.527  67.440  1.00  0.00    -0.111 NA 
HETATM   13  N   UNL     1      -7.965   6.103  68.243  1.00  0.00    -0.106 NA 
HETATM   14  N   UNL     1     -11.805  10.858  70.037  1.00  0.00    -0.315 NA 
HETATM   15  N   UNL     1     -11.643   6.430  70.818  1.00  0.00    -0.356 NA 
ENDBRANCH   3   5
TORSDOF 1
ENDMDL
MODEL      114
REMARK 921   NORMALIZED FREE ENERGY PREDICTED BY IDOCK:   -3.23 KCAL/MOL
REMARK 922        TOTAL FREE ENERGY PREDICTED BY IDOCK:   -3.52 KCAL/MOL
REMARK 923 INTER-LIGAND FREE ENERGY PREDICTED BY IDOCK:   -3.45 KCAL/MOL
REMARK 924 INTRA-LIGAND FREE ENERGY PREDICTED BY IDOCK:   -0.07 KCAL/MOL
REMARK 927      BINDING AFFINITY PREDICTED BY RF-SCORE:    0.00 PKD
ROOT
HETATM    1  O   UNL     1      -8.233  12.919  67.141  1.00  0.00    -0.230 OA 
HETATM    2  H   UNL     1      -7.343  12.912  67.472  1.00  0.00     0.000 HD 
HETATM    3  N   UNL     1      -8.540  12.277  66.184  1.00  0.00    -0.391 NA 
HETATM    4  H   UNL     1      -7.835  11.710  65.713  1.00  0.00     0.000 HD 
ENDROOT
BRANCH   3   5
HETATM    5 FE   UNL     1     -10.399  12.292  65.494  1.00  0.00    -0.232 Fe 
HETATM    6  C   UNL     1     -10.258  14.273  65.073  1.00  0.00    -0.372 C  
HETATM    7  C   UNL     1     -11.101  12.729  67.346  1.00  0.00    -0.275 C  
HETATM    8  C   UNL     1     -10.557  10.315  65.904  1.00  0.00    -0.013 C  
HETATM    9  C   UNL     1     -12.296  12.295  64.782  1.00  0.00    -0.339 C  
HETATM   10  C   UNL     1      -9.706  11.853  63.643  1.00  0.00    -0.243 C  
HETATM   11  N   UNL     1     -13.380  12.298  64.376  1.00  0.00    -0.632 NA 
HETATM   12  N   UNL     1     -11.502  12.978  68.403  1.00  0.00    -0.286 NA 
HETATM   13  N   UNL     1     -10.647   9.185  66.139  1.00  0.00     0.149 NA 
HETATM   14  N   UNL     1     -10.177  15.402  64.833  1.00  0.00    -0.332 NA 
HETATM   15  N   UNL     1      -9.309  11.602  62.585  1.00  0.00    -0.256 NA 
ENDBRANCH   3   5
TORSDOF 1
ENDMDL
MODEL      115
REMARK 921   NORMALIZED FREE ENERGY PREDICTED BY IDOCK:   -3.22 KCAL/MOL
REMARK 922        TOTAL FREE ENERGY PREDICTED BY IDOCK:   -3.51 KCAL/MOL
REMARK 923 INTER-LIGAND FREE ENERGY PREDICTED BY IDOCK:   -3.39 KCAL/MOL
REMARK 924 INTRA-LIGAND FREE ENERGY PREDICTED BY IDOCK:   -0.12 KCAL/MOL
REMARK 927      BINDING AFFINITY PREDICTED BY RF-SCORE:    0.00 PKD
ROOT
HETATM    1  O   UNL     1     -11.050   6.573  66.781  1.00  0.00    -0.593 OA 
HETATM    2  H   UNL     1     -11.658   6.031  66.292  1.00  0.00     0.000 HD 
HETATM    3  N   UNL     1     -11.299   6.934  67.890  1.00  0.00    -0.544 NA 
HETATM    4  H   UNL     1     -12.181   6.656  68.321  1.00  0.00     0.000 HD 
ENDROOT
BRANCH   3   5
HETATM    5 FE   UNL     1     -10.029   8.064  68.911  1.00  0.00    -0.164 Fe 
HETATM    6  C   UNL     1      -8.780   8.155  67.313  1.00  0.00    -0.124 C  
HETATM    7  C   UNL     1      -9.065   6.408  69.577  1.00  0.00    -0.138 C  
HETATM    8  C   UNL     1     -11.264   7.987  70.514  1.00  0.00    -0.250 C  
HETATM    9  C   UNL     1      -8.742   9.226  69.959  1.00  0.00    -0.195 C  
HETATM   10  C   UNL     1     -10.987   9.721  68.251  1.00  0.00    -0.164 C  
HETATM   11  N   UNL     1      -8.006   9.890  70.556  1.00  0.00    -0.234 NA 
HETATM   12  N   UNL     1      -8.515   5.464  69.958  1.00  0.00    -0.109 NA 
HETATM   13  N   UNL     1     -11.969   7.943  71.431  1.00  0.00    -0.297 NA 
HETATM   14  N   UNL     1      -8.069   8.207  66.401  1.00  0.00    -0.103 NA 
HETATM   15  N   UNL     1     -11.536  10.668  67.874  1.00  0.00    -0.475 NA 
ENDBRANCH   3   5
TORSDOF 1
ENDMDL
MODEL      116
REMARK 921   NORMALIZED FREE ENERGY PREDICTED BY IDOCK:   -3.21 KCAL/MOL
REMARK 922        TOTAL FREE ENERGY PREDICTED BY IDOCK:   -3.50 KCAL/MOL
REMARK 923 INTER-LIGAND FREE ENERGY PREDICTED BY IDOCK:   -3.38 KCAL/MOL
REMARK 924 INTRA-LIGAND FREE ENERGY PREDICTED BY IDOCK:   -0.12 KCAL/MOL
REMARK 927      BINDING AFFINITY PREDICTED BY RF-SCORE:    0.00 PKD
ROOT
HETATM    1  O   UNL     1     -11.198  12.303  69.987  1.00  0.00    -0.489 OA 
HETATM    2  H   UNL     1     -11.595  12.718  70.744  1.00  0.00     0.000 HD 
HETATM    3  N   UNL     1     -10.588  12.938  69.183  1.00  0.00    -0.441 NA 
HETATM    4  H   UNL     1     -10.490  13.945  69.311  1.00  0.00     0.000 HD 
ENDROOT
BRANCH   3   5
HETATM    5 FE   UNL     1      -9.760  12.070  67.604  1.00  0.00    -0.167 Fe 
HETATM    6  C   UNL     1     -10.455  10.258  68.199  1.00  0.00    -0.190 C  
HETATM    7  C   UNL     1      -8.048  11.764  68.650  1.00  0.00    -0.104 C  
HETATM    8  C   UNL     1      -9.061  13.871  66.994  1.00  0.00    -0.250 C  
HETATM    9  C   UNL     1      -8.917  11.194  65.983  1.00  0.00    -0.200 C  
HETATM   10  C   UNL     1     -11.463  12.375  66.555  1.00  0.00    -0.371 C  
HETATM   11  N   UNL     1      -8.437  10.693  65.058  1.00  0.00    -0.164 NA 
HETATM   12  N   UNL     1      -7.071  11.589  69.246  1.00  0.00    -0.105 NA 
HETATM   13  N   UNL     1      -8.661  14.899  66.645  1.00  0.00    -0.255 NA 
HETATM   14  N   UNL     1     -10.851   9.225  68.538  1.00  0.00    -0.131 NA 
HETATM   15  N   UNL     1     -12.438  12.550  65.955  1.00  0.00    -0.517 NA 
ENDBRANCH   3   5
TORSDOF 1
ENDMDL
MODEL      117
REMARK 921   NORMALIZED FREE ENERGY PREDICTED BY IDOCK:   -3.21 KCAL/MOL
REMARK 922        TOTAL FREE ENERGY PREDICTED BY IDOCK:   -3.50 KCAL/MOL
REMARK 923 INTER-LIGAND FREE ENERGY PREDICTED BY IDOCK:   -3.39 KCAL/MOL
REMARK 924 INTRA-LIGAND FREE ENERGY PREDICTED BY IDOCK:   -0.11 KCAL/MOL
REMARK 927      BINDING AFFINITY PREDICTED BY RF-SCORE:    0.00 PKD
ROOT
HETATM    1  O   UNL     1      -7.517  11.536  69.574  1.00  0.00    -0.344 OA 
HETATM    2  H   UNL     1      -7.092  12.315  69.914  1.00  0.00     0.000 HD 
HETATM    3  N   UNL     1      -8.561  11.603  69.002  1.00  0.00    -0.371 NA 
HETATM    4  H   UNL     1      -9.007  12.512  68.876  1.00  0.00     0.000 HD 
ENDROOT
BRANCH   3   5
HETATM    5 FE   UNL     1      -9.447   9.978  68.291  1.00  0.00    -0.131 Fe 
HETATM    6  C   UNL     1      -7.811   8.859  68.729  1.00  0.00    -0.101 C  
HETATM    7  C   UNL     1      -8.700  10.359  66.443  1.00  0.00    -0.141 C  
HETATM    8  C   UNL     1     -11.089  11.078  67.850  1.00  0.00    -0.288 C  
HETATM    9  C   UNL     1     -10.364   8.321  67.570  1.00  0.00    -0.265 C  
HETATM   10  C   UNL     1     -10.198   9.593  70.131  1.00  0.00    -0.264 C  
HETATM   11  N   UNL     1     -10.887   7.374  67.158  1.00  0.00    -0.323 NA 
HETATM   12  N   UNL     1      -8.274  10.576  65.389  1.00  0.00    -0.160 NA 
HETATM   13  N   UNL     1     -12.028  11.707  67.597  1.00  0.00    -0.625 NA 
HETATM   14  N   UNL     1      -6.878   8.221  68.979  1.00  0.00    -0.055 NA 
HETATM   15  N   UNL     1     -10.628   9.373  71.183  1.00  0.00    -0.320 NA 
ENDBRANCH   3   5
TORSDOF 1
ENDMDL
MODEL      118
REMARK 921   NORMALIZED FREE ENERGY PREDICTED BY IDOCK:   -3.20 KCAL/MOL
REMARK 922        TOTAL FREE ENERGY PREDICTED BY IDOCK:   -3.49 KCAL/MOL
REMARK 923 INTER-LIGAND FREE ENERGY PREDICTED BY IDOCK:   -3.41 KCAL/MOL
REMARK 924 INTRA-LIGAND FREE ENERGY PREDICTED BY IDOCK:   -0.08 KCAL/MOL
REMARK 927      BINDING AFFINITY PREDICTED BY RF-SCORE:    0.00 PKD
ROOT
HETATM    1  O   UNL     1     -11.599   6.358  69.411  1.00  0.00    -0.600 OA 
HETATM    2  H   UNL     1     -12.286   5.726  69.232  1.00  0.00     0.000 HD 
HETATM    3  N   UNL     1     -11.318   7.204  68.619  1.00  0.00    -0.417 NA 
HETATM    4  H   UNL     1     -11.823   7.250  67.734  1.00  0.00     0.000 HD 
ENDROOT
BRANCH   3   5
HETATM    5 FE   UNL     1      -9.884   8.523  68.993  1.00  0.00    -0.160 Fe 
HETATM    6  C   UNL     1     -11.033  10.025  68.255  1.00  0.00    -0.227 C  
HETATM    7  C   UNL     1      -9.095   8.212  67.150  1.00  0.00    -0.140 C  
HETATM    8  C   UNL     1      -8.726   7.036  69.736  1.00  0.00    -0.142 C  
HETATM    9  C   UNL     1      -8.417   9.863  69.388  1.00  0.00    -0.165 C  
HETATM   10  C   UNL     1     -10.665   8.835  70.835  1.00  0.00    -0.227 C  
HETATM   11  N   UNL     1      -7.580  10.629  69.613  1.00  0.00    -0.131 NA 
HETATM   12  N   UNL     1      -8.644   8.035  66.099  1.00  0.00    -0.140 NA 
HETATM   13  N   UNL     1      -8.064   6.187  70.161  1.00  0.00    -0.114 NA 
HETATM   14  N   UNL     1     -11.688  10.881  67.835  1.00  0.00    -0.574 NA 
HETATM   15  N   UNL     1     -11.112   9.014  71.888  1.00  0.00    -0.373 NA 
ENDBRANCH   3   5
TORSDOF 1
ENDMDL
MODEL      119
REMARK 921   NORMALIZED FREE ENERGY PREDICTED BY IDOCK:   -3.20 KCAL/MOL
REMARK 922        TOTAL FREE ENERGY PREDICTED BY IDOCK:   -3.48 KCAL/MOL
REMARK 923 INTER-LIGAND FREE ENERGY PREDICTED BY IDOCK:   -3.33 KCAL/MOL
REMARK 924 INTRA-LIGAND FREE ENERGY PREDICTED BY IDOCK:   -0.15 KCAL/MOL
REMARK 927      BINDING AFFINITY PREDICTED BY RF-SCORE:    0.00 PKD
ROOT
HETATM    1  O   UNL     1      -9.281   7.872  74.316  1.00  0.00    -0.389 OA 
HETATM    2  H   UNL     1      -8.846   8.241  75.076  1.00  0.00     0.000 HD 
HETATM    3  N   UNL     1      -9.158   8.363  73.237  1.00  0.00    -0.240 NA 
HETATM    4  H   UNL     1      -8.575   9.192  73.126  1.00  0.00     0.000 HD 
ENDROOT
BRANCH   3   5
HETATM    5 FE   UNL     1     -10.067   7.592  71.651  1.00  0.00    -0.172 Fe 
HETATM    6  C   UNL     1      -9.369   9.098  70.482  1.00  0.00    -0.240 C  
HETATM    7  C   UNL     1     -11.733   8.675  72.062  1.00  0.00    -0.369 C  
HETATM    8  C   UNL     1     -10.770   6.081  72.803  1.00  0.00    -0.237 C  
HETATM    9  C   UNL     1     -10.993   6.793  70.036  1.00  0.00    -0.295 C  
HETATM   10  C   UNL     1      -8.409   6.507  71.238  1.00  0.00    -0.125 C  
HETATM   11  N   UNL     1     -11.521   6.337  69.114  1.00  0.00    -0.315 NA 
HETATM   12  N   UNL     1     -12.685   9.292  72.294  1.00  0.00    -0.379 NA 
HETATM   13  N   UNL     1     -11.173   5.217  73.460  1.00  0.00    -0.260 NA 
HETATM   14  N   UNL     1      -8.970   9.955  69.816  1.00  0.00    -0.221 NA 
HETATM   15  N   UNL     1      -7.461   5.887  71.003  1.00  0.00    -0.092 NA 
ENDBRANCH   3   5
TORSDOF 1
ENDMDL
MODEL      120
REMARK 921   NORMALIZED FREE ENERGY PREDICTED BY IDOCK:   -3.19 KCAL/MOL
REMARK 922        TOTAL FREE ENERGY PREDICTED BY IDOCK:   -3.48 KCAL/MOL
REMARK 923 INTER-LIGAND FREE ENERGY PREDICTED BY IDOCK:   -3.38 KCAL/MOL
REMARK 924 INTRA-LIGAND FREE ENERGY PREDICTED BY IDOCK:   -0.10 KCAL/MOL
REMARK 927      BINDING AFFINITY PREDICTED BY RF-SCORE:    0.00 PKD
ROOT
HETATM    1  O   UNL     1      -8.920  12.716  68.727  1.00  0.00    -0.387 OA 
HETATM    2  H   UNL     1      -8.477  13.487  69.062  1.00  0.00     0.000 HD 
HETATM    3  N   UNL     1      -8.483  11.623  68.917  1.00  0.00    -0.365 NA 
HETATM    4  H   UNL     1      -7.618  11.513  69.447  1.00  0.00     0.000 HD 
ENDROOT
BRANCH   3   5
HETATM    5 FE   UNL     1      -9.408  10.014  68.218  1.00  0.00    -0.125 Fe 
HETATM    6  C   UNL     1      -8.876  10.496  66.319  1.00  0.00    -0.159 C  
HETATM    7  C   UNL     1     -11.126  11.073  68.011  1.00  0.00    -0.286 C  
HETATM    8  C   UNL     1      -9.945   9.516  70.106  1.00  0.00    -0.241 C  
HETATM    9  C   UNL     1     -10.349   8.363  67.515  1.00  0.00    -0.265 C  
HETATM   10  C   UNL     1      -7.697   8.951  68.424  1.00  0.00    -0.099 C  
HETATM   11  N   UNL     1     -10.886   7.420  67.113  1.00  0.00    -0.323 NA 
HETATM   12  N   UNL     1     -12.107  11.675  67.893  1.00  0.00    -0.585 NA 
HETATM   13  N   UNL     1     -10.253   9.231  71.185  1.00  0.00    -0.311 NA 
HETATM   14  N   UNL     1      -8.571  10.771  65.237  1.00  0.00    -0.175 NA 
HETATM   15  N   UNL     1      -6.719   8.344  68.542  1.00  0.00    -0.062 NA 
ENDBRANCH   3   5
TORSDOF 1
ENDMDL
MODEL      121
REMARK 921   NORMALIZED FREE ENERGY PREDICTED BY IDOCK:   -3.19 KCAL/MOL
REMARK 922        TOTAL FREE ENERGY PREDICTED BY IDOCK:   -3.47 KCAL/MOL
REMARK 923 INTER-LIGAND FREE ENERGY PREDICTED BY IDOCK:   -3.32 KCAL/MOL
REMARK 924 INTRA-LIGAND FREE ENERGY PREDICTED BY IDOCK:   -0.14 KCAL/MOL
REMARK 927      BINDING AFFINITY PREDICTED BY RF-SCORE:    0.00 PKD
ROOT
HETATM    1  O   UNL     1     -12.003  10.380  68.101  1.00  0.00    -0.756 OA 
HETATM    2  H   UNL     1     -12.862  10.761  68.243  1.00  0.00     0.000 HD 
HETATM    3  N   UNL     1     -11.354   9.966  69.011  1.00  0.00    -0.458 NA 
HETATM    4  H   UNL     1     -11.726  10.023  69.959  1.00  0.00     0.000 HD 
ENDROOT
BRANCH   3   5
HETATM    5 FE   UNL     1      -9.562   9.171  68.714  1.00  0.00    -0.145 Fe 
HETATM    6  C   UNL     1      -9.250   9.049  70.716  1.00  0.00    -0.245 C  
HETATM    7  C   UNL     1      -8.727  11.020  68.689  1.00  0.00    -0.161 C  
HETATM    8  C   UNL     1      -9.857   9.281  66.713  1.00  0.00    -0.225 C  
HETATM    9  C   UNL     1      -7.736   8.351  68.399  1.00  0.00    -0.105 C  
HETATM   10  C   UNL     1     -10.388   7.323  68.734  1.00  0.00    -0.200 C  
HETATM   11  N   UNL     1      -6.693   7.882  68.220  1.00  0.00    -0.062 NA 
HETATM   12  N   UNL     1      -8.250  12.074  68.675  1.00  0.00    -0.101 NA 
HETATM   13  N   UNL     1     -10.025   9.344  65.569  1.00  0.00    -0.198 NA 
HETATM   14  N   UNL     1      -9.073   8.980  71.857  1.00  0.00    -0.369 NA 
HETATM   15  N   UNL     1     -10.862   6.266  68.746  1.00  0.00    -0.301 NA 
ENDBRANCH   3   5
TORSDOF 1
ENDMDL
MODEL      122
REMARK 921   NORMALIZED FREE ENERGY PREDICTED BY IDOCK:   -3.16 KCAL/MOL
REMARK 922        TOTAL FREE ENERGY PREDICTED BY IDOCK:   -3.44 KCAL/MOL
REMARK 923 INTER-LIGAND FREE ENERGY PREDICTED BY IDOCK:   -3.36 KCAL/MOL
REMARK 924 INTRA-LIGAND FREE ENERGY PREDICTED BY IDOCK:   -0.07 KCAL/MOL
REMARK 927      BINDING AFFINITY PREDICTED BY RF-SCORE:    0.00 PKD
ROOT
HETATM    1  O   UNL     1     -11.186   7.064  68.003  1.00  0.00    -0.508 OA 
HETATM    2  H   UNL     1     -11.833   6.405  67.777  1.00  0.00     0.000 HD 
HETATM    3  N   UNL     1     -11.141   8.107  67.427  1.00  0.00    -0.389 NA 
HETATM    4  H   UNL     1     -11.808   8.295  66.679  1.00  0.00     0.000 HD 
ENDROOT
BRANCH   3   5
HETATM    5 FE   UNL     1      -9.790   9.480  67.898  1.00  0.00    -0.138 Fe 
HETATM    6  C   UNL     1     -10.131   9.180  69.876  1.00  0.00    -0.202 C  
HETATM    7  C   UNL     1     -11.219  10.920  67.864  1.00  0.00    -0.321 C  
HETATM    8  C   UNL     1      -9.435   9.791  65.928  1.00  0.00    -0.226 C  
HETATM    9  C   UNL     1      -8.402  10.879  68.369  1.00  0.00    -0.136 C  
HETATM   10  C   UNL     1      -8.359   8.049  67.931  1.00  0.00    -0.129 C  
HETATM   11  N   UNL     1      -7.610  11.678  68.639  1.00  0.00    -0.129 NA 
HETATM   12  N   UNL     1     -12.033  11.742  67.845  1.00  0.00    -0.597 NA 
HETATM   13  N   UNL     1      -9.231   9.970  64.803  1.00  0.00    -0.228 NA 
HETATM   14  N   UNL     1     -10.325   9.007  71.004  1.00  0.00    -0.252 NA 
HETATM   15  N   UNL     1      -7.541   7.230  67.949  1.00  0.00    -0.108 NA 
ENDBRANCH   3   5
TORSDOF 1
ENDMDL
MODEL      123
REMARK 921   NORMALIZED FREE ENERGY PREDICTED BY IDOCK:   -3.15 KCAL/MOL
REMARK 922        TOTAL FREE ENERGY PREDICTED BY IDOCK:   -3.43 KCAL/MOL
REMARK 923 INTER-LIGAND FREE ENERGY PREDICTED BY IDOCK:   -3.36 KCAL/MOL
REMARK 924 INTRA-LIGAND FREE ENERGY PREDICTED BY IDOCK:   -0.07 KCAL/MOL
REMARK 927      BINDING AFFINITY PREDICTED BY RF-SCORE:    0.00 PKD
ROOT
HETATM    1  O   UNL     1     -11.810  11.120  67.110  1.00  0.00    -0.466 OA 
HETATM    2  H   UNL     1     -12.678  11.505  67.091  1.00  0.00     0.000 HD 
HETATM    3  N   UNL     1     -11.538  10.251  67.880  1.00  0.00    -0.670 NA 
HETATM    4  H   UNL     1     -12.250   9.916  68.529  1.00  0.00     0.000 HD 
ENDROOT
BRANCH   3   5
HETATM    5 FE   UNL     1      -9.726   9.446  67.919  1.00  0.00    -0.138 Fe 
HETATM    6  C   UNL     1      -8.886  11.278  68.163  1.00  0.00    -0.159 C  
HETATM    7  C   UNL     1      -9.579   9.640  65.905  1.00  0.00    -0.257 C  
HETATM    8  C   UNL     1     -10.548   7.610  67.679  1.00  0.00    -0.224 C  
HETATM    9  C   UNL     1      -7.880   8.613  67.966  1.00  0.00    -0.103 C  
HETATM   10  C   UNL     1      -9.867   9.247  69.928  1.00  0.00    -0.199 C  
HETATM   11  N   UNL     1      -6.825   8.138  67.993  1.00  0.00    -0.071 NA 
HETATM   12  N   UNL     1      -9.495   9.750  64.756  1.00  0.00    -0.279 NA 
HETATM   13  N   UNL     1     -11.017   6.561  67.541  1.00  0.00    -0.348 NA 
HETATM   14  N   UNL     1      -8.407  12.322  68.303  1.00  0.00    -0.173 NA 
HETATM   15  N   UNL     1      -9.949   9.133  71.078  1.00  0.00    -0.275 NA 
ENDBRANCH   3   5
TORSDOF 1
ENDMDL
MODEL      124
REMARK 921   NORMALIZED FREE ENERGY PREDICTED BY IDOCK:   -3.15 KCAL/MOL
REMARK 922        TOTAL FREE ENERGY PREDICTED BY IDOCK:   -3.43 KCAL/MOL
REMARK 923 INTER-LIGAND FREE ENERGY PREDICTED BY IDOCK:   -3.31 KCAL/MOL
REMARK 924 INTRA-LIGAND FREE ENERGY PREDICTED BY IDOCK:   -0.12 KCAL/MOL
REMARK 927      BINDING AFFINITY PREDICTED BY RF-SCORE:    0.00 PKD
ROOT
HETATM    1  O   UNL     1     -10.883   6.593  66.574  1.00  0.00    -0.523 OA 
HETATM    2  H   UNL     1     -11.491   6.063  66.073  1.00  0.00     0.000 HD 
HETATM    3  N   UNL     1     -11.198   7.073  67.619  1.00  0.00    -0.567 NA 
HETATM    4  H   UNL     1     -12.138   6.912  67.981  1.00  0.00     0.000 HD 
ENDROOT
BRANCH   3   5
HETATM    5 FE   UNL     1      -9.927   8.179  68.665  1.00  0.00    -0.159 Fe 
HETATM    6  C   UNL     1      -8.846   6.531  69.151  1.00  0.00    -0.128 C  
HETATM    7  C   UNL     1     -11.060   7.934  70.330  1.00  0.00    -0.245 C  
HETATM    8  C   UNL     1     -10.992   9.835  68.188  1.00  0.00    -0.175 C  
HETATM    9  C   UNL     1      -8.630   9.319  69.724  1.00  0.00    -0.159 C  
HETATM   10  C   UNL     1      -8.794   8.429  67.007  1.00  0.00    -0.134 C  
HETATM   11  N   UNL     1      -7.888   9.969  70.329  1.00  0.00    -0.201 NA 
HETATM   12  N   UNL     1     -11.706   7.796  71.281  1.00  0.00    -0.283 NA 
HETATM   13  N   UNL     1     -11.600  10.781  67.916  1.00  0.00    -0.532 NA 
HETATM   14  N   UNL     1      -8.230   5.591  69.426  1.00  0.00    -0.097 NA 
HETATM   15  N   UNL     1      -8.146   8.572  66.058  1.00  0.00    -0.106 NA 
ENDBRANCH   3   5
TORSDOF 1
ENDMDL
MODEL      125
REMARK 921   NORMALIZED FREE ENERGY PREDICTED BY IDOCK:   -3.14 KCAL/MOL
REMARK 922        TOTAL FREE ENERGY PREDICTED BY IDOCK:   -3.42 KCAL/MOL
REMARK 923 INTER-LIGAND FREE ENERGY PREDICTED BY IDOCK:   -3.35 KCAL/MOL
REMARK 924 INTRA-LIGAND FREE ENERGY PREDICTED BY IDOCK:   -0.07 KCAL/MOL
REMARK 927      BINDING AFFINITY PREDICTED BY RF-SCORE:    0.00 PKD
ROOT
HETATM    1  O   UNL     1     -11.103   7.818  67.783  1.00  0.00    -0.491 OA 
HETATM    2  H   UNL     1     -11.572   6.994  67.720  1.00  0.00     0.000 HD 
HETATM    3  N   UNL     1     -10.428   8.214  66.883  1.00  0.00    -0.333 NA 
HETATM    4  H   UNL     1     -10.353   7.660  66.031  1.00  0.00     0.000 HD 
ENDROOT
BRANCH   3   5
HETATM    5 FE   UNL     1      -9.450   9.935  67.017  1.00  0.00    -0.140 Fe 
HETATM    6  C   UNL     1     -11.150  10.891  67.580  1.00  0.00    -0.310 C  
HETATM    7  C   UNL     1      -9.861  10.337  65.071  1.00  0.00    -0.329 C  
HETATM    8  C   UNL     1      -7.744   8.995  66.459  1.00  0.00    -0.096 C  
HETATM    9  C   UNL     1      -8.440  11.685  67.158  1.00  0.00    -0.162 C  
HETATM   10  C   UNL     1      -9.035   9.538  68.958  1.00  0.00    -0.144 C  
HETATM   11  N   UNL     1      -7.864  12.685  67.240  1.00  0.00    -0.172 NA 
HETATM   12  N   UNL     1     -10.094  10.567  63.961  1.00  0.00    -0.312 NA 
HETATM   13  N   UNL     1      -6.769   8.459  66.141  1.00  0.00    -0.060 NA 
HETATM   14  N   UNL     1     -12.119  11.436  67.901  1.00  0.00    -0.621 NA 
HETATM   15  N   UNL     1      -8.798   9.310  70.068  1.00  0.00    -0.178 NA 
ENDBRANCH   3   5
TORSDOF 1
ENDMDL
MODEL      126
REMARK 921   NORMALIZED FREE ENERGY PREDICTED BY IDOCK:   -3.14 KCAL/MOL
REMARK 922        TOTAL FREE ENERGY PREDICTED BY IDOCK:   -3.42 KCAL/MOL
REMARK 923 INTER-LIGAND FREE ENERGY PREDICTED BY IDOCK:   -3.30 KCAL/MOL
REMARK 924 INTRA-LIGAND FREE ENERGY PREDICTED BY IDOCK:   -0.12 KCAL/MOL
REMARK 927      BINDING AFFINITY PREDICTED BY RF-SCORE:    0.00 PKD
ROOT
HETATM    1  O   UNL     1      -8.114  10.873  69.728  1.00  0.00    -0.360 OA 
HETATM    2  H   UNL     1      -7.797  11.102  70.594  1.00  0.00     0.000 HD 
HETATM    3  N   UNL     1      -8.532  11.707  68.984  1.00  0.00    -0.369 NA 
HETATM    4  H   UNL     1      -8.549  12.682  69.283  1.00  0.00     0.000 HD 
ENDROOT
BRANCH   3   5
HETATM    5 FE   UNL     1      -9.193  11.229  67.177  1.00  0.00    -0.150 Fe 
HETATM    6  C   UNL     1     -11.113  11.269  67.836  1.00  0.00    -0.267 C  
HETATM    7  C   UNL     1      -9.070   9.256  67.637  1.00  0.00    -0.125 C  
HETATM    8  C   UNL     1      -7.284  11.187  66.501  1.00  0.00    -0.124 C  
HETATM    9  C   UNL     1      -9.859  10.748  65.325  1.00  0.00    -0.272 C  
HETATM   10  C   UNL     1      -9.316  13.195  66.711  1.00  0.00    -0.244 C  
HETATM   11  N   UNL     1     -10.240  10.474  64.268  1.00  0.00    -0.320 NA 
HETATM   12  N   UNL     1      -9.000   8.131  67.897  1.00  0.00    -0.134 NA 
HETATM   13  N   UNL     1      -6.193  11.163  66.114  1.00  0.00    -0.112 NA 
HETATM   14  N   UNL     1     -12.206  11.292  68.213  1.00  0.00    -0.548 NA 
HETATM   15  N   UNL     1      -9.386  14.319  66.445  1.00  0.00    -0.272 NA 
ENDBRANCH   3   5
TORSDOF 1
ENDMDL
MODEL      127
REMARK 921   NORMALIZED FREE ENERGY PREDICTED BY IDOCK:   -3.11 KCAL/MOL
REMARK 922        TOTAL FREE ENERGY PREDICTED BY IDOCK:   -3.39 KCAL/MOL
REMARK 923 INTER-LIGAND FREE ENERGY PREDICTED BY IDOCK:   -3.32 KCAL/MOL
REMARK 924 INTRA-LIGAND FREE ENERGY PREDICTED BY IDOCK:   -0.07 KCAL/MOL
REMARK 927      BINDING AFFINITY PREDICTED BY RF-SCORE:    0.00 PKD
ROOT
HETATM    1  O   UNL     1     -11.001   7.981  67.881  1.00  0.00    -0.477 OA 
HETATM    2  H   UNL     1     -11.502   7.208  67.647  1.00  0.00     0.000 HD 
HETATM    3  N   UNL     1     -10.947   8.925  67.154  1.00  0.00    -0.317 NA 
HETATM    4  H   UNL     1     -11.447   8.902  66.265  1.00  0.00     0.000 HD 
ENDROOT
BRANCH   3   5
HETATM    5 FE   UNL     1      -9.903  10.538  67.644  1.00  0.00    -0.152 Fe 
HETATM    6  C   UNL     1      -8.887  10.450  65.889  1.00  0.00    -0.163 C  
HETATM    7  C   UNL     1      -8.493   9.377  68.527  1.00  0.00    -0.119 C  
HETATM    8  C   UNL     1     -10.910  10.644  69.399  1.00  0.00    -0.246 C  
HETATM    9  C   UNL     1      -8.848  12.192  68.151  1.00  0.00    -0.187 C  
HETATM   10  C   UNL     1     -11.308  11.703  66.768  1.00  0.00    -0.286 C  
HETATM   11  N   UNL     1      -8.245  13.136  68.439  1.00  0.00    -0.151 NA 
HETATM   12  N   UNL     1      -7.688   8.715  69.031  1.00  0.00    -0.094 NA 
HETATM   13  N   UNL     1     -11.485  10.704  70.402  1.00  0.00    -0.325 NA 
HETATM   14  N   UNL     1      -8.308  10.399  64.889  1.00  0.00    -0.171 NA 
HETATM   15  N   UNL     1     -12.112  12.368  66.266  1.00  0.00    -0.630 NA 
ENDBRANCH   3   5
TORSDOF 1
ENDMDL
MODEL      128
REMARK 921   NORMALIZED FREE ENERGY PREDICTED BY IDOCK:   -3.10 KCAL/MOL
REMARK 922        TOTAL FREE ENERGY PREDICTED BY IDOCK:   -3.38 KCAL/MOL
REMARK 923 INTER-LIGAND FREE ENERGY PREDICTED BY IDOCK:   -3.29 KCAL/MOL
REMARK 924 INTRA-LIGAND FREE ENERGY PREDICTED BY IDOCK:   -0.09 KCAL/MOL
REMARK 927      BINDING AFFINITY PREDICTED BY RF-SCORE:    0.00 PKD
ROOT
HETATM    1  O   UNL     1      -9.344  14.771  68.865  1.00  0.00    -0.199 OA 
HETATM    2  H   UNL     1      -9.479  15.382  69.580  1.00  0.00     0.000 HD 
HETATM    3  N   UNL     1      -9.305  13.595  69.058  1.00  0.00    -0.381 NA 
HETATM    4  H   UNL     1      -9.417  13.239  70.007  1.00  0.00     0.000 HD 
ENDROOT
BRANCH   3   5
HETATM    5 FE   UNL     1      -9.024  12.320  67.566  1.00  0.00    -0.147 Fe 
HETATM    6  C   UNL     1      -7.093  12.916  67.380  1.00  0.00    -0.125 C  
HETATM    7  C   UNL     1      -9.597  13.734  66.229  1.00  0.00    -0.249 C  
HETATM    8  C   UNL     1     -10.948  11.710  67.739  1.00  0.00    -0.233 C  
HETATM    9  C   UNL     1      -8.745  11.007  66.048  1.00  0.00    -0.188 C  
HETATM   10  C   UNL     1      -8.454  10.903  68.895  1.00  0.00    -0.141 C  
HETATM   11  N   UNL     1      -8.585  10.258  65.181  1.00  0.00    -0.164 NA 
HETATM   12  N   UNL     1      -9.923  14.540  65.465  1.00  0.00    -0.353 NA 
HETATM   13  N   UNL     1     -12.047  11.361  67.838  1.00  0.00    -0.621 NA 
HETATM   14  N   UNL     1      -5.992  13.256  67.275  1.00  0.00    -0.315 NA 
HETATM   15  N   UNL     1      -8.129  10.093  69.656  1.00  0.00    -0.169 NA 
ENDBRANCH   3   5
TORSDOF 1
ENDMDL
MODEL      129
REMARK 921   NORMALIZED FREE ENERGY PREDICTED BY IDOCK:   -3.09 KCAL/MOL
REMARK 922        TOTAL FREE ENERGY PREDICTED BY IDOCK:   -3.37 KCAL/MOL
REMARK 923 INTER-LIGAND FREE ENERGY PREDICTED BY IDOCK:   -3.30 KCAL/MOL
REMARK 924 INTRA-LIGAND FREE ENERGY PREDICTED BY IDOCK:   -0.07 KCAL/MOL
REMARK 927      BINDING AFFINITY PREDICTED BY RF-SCORE:    0.00 PKD
ROOT
HETATM    1  O   UNL     1      -8.832  10.305  69.958  1.00  0.00    -0.378 OA 
HETATM    2  H   UNL     1      -8.523  10.377  70.854  1.00  0.00     0.000 HD 
HETATM    3  N   UNL     1      -8.563  11.134  69.144  1.00  0.00    -0.376 NA 
HETATM    4  H   UNL     1      -7.991  11.934  69.414  1.00  0.00     0.000 HD 
ENDROOT
BRANCH   3   5
HETATM    5 FE   UNL     1      -9.208  10.983  67.275  1.00  0.00    -0.140 Fe 
HETATM    6  C   UNL     1      -9.304   8.962  67.440  1.00  0.00    -0.136 C  
HETATM    7  C   UNL     1      -7.296  10.844  66.610  1.00  0.00    -0.139 C  
HETATM    8  C   UNL     1      -9.121  12.998  67.094  1.00  0.00    -0.225 C  
HETATM    9  C   UNL     1      -9.874  10.840  65.367  1.00  0.00    -0.262 C  
HETATM   10  C   UNL     1     -11.117  11.124  67.932  1.00  0.00    -0.273 C  
HETATM   11  N   UNL     1     -10.256  10.758  64.278  1.00  0.00    -0.353 NA 
HETATM   12  N   UNL     1      -6.206  10.764  66.229  1.00  0.00    -0.117 NA 
HETATM   13  N   UNL     1      -9.071  14.150  66.989  1.00  0.00    -0.234 NA 
HETATM   14  N   UNL     1      -9.360   7.810  67.535  1.00  0.00    -0.138 NA 
HETATM   15  N   UNL     1     -12.209  11.205  68.308  1.00  0.00    -0.529 NA 
ENDBRANCH   3   5
TORSDOF 1
ENDMDL
MODEL      130
REMARK 921   NORMALIZED FREE ENERGY PREDICTED BY IDOCK:   -3.09 KCAL/MOL
REMARK 922        TOTAL FREE ENERGY PREDICTED BY IDOCK:   -3.37 KCAL/MOL
REMARK 923 INTER-LIGAND FREE ENERGY PREDICTED BY IDOCK:   -3.25 KCAL/MOL
REMARK 924 INTRA-LIGAND FREE ENERGY PREDICTED BY IDOCK:   -0.12 KCAL/MOL
REMARK 927      BINDING AFFINITY PREDICTED BY RF-SCORE:    0.00 PKD
ROOT
HETATM    1  O   UNL     1      -6.701  10.093  66.261  1.00  0.00    -0.090 OA 
HETATM    2  H   UNL     1      -5.872   9.727  65.974  1.00  0.00     0.000 HD 
HETATM    3  N   UNL     1      -7.611   9.389  66.574  1.00  0.00    -0.093 NA 
HETATM    4  H   UNL     1      -7.498   8.376  66.532  1.00  0.00     0.000 HD 
ENDROOT
BRANCH   3   5
HETATM    5 FE   UNL     1      -9.340  10.153  67.174  1.00  0.00    -0.140 Fe 
HETATM    6  C   UNL     1      -9.877  10.525  65.252  1.00  0.00    -0.284 C  
HETATM    7  C   UNL     1      -8.499  11.995  67.302  1.00  0.00    -0.175 C  
HETATM    8  C   UNL     1      -8.821   9.786  69.098  1.00  0.00    -0.160 C  
HETATM    9  C   UNL     1     -11.106  10.924  67.797  1.00  0.00    -0.309 C  
HETATM   10  C   UNL     1     -10.184   8.317  67.051  1.00  0.00    -0.310 C  
HETATM   11  N   UNL     1     -12.116  11.364  68.152  1.00  0.00    -0.617 NA 
HETATM   12  N   UNL     1      -8.020  13.046  67.376  1.00  0.00    -0.176 NA 
HETATM   13  N   UNL     1      -8.526   9.577  70.197  1.00  0.00    -0.190 NA 
HETATM   14  N   UNL     1     -10.182  10.736  64.157  1.00  0.00    -0.353 NA 
HETATM   15  N   UNL     1     -10.666   7.267  66.981  1.00  0.00    -0.355 NA 
ENDBRANCH   3   5
TORSDOF 1
ENDMDL
MODEL      131
REMARK 921   NORMALIZED FREE ENERGY PREDICTED BY IDOCK:   -3.09 KCAL/MOL
REMARK 922        TOTAL FREE ENERGY PREDICTED BY IDOCK:   -3.37 KCAL/MOL
REMARK 923 INTER-LIGAND FREE ENERGY PREDICTED BY IDOCK:   -3.30 KCAL/MOL
REMARK 924 INTRA-LIGAND FREE ENERGY PREDICTED BY IDOCK:   -0.07 KCAL/MOL
REMARK 927      BINDING AFFINITY PREDICTED BY RF-SCORE:    0.00 PKD
ROOT
HETATM    1  O   UNL     1      -6.686   9.591  66.964  1.00  0.00    -0.070 OA 
HETATM    2  H   UNL     1      -5.876   9.198  66.660  1.00  0.00     0.000 HD 
HETATM    3  N   UNL     1      -7.743   9.215  66.560  1.00  0.00    -0.096 NA 
HETATM    4  H   UNL     1      -7.778   8.459  65.877  1.00  0.00     0.000 HD 
ENDROOT
BRANCH   3   5
HETATM    5 FE   UNL     1      -9.434  10.035  67.195  1.00  0.00    -0.140 Fe 
HETATM    6  C   UNL     1      -8.540  11.854  67.315  1.00  0.00    -0.170 C  
HETATM    7  C   UNL     1      -8.918   9.648  69.118  1.00  0.00    -0.154 C  
HETATM    8  C   UNL     1     -10.342   8.228  67.077  1.00  0.00    -0.323 C  
HETATM    9  C   UNL     1     -11.167  10.865  67.834  1.00  0.00    -0.321 C  
HETATM   10  C   UNL     1      -9.955  10.422  65.277  1.00  0.00    -0.309 C  
HETATM   11  N   UNL     1     -12.157  11.340  68.199  1.00  0.00    -0.631 NA 
HETATM   12  N   UNL     1      -8.625   9.427  70.216  1.00  0.00    -0.204 NA 
HETATM   13  N   UNL     1     -10.861   7.196  67.011  1.00  0.00    -0.362 NA 
HETATM   14  N   UNL     1      -8.031  12.891  67.383  1.00  0.00    -0.177 NA 
HETATM   15  N   UNL     1     -10.253  10.643  64.181  1.00  0.00    -0.340 NA 
ENDBRANCH   3   5
TORSDOF 1
ENDMDL
MODEL      132
REMARK 921   NORMALIZED FREE ENERGY PREDICTED BY IDOCK:   -3.08 KCAL/MOL
REMARK 922        TOTAL FREE ENERGY PREDICTED BY IDOCK:   -3.36 KCAL/MOL
REMARK 923 INTER-LIGAND FREE ENERGY PREDICTED BY IDOCK:   -3.29 KCAL/MOL
REMARK 924 INTRA-LIGAND FREE ENERGY PREDICTED BY IDOCK:   -0.07 KCAL/MOL
REMARK 927      BINDING AFFINITY PREDICTED BY RF-SCORE:    0.00 PKD
ROOT
HETATM    1  O   UNL     1      -9.905  13.295  68.719  1.00  0.00    -0.398 OA 
HETATM    2  H   UNL     1      -9.636  14.154  69.025  1.00  0.00     0.000 HD 
HETATM    3  N   UNL     1      -9.142  12.379  68.708  1.00  0.00    -0.391 NA 
HETATM    4  H   UNL     1      -8.185  12.519  69.031  1.00  0.00     0.000 HD 
ENDROOT
BRANCH   3   5
HETATM    5 FE   UNL     1      -9.703  10.586  68.071  1.00  0.00    -0.139 Fe 
HETATM    6  C   UNL     1      -9.053   9.737  69.796  1.00  0.00    -0.225 C  
HETATM    7  C   UNL     1      -7.879  10.296  67.233  1.00  0.00    -0.103 C  
HETATM    8  C   UNL     1     -10.360  11.418  66.344  1.00  0.00    -0.242 C  
HETATM    9  C   UNL     1     -10.288   8.761  67.414  1.00  0.00    -0.280 C  
HETATM   10  C   UNL     1     -11.527  10.872  68.902  1.00  0.00    -0.300 C  
HETATM   11  N   UNL     1     -10.622   7.718  67.040  1.00  0.00    -0.352 NA 
HETATM   12  N   UNL     1      -6.838  10.128  66.754  1.00  0.00    -0.083 NA 
HETATM   13  N   UNL     1     -10.735  11.892  65.357  1.00  0.00    -0.275 NA 
HETATM   14  N   UNL     1      -8.683   9.254  70.780  1.00  0.00    -0.228 NA 
HETATM   15  N   UNL     1     -12.569  11.035  69.378  1.00  0.00    -0.270 NA 
ENDBRANCH   3   5
TORSDOF 1
ENDMDL
MODEL      133
REMARK 921   NORMALIZED FREE ENERGY PREDICTED BY IDOCK:   -3.07 KCAL/MOL
REMARK 922        TOTAL FREE ENERGY PREDICTED BY IDOCK:   -3.35 KCAL/MOL
REMARK 923 INTER-LIGAND FREE ENERGY PREDICTED BY IDOCK:   -3.27 KCAL/MOL
REMARK 924 INTRA-LIGAND FREE ENERGY PREDICTED BY IDOCK:   -0.07 KCAL/MOL
REMARK 927      BINDING AFFINITY PREDICTED BY RF-SCORE:    0.00 PKD
ROOT
HETATM    1  O   UNL     1     -11.744   5.666  72.918  1.00  0.00    -0.491 OA 
HETATM    2  H   UNL     1     -12.362   5.302  73.542  1.00  0.00     0.000 HD 
HETATM    3  N   UNL     1     -11.248   6.736  73.094  1.00  0.00    -0.496 NA 
HETATM    4  H   UNL     1     -11.491   7.270  73.928  1.00  0.00     0.000 HD 
ENDROOT
BRANCH   3   5
HETATM    5 FE   UNL     1      -9.957   7.493  71.792  1.00  0.00    -0.165 Fe 
HETATM    6  C   UNL     1      -8.887   8.334  73.298  1.00  0.00    -0.213 C  
HETATM    7  C   UNL     1     -11.077   9.178  71.639  1.00  0.00    -0.375 C  
HETATM    8  C   UNL     1     -11.012   6.658  70.278  1.00  0.00    -0.303 C  
HETATM    9  C   UNL     1      -8.640   8.255  70.455  1.00  0.00    -0.131 C  
HETATM   10  C   UNL     1      -8.837   5.814  71.939  1.00  0.00    -0.139 C  
HETATM   11  N   UNL     1      -7.887   8.691  69.692  1.00  0.00    -0.092 NA 
HETATM   12  N   UNL     1     -11.715  10.140  71.550  1.00  0.00    -0.301 NA 
HETATM   13  N   UNL     1     -11.614   6.182  69.412  1.00  0.00    -0.220 NA 
HETATM   14  N   UNL     1      -8.276   8.813  74.156  1.00  0.00    -0.238 NA 
HETATM   15  N   UNL     1      -8.197   4.853  72.023  1.00  0.00    -0.113 NA 
ENDBRANCH   3   5
TORSDOF 1
ENDMDL
MODEL      134
REMARK 921   NORMALIZED FREE ENERGY PREDICTED BY IDOCK:   -3.07 KCAL/MOL
REMARK 922        TOTAL FREE ENERGY PREDICTED BY IDOCK:   -3.34 KCAL/MOL
REMARK 923 INTER-LIGAND FREE ENERGY PREDICTED BY IDOCK:   -3.20 KCAL/MOL
REMARK 924 INTRA-LIGAND FREE ENERGY PREDICTED BY IDOCK:   -0.15 KCAL/MOL
REMARK 927      BINDING AFFINITY PREDICTED BY RF-SCORE:    0.00 PKD
ROOT
HETATM    1  O   UNL     1      -9.905   9.502  64.718  1.00  0.00    -0.416 OA 
HETATM    2  H   UNL     1      -9.968   9.685  63.788  1.00  0.00     0.000 HD 
HETATM    3  N   UNL     1      -9.451  10.304  65.475  1.00  0.00    -0.204 NA 
HETATM    4  H   UNL     1      -9.126  11.202  65.117  1.00  0.00     0.000 HD 
ENDROOT
BRANCH   3   5
HETATM    5 FE   UNL     1      -9.320   9.922  67.416  1.00  0.00    -0.130 Fe 
HETATM    6  C   UNL     1      -8.332  11.669  67.724  1.00  0.00    -0.143 C  
HETATM    7  C   UNL     1      -7.554   8.967  67.125  1.00  0.00    -0.092 C  
HETATM    8  C   UNL     1     -10.307   8.177  67.129  1.00  0.00    -0.321 C  
HETATM    9  C   UNL     1      -9.198   9.526  69.399  1.00  0.00    -0.176 C  
HETATM   10  C   UNL     1     -11.083  10.871  67.714  1.00  0.00    -0.309 C  
HETATM   11  N   UNL     1      -9.128   9.301  70.532  1.00  0.00    -0.242 NA 
HETATM   12  N   UNL     1      -6.546   8.421  66.959  1.00  0.00    -0.057 NA 
HETATM   13  N   UNL     1     -10.871   7.180  66.965  1.00  0.00    -0.362 NA 
HETATM   14  N   UNL     1      -7.769  12.664  67.898  1.00  0.00    -0.127 NA 
HETATM   15  N   UNL     1     -12.091  11.414  67.883  1.00  0.00    -0.621 NA 
ENDBRANCH   3   5
TORSDOF 1
ENDMDL
MODEL      135
REMARK 921   NORMALIZED FREE ENERGY PREDICTED BY IDOCK:   -3.06 KCAL/MOL
REMARK 922        TOTAL FREE ENERGY PREDICTED BY IDOCK:   -3.34 KCAL/MOL
REMARK 923 INTER-LIGAND FREE ENERGY PREDICTED BY IDOCK:   -3.23 KCAL/MOL
REMARK 924 INTRA-LIGAND FREE ENERGY PREDICTED BY IDOCK:   -0.10 KCAL/MOL
REMARK 927      BINDING AFFINITY PREDICTED BY RF-SCORE:    0.00 PKD
ROOT
HETATM    1  O   UNL     1     -10.399  15.117  71.314  1.00  0.00    -0.300 OA 
HETATM    2  H   UNL     1      -9.893  15.277  72.102  1.00  0.00     0.000 HD 
HETATM    3  N   UNL     1      -9.865  14.969  70.258  1.00  0.00    -0.416 NA 
HETATM    4  H   UNL     1      -8.848  15.015  70.200  1.00  0.00     0.000 HD 
ENDROOT
BRANCH   3   5
HETATM    5 FE   UNL     1     -10.922  14.634  68.614  1.00  0.00    -0.214 Fe 
HETATM    6  C   UNL     1     -12.639  15.119  69.583  1.00  0.00    -0.059 C  
HETATM    7  C   UNL     1     -11.163  12.691  69.146  1.00  0.00    -0.243 C  
HETATM    8  C   UNL     1      -9.218  14.150  67.631  1.00  0.00    -0.193 C  
HETATM    9  C   UNL     1     -11.991  14.297  66.927  1.00  0.00    -0.438 C  
HETATM   10  C   UNL     1     -10.683  16.570  68.076  1.00  0.00    -0.343 C  
HETATM   11  N   UNL     1     -12.603  14.105  65.963  1.00  0.00    -0.449 NA 
HETATM   12  N   UNL     1     -11.301  11.582  69.448  1.00  0.00    -0.271 NA 
HETATM   13  N   UNL     1      -8.246  13.872  67.068  1.00  0.00    -0.111 NA 
HETATM   14  N   UNL     1     -13.617  15.396  70.135  1.00  0.00     0.190 NA 
HETATM   15  N   UNL     1     -10.545  17.678  67.769  1.00  0.00    -0.386 NA 
ENDBRANCH   3   5
TORSDOF 1
ENDMDL
MODEL      136
REMARK 921   NORMALIZED FREE ENERGY PREDICTED BY IDOCK:   -3.05 KCAL/MOL
REMARK 922        TOTAL FREE ENERGY PREDICTED BY IDOCK:   -3.32 KCAL/MOL
REMARK 923 INTER-LIGAND FREE ENERGY PREDICTED BY IDOCK:   -3.25 KCAL/MOL
REMARK 924 INTRA-LIGAND FREE ENERGY PREDICTED BY IDOCK:   -0.07 KCAL/MOL
REMARK 927      BINDING AFFINITY PREDICTED BY RF-SCORE:    0.00 PKD
ROOT
HETATM    1  O   UNL     1     -11.744   5.666  72.918  1.00  0.00    -0.491 OA 
HETATM    2  H   UNL     1     -12.362   5.302  73.542  1.00  0.00     0.000 HD 
HETATM    3  N   UNL     1     -11.248   6.736  73.094  1.00  0.00    -0.496 NA 
HETATM    4  H   UNL     1     -11.491   7.270  73.928  1.00  0.00     0.000 HD 
ENDROOT
BRANCH   3   5
HETATM    5 FE   UNL     1      -9.957   7.493  71.792  1.00  0.00    -0.165 Fe 
HETATM    6  C   UNL     1     -11.026   9.216  71.691  1.00  0.00    -0.374 C  
HETATM    7  C   UNL     1     -11.035   6.727  70.254  1.00  0.00    -0.291 C  
HETATM    8  C   UNL     1      -8.877   5.782  71.884  1.00  0.00    -0.139 C  
HETATM    9  C   UNL     1      -8.629   8.261  70.470  1.00  0.00    -0.131 C  
HETATM   10  C   UNL     1      -8.876   8.258  73.323  1.00  0.00    -0.213 C  
HETATM   11  N   UNL     1      -7.870   8.700  69.714  1.00  0.00    -0.091 NA 
HETATM   12  N   UNL     1     -11.649   6.290  69.375  1.00  0.00    -0.301 NA 
HETATM   13  N   UNL     1      -8.260   4.804  71.936  1.00  0.00    -0.108 NA 
HETATM   14  N   UNL     1     -11.635  10.198  71.634  1.00  0.00    -0.147 NA 
HETATM   15  N   UNL     1      -8.258   8.696  74.199  1.00  0.00    -0.305 NA 
ENDBRANCH   3   5
TORSDOF 1
ENDMDL
MODEL      137
REMARK 921   NORMALIZED FREE ENERGY PREDICTED BY IDOCK:   -3.04 KCAL/MOL
REMARK 922        TOTAL FREE ENERGY PREDICTED BY IDOCK:   -3.32 KCAL/MOL
REMARK 923 INTER-LIGAND FREE ENERGY PREDICTED BY IDOCK:   -3.25 KCAL/MOL
REMARK 924 INTRA-LIGAND FREE ENERGY PREDICTED BY IDOCK:   -0.07 KCAL/MOL
REMARK 927      BINDING AFFINITY PREDICTED BY RF-SCORE:    0.00 PKD
ROOT
HETATM    1  O   UNL     1     -11.027   7.078  68.047  1.00  0.00    -0.427 OA 
HETATM    2  H   UNL     1     -11.712   6.424  67.973  1.00  0.00     0.000 HD 
HETATM    3  N   UNL     1     -11.009   8.036  67.337  1.00  0.00    -0.495 NA 
HETATM    4  H   UNL     1     -11.742   8.155  66.638  1.00  0.00     0.000 HD 
ENDROOT
BRANCH   3   5
HETATM    5 FE   UNL     1      -9.579   9.401  67.492  1.00  0.00    -0.129 Fe 
HETATM    6  C   UNL     1      -8.152   7.972  67.287  1.00  0.00    -0.121 C  
HETATM    7  C   UNL     1      -9.543   9.157  69.506  1.00  0.00    -0.168 C  
HETATM    8  C   UNL     1     -10.990  10.841  67.695  1.00  0.00    -0.306 C  
HETATM    9  C   UNL     1      -8.125  10.804  67.643  1.00  0.00    -0.114 C  
HETATM   10  C   UNL     1      -9.612   9.651  65.484  1.00  0.00    -0.283 C  
HETATM   11  N   UNL     1      -7.295  11.605  67.729  1.00  0.00    -0.099 NA 
HETATM   12  N   UNL     1      -9.521   9.019  70.655  1.00  0.00    -0.215 NA 
HETATM   13  N   UNL     1     -11.795  11.663  67.812  1.00  0.00    -0.611 NA 
HETATM   14  N   UNL     1      -7.339   7.157  67.169  1.00  0.00    -0.088 NA 
HETATM   15  N   UNL     1      -9.632   9.794  64.335  1.00  0.00    -0.193 NA 
ENDBRANCH   3   5
TORSDOF 1
ENDMDL
MODEL      138
REMARK 921   NORMALIZED FREE ENERGY PREDICTED BY IDOCK:   -3.04 KCAL/MOL
REMARK 922        TOTAL FREE ENERGY PREDICTED BY IDOCK:   -3.31 KCAL/MOL
REMARK 923 INTER-LIGAND FREE ENERGY PREDICTED BY IDOCK:   -3.20 KCAL/MOL
REMARK 924 INTRA-LIGAND FREE ENERGY PREDICTED BY IDOCK:   -0.11 KCAL/MOL
REMARK 927      BINDING AFFINITY PREDICTED BY RF-SCORE:    0.00 PKD
ROOT
HETATM    1  O   UNL     1      -8.359   5.282  70.295  1.00  0.00    -0.102 OA 
HETATM    2  H   UNL     1      -7.619   4.716  70.105  1.00  0.00     0.000 HD 
HETATM    3  N   UNL     1      -8.299   6.110  71.151  1.00  0.00    -0.123 NA 
HETATM    4  H   UNL     1      -7.439   6.212  71.689  1.00  0.00     0.000 HD 
ENDROOT
BRANCH   3   5
HETATM    5 FE   UNL     1      -9.843   7.289  71.545  1.00  0.00    -0.167 Fe 
HETATM    6  C   UNL     1     -10.822   6.607  69.903  1.00  0.00    -0.278 C  
HETATM    7  C   UNL     1      -9.011   8.774  70.441  1.00  0.00    -0.169 C  
HETATM    8  C   UNL     1      -8.882   7.979  73.190  1.00  0.00    -0.254 C  
HETATM    9  C   UNL     1     -11.419   8.492  71.962  1.00  0.00    -0.361 C  
HETATM   10  C   UNL     1     -10.677   5.813  72.651  1.00  0.00    -0.240 C  
HETATM   11  N   UNL     1     -12.320   9.178  72.200  1.00  0.00    -0.368 NA 
HETATM   12  N   UNL     1      -8.538   9.622  69.811  1.00  0.00    -0.181 NA 
HETATM   13  N   UNL     1      -8.334   8.373  74.129  1.00  0.00    -0.290 NA 
HETATM   14  N   UNL     1     -11.380   6.218  68.967  1.00  0.00    -0.354 NA 
HETATM   15  N   UNL     1     -11.154   4.968  73.283  1.00  0.00    -0.316 NA 
ENDBRANCH   3   5
TORSDOF 1
ENDMDL
MODEL      139
REMARK 921   NORMALIZED FREE ENERGY PREDICTED BY IDOCK:   -3.04 KCAL/MOL
REMARK 922        TOTAL FREE ENERGY PREDICTED BY IDOCK:   -3.31 KCAL/MOL
REMARK 923 INTER-LIGAND FREE ENERGY PREDICTED BY IDOCK:   -3.21 KCAL/MOL
REMARK 924 INTRA-LIGAND FREE ENERGY PREDICTED BY IDOCK:   -0.10 KCAL/MOL
REMARK 927      BINDING AFFINITY PREDICTED BY RF-SCORE:    0.00 PKD
ROOT
HETATM    1  O   UNL     1     -11.763  10.152  71.222  1.00  0.00    -0.366 OA 
HETATM    2  H   UNL     1     -12.304  10.913  71.397  1.00  0.00     0.000 HD 
HETATM    3  N   UNL     1     -10.809  10.224  70.511  1.00  0.00    -0.408 NA 
HETATM    4  H   UNL     1     -10.570  11.117  70.082  1.00  0.00     0.000 HD 
ENDROOT
BRANCH   3   5
HETATM    5 FE   UNL     1      -9.679   8.634  70.148  1.00  0.00    -0.155 Fe 
HETATM    6  C   UNL     1      -9.104   8.562  72.093  1.00  0.00    -0.249 C  
HETATM    7  C   UNL     1      -8.101   9.835  69.719  1.00  0.00    -0.167 C  
HETATM    8  C   UNL     1     -10.245   8.690  68.204  1.00  0.00    -0.205 C  
HETATM    9  C   UNL     1      -8.535   7.006  69.768  1.00  0.00    -0.137 C  
HETATM   10  C   UNL     1     -11.251   7.432  70.572  1.00  0.00    -0.274 C  
HETATM   11  N   UNL     1      -7.882   6.076  69.553  1.00  0.00    -0.097 NA 
HETATM   12  N   UNL     1      -7.200  10.518  69.474  1.00  0.00    -0.123 NA 
HETATM   13  N   UNL     1     -10.568   8.721  67.093  1.00  0.00    -0.279 NA 
HETATM   14  N   UNL     1      -8.777   8.521  73.202  1.00  0.00    -0.364 NA 
HETATM   15  N   UNL     1     -12.150   6.744  70.815  1.00  0.00    -0.386 NA 
ENDBRANCH   3   5
TORSDOF 1
ENDMDL
MODEL      140
REMARK 921   NORMALIZED FREE ENERGY PREDICTED BY IDOCK:   -3.02 KCAL/MOL
REMARK 922        TOTAL FREE ENERGY PREDICTED BY IDOCK:   -3.30 KCAL/MOL
REMARK 923 INTER-LIGAND FREE ENERGY PREDICTED BY IDOCK:   -3.23 KCAL/MOL
REMARK 924 INTRA-LIGAND FREE ENERGY PREDICTED BY IDOCK:   -0.07 KCAL/MOL
REMARK 927      BINDING AFFINITY PREDICTED BY RF-SCORE:    0.00 PKD
ROOT
HETATM    1  O   UNL     1      -9.234  11.735  64.449  1.00  0.00    -0.423 OA 
HETATM    2  H   UNL     1      -9.457  12.156  63.626  1.00  0.00     0.000 HD 
HETATM    3  N   UNL     1      -9.526  12.231  65.493  1.00  0.00    -0.428 NA 
HETATM    4  H   UNL     1     -10.023  13.121  65.504  1.00  0.00     0.000 HD 
ENDROOT
BRANCH   3   5
HETATM    5 FE   UNL     1      -9.062  11.352  67.210  1.00  0.00    -0.147 Fe 
HETATM    6  C   UNL     1      -7.088  11.407  66.738  1.00  0.00    -0.132 C  
HETATM    7  C   UNL     1      -9.225   9.527  66.338  1.00  0.00    -0.166 C  
HETATM    8  C   UNL     1     -11.027  11.291  67.698  1.00  0.00    -0.259 C  
HETATM    9  C   UNL     1      -8.597  10.462  68.969  1.00  0.00    -0.157 C  
HETATM   10  C   UNL     1      -8.899  13.170  68.086  1.00  0.00    -0.194 C  
HETATM   11  N   UNL     1      -8.331   9.954  69.974  1.00  0.00    -0.190 NA 
HETATM   12  N   UNL     1      -9.318   8.486  65.842  1.00  0.00    -0.195 NA 
HETATM   13  N   UNL     1     -12.149  11.256  67.977  1.00  0.00    -0.624 NA 
HETATM   14  N   UNL     1      -5.963  11.440  66.469  1.00  0.00    -0.146 NA 
HETATM   15  N   UNL     1      -8.807  14.209  68.587  1.00  0.00    -0.167 NA 
ENDBRANCH   3   5
TORSDOF 1
ENDMDL
MODEL      141
REMARK 921   NORMALIZED FREE ENERGY PREDICTED BY IDOCK:   -3.01 KCAL/MOL
REMARK 922        TOTAL FREE ENERGY PREDICTED BY IDOCK:   -3.28 KCAL/MOL
REMARK 923 INTER-LIGAND FREE ENERGY PREDICTED BY IDOCK:   -3.15 KCAL/MOL
REMARK 924 INTRA-LIGAND FREE ENERGY PREDICTED BY IDOCK:   -0.12 KCAL/MOL
REMARK 927      BINDING AFFINITY PREDICTED BY RF-SCORE:    0.00 PKD
ROOT
HETATM    1  O   UNL     1     -12.014  12.375  66.288  1.00  0.00    -0.553 OA 
HETATM    2  H   UNL     1     -12.728  12.577  65.695  1.00  0.00     0.000 HD 
HETATM    3  N   UNL     1     -11.784  11.253  66.618  1.00  0.00    -0.281 NA 
HETATM    4  H   UNL     1     -12.364  10.496  66.258  1.00  0.00     0.000 HD 
ENDROOT
BRANCH   3   5
HETATM    5 FE   UNL     1     -10.291  10.833  67.855  1.00  0.00    -0.159 Fe 
HETATM    6  C   UNL     1     -11.560  10.849  69.439  1.00  0.00    -0.316 C  
HETATM    7  C   UNL     1      -9.931  12.813  68.116  1.00  0.00    -0.229 C  
HETATM    8  C   UNL     1      -9.011  10.811  66.285  1.00  0.00    -0.170 C  
HETATM    9  C   UNL     1      -8.761  10.397  69.109  1.00  0.00    -0.166 C  
HETATM   10  C   UNL     1     -10.644   8.857  67.596  1.00  0.00    -0.224 C  
HETATM   11  N   UNL     1      -7.888  10.147  69.826  1.00  0.00    -0.168 NA 
HETATM   12  N   UNL     1      -9.724  13.942  68.266  1.00  0.00    -0.219 NA 
HETATM   13  N   UNL     1      -8.279  10.798  65.389  1.00  0.00    -0.123 NA 
HETATM   14  N   UNL     1     -12.284  10.858  70.342  1.00  0.00    -0.335 NA 
HETATM   15  N   UNL     1     -10.846   7.727  67.448  1.00  0.00    -0.210 NA 
ENDBRANCH   3   5
TORSDOF 1
ENDMDL
MODEL      142
REMARK 921   NORMALIZED FREE ENERGY PREDICTED BY IDOCK:   -3.00 KCAL/MOL
REMARK 922        TOTAL FREE ENERGY PREDICTED BY IDOCK:   -3.28 KCAL/MOL
REMARK 923 INTER-LIGAND FREE ENERGY PREDICTED BY IDOCK:   -3.14 KCAL/MOL
REMARK 924 INTRA-LIGAND FREE ENERGY PREDICTED BY IDOCK:   -0.14 KCAL/MOL
REMARK 927      BINDING AFFINITY PREDICTED BY RF-SCORE:    0.00 PKD
ROOT
HETATM    1  O   UNL     1      -9.989  11.185  64.163  1.00  0.00    -0.261 OA 
HETATM    2  H   UNL     1     -10.448  11.351  63.348  1.00  0.00     0.000 HD 
HETATM    3  N   UNL     1     -10.580  11.063  65.191  1.00  0.00    -0.259 NA 
HETATM    4  H   UNL     1     -11.597  11.139  65.196  1.00  0.00     0.000 HD 
ENDROOT
BRANCH   3   5
HETATM    5 FE   UNL     1      -9.619  10.715  66.891  1.00  0.00    -0.155 Fe 
HETATM    6  C   UNL     1     -10.120   8.749  66.806  1.00  0.00    -0.288 C  
HETATM    7  C   UNL     1     -11.309  11.107  67.944  1.00  0.00    -0.309 C  
HETATM    8  C   UNL     1      -9.108  12.672  66.990  1.00  0.00    -0.215 C  
HETATM    9  C   UNL     1      -8.628  10.368  68.623  1.00  0.00    -0.133 C  
HETATM   10  C   UNL     1      -7.930  10.325  65.846  1.00  0.00    -0.137 C  
HETATM   11  N   UNL     1      -8.062  10.169  69.613  1.00  0.00    -0.169 NA 
HETATM   12  N   UNL     1     -12.272  11.330  68.546  1.00  0.00    -0.553 NA 
HETATM   13  N   UNL     1      -8.815  13.791  67.047  1.00  0.00    -0.229 NA 
HETATM   14  N   UNL     1     -10.406   7.629  66.757  1.00  0.00    -0.297 NA 
HETATM   15  N   UNL     1      -6.964  10.103  65.248  1.00  0.00    -0.133 NA 
ENDBRANCH   3   5
TORSDOF 1
ENDMDL
MODEL      143
REMARK 921   NORMALIZED FREE ENERGY PREDICTED BY IDOCK:   -3.00 KCAL/MOL
REMARK 922        TOTAL FREE ENERGY PREDICTED BY IDOCK:   -3.27 KCAL/MOL
REMARK 923 INTER-LIGAND FREE ENERGY PREDICTED BY IDOCK:   -3.18 KCAL/MOL
REMARK 924 INTRA-LIGAND FREE ENERGY PREDICTED BY IDOCK:   -0.09 KCAL/MOL
REMARK 927      BINDING AFFINITY PREDICTED BY RF-SCORE:    0.00 PKD
ROOT
HETATM    1  O   UNL     1     -11.691   5.613  72.954  1.00  0.00    -0.491 OA 
HETATM    2  H   UNL     1     -12.378   5.355  73.558  1.00  0.00     0.000 HD 
HETATM    3  N   UNL     1     -11.047   6.599  73.137  1.00  0.00    -0.455 NA 
HETATM    4  H   UNL     1     -11.237   7.177  73.955  1.00  0.00     0.000 HD 
ENDROOT
BRANCH   3   5
HETATM    5 FE   UNL     1      -9.613   7.136  71.876  1.00  0.00    -0.148 Fe 
HETATM    6  C   UNL     1      -8.563   5.452  72.307  1.00  0.00    -0.126 C  
HETATM    7  C   UNL     1      -8.652   8.124  73.365  1.00  0.00    -0.247 C  
HETATM    8  C   UNL     1     -10.648   8.819  71.432  1.00  0.00    -0.279 C  
HETATM    9  C   UNL     1      -8.158   7.689  70.580  1.00  0.00    -0.105 C  
HETATM   10  C   UNL     1     -10.568   6.154  70.386  1.00  0.00    -0.257 C  
HETATM   11  N   UNL     1      -7.326   8.004  69.839  1.00  0.00    -0.065 NA 
HETATM   12  N   UNL     1      -8.103   8.688  74.214  1.00  0.00    -0.332 NA 
HETATM   13  N   UNL     1     -11.239   9.782  71.178  1.00  0.00    -0.370 NA 
HETATM   14  N   UNL     1      -7.966   4.493  72.552  1.00  0.00    -0.089 NA 
HETATM   15  N   UNL     1     -11.115   5.593  69.533  1.00  0.00    -0.218 NA 
ENDBRANCH   3   5
TORSDOF 1
ENDMDL
MODEL      144
REMARK 921   NORMALIZED FREE ENERGY PREDICTED BY IDOCK:   -2.99 KCAL/MOL
REMARK 922        TOTAL FREE ENERGY PREDICTED BY IDOCK:   -3.26 KCAL/MOL
REMARK 923 INTER-LIGAND FREE ENERGY PREDICTED BY IDOCK:   -3.19 KCAL/MOL
REMARK 924 INTRA-LIGAND FREE ENERGY PREDICTED BY IDOCK:   -0.07 KCAL/MOL
REMARK 927      BINDING AFFINITY PREDICTED BY RF-SCORE:    0.00 PKD
ROOT
HETATM    1  O   UNL     1     -11.666   5.642  72.948  1.00  0.00    -0.491 OA 
HETATM    2  H   UNL     1     -12.295   5.367  73.606  1.00  0.00     0.000 HD 
HETATM    3  N   UNL     1     -11.076   6.672  73.052  1.00  0.00    -0.412 NA 
HETATM    4  H   UNL     1     -11.248   7.270  73.860  1.00  0.00     0.000 HD 
ENDROOT
BRANCH   3   5
HETATM    5 FE   UNL     1      -9.764   7.244  71.679  1.00  0.00    -0.153 Fe 
HETATM    6  C   UNL     1     -10.890   6.409  70.212  1.00  0.00    -0.293 C  
HETATM    7  C   UNL     1      -8.749   5.501  71.901  1.00  0.00    -0.135 C  
HETATM    8  C   UNL     1      -8.628   8.086  73.131  1.00  0.00    -0.220 C  
HETATM    9  C   UNL     1      -8.421   7.840  70.284  1.00  0.00    -0.133 C  
HETATM   10  C   UNL     1     -10.770   8.986  71.456  1.00  0.00    -0.351 C  
HETATM   11  N   UNL     1      -7.655   8.181  69.486  1.00  0.00    -0.097 NA 
HETATM   12  N   UNL     1      -8.169   4.508  72.026  1.00  0.00    -0.099 NA 
HETATM   13  N   UNL     1      -7.979   8.567  73.959  1.00  0.00    -0.397 NA 
HETATM   14  N   UNL     1     -11.533   5.934  69.376  1.00  0.00    -0.079 NA 
HETATM   15  N   UNL     1     -11.346   9.983  71.328  1.00  0.00    -0.330 NA 
ENDBRANCH   3   5
TORSDOF 1
ENDMDL
MODEL      145
REMARK 921   NORMALIZED FREE ENERGY PREDICTED BY IDOCK:   -2.99 KCAL/MOL
REMARK 922        TOTAL FREE ENERGY PREDICTED BY IDOCK:   -3.26 KCAL/MOL
REMARK 923 INTER-LIGAND FREE ENERGY PREDICTED BY IDOCK:   -3.14 KCAL/MOL
REMARK 924 INTRA-LIGAND FREE ENERGY PREDICTED BY IDOCK:   -0.12 KCAL/MOL
REMARK 927      BINDING AFFINITY PREDICTED BY RF-SCORE:    0.00 PKD
ROOT
HETATM    1  O   UNL     1      -8.723   8.538  72.629  1.00  0.00    -0.305 OA 
HETATM    2  H   UNL     1      -8.566   8.713  73.549  1.00  0.00     0.000 HD 
HETATM    3  N   UNL     1      -9.625   9.057  72.048  1.00  0.00    -0.313 NA 
HETATM    4  H   UNL     1     -10.240   9.699  72.548  1.00  0.00     0.000 HD 
ENDROOT
BRANCH   3   5
HETATM    5 FE   UNL     1      -9.952   8.691  70.126  1.00  0.00    -0.166 Fe 
HETATM    6  C   UNL     1     -11.414   7.363  70.596  1.00  0.00    -0.282 C  
HETATM    7  C   UNL     1      -8.577   7.200  70.160  1.00  0.00    -0.140 C  
HETATM    8  C   UNL     1      -8.499  10.016  69.638  1.00  0.00    -0.180 C  
HETATM    9  C   UNL     1     -10.283   8.332  68.160  1.00  0.00    -0.210 C  
HETATM   10  C   UNL     1     -11.323  10.180  70.085  1.00  0.00    -0.303 C  
HETATM   11  N   UNL     1     -10.474   8.126  67.037  1.00  0.00    -0.332 NA 
HETATM   12  N   UNL     1      -7.793   6.349  70.177  1.00  0.00    -0.105 NA 
HETATM   13  N   UNL     1      -7.668  10.772  69.359  1.00  0.00    -0.132 NA 
HETATM   14  N   UNL     1     -12.247   6.607  70.864  1.00  0.00    -0.337 NA 
HETATM   15  N   UNL     1     -12.107  11.032  70.062  1.00  0.00    -0.337 NA 
ENDBRANCH   3   5
TORSDOF 1
ENDMDL
MODEL      146
REMARK 921   NORMALIZED FREE ENERGY PREDICTED BY IDOCK:   -2.99 KCAL/MOL
REMARK 922        TOTAL FREE ENERGY PREDICTED BY IDOCK:   -3.26 KCAL/MOL
REMARK 923 INTER-LIGAND FREE ENERGY PREDICTED BY IDOCK:   -3.11 KCAL/MOL
REMARK 924 INTRA-LIGAND FREE ENERGY PREDICTED BY IDOCK:   -0.15 KCAL/MOL
REMARK 927      BINDING AFFINITY PREDICTED BY RF-SCORE:    0.00 PKD
ROOT
HETATM    1  O   UNL     1     -11.845   9.946  71.284  1.00  0.00    -0.344 OA 
HETATM    2  H   UNL     1     -12.409  10.673  71.519  1.00  0.00     0.000 HD 
HETATM    3  N   UNL     1     -10.762  10.131  70.818  1.00  0.00    -0.388 NA 
HETATM    4  H   UNL     1     -10.437  11.086  70.669  1.00  0.00     0.000 HD 
ENDROOT
BRANCH   3   5
HETATM    5 FE   UNL     1      -9.584   8.612  70.329  1.00  0.00    -0.149 Fe 
HETATM    6  C   UNL     1      -8.075   9.891  69.874  1.00  0.00    -0.188 C  
HETATM    7  C   UNL     1     -10.243   8.698  68.412  1.00  0.00    -0.200 C  
HETATM    8  C   UNL     1     -11.079   7.321  70.781  1.00  0.00    -0.266 C  
HETATM    9  C   UNL     1      -8.386   7.053  69.840  1.00  0.00    -0.139 C  
HETATM   10  C   UNL     1      -8.925   8.519  72.241  1.00  0.00    -0.229 C  
HETATM   11  N   UNL     1      -7.701   6.164  69.560  1.00  0.00    -0.097 NA 
HETATM   12  N   UNL     1     -10.619   8.746  67.318  1.00  0.00    -0.276 NA 
HETATM   13  N   UNL     1     -11.932   6.583  71.039  1.00  0.00    -0.347 NA 
HETATM   14  N   UNL     1      -7.215  10.620  69.616  1.00  0.00    -0.142 NA 
HETATM   15  N   UNL     1      -8.548   8.466  73.334  1.00  0.00    -0.349 NA 
ENDBRANCH   3   5
TORSDOF 1
ENDMDL
MODEL      147
REMARK 921   NORMALIZED FREE ENERGY PREDICTED BY IDOCK:   -2.99 KCAL/MOL
REMARK 922        TOTAL FREE ENERGY PREDICTED BY IDOCK:   -3.26 KCAL/MOL
REMARK 923 INTER-LIGAND FREE ENERGY PREDICTED BY IDOCK:   -3.19 KCAL/MOL
REMARK 924 INTRA-LIGAND FREE ENERGY PREDICTED BY IDOCK:   -0.07 KCAL/MOL
REMARK 927      BINDING AFFINITY PREDICTED BY RF-SCORE:    0.00 PKD
ROOT
HETATM    1  O   UNL     1      -8.142   5.316  70.735  1.00  0.00    -0.101 OA 
HETATM    2  H   UNL     1      -7.333   4.901  70.458  1.00  0.00     0.000 HD 
HETATM    3  N   UNL     1      -8.200   6.493  70.918  1.00  0.00    -0.123 NA 
HETATM    4  H   UNL     1      -7.367   7.064  70.777  1.00  0.00     0.000 HD 
ENDROOT
BRANCH   3   5
HETATM    5 FE   UNL     1      -9.888   7.358  71.494  1.00  0.00    -0.166 Fe 
HETATM    6  C   UNL     1     -10.388   5.723  72.588  1.00  0.00    -0.198 C  
HETATM    7  C   UNL     1     -10.852   6.585  69.885  1.00  0.00    -0.286 C  
HETATM    8  C   UNL     1      -9.404   9.000  70.411  1.00  0.00    -0.208 C  
HETATM    9  C   UNL     1     -11.607   8.255  72.084  1.00  0.00    -0.364 C  
HETATM   10  C   UNL     1      -8.932   8.135  73.100  1.00  0.00    -0.261 C  
HETATM   11  N   UNL     1     -12.589   8.766  72.421  1.00  0.00    -0.387 NA 
HETATM   12  N   UNL     1     -11.403   6.145  68.968  1.00  0.00    -0.325 NA 
HETATM   13  N   UNL     1      -9.128   9.938  69.792  1.00  0.00    -0.225 NA 
HETATM   14  N   UNL     1     -10.673   4.791  73.211  1.00  0.00    -0.221 NA 
HETATM   15  N   UNL     1      -8.384   8.580  74.018  1.00  0.00    -0.323 NA 
ENDBRANCH   3   5
TORSDOF 1
ENDMDL
MODEL      148
REMARK 921   NORMALIZED FREE ENERGY PREDICTED BY IDOCK:   -2.97 KCAL/MOL
REMARK 922        TOTAL FREE ENERGY PREDICTED BY IDOCK:   -3.25 KCAL/MOL
REMARK 923 INTER-LIGAND FREE ENERGY PREDICTED BY IDOCK:   -3.18 KCAL/MOL
REMARK 924 INTRA-LIGAND FREE ENERGY PREDICTED BY IDOCK:   -0.07 KCAL/MOL
REMARK 927      BINDING AFFINITY PREDICTED BY RF-SCORE:    0.00 PKD
ROOT
HETATM    1  O   UNL     1      -8.297  13.042  67.352  1.00  0.00    -0.175 OA 
HETATM    2  H   UNL     1      -7.418  13.114  67.705  1.00  0.00     0.000 HD 
HETATM    3  N   UNL     1      -8.537  12.318  66.435  1.00  0.00    -0.403 NA 
HETATM    4  H   UNL     1      -7.785  11.768  66.021  1.00  0.00     0.000 HD 
ENDROOT
BRANCH   3   5
HETATM    5 FE   UNL     1     -10.374  12.168  65.701  1.00  0.00    -0.225 Fe 
HETATM    6  C   UNL     1      -9.635  11.763  63.854  1.00  0.00    -0.122 C  
HETATM    7  C   UNL     1     -10.381  14.151  65.271  1.00  0.00    -0.388 C  
HETATM    8  C   UNL     1     -11.129  12.568  67.538  1.00  0.00    -0.267 C  
HETATM    9  C   UNL     1     -12.254  12.009  64.964  1.00  0.00    -0.050 C  
HETATM   10  C   UNL     1     -10.374  10.190  66.131  1.00  0.00    -0.167 C  
HETATM   11  N   UNL     1     -13.327  11.917  64.541  1.00  0.00    -0.160 NA 
HETATM   12  N   UNL     1     -10.386  15.282  65.025  1.00  0.00    -0.379 NA 
HETATM   13  N   UNL     1     -11.560  12.796  68.587  1.00  0.00    -0.292 NA 
HETATM   14  N   UNL     1      -9.213  11.532  62.802  1.00  0.00    -0.324 NA 
HETATM   15  N   UNL     1     -10.373   9.059  66.377  1.00  0.00    -0.223 NA 
ENDBRANCH   3   5
TORSDOF 1
ENDMDL
MODEL      149
REMARK 921   NORMALIZED FREE ENERGY PREDICTED BY IDOCK:   -2.97 KCAL/MOL
REMARK 922        TOTAL FREE ENERGY PREDICTED BY IDOCK:   -3.24 KCAL/MOL
REMARK 923 INTER-LIGAND FREE ENERGY PREDICTED BY IDOCK:   -3.14 KCAL/MOL
REMARK 924 INTRA-LIGAND FREE ENERGY PREDICTED BY IDOCK:   -0.10 KCAL/MOL
REMARK 927      BINDING AFFINITY PREDICTED BY RF-SCORE:    0.00 PKD
ROOT
HETATM    1  O   UNL     1     -11.275   6.496  67.269  1.00  0.00    -0.592 OA 
HETATM    2  H   UNL     1     -11.920   6.208  66.633  1.00  0.00     0.000 HD 
HETATM    3  N   UNL     1     -11.553   6.607  68.423  1.00  0.00    -0.426 NA 
HETATM    4  H   UNL     1     -12.499   6.390  68.733  1.00  0.00     0.000 HD 
ENDROOT
BRANCH   3   5
HETATM    5 FE   UNL     1     -10.205   7.207  69.749  1.00  0.00    -0.181 Fe 
HETATM    6  C   UNL     1      -8.703   6.837  68.434  1.00  0.00    -0.123 C  
HETATM    7  C   UNL     1     -10.049   5.317  70.469  1.00  0.00    -0.245 C  
HETATM    8  C   UNL     1     -11.692   7.585  71.072  1.00  0.00    -0.292 C  
HETATM    9  C   UNL     1      -8.837   7.830  71.107  1.00  0.00    -0.137 C  
HETATM   10  C   UNL     1     -10.359   9.096  69.036  1.00  0.00    -0.215 C  
HETATM   11  N   UNL     1      -8.056   8.187  71.882  1.00  0.00    -0.123 NA 
HETATM   12  N   UNL     1      -9.959   4.239  70.881  1.00  0.00    -0.186 NA 
HETATM   13  N   UNL     1     -12.540   7.801  71.829  1.00  0.00    -0.321 NA 
HETATM   14  N   UNL     1      -7.848   6.627  67.684  1.00  0.00    -0.110 NA 
HETATM   15  N   UNL     1     -10.447  10.176  68.628  1.00  0.00    -0.192 NA 
ENDBRANCH   3   5
TORSDOF 1
ENDMDL
MODEL      150
REMARK 921   NORMALIZED FREE ENERGY PREDICTED BY IDOCK:   -2.95 KCAL/MOL
REMARK 922        TOTAL FREE ENERGY PREDICTED BY IDOCK:   -3.22 KCAL/MOL
REMARK 923 INTER-LIGAND FREE ENERGY PREDICTED BY IDOCK:   -3.11 KCAL/MOL
REMARK 924 INTRA-LIGAND FREE ENERGY PREDICTED BY IDOCK:   -0.10 KCAL/MOL
REMARK 927      BINDING AFFINITY PREDICTED BY RF-SCORE:    0.00 PKD
ROOT
HETATM    1  O   UNL     1     -11.698  10.078  68.169  1.00  0.00    -0.660 OA 
HETATM    2  H   UNL     1     -12.526  10.545  68.149  1.00  0.00     0.000 HD 
HETATM    3  N   UNL     1     -11.253   9.657  69.192  1.00  0.00    -0.443 NA 
HETATM    4  H   UNL     1     -11.768   9.801  70.060  1.00  0.00     0.000 HD 
ENDROOT
BRANCH   3   5
HETATM    5 FE   UNL     1      -9.526   8.682  69.233  1.00  0.00    -0.146 Fe 
HETATM    6  C   UNL     1      -9.538   8.516  67.210  1.00  0.00    -0.171 C  
HETATM    7  C   UNL     1     -10.510   6.915  69.391  1.00  0.00    -0.217 C  
HETATM    8  C   UNL     1      -9.496   8.842  71.252  1.00  0.00    -0.250 C  
HETATM    9  C   UNL     1      -7.758   7.694  69.285  1.00  0.00    -0.104 C  
HETATM   10  C   UNL     1      -8.539  10.442  69.079  1.00  0.00    -0.157 C  
HETATM   11  N   UNL     1      -6.748   7.131  69.314  1.00  0.00    -0.048 NA 
HETATM   12  N   UNL     1     -11.070   5.906  69.481  1.00  0.00    -0.385 NA 
HETATM   13  N   UNL     1      -9.479   8.932  72.406  1.00  0.00    -0.281 NA 
HETATM   14  N   UNL     1      -9.545   8.422  66.057  1.00  0.00    -0.176 NA 
HETATM   15  N   UNL     1      -7.974  11.450  68.991  1.00  0.00    -0.078 NA 
ENDBRANCH   3   5
TORSDOF 1
ENDMDL
MODEL      151
REMARK 921   NORMALIZED FREE ENERGY PREDICTED BY IDOCK:   -2.94 KCAL/MOL
REMARK 922        TOTAL FREE ENERGY PREDICTED BY IDOCK:   -3.21 KCAL/MOL
REMARK 923 INTER-LIGAND FREE ENERGY PREDICTED BY IDOCK:   -3.09 KCAL/MOL
REMARK 924 INTRA-LIGAND FREE ENERGY PREDICTED BY IDOCK:   -0.13 KCAL/MOL
REMARK 927      BINDING AFFINITY PREDICTED BY RF-SCORE:    0.00 PKD
ROOT
HETATM    1  O   UNL     1      -8.134   8.638  73.808  1.00  0.00    -0.400 OA 
HETATM    2  H   UNL     1      -7.586   9.187  74.357  1.00  0.00     0.000 HD 
HETATM    3  N   UNL     1      -8.102   8.728  72.619  1.00  0.00    -0.390 NA 
HETATM    4  H   UNL     1      -7.476   9.406  72.185  1.00  0.00     0.000 HD 
ENDROOT
BRANCH   3   5
HETATM    5 FE   UNL     1      -9.245   7.582  71.474  1.00  0.00    -0.131 Fe 
HETATM    6  C   UNL     1     -10.713   8.983  71.485  1.00  0.00    -0.351 C  
HETATM    7  C   UNL     1     -10.052   6.714  73.121  1.00  0.00    -0.194 C  
HETATM    8  C   UNL     1      -7.789   6.173  71.449  1.00  0.00    -0.108 C  
HETATM    9  C   UNL     1     -10.402   6.407  70.297  1.00  0.00    -0.205 C  
HETATM   10  C   UNL     1      -8.442   8.442  69.827  1.00  0.00    -0.127 C  
HETATM   11  N   UNL     1     -11.063   5.737  69.624  1.00  0.00    -0.338 NA 
HETATM   12  N   UNL     1     -10.513   6.218  74.059  1.00  0.00    -0.296 NA 
HETATM   13  N   UNL     1      -6.958   5.368  71.434  1.00  0.00    -0.063 NA 
HETATM   14  N   UNL     1     -11.550   9.783  71.492  1.00  0.00    -0.379 NA 
HETATM   15  N   UNL     1      -7.982   8.934  68.885  1.00  0.00    -0.102 NA 
ENDBRANCH   3   5
TORSDOF 1
ENDMDL
MODEL      152
REMARK 921   NORMALIZED FREE ENERGY PREDICTED BY IDOCK:   -2.93 KCAL/MOL
REMARK 922        TOTAL FREE ENERGY PREDICTED BY IDOCK:   -3.20 KCAL/MOL
REMARK 923 INTER-LIGAND FREE ENERGY PREDICTED BY IDOCK:   -3.05 KCAL/MOL
REMARK 924 INTRA-LIGAND FREE ENERGY PREDICTED BY IDOCK:   -0.15 KCAL/MOL
REMARK 927      BINDING AFFINITY PREDICTED BY RF-SCORE:    0.00 PKD
ROOT
HETATM    1  O   UNL     1      -8.315   5.163  70.150  1.00  0.00    -0.090 OA 
HETATM    2  H   UNL     1      -7.621   4.527  70.015  1.00  0.00     0.000 HD 
HETATM    3  N   UNL     1      -8.272   5.940  71.054  1.00  0.00    -0.120 NA 
HETATM    4  H   UNL     1      -7.478   5.921  71.693  1.00  0.00     0.000 HD 
ENDROOT
BRANCH   3   5
HETATM    5 FE   UNL     1      -9.720   7.266  71.334  1.00  0.00    -0.159 Fe 
HETATM    6  C   UNL     1      -8.755   8.611  70.159  1.00  0.00    -0.143 C  
HETATM    7  C   UNL     1      -8.759   7.992  72.967  1.00  0.00    -0.219 C  
HETATM    8  C   UNL     1     -10.697   5.934  72.507  1.00  0.00    -0.234 C  
HETATM    9  C   UNL     1     -11.208   8.610  71.621  1.00  0.00    -0.309 C  
HETATM   10  C   UNL     1     -10.685   6.543  69.708  1.00  0.00    -0.269 C  
HETATM   11  N   UNL     1     -12.058   9.378  71.783  1.00  0.00    -0.374 NA 
HETATM   12  N   UNL     1      -8.212   8.408  73.898  1.00  0.00    -0.367 NA 
HETATM   13  N   UNL     1     -11.256   5.174  73.177  1.00  0.00    -0.321 NA 
HETATM   14  N   UNL     1      -8.206   9.378  69.489  1.00  0.00    -0.114 NA 
HETATM   15  N   UNL     1     -11.236   6.129  68.778  1.00  0.00    -0.332 NA 
ENDBRANCH   3   5
TORSDOF 1
ENDMDL
MODEL      153
REMARK 921   NORMALIZED FREE ENERGY PREDICTED BY IDOCK:   -2.93 KCAL/MOL
REMARK 922        TOTAL FREE ENERGY PREDICTED BY IDOCK:   -3.20 KCAL/MOL
REMARK 923 INTER-LIGAND FREE ENERGY PREDICTED BY IDOCK:   -3.05 KCAL/MOL
REMARK 924 INTRA-LIGAND FREE ENERGY PREDICTED BY IDOCK:   -0.15 KCAL/MOL
REMARK 927      BINDING AFFINITY PREDICTED BY RF-SCORE:    0.00 PKD
ROOT
HETATM    1  O   UNL     1      -9.553   9.175  69.197  1.00  0.00    -0.157 OA 
HETATM    2  H   UNL     1      -9.275   9.938  68.703  1.00  0.00     0.000 HD 
HETATM    3  N   UNL     1      -9.306   9.068  70.358  1.00  0.00    -0.191 NA 
HETATM    4  H   UNL     1      -8.787   9.808  70.830  1.00  0.00     0.000 HD 
ENDROOT
BRANCH   3   5
HETATM    5 FE   UNL     1      -9.887   7.476  71.387  1.00  0.00    -0.168 Fe 
HETATM    6  C   UNL     1     -11.579   8.433  71.971  1.00  0.00    -0.351 C  
HETATM    7  C   UNL     1      -8.921   8.167  73.032  1.00  0.00    -0.266 C  
HETATM    8  C   UNL     1      -8.206   6.504  70.812  1.00  0.00    -0.125 C  
HETATM    9  C   UNL     1     -10.476   5.841  72.429  1.00  0.00    -0.211 C  
HETATM   10  C   UNL     1     -10.851   6.780  69.749  1.00  0.00    -0.272 C  
HETATM   11  N   UNL     1     -10.813   4.907  73.023  1.00  0.00    -0.243 NA 
HETATM   12  N   UNL     1      -8.370   8.560  73.971  1.00  0.00    -0.323 NA 
HETATM   13  N   UNL     1      -7.245   5.948  70.484  1.00  0.00    -0.080 NA 
HETATM   14  N   UNL     1     -12.544   8.979  72.303  1.00  0.00    -0.385 NA 
HETATM   15  N   UNL     1     -11.402   6.382  68.812  1.00  0.00    -0.279 NA 
ENDBRANCH   3   5
TORSDOF 1
ENDMDL
MODEL      154
REMARK 921   NORMALIZED FREE ENERGY PREDICTED BY IDOCK:   -2.92 KCAL/MOL
REMARK 922        TOTAL FREE ENERGY PREDICTED BY IDOCK:   -3.19 KCAL/MOL
REMARK 923 INTER-LIGAND FREE ENERGY PREDICTED BY IDOCK:   -3.10 KCAL/MOL
REMARK 924 INTRA-LIGAND FREE ENERGY PREDICTED BY IDOCK:   -0.10 KCAL/MOL
REMARK 927      BINDING AFFINITY PREDICTED BY RF-SCORE:    0.00 PKD
ROOT
HETATM    1  O   UNL     1     -11.014   7.097  68.020  1.00  0.00    -0.434 OA 
HETATM    2  H   UNL     1     -11.601   6.365  67.867  1.00  0.00     0.000 HD 
HETATM    3  N   UNL     1     -11.086   8.092  67.367  1.00  0.00    -0.413 NA 
HETATM    4  H   UNL     1     -11.788   8.159  66.631  1.00  0.00     0.000 HD 
ENDROOT
BRANCH   3   5
HETATM    5 FE   UNL     1      -9.862   9.619  67.689  1.00  0.00    -0.140 Fe 
HETATM    6  C   UNL     1     -10.089  10.243  65.771  1.00  0.00    -0.255 C  
HETATM    7  C   UNL     1      -8.274   8.482  67.137  1.00  0.00    -0.108 C  
HETATM    8  C   UNL     1      -9.625   9.011  69.607  1.00  0.00    -0.171 C  
HETATM    9  C   UNL     1      -8.616  11.180  68.029  1.00  0.00    -0.140 C  
HETATM   10  C   UNL     1     -11.441  10.757  68.243  1.00  0.00    -0.280 C  
HETATM   11  N   UNL     1      -7.905  12.072  68.223  1.00  0.00    -0.138 NA 
HETATM   12  N   UNL     1      -7.368   7.835  66.822  1.00  0.00    -0.087 NA 
HETATM   13  N   UNL     1      -9.490   8.665  70.703  1.00  0.00    -0.173 NA 
HETATM   14  N   UNL     1     -10.220  10.599  64.678  1.00  0.00    -0.349 NA 
HETATM   15  N   UNL     1     -12.344  11.408  68.560  1.00  0.00    -0.407 NA 
ENDBRANCH   3   5
TORSDOF 1
ENDMDL
MODEL      155
REMARK 921   NORMALIZED FREE ENERGY PREDICTED BY IDOCK:   -2.91 KCAL/MOL
REMARK 922        TOTAL FREE ENERGY PREDICTED BY IDOCK:   -3.18 KCAL/MOL
REMARK 923 INTER-LIGAND FREE ENERGY PREDICTED BY IDOCK:   -3.10 KCAL/MOL
REMARK 924 INTRA-LIGAND FREE ENERGY PREDICTED BY IDOCK:   -0.08 KCAL/MOL
REMARK 927      BINDING AFFINITY PREDICTED BY RF-SCORE:    0.00 PKD
ROOT
HETATM    1  O   UNL     1      -8.630   4.918  70.622  1.00  0.00    -0.104 OA 
HETATM    2  H   UNL     1      -7.900   4.367  70.365  1.00  0.00     0.000 HD 
HETATM    3  N   UNL     1      -8.469   5.871  71.320  1.00  0.00    -0.127 NA 
HETATM    4  H   UNL     1      -7.530   6.098  71.648  1.00  0.00     0.000 HD 
ENDROOT
BRANCH   3   5
HETATM    5 FE   UNL     1      -9.993   7.021  71.854  1.00  0.00    -0.165 Fe 
HETATM    6  C   UNL     1      -9.045   7.530  73.575  1.00  0.00    -0.235 C  
HETATM    7  C   UNL     1     -10.869   5.450  72.794  1.00  0.00    -0.263 C  
HETATM    8  C   UNL     1     -10.953   6.526  70.140  1.00  0.00    -0.317 C  
HETATM    9  C   UNL     1     -11.553   8.200  72.387  1.00  0.00    -0.399 C  
HETATM   10  C   UNL     1      -9.126   8.591  70.916  1.00  0.00    -0.172 C  
HETATM   11  N   UNL     1     -12.443   8.873  72.692  1.00  0.00    -0.275 NA 
HETATM   12  N   UNL     1     -11.369   4.555  73.330  1.00  0.00    -0.318 NA 
HETATM   13  N   UNL     1     -11.502   6.244  69.162  1.00  0.00    -0.315 NA 
HETATM   14  N   UNL     1      -8.504   7.821  74.556  1.00  0.00    -0.194 NA 
HETATM   15  N   UNL     1      -8.630   9.489  70.379  1.00  0.00    -0.212 NA 
ENDBRANCH   3   5
TORSDOF 1
ENDMDL
MODEL      156
REMARK 921   NORMALIZED FREE ENERGY PREDICTED BY IDOCK:   -2.90 KCAL/MOL
REMARK 922        TOTAL FREE ENERGY PREDICTED BY IDOCK:   -3.17 KCAL/MOL
REMARK 923 INTER-LIGAND FREE ENERGY PREDICTED BY IDOCK:   -3.02 KCAL/MOL
REMARK 924 INTRA-LIGAND FREE ENERGY PREDICTED BY IDOCK:   -0.14 KCAL/MOL
REMARK 927      BINDING AFFINITY PREDICTED BY RF-SCORE:    0.00 PKD
ROOT
HETATM    1  O   UNL     1      -7.961   7.156  68.172  1.00  0.00    -0.116 OA 
HETATM    2  H   UNL     1      -7.104   7.240  67.770  1.00  0.00     0.000 HD 
HETATM    3  N   UNL     1      -8.171   7.571  69.270  1.00  0.00    -0.129 NA 
HETATM    4  H   UNL     1      -7.417   8.024  69.787  1.00  0.00     0.000 HD 
ENDROOT
BRANCH   3   5
HETATM    5 FE   UNL     1      -9.959   7.395  70.108  1.00  0.00    -0.174 Fe 
HETATM    6  C   UNL     1     -10.446   9.281  69.536  1.00  0.00    -0.220 C  
HETATM    7  C   UNL     1      -9.226   8.109  71.860  1.00  0.00    -0.182 C  
HETATM    8  C   UNL     1      -9.492   5.511  70.685  1.00  0.00    -0.165 C  
HETATM    9  C   UNL     1     -11.787   7.202  70.960  1.00  0.00    -0.333 C  
HETATM   10  C   UNL     1     -10.697   6.680  68.364  1.00  0.00    -0.258 C  
HETATM   11  N   UNL     1     -12.832   7.093  71.446  1.00  0.00    -0.392 NA 
HETATM   12  N   UNL     1      -8.809   8.517  72.860  1.00  0.00    -0.359 NA 
HETATM   13  N   UNL     1      -9.225   4.434  71.015  1.00  0.00    -0.129 NA 
HETATM   14  N   UNL     1     -10.723  10.356  69.209  1.00  0.00    -0.220 NA 
HETATM   15  N   UNL     1     -11.118   6.270  67.366  1.00  0.00    -0.346 NA 
ENDBRANCH   3   5
TORSDOF 1
ENDMDL
MODEL      157
REMARK 921   NORMALIZED FREE ENERGY PREDICTED BY IDOCK:   -2.89 KCAL/MOL
REMARK 922        TOTAL FREE ENERGY PREDICTED BY IDOCK:   -3.15 KCAL/MOL
REMARK 923 INTER-LIGAND FREE ENERGY PREDICTED BY IDOCK:   -3.01 KCAL/MOL
REMARK 924 INTRA-LIGAND FREE ENERGY PREDICTED BY IDOCK:   -0.15 KCAL/MOL
REMARK 927      BINDING AFFINITY PREDICTED BY RF-SCORE:    0.00 PKD
ROOT
HETATM    1  O   UNL     1      -7.975   7.121  68.722  1.00  0.00    -0.119 OA 
HETATM    2  H   UNL     1      -7.066   7.145  68.449  1.00  0.00     0.000 HD 
HETATM    3  N   UNL     1      -8.285   7.338  69.853  1.00  0.00    -0.131 NA 
HETATM    4  H   UNL     1      -7.561   7.552  70.539  1.00  0.00     0.000 HD 
ENDROOT
BRANCH   3   5
HETATM    5 FE   UNL     1     -10.184   7.289  70.423  1.00  0.00    -0.183 Fe 
HETATM    6  C   UNL     1      -9.658   7.776  72.322  1.00  0.00    -0.176 C  
HETATM    7  C   UNL     1     -10.015   5.318  70.874  1.00  0.00    -0.208 C  
HETATM    8  C   UNL     1     -10.728   6.806  68.532  1.00  0.00    -0.231 C  
HETATM    9  C   UNL     1     -12.128   7.245  70.993  1.00  0.00    -0.324 C  
HETATM   10  C   UNL     1     -10.361   9.255  69.972  1.00  0.00    -0.217 C  
HETATM   11  N   UNL     1     -13.238   7.220  71.319  1.00  0.00    -0.347 NA 
HETATM   12  N   UNL     1      -9.919   4.194  71.131  1.00  0.00    -0.174 NA 
HETATM   13  N   UNL     1     -11.039   6.530  67.452  1.00  0.00    -0.367 NA 
HETATM   14  N   UNL     1      -9.357   8.053  73.404  1.00  0.00    -0.274 NA 
HETATM   15  N   UNL     1     -10.461  10.379  69.714  1.00  0.00    -0.254 NA 
ENDBRANCH   3   5
TORSDOF 1
ENDMDL
MODEL      158
REMARK 921   NORMALIZED FREE ENERGY PREDICTED BY IDOCK:   -2.88 KCAL/MOL
REMARK 922        TOTAL FREE ENERGY PREDICTED BY IDOCK:   -3.15 KCAL/MOL
REMARK 923 INTER-LIGAND FREE ENERGY PREDICTED BY IDOCK:   -3.04 KCAL/MOL
REMARK 924 INTRA-LIGAND FREE ENERGY PREDICTED BY IDOCK:   -0.11 KCAL/MOL
REMARK 927      BINDING AFFINITY PREDICTED BY RF-SCORE:    0.00 PKD
ROOT
HETATM    1  O   UNL     1      -8.999  11.536  64.145  1.00  0.00    -0.397 OA 
HETATM    2  H   UNL     1      -9.279  11.837  63.288  1.00  0.00     0.000 HD 
HETATM    3  N   UNL     1      -9.592  11.846  65.132  1.00  0.00    -0.400 NA 
HETATM    4  H   UNL     1     -10.414  12.445  65.056  1.00  0.00     0.000 HD 
ENDROOT
BRANCH   3   5
HETATM    5 FE   UNL     1      -9.007  11.216  66.919  1.00  0.00    -0.142 Fe 
HETATM    6  C   UNL     1     -10.878  11.485  67.660  1.00  0.00    -0.227 C  
HETATM    7  C   UNL     1      -8.519  13.114  67.445  1.00  0.00    -0.201 C  
HETATM    8  C   UNL     1      -7.135  10.939  66.197  1.00  0.00    -0.097 C  
HETATM    9  C   UNL     1      -8.402  10.564  68.739  1.00  0.00    -0.136 C  
HETATM   10  C   UNL     1      -9.490   9.320  66.400  1.00  0.00    -0.218 C  
HETATM   11  N   UNL     1      -8.057  10.191  69.779  1.00  0.00    -0.172 NA 
HETATM   12  N   UNL     1      -8.241  14.196  67.747  1.00  0.00    -0.155 NA 
HETATM   13  N   UNL     1      -6.066  10.780  65.785  1.00  0.00    -0.133 NA 
HETATM   14  N   UNL     1     -11.945  11.638  68.081  1.00  0.00    -0.590 NA 
HETATM   15  N   UNL     1      -9.765   8.236  66.102  1.00  0.00    -0.174 NA 
ENDBRANCH   3   5
TORSDOF 1
ENDMDL
MODEL      159
REMARK 921   NORMALIZED FREE ENERGY PREDICTED BY IDOCK:   -2.87 KCAL/MOL
REMARK 922        TOTAL FREE ENERGY PREDICTED BY IDOCK:   -3.14 KCAL/MOL
REMARK 923 INTER-LIGAND FREE ENERGY PREDICTED BY IDOCK:   -3.02 KCAL/MOL
REMARK 924 INTRA-LIGAND FREE ENERGY PREDICTED BY IDOCK:   -0.12 KCAL/MOL
REMARK 927      BINDING AFFINITY PREDICTED BY RF-SCORE:    0.00 PKD
ROOT
HETATM    1  O   UNL     1     -10.927  13.676  69.125  1.00  0.00    -0.297 OA 
HETATM    2  H   UNL     1     -10.929  13.865  70.056  1.00  0.00     0.000 HD 
HETATM    3  N   UNL     1      -9.966  13.210  68.593  1.00  0.00    -0.392 NA 
HETATM    4  H   UNL     1      -9.133  13.012  69.147  1.00  0.00     0.000 HD 
ENDROOT
BRANCH   3   5
HETATM    5 FE   UNL     1      -9.962  12.815  66.650  1.00  0.00    -0.212 Fe 
HETATM    6  C   UNL     1     -11.910  13.365  66.503  1.00  0.00    -0.396 C  
HETATM    7  C   UNL     1     -10.524  10.901  67.022  1.00  0.00    -0.244 C  
HETATM    8  C   UNL     1      -8.016  12.265  66.777  1.00  0.00     0.013 C  
HETATM    9  C   UNL     1      -9.945  12.416  64.663  1.00  0.00    -0.173 C  
HETATM   10  C   UNL     1      -9.399  14.722  66.272  1.00  0.00    -0.278 C  
HETATM   11  N   UNL     1      -9.935  12.189  63.529  1.00  0.00    -0.381 NA 
HETATM   12  N   UNL     1     -10.844   9.809  67.233  1.00  0.00    -0.237 NA 
HETATM   13  N   UNL     1      -6.905  11.950  66.849  1.00  0.00    -0.116 NA 
HETATM   14  N   UNL     1     -13.021  13.679  66.420  1.00  0.00     0.032 NA 
HETATM   15  N   UNL     1      -9.077  15.813  66.056  1.00  0.00    -0.344 NA 
ENDBRANCH   3   5
TORSDOF 1
ENDMDL
MODEL      160
REMARK 921   NORMALIZED FREE ENERGY PREDICTED BY IDOCK:   -2.87 KCAL/MOL
REMARK 922        TOTAL FREE ENERGY PREDICTED BY IDOCK:   -3.13 KCAL/MOL
REMARK 923 INTER-LIGAND FREE ENERGY PREDICTED BY IDOCK:   -3.02 KCAL/MOL
REMARK 924 INTRA-LIGAND FREE ENERGY PREDICTED BY IDOCK:   -0.11 KCAL/MOL
REMARK 927      BINDING AFFINITY PREDICTED BY RF-SCORE:    0.00 PKD
ROOT
HETATM    1  O   UNL     1     -12.466  14.549  67.573  1.00  0.00    -0.590 OA 
HETATM    2  H   UNL     1     -13.261  14.210  67.968  1.00  0.00     0.000 HD 
HETATM    3  N   UNL     1     -11.503  14.789  68.234  1.00  0.00    -0.303 NA 
HETATM    4  H   UNL     1     -11.533  14.628  69.241  1.00  0.00     0.000 HD 
ENDROOT
BRANCH   3   5
HETATM    5 FE   UNL     1      -9.844  15.496  67.409  1.00  0.00    -0.210 Fe 
HETATM    6  C   UNL     1     -10.798  15.747  65.635  1.00  0.00    -0.307 C  
HETATM    7  C   UNL     1      -9.300  13.620  66.858  1.00  0.00    -0.257 C  
HETATM    8  C   UNL     1      -8.877  15.255  69.173  1.00  0.00    -0.238 C  
HETATM    9  C   UNL     1      -8.146  16.224  66.578  1.00  0.00    -0.302 C  
HETATM   10  C   UNL     1     -10.380  17.369  67.958  1.00  0.00    -0.362 C  
HETATM   11  N   UNL     1      -7.177  16.641  66.102  1.00  0.00    -0.020 NA 
HETATM   12  N   UNL     1      -8.988  12.551  66.544  1.00  0.00    -0.178 NA 
HETATM   13  N   UNL     1      -8.324  15.117  70.180  1.00  0.00     0.344 NA 
HETATM   14  N   UNL     1     -11.342  15.890  64.624  1.00  0.00    -0.393 NA 
HETATM   15  N   UNL     1     -10.686  18.440  68.272  1.00  0.00    -0.204 NA 
ENDBRANCH   3   5
TORSDOF 1
ENDMDL
MODEL      161
REMARK 921   NORMALIZED FREE ENERGY PREDICTED BY IDOCK:   -2.84 KCAL/MOL
REMARK 922        TOTAL FREE ENERGY PREDICTED BY IDOCK:   -3.11 KCAL/MOL
REMARK 923 INTER-LIGAND FREE ENERGY PREDICTED BY IDOCK:   -3.03 KCAL/MOL
REMARK 924 INTRA-LIGAND FREE ENERGY PREDICTED BY IDOCK:   -0.07 KCAL/MOL
REMARK 927      BINDING AFFINITY PREDICTED BY RF-SCORE:    0.00 PKD
ROOT
HETATM    1  O   UNL     1     -12.470   6.976  70.439  1.00  0.00    -0.622 OA 
HETATM    2  H   UNL     1     -13.355   7.138  70.133  1.00  0.00     0.000 HD 
HETATM    3  N   UNL     1     -11.596   6.692  69.678  1.00  0.00    -0.628 NA 
HETATM    4  H   UNL     1     -11.802   6.622  68.682  1.00  0.00     0.000 HD 
ENDROOT
BRANCH   3   5
HETATM    5 FE   UNL     1      -9.750   6.354  70.319  1.00  0.00    -0.155 Fe 
HETATM    6  C   UNL     1      -9.791   8.055  71.426  1.00  0.00    -0.171 C  
HETATM    7  C   UNL     1      -8.998   7.390  68.745  1.00  0.00    -0.129 C  
HETATM    8  C   UNL     1      -9.692   4.652  69.222  1.00  0.00    -0.196 C  
HETATM    9  C   UNL     1      -7.866   5.996  70.973  1.00  0.00    -0.111 C  
HETATM   10  C   UNL     1     -10.494   5.317  71.890  1.00  0.00    -0.219 C  
HETATM   11  N   UNL     1      -6.791   5.791  71.348  1.00  0.00    -0.061 NA 
HETATM   12  N   UNL     1      -8.567   7.981  67.847  1.00  0.00    -0.128 NA 
HETATM   13  N   UNL     1      -9.659   3.680  68.595  1.00  0.00    -0.137 NA 
HETATM   14  N   UNL     1      -9.815   9.024  72.058  1.00  0.00    -0.260 NA 
HETATM   15  N   UNL     1     -10.920   4.724  72.788  1.00  0.00    -0.215 NA 
ENDBRANCH   3   5
TORSDOF 1
ENDMDL
MODEL      162
REMARK 921   NORMALIZED FREE ENERGY PREDICTED BY IDOCK:   -2.83 KCAL/MOL
REMARK 922        TOTAL FREE ENERGY PREDICTED BY IDOCK:   -3.09 KCAL/MOL
REMARK 923 INTER-LIGAND FREE ENERGY PREDICTED BY IDOCK:   -3.01 KCAL/MOL
REMARK 924 INTRA-LIGAND FREE ENERGY PREDICTED BY IDOCK:   -0.08 KCAL/MOL
REMARK 927      BINDING AFFINITY PREDICTED BY RF-SCORE:    0.00 PKD
ROOT
HETATM    1  O   UNL     1     -11.578   9.602  69.059  1.00  0.00    -0.454 OA 
HETATM    2  H   UNL     1     -12.303  10.198  69.212  1.00  0.00     0.000 HD 
HETATM    3  N   UNL     1     -11.104   8.967  69.950  1.00  0.00    -0.392 NA 
HETATM    4  H   UNL     1     -11.482   9.065  70.892  1.00  0.00     0.000 HD 
ENDROOT
BRANCH   3   5
HETATM    5 FE   UNL     1      -9.592   7.723  69.631  1.00  0.00    -0.155 Fe 
HETATM    6  C   UNL     1      -8.583   8.496  71.213  1.00  0.00    -0.176 C  
HETATM    7  C   UNL     1      -8.716   9.079  68.402  1.00  0.00    -0.130 C  
HETATM    8  C   UNL     1     -10.586   6.938  68.050  1.00  0.00    -0.222 C  
HETATM    9  C   UNL     1      -8.057   6.443  69.301  1.00  0.00    -0.111 C  
HETATM   10  C   UNL     1     -10.463   6.365  70.853  1.00  0.00    -0.228 C  
HETATM   11  N   UNL     1      -7.180   5.712  69.114  1.00  0.00    -0.068 NA 
HETATM   12  N   UNL     1      -8.215   9.852  67.700  1.00  0.00    -0.114 NA 
HETATM   13  N   UNL     1     -11.154   6.490  67.147  1.00  0.00    -0.401 NA 
HETATM   14  N   UNL     1      -8.009   8.936  72.116  1.00  0.00    -0.367 NA 
HETATM   15  N   UNL     1     -10.961   5.589  71.553  1.00  0.00    -0.198 NA 
ENDBRANCH   3   5
TORSDOF 1
ENDMDL
MODEL      163
REMARK 921   NORMALIZED FREE ENERGY PREDICTED BY IDOCK:   -2.83 KCAL/MOL
REMARK 922        TOTAL FREE ENERGY PREDICTED BY IDOCK:   -3.09 KCAL/MOL
REMARK 923 INTER-LIGAND FREE ENERGY PREDICTED BY IDOCK:   -3.02 KCAL/MOL
REMARK 924 INTRA-LIGAND FREE ENERGY PREDICTED BY IDOCK:   -0.07 KCAL/MOL
REMARK 927      BINDING AFFINITY PREDICTED BY RF-SCORE:    0.00 PKD
ROOT
HETATM    1  O   UNL     1     -10.101   9.601  64.692  1.00  0.00    -0.329 OA 
HETATM    2  H   UNL     1     -10.158   9.714  63.750  1.00  0.00     0.000 HD 
HETATM    3  N   UNL     1      -9.210  10.087  65.318  1.00  0.00    -0.198 NA 
HETATM    4  H   UNL     1      -8.497  10.633  64.835  1.00  0.00     0.000 HD 
ENDROOT
BRANCH   3   5
HETATM    5 FE   UNL     1      -9.092   9.851  67.284  1.00  0.00    -0.127 Fe 
HETATM    6  C   UNL     1      -7.310   8.898  67.092  1.00  0.00    -0.084 C  
HETATM    7  C   UNL     1     -10.064   8.075  67.145  1.00  0.00    -0.263 C  
HETATM    8  C   UNL     1     -10.868  10.802  67.494  1.00  0.00    -0.288 C  
HETATM    9  C   UNL     1      -8.977   9.622  69.294  1.00  0.00    -0.172 C  
HETATM   10  C   UNL     1      -8.125  11.623  67.430  1.00  0.00    -0.153 C  
HETATM   11  N   UNL     1      -8.910   9.491  70.441  1.00  0.00    -0.243 NA 
HETATM   12  N   UNL     1     -10.618   7.062  67.067  1.00  0.00    -0.323 NA 
HETATM   13  N   UNL     1     -11.883  11.345  67.615  1.00  0.00    -0.636 NA 
HETATM   14  N   UNL     1      -6.294   8.356  66.983  1.00  0.00    -0.056 NA 
HETATM   15  N   UNL     1      -7.572  12.637  67.513  1.00  0.00    -0.149 NA 
ENDBRANCH   3   5
TORSDOF 1
ENDMDL
MODEL      164
REMARK 921   NORMALIZED FREE ENERGY PREDICTED BY IDOCK:   -2.81 KCAL/MOL
REMARK 922        TOTAL FREE ENERGY PREDICTED BY IDOCK:   -3.07 KCAL/MOL
REMARK 923 INTER-LIGAND FREE ENERGY PREDICTED BY IDOCK:   -2.92 KCAL/MOL
REMARK 924 INTRA-LIGAND FREE ENERGY PREDICTED BY IDOCK:   -0.15 KCAL/MOL
REMARK 927      BINDING AFFINITY PREDICTED BY RF-SCORE:    0.00 PKD
ROOT
HETATM    1  O   UNL     1      -9.973  15.209  71.065  1.00  0.00    -0.054 OA 
HETATM    2  H   UNL     1      -9.406  15.375  71.809  1.00  0.00     0.000 HD 
HETATM    3  N   UNL     1      -9.523  15.025  69.976  1.00  0.00    -0.432 NA 
HETATM    4  H   UNL     1      -8.512  15.048  69.841  1.00  0.00     0.000 HD 
ENDROOT
BRANCH   3   5
HETATM    5 FE   UNL     1     -10.707  14.677  68.423  1.00  0.00    -0.213 Fe 
HETATM    6  C   UNL     1      -9.107  14.642  67.174  1.00  0.00    -0.223 C  
HETATM    7  C   UNL     1     -10.913  16.672  68.113  1.00  0.00    -0.327 C  
HETATM    8  C   UNL     1     -12.314  14.706  69.656  1.00  0.00    -0.230 C  
HETATM    9  C   UNL     1     -11.924  14.314  66.845  1.00  0.00    -0.438 C  
HETATM   10  C   UNL     1     -10.507  12.686  68.729  1.00  0.00    -0.143 C  
HETATM   11  N   UNL     1     -12.618  14.105  65.943  1.00  0.00    -0.470 NA 
HETATM   12  N   UNL     1     -11.031  17.809  67.936  1.00  0.00    -0.216 NA 
HETATM   13  N   UNL     1     -13.233  14.723  70.360  1.00  0.00    -0.161 NA 
HETATM   14  N   UNL     1      -8.195  14.621  66.462  1.00  0.00     0.183 NA 
HETATM   15  N   UNL     1     -10.393  11.548  68.904  1.00  0.00    -0.199 NA 
ENDBRANCH   3   5
TORSDOF 1
ENDMDL
MODEL      165
REMARK 921   NORMALIZED FREE ENERGY PREDICTED BY IDOCK:   -2.79 KCAL/MOL
REMARK 922        TOTAL FREE ENERGY PREDICTED BY IDOCK:   -3.05 KCAL/MOL
REMARK 923 INTER-LIGAND FREE ENERGY PREDICTED BY IDOCK:   -2.93 KCAL/MOL
REMARK 924 INTRA-LIGAND FREE ENERGY PREDICTED BY IDOCK:   -0.12 KCAL/MOL
REMARK 927      BINDING AFFINITY PREDICTED BY RF-SCORE:    0.00 PKD
ROOT
HETATM    1  O   UNL     1      -8.131   7.986  67.371  1.00  0.00    -0.119 OA 
HETATM    2  H   UNL     1      -7.337   8.207  66.897  1.00  0.00     0.000 HD 
HETATM    3  N   UNL     1      -8.195   8.105  68.556  1.00  0.00    -0.124 NA 
HETATM    4  H   UNL     1      -7.384   8.447  69.070  1.00  0.00     0.000 HD 
ENDROOT
BRANCH   3   5
HETATM    5 FE   UNL     1      -9.852   7.645  69.543  1.00  0.00    -0.164 Fe 
HETATM    6  C   UNL     1      -9.083   5.837  70.053  1.00  0.00    -0.142 C  
HETATM    7  C   UNL     1     -10.650   6.838  67.861  1.00  0.00    -0.242 C  
HETATM    8  C   UNL     1     -10.635   9.446  69.046  1.00  0.00    -0.213 C  
HETATM    9  C   UNL     1     -11.547   7.189  70.556  1.00  0.00    -0.290 C  
HETATM   10  C   UNL     1      -9.064   8.451  71.224  1.00  0.00    -0.178 C  
HETATM   11  N   UNL     1     -12.514   6.927  71.135  1.00  0.00    -0.377 NA 
HETATM   12  N   UNL     1     -11.105   6.378  66.902  1.00  0.00    -0.363 NA 
HETATM   13  N   UNL     1     -11.083  10.475  68.762  1.00  0.00    -0.249 NA 
HETATM   14  N   UNL     1      -8.643   4.807  70.344  1.00  0.00    -0.096 NA 
HETATM   15  N   UNL     1      -8.613   8.912  72.185  1.00  0.00    -0.374 NA 
ENDBRANCH   3   5
TORSDOF 1
ENDMDL
MODEL      166
REMARK 921   NORMALIZED FREE ENERGY PREDICTED BY IDOCK:   -2.79 KCAL/MOL
REMARK 922        TOTAL FREE ENERGY PREDICTED BY IDOCK:   -3.05 KCAL/MOL
REMARK 923 INTER-LIGAND FREE ENERGY PREDICTED BY IDOCK:   -2.97 KCAL/MOL
REMARK 924 INTRA-LIGAND FREE ENERGY PREDICTED BY IDOCK:   -0.07 KCAL/MOL
REMARK 927      BINDING AFFINITY PREDICTED BY RF-SCORE:    0.00 PKD
ROOT
HETATM    1  O   UNL     1      -8.814  10.313  69.973  1.00  0.00    -0.378 OA 
HETATM    2  H   UNL     1      -8.518  10.362  70.875  1.00  0.00     0.000 HD 
HETATM    3  N   UNL     1      -8.462  11.116  69.164  1.00  0.00    -0.373 NA 
HETATM    4  H   UNL     1      -7.834  11.869  69.446  1.00  0.00     0.000 HD 
ENDROOT
BRANCH   3   5
HETATM    5 FE   UNL     1      -9.079  11.013  67.282  1.00  0.00    -0.133 Fe 
HETATM    6  C   UNL     1      -9.328  13.027  67.222  1.00  0.00    -0.220 C  
HETATM    7  C   UNL     1     -10.996  10.788  67.906  1.00  0.00    -0.289 C  
HETATM    8  C   UNL     1      -8.833   9.003  67.323  1.00  0.00    -0.117 C  
HETATM    9  C   UNL     1      -9.699  10.898  65.357  1.00  0.00    -0.238 C  
HETATM   10  C   UNL     1      -7.167  11.234  66.653  1.00  0.00    -0.126 C  
HETATM   11  N   UNL     1     -10.054  10.833  64.258  1.00  0.00    -0.343 NA 
HETATM   12  N   UNL     1     -12.090  10.660  68.261  1.00  0.00    -0.311 NA 
HETATM   13  N   UNL     1      -8.693   7.854  67.346  1.00  0.00    -0.127 NA 
HETATM   14  N   UNL     1      -9.469  14.175  67.188  1.00  0.00    -0.228 NA 
HETATM   15  N   UNL     1      -6.074  11.361  66.294  1.00  0.00    -0.091 NA 
ENDBRANCH   3   5
TORSDOF 1
ENDMDL
MODEL      167
REMARK 921   NORMALIZED FREE ENERGY PREDICTED BY IDOCK:   -2.79 KCAL/MOL
REMARK 922        TOTAL FREE ENERGY PREDICTED BY IDOCK:   -3.05 KCAL/MOL
REMARK 923 INTER-LIGAND FREE ENERGY PREDICTED BY IDOCK:   -2.94 KCAL/MOL
REMARK 924 INTRA-LIGAND FREE ENERGY PREDICTED BY IDOCK:   -0.10 KCAL/MOL
REMARK 927      BINDING AFFINITY PREDICTED BY RF-SCORE:    0.00 PKD
ROOT
HETATM    1  O   UNL     1      -9.728   9.175  69.106  1.00  0.00    -0.158 OA 
HETATM    2  H   UNL     1      -9.451   9.881  68.534  1.00  0.00     0.000 HD 
HETATM    3  N   UNL     1      -9.098   8.884  70.076  1.00  0.00    -0.157 NA 
HETATM    4  H   UNL     1      -8.247   9.401  70.294  1.00  0.00     0.000 HD 
ENDROOT
BRANCH   3   5
HETATM    5 FE   UNL     1      -9.676   7.410  71.270  1.00  0.00    -0.159 Fe 
HETATM    6  C   UNL     1      -8.665   8.233  72.826  1.00  0.00    -0.219 C  
HETATM    7  C   UNL     1      -8.033   6.333  70.764  1.00  0.00    -0.112 C  
HETATM    8  C   UNL     1     -10.693   6.576  69.729  1.00  0.00    -0.269 C  
HETATM    9  C   UNL     1     -10.280   5.904  72.484  1.00  0.00    -0.187 C  
HETATM   10  C   UNL     1     -11.319   8.478  71.777  1.00  0.00    -0.307 C  
HETATM   11  N   UNL     1     -10.624   5.045  73.178  1.00  0.00    -0.204 NA 
HETATM   12  N   UNL     1      -7.096   5.718  70.476  1.00  0.00    -0.064 NA 
HETATM   13  N   UNL     1     -11.274   6.098  68.850  1.00  0.00    -0.353 NA 
HETATM   14  N   UNL     1      -8.090   8.704  73.712  1.00  0.00    -0.383 NA 
HETATM   15  N   UNL     1     -12.259   9.089  72.067  1.00  0.00    -0.369 NA 
ENDBRANCH   3   5
TORSDOF 1
ENDMDL
MODEL      168
REMARK 921   NORMALIZED FREE ENERGY PREDICTED BY IDOCK:   -2.78 KCAL/MOL
REMARK 922        TOTAL FREE ENERGY PREDICTED BY IDOCK:   -3.04 KCAL/MOL
REMARK 923 INTER-LIGAND FREE ENERGY PREDICTED BY IDOCK:   -2.92 KCAL/MOL
REMARK 924 INTRA-LIGAND FREE ENERGY PREDICTED BY IDOCK:   -0.12 KCAL/MOL
REMARK 927      BINDING AFFINITY PREDICTED BY RF-SCORE:    0.00 PKD
ROOT
HETATM    1  O   UNL     1      -8.125   7.985  67.382  1.00  0.00    -0.119 OA 
HETATM    2  H   UNL     1      -7.348   8.216  66.885  1.00  0.00     0.000 HD 
HETATM    3  N   UNL     1      -8.169   8.141  68.563  1.00  0.00    -0.124 NA 
HETATM    4  H   UNL     1      -7.360   8.528  69.049  1.00  0.00     0.000 HD 
ENDROOT
BRANCH   3   5
HETATM    5 FE   UNL     1      -9.790   7.658  69.600  1.00  0.00    -0.167 Fe 
HETATM    6  C   UNL     1     -10.683   6.937  67.926  1.00  0.00    -0.232 C  
HETATM    7  C   UNL     1     -10.583   9.491  69.242  1.00  0.00    -0.220 C  
HETATM    8  C   UNL     1      -8.913   8.370  71.282  1.00  0.00    -0.178 C  
HETATM    9  C   UNL     1     -11.437   7.162  70.670  1.00  0.00    -0.308 C  
HETATM   10  C   UNL     1      -9.002   5.829  69.963  1.00  0.00    -0.139 C  
HETATM   11  N   UNL     1     -12.378   6.877  71.280  1.00  0.00    -0.375 NA 
HETATM   12  N   UNL     1     -11.037  10.536  69.039  1.00  0.00    -0.233 NA 
HETATM   13  N   UNL     1      -8.412   8.777  72.243  1.00  0.00    -0.396 NA 
HETATM   14  N   UNL     1     -11.191   6.526  66.971  1.00  0.00    -0.349 NA 
HETATM   15  N   UNL     1      -8.551   4.783  70.171  1.00  0.00    -0.081 NA 
ENDBRANCH   3   5
TORSDOF 1
ENDMDL
MODEL      169
REMARK 921   NORMALIZED FREE ENERGY PREDICTED BY IDOCK:   -2.76 KCAL/MOL
REMARK 922        TOTAL FREE ENERGY PREDICTED BY IDOCK:   -3.02 KCAL/MOL
REMARK 923 INTER-LIGAND FREE ENERGY PREDICTED BY IDOCK:   -2.94 KCAL/MOL
REMARK 924 INTRA-LIGAND FREE ENERGY PREDICTED BY IDOCK:   -0.08 KCAL/MOL
REMARK 927      BINDING AFFINITY PREDICTED BY RF-SCORE:    0.00 PKD
ROOT
HETATM    1  O   UNL     1      -9.470   5.036  69.608  1.00  0.00    -0.120 OA 
HETATM    2  H   UNL     1      -9.049   4.190  69.709  1.00  0.00     0.000 HD 
HETATM    3  N   UNL     1      -9.009   6.018  70.103  1.00  0.00    -0.145 NA 
HETATM    4  H   UNL     1      -8.148   5.949  70.645  1.00  0.00     0.000 HD 
ENDROOT
BRANCH   3   5
HETATM    5 FE   UNL     1      -9.888   7.783  69.889  1.00  0.00    -0.167 Fe 
HETATM    6  C   UNL     1      -9.135   8.407  71.668  1.00  0.00    -0.205 C  
HETATM    7  C   UNL     1     -11.547   7.087  70.829  1.00  0.00    -0.338 C  
HETATM    8  C   UNL     1     -10.647   7.178  68.111  1.00  0.00    -0.192 C  
HETATM    9  C   UNL     1     -10.784   9.585  69.658  1.00  0.00    -0.238 C  
HETATM   10  C   UNL     1      -8.238   8.482  68.949  1.00  0.00    -0.117 C  
HETATM   11  N   UNL     1     -11.295  10.615  69.526  1.00  0.00    -0.256 NA 
HETATM   12  N   UNL     1     -12.493   6.692  71.365  1.00  0.00    -0.314 NA 
HETATM   13  N   UNL     1     -11.080   6.832  67.095  1.00  0.00    -0.385 NA 
HETATM   14  N   UNL     1      -8.704   8.762  72.681  1.00  0.00    -0.379 NA 
HETATM   15  N   UNL     1      -7.294   8.881  68.410  1.00  0.00    -0.081 NA 
ENDBRANCH   3   5
TORSDOF 1
ENDMDL
MODEL      170
REMARK 921   NORMALIZED FREE ENERGY PREDICTED BY IDOCK:   -2.76 KCAL/MOL
REMARK 922        TOTAL FREE ENERGY PREDICTED BY IDOCK:   -3.02 KCAL/MOL
REMARK 923 INTER-LIGAND FREE ENERGY PREDICTED BY IDOCK:   -2.94 KCAL/MOL
REMARK 924 INTRA-LIGAND FREE ENERGY PREDICTED BY IDOCK:   -0.08 KCAL/MOL
REMARK 927      BINDING AFFINITY PREDICTED BY RF-SCORE:    0.00 PKD
ROOT
HETATM    1  O   UNL     1     -10.819   5.147  72.307  1.00  0.00    -0.218 OA 
HETATM    2  H   UNL     1     -10.902   4.312  72.754  1.00  0.00     0.000 HD 
HETATM    3  N   UNL     1      -9.748   5.607  72.053  1.00  0.00    -0.154 NA 
HETATM    4  H   UNL     1      -8.907   5.095  72.319  1.00  0.00     0.000 HD 
ENDROOT
BRANCH   3   5
HETATM    5 FE   UNL     1      -9.576   7.348  71.120  1.00  0.00    -0.154 Fe 
HETATM    6  C   UNL     1     -10.578   6.620  69.512  1.00  0.00    -0.241 C  
HETATM    7  C   UNL     1      -7.818   6.754  70.302  1.00  0.00    -0.110 C  
HETATM    8  C   UNL     1      -8.578   8.093  72.717  1.00  0.00    -0.206 C  
HETATM    9  C   UNL     1      -9.403   9.134  70.179  1.00  0.00    -0.209 C  
HETATM   10  C   UNL     1     -11.329   7.948  71.936  1.00  0.00    -0.276 C  
HETATM   11  N   UNL     1      -9.304  10.154  69.642  1.00  0.00    -0.214 NA 
HETATM   12  N   UNL     1      -6.814   6.417  69.834  1.00  0.00    -0.056 NA 
HETATM   13  N   UNL     1      -8.007   8.518  73.630  1.00  0.00    -0.406 NA 
HETATM   14  N   UNL     1     -11.150   6.204  68.596  1.00  0.00    -0.347 NA 
HETATM   15  N   UNL     1     -12.332   8.291  72.403  1.00  0.00    -0.350 NA 
ENDBRANCH   3   5
TORSDOF 1
ENDMDL
MODEL      171
REMARK 921   NORMALIZED FREE ENERGY PREDICTED BY IDOCK:   -2.74 KCAL/MOL
REMARK 922        TOTAL FREE ENERGY PREDICTED BY IDOCK:   -3.00 KCAL/MOL
REMARK 923 INTER-LIGAND FREE ENERGY PREDICTED BY IDOCK:   -2.87 KCAL/MOL
REMARK 924 INTRA-LIGAND FREE ENERGY PREDICTED BY IDOCK:   -0.13 KCAL/MOL
REMARK 927      BINDING AFFINITY PREDICTED BY RF-SCORE:    0.00 PKD
ROOT
HETATM    1  O   UNL     1      -9.969  15.233  71.072  1.00  0.00    -0.050 OA 
HETATM    2  H   UNL     1      -9.398  15.391  71.815  1.00  0.00     0.000 HD 
HETATM    3  N   UNL     1      -9.526  15.089  69.974  1.00  0.00    -0.432 NA 
HETATM    4  H   UNL     1      -8.518  15.136  69.830  1.00  0.00     0.000 HD 
ENDROOT
BRANCH   3   5
HETATM    5 FE   UNL     1     -10.719  14.759  68.424  1.00  0.00    -0.215 Fe 
HETATM    6  C   UNL     1     -10.819  16.749  68.039  1.00  0.00    -0.341 C  
HETATM    7  C   UNL     1     -12.347  14.903  69.626  1.00  0.00    -0.208 C  
HETATM    8  C   UNL     1     -10.628  12.769  68.792  1.00  0.00    -0.189 C  
HETATM    9  C   UNL     1     -11.930  14.410  66.838  1.00  0.00    -0.399 C  
HETATM   10  C   UNL     1      -9.099  14.611  67.220  1.00  0.00    -0.206 C  
HETATM   11  N   UNL     1     -12.621  14.212  65.931  1.00  0.00    -0.470 NA 
HETATM   12  N   UNL     1     -13.277  14.986  70.311  1.00  0.00    -0.095 NA 
HETATM   13  N   UNL     1     -10.577  11.632  69.002  1.00  0.00    -0.189 NA 
HETATM   14  N   UNL     1     -10.874  17.884  67.820  1.00  0.00    -0.317 NA 
HETATM   15  N   UNL     1      -8.171  14.526  66.532  1.00  0.00     0.241 NA 
ENDBRANCH   3   5
TORSDOF 1
ENDMDL
MODEL      172
REMARK 921   NORMALIZED FREE ENERGY PREDICTED BY IDOCK:   -2.72 KCAL/MOL
REMARK 922        TOTAL FREE ENERGY PREDICTED BY IDOCK:   -2.98 KCAL/MOL
REMARK 923 INTER-LIGAND FREE ENERGY PREDICTED BY IDOCK:   -2.91 KCAL/MOL
REMARK 924 INTRA-LIGAND FREE ENERGY PREDICTED BY IDOCK:   -0.07 KCAL/MOL
REMARK 927      BINDING AFFINITY PREDICTED BY RF-SCORE:    0.00 PKD
ROOT
HETATM    1  O   UNL     1     -10.080  18.392  68.058  1.00  0.00    -0.332 OA 
HETATM    2  H   UNL     1     -10.486  19.200  68.350  1.00  0.00     0.000 HD 
HETATM    3  N   UNL     1     -10.728  17.409  67.869  1.00  0.00    -0.384 NA 
HETATM    4  H   UNL     1     -11.736  17.436  68.024  1.00  0.00     0.000 HD 
ENDROOT
BRANCH   3   5
HETATM    5 FE   UNL     1      -9.880  15.723  67.259  1.00  0.00    -0.214 Fe 
HETATM    6  C   UNL     1      -8.745  15.651  68.941  1.00  0.00    -0.215 C  
HETATM    7  C   UNL     1      -8.426  16.778  66.316  1.00  0.00    -0.307 C  
HETATM    8  C   UNL     1     -11.006  15.778  65.576  1.00  0.00    -0.268 C  
HETATM    9  C   UNL     1      -9.025  13.997  66.631  1.00  0.00    -0.154 C  
HETATM   10  C   UNL     1     -11.329  14.665  68.196  1.00  0.00    -0.302 C  
HETATM   11  N   UNL     1      -8.537  13.011  66.274  1.00  0.00     0.280 NA 
HETATM   12  N   UNL     1      -7.596  17.378  65.778  1.00  0.00    -0.441 NA 
HETATM   13  N   UNL     1     -11.649  15.808  64.615  1.00  0.00    -0.295 NA 
HETATM   14  N   UNL     1      -8.100  15.610  69.900  1.00  0.00     0.062 NA 
HETATM   15  N   UNL     1     -12.159  14.061  68.731  1.00  0.00    -0.340 NA 
ENDBRANCH   3   5
TORSDOF 1
ENDMDL
MODEL      173
REMARK 921   NORMALIZED FREE ENERGY PREDICTED BY IDOCK:   -2.69 KCAL/MOL
REMARK 922        TOTAL FREE ENERGY PREDICTED BY IDOCK:   -2.94 KCAL/MOL
REMARK 923 INTER-LIGAND FREE ENERGY PREDICTED BY IDOCK:   -2.85 KCAL/MOL
REMARK 924 INTRA-LIGAND FREE ENERGY PREDICTED BY IDOCK:   -0.09 KCAL/MOL
REMARK 927      BINDING AFFINITY PREDICTED BY RF-SCORE:    0.00 PKD
ROOT
HETATM    1  O   UNL     1      -9.449   5.027  69.605  1.00  0.00    -0.120 OA 
HETATM    2  H   UNL     1      -9.057   4.170  69.732  1.00  0.00     0.000 HD 
HETATM    3  N   UNL     1      -8.994   5.996  70.129  1.00  0.00    -0.145 NA 
HETATM    4  H   UNL     1      -8.172   5.905  70.725  1.00  0.00     0.000 HD 
ENDROOT
BRANCH   3   5
HETATM    5 FE   UNL     1      -9.811   7.784  69.863  1.00  0.00    -0.167 Fe 
HETATM    6  C   UNL     1     -11.438   7.234  70.945  1.00  0.00    -0.292 C  
HETATM    7  C   UNL     1     -10.713   7.136  68.165  1.00  0.00    -0.160 C  
HETATM    8  C   UNL     1      -8.193   8.350  68.783  1.00  0.00    -0.119 C  
HETATM    9  C   UNL     1     -10.633   9.616  69.592  1.00  0.00    -0.233 C  
HETATM   10  C   UNL     1      -8.911   8.437  71.554  1.00  0.00    -0.194 C  
HETATM   11  N   UNL     1     -11.103  10.662  69.438  1.00  0.00    -0.241 NA 
HETATM   12  N   UNL     1     -11.229   6.767  67.196  1.00  0.00    -0.334 NA 
HETATM   13  N   UNL     1      -7.270   8.674  68.165  1.00  0.00    -0.085 NA 
HETATM   14  N   UNL     1     -12.365   6.921  71.562  1.00  0.00    -0.362 NA 
HETATM   15  N   UNL     1      -8.396   8.811  72.521  1.00  0.00    -0.399 NA 
ENDBRANCH   3   5
TORSDOF 1
ENDMDL
MODEL      174
REMARK 921   NORMALIZED FREE ENERGY PREDICTED BY IDOCK:   -2.67 KCAL/MOL
REMARK 922        TOTAL FREE ENERGY PREDICTED BY IDOCK:   -2.93 KCAL/MOL
REMARK 923 INTER-LIGAND FREE ENERGY PREDICTED BY IDOCK:   -2.81 KCAL/MOL
REMARK 924 INTRA-LIGAND FREE ENERGY PREDICTED BY IDOCK:   -0.12 KCAL/MOL
REMARK 927      BINDING AFFINITY PREDICTED BY RF-SCORE:    0.00 PKD
ROOT
HETATM    1  O   UNL     1     -12.207   6.839  69.856  1.00  0.00    -0.634 OA 
HETATM    2  H   UNL     1     -13.091   6.678  70.165  1.00  0.00     0.000 HD 
HETATM    3  N   UNL     1     -11.287   6.195  70.257  1.00  0.00    -0.373 NA 
HETATM    4  H   UNL     1     -11.452   5.458  70.942  1.00  0.00     0.000 HD 
ENDROOT
BRANCH   3   5
HETATM    5 FE   UNL     1      -9.442   6.531  69.612  1.00  0.00    -0.138 Fe 
HETATM    6  C   UNL     1      -9.441   4.770  68.602  1.00  0.00    -0.150 C  
HETATM    7  C   UNL     1      -8.684   5.601  71.248  1.00  0.00    -0.132 C  
HETATM    8  C   UNL     1      -9.426   8.293  70.611  1.00  0.00    -0.164 C  
HETATM    9  C   UNL     1      -7.560   6.889  68.952  1.00  0.00    -0.105 C  
HETATM   10  C   UNL     1     -10.192   7.463  67.979  1.00  0.00    -0.191 C  
HETATM   11  N   UNL     1      -6.485   7.092  68.574  1.00  0.00    -0.039 NA 
HETATM   12  N   UNL     1      -8.250   5.070  72.180  1.00  0.00    -0.115 NA 
HETATM   13  N   UNL     1      -9.416   9.300  71.182  1.00  0.00    -0.255 NA 
HETATM   14  N   UNL     1      -9.442   3.767  68.026  1.00  0.00    -0.178 NA 
HETATM   15  N   UNL     1     -10.621   7.997  67.045  1.00  0.00    -0.335 NA 
ENDBRANCH   3   5
TORSDOF 1
ENDMDL
MODEL      175
REMARK 921   NORMALIZED FREE ENERGY PREDICTED BY IDOCK:   -2.67 KCAL/MOL
REMARK 922        TOTAL FREE ENERGY PREDICTED BY IDOCK:   -2.92 KCAL/MOL
REMARK 923 INTER-LIGAND FREE ENERGY PREDICTED BY IDOCK:   -2.81 KCAL/MOL
REMARK 924 INTRA-LIGAND FREE ENERGY PREDICTED BY IDOCK:   -0.11 KCAL/MOL
REMARK 927      BINDING AFFINITY PREDICTED BY RF-SCORE:    0.00 PKD
ROOT
HETATM    1  O   UNL     1      -6.708  14.386  66.963  1.00  0.00    -0.347 OA 
HETATM    2  H   UNL     1      -6.005  14.048  66.421  1.00  0.00     0.000 HD 
HETATM    3  N   UNL     1      -7.840  14.363  66.589  1.00  0.00    -0.171 NA 
HETATM    4  H   UNL     1      -8.057  13.973  65.672  1.00  0.00     0.000 HD 
ENDROOT
BRANCH   3   5
HETATM    5 FE   UNL     1      -9.308  15.069  67.720  1.00  0.00    -0.174 Fe 
HETATM    6  C   UNL     1      -8.784  16.976  67.262  1.00  0.00    -0.199 C  
HETATM    7  C   UNL     1      -8.071  15.109  69.328  1.00  0.00    -0.217 C  
HETATM    8  C   UNL     1      -9.847  13.173  68.185  1.00  0.00    -0.228 C  
HETATM    9  C   UNL     1     -10.816  15.780  68.871  1.00  0.00    -0.260 C  
HETATM   10  C   UNL     1     -10.548  15.030  66.120  1.00  0.00    -0.310 C  
HETATM   11  N   UNL     1     -11.677  16.187  69.528  1.00  0.00    -0.259 NA 
HETATM   12  N   UNL     1      -7.367  15.131  70.246  1.00  0.00     0.149 NA 
HETATM   13  N   UNL     1     -10.156  12.090  68.452  1.00  0.00    -0.208 NA 
HETATM   14  N   UNL     1      -8.485  18.063  67.000  1.00  0.00    -0.231 NA 
HETATM   15  N   UNL     1     -11.257  15.007  65.205  1.00  0.00    -0.358 NA 
ENDBRANCH   3   5
TORSDOF 1
ENDMDL
MODEL      176
REMARK 921   NORMALIZED FREE ENERGY PREDICTED BY IDOCK:   -2.65 KCAL/MOL
REMARK 922        TOTAL FREE ENERGY PREDICTED BY IDOCK:   -2.91 KCAL/MOL
REMARK 923 INTER-LIGAND FREE ENERGY PREDICTED BY IDOCK:   -2.76 KCAL/MOL
REMARK 924 INTRA-LIGAND FREE ENERGY PREDICTED BY IDOCK:   -0.14 KCAL/MOL
REMARK 927      BINDING AFFINITY PREDICTED BY RF-SCORE:    0.00 PKD
ROOT
HETATM    1  O   UNL     1      -8.584   8.640  72.912  1.00  0.00    -0.398 OA 
HETATM    2  H   UNL     1      -8.181   9.092  73.645  1.00  0.00     0.000 HD 
HETATM    3  N   UNL     1      -8.828   9.210  71.894  1.00  0.00    -0.289 NA 
HETATM    4  H   UNL     1      -8.600  10.200  71.807  1.00  0.00     0.000 HD 
ENDROOT
BRANCH   3   5
HETATM    5 FE   UNL     1      -9.667   8.265  70.366  1.00  0.00    -0.158 Fe 
HETATM    6  C   UNL     1      -7.859   7.562  69.768  1.00  0.00    -0.108 C  
HETATM    7  C   UNL     1      -9.423   9.905  69.197  1.00  0.00    -0.196 C  
HETATM    8  C   UNL     1     -11.480   8.955  70.949  1.00  0.00    -0.288 C  
HETATM    9  C   UNL     1     -10.536   7.296  68.813  1.00  0.00    -0.181 C  
HETATM   10  C   UNL     1      -9.917   6.626  71.528  1.00  0.00    -0.175 C  
HETATM   11  N   UNL     1     -11.032   6.743  67.926  1.00  0.00    -0.247 NA 
HETATM   12  N   UNL     1      -9.284  10.840  68.529  1.00  0.00    -0.167 NA 
HETATM   13  N   UNL     1     -12.516   9.349  71.282  1.00  0.00    -0.327 NA 
HETATM   14  N   UNL     1      -6.829   7.161  69.429  1.00  0.00    -0.049 NA 
HETATM   15  N   UNL     1     -10.059   5.689  72.193  1.00  0.00    -0.182 NA 
ENDBRANCH   3   5
TORSDOF 1
ENDMDL
MODEL      177
REMARK 921   NORMALIZED FREE ENERGY PREDICTED BY IDOCK:   -2.61 KCAL/MOL
REMARK 922        TOTAL FREE ENERGY PREDICTED BY IDOCK:   -2.86 KCAL/MOL
REMARK 923 INTER-LIGAND FREE ENERGY PREDICTED BY IDOCK:   -2.72 KCAL/MOL
REMARK 924 INTRA-LIGAND FREE ENERGY PREDICTED BY IDOCK:   -0.14 KCAL/MOL
REMARK 927      BINDING AFFINITY PREDICTED BY RF-SCORE:    0.00 PKD
ROOT
HETATM    1  O   UNL     1     -11.984   8.909  70.249  1.00  0.00    -0.473 OA 
HETATM    2  H   UNL     1     -12.711   9.457  70.522  1.00  0.00     0.000 HD 
HETATM    3  N   UNL     1     -11.050   8.719  70.966  1.00  0.00    -0.256 NA 
HETATM    4  H   UNL     1     -11.031   9.154  71.888  1.00  0.00     0.000 HD 
ENDROOT
BRANCH   3   5
HETATM    5 FE   UNL     1      -9.535   7.575  70.395  1.00  0.00    -0.153 Fe 
HETATM    6  C   UNL     1     -10.210   6.051  71.553  1.00  0.00    -0.204 C  
HETATM    7  C   UNL     1      -8.414   8.261  71.940  1.00  0.00    -0.160 C  
HETATM    8  C   UNL     1      -8.848   9.084  69.231  1.00  0.00    -0.139 C  
HETATM    9  C   UNL     1      -7.987   6.411  69.798  1.00  0.00    -0.119 C  
HETATM   10  C   UNL     1     -10.647   6.889  68.849  1.00  0.00    -0.221 C  
HETATM   11  N   UNL     1      -7.104   5.746  69.458  1.00  0.00    -0.063 NA 
HETATM   12  N   UNL     1      -7.773   8.652  72.821  1.00  0.00    -0.371 NA 
HETATM   13  N   UNL     1      -8.455   9.946  68.566  1.00  0.00    -0.110 NA 
HETATM   14  N   UNL     1     -10.596   5.183  72.213  1.00  0.00    -0.218 NA 
HETATM   15  N   UNL     1     -11.284   6.496  67.965  1.00  0.00    -0.236 NA 
ENDBRANCH   3   5
TORSDOF 1
ENDMDL
MODEL      178
REMARK 921   NORMALIZED FREE ENERGY PREDICTED BY IDOCK:   -2.61 KCAL/MOL
REMARK 922        TOTAL FREE ENERGY PREDICTED BY IDOCK:   -2.86 KCAL/MOL
REMARK 923 INTER-LIGAND FREE ENERGY PREDICTED BY IDOCK:   -2.71 KCAL/MOL
REMARK 924 INTRA-LIGAND FREE ENERGY PREDICTED BY IDOCK:   -0.15 KCAL/MOL
REMARK 927      BINDING AFFINITY PREDICTED BY RF-SCORE:    0.00 PKD
ROOT
HETATM    1  O   UNL     1     -11.327   9.676  68.087  1.00  0.00    -0.520 OA 
HETATM    2  H   UNL     1     -12.117   9.376  68.523  1.00  0.00     0.000 HD 
HETATM    3  N   UNL     1     -10.316   9.851  68.695  1.00  0.00    -0.187 NA 
HETATM    4  H   UNL     1     -10.299   9.676  69.700  1.00  0.00     0.000 HD 
ENDROOT
BRANCH   3   5
HETATM    5 FE   UNL     1      -8.669  10.477  67.786  1.00  0.00    -0.115 Fe 
HETATM    6  C   UNL     1      -8.136   8.562  67.369  1.00  0.00    -0.106 C  
HETATM    7  C   UNL     1      -7.649  10.387  69.537  1.00  0.00    -0.156 C  
HETATM    8  C   UNL     1      -9.186  12.393  68.190  1.00  0.00    -0.205 C  
HETATM    9  C   UNL     1      -6.993  11.127  66.851  1.00  0.00    -0.131 C  
HETATM   10  C   UNL     1      -9.681  10.571  66.036  1.00  0.00    -0.205 C  
HETATM   11  N   UNL     1      -6.035  11.497  66.317  1.00  0.00    -0.138 NA 
HETATM   12  N   UNL     1      -7.066  10.336  70.536  1.00  0.00    -0.308 NA 
HETATM   13  N   UNL     1      -9.482  13.488  68.420  1.00  0.00    -0.208 NA 
HETATM   14  N   UNL     1      -7.833   7.472  67.132  1.00  0.00    -0.115 NA 
HETATM   15  N   UNL     1     -10.261  10.625  65.035  1.00  0.00    -0.317 NA 
ENDBRANCH   3   5
TORSDOF 1
ENDMDL
MODEL      179
REMARK 921   NORMALIZED FREE ENERGY PREDICTED BY IDOCK:   -2.57 KCAL/MOL
REMARK 922        TOTAL FREE ENERGY PREDICTED BY IDOCK:   -2.82 KCAL/MOL
REMARK 923 INTER-LIGAND FREE ENERGY PREDICTED BY IDOCK:   -2.74 KCAL/MOL
REMARK 924 INTRA-LIGAND FREE ENERGY PREDICTED BY IDOCK:   -0.07 KCAL/MOL
REMARK 927      BINDING AFFINITY PREDICTED BY RF-SCORE:    0.00 PKD
ROOT
HETATM    1  O   UNL     1     -11.081   8.334  67.676  1.00  0.00    -0.483 OA 
HETATM    2  H   UNL     1     -11.750   8.050  67.063  1.00  0.00     0.000 HD 
HETATM    3  N   UNL     1     -10.237   9.110  67.352  1.00  0.00    -0.229 NA 
HETATM    4  H   UNL     1     -10.231   9.476  66.400  1.00  0.00     0.000 HD 
ENDROOT
BRANCH   3   5
HETATM    5 FE   UNL     1      -8.842   9.702  68.632  1.00  0.00    -0.115 Fe 
HETATM    6  C   UNL     1     -10.210   9.788  70.129  1.00  0.00    -0.275 C  
HETATM    7  C   UNL     1      -9.217  11.641  68.168  1.00  0.00    -0.184 C  
HETATM    8  C   UNL     1      -7.463   9.618  67.150  1.00  0.00    -0.088 C  
HETATM    9  C   UNL     1      -7.408  10.298  69.933  1.00  0.00    -0.160 C  
HETATM   10  C   UNL     1      -8.461   7.769  69.096  1.00  0.00    -0.138 C  
HETATM   11  N   UNL     1      -6.590  10.637  70.677  1.00  0.00    -0.335 NA 
HETATM   12  N   UNL     1      -9.430  12.748  67.905  1.00  0.00    -0.201 NA 
HETATM   13  N   UNL     1      -6.674   9.571  66.305  1.00  0.00    -0.074 NA 
HETATM   14  N   UNL     1     -10.990   9.836  70.982  1.00  0.00    -0.339 NA 
HETATM   15  N   UNL     1      -8.243   6.663  69.361  1.00  0.00    -0.122 NA 
ENDBRANCH   3   5
TORSDOF 1
ENDMDL
MODEL      180
REMARK 921   NORMALIZED FREE ENERGY PREDICTED BY IDOCK:   -2.54 KCAL/MOL
REMARK 922        TOTAL FREE ENERGY PREDICTED BY IDOCK:   -2.79 KCAL/MOL
REMARK 923 INTER-LIGAND FREE ENERGY PREDICTED BY IDOCK:   -2.72 KCAL/MOL
REMARK 924 INTRA-LIGAND FREE ENERGY PREDICTED BY IDOCK:   -0.07 KCAL/MOL
REMARK 927      BINDING AFFINITY PREDICTED BY RF-SCORE:    0.00 PKD
ROOT
HETATM    1  O   UNL     1     -12.029   6.548  69.519  1.00  0.00    -0.601 OA 
HETATM    2  H   UNL     1     -12.754   6.686  68.921  1.00  0.00     0.000 HD 
HETATM    3  N   UNL     1     -10.985   6.119  69.134  1.00  0.00    -0.354 NA 
HETATM    4  H   UNL     1     -10.869   5.894  68.146  1.00  0.00     0.000 HD 
ENDROOT
BRANCH   3   5
HETATM    5 FE   UNL     1      -9.471   5.833  70.383  1.00  0.00    -0.142 Fe 
HETATM    6  C   UNL     1      -9.494   3.839  70.002  1.00  0.00    -0.193 C  
HETATM    7  C   UNL     1     -10.769   5.562  71.918  1.00  0.00    -0.231 C  
HETATM    8  C   UNL     1      -9.431   7.821  70.772  1.00  0.00    -0.161 C  
HETATM    9  C   UNL     1      -7.919   5.553  71.654  1.00  0.00    -0.117 C  
HETATM   10  C   UNL     1      -8.171   6.106  68.855  1.00  0.00    -0.112 C  
HETATM   11  N   UNL     1      -7.032   5.393  72.380  1.00  0.00    -0.079 NA 
HETATM   12  N   UNL     1     -11.508   5.406  72.795  1.00  0.00    -0.301 NA 
HETATM   13  N   UNL     1      -9.409   8.956  70.995  1.00  0.00    -0.226 NA 
HETATM   14  N   UNL     1      -9.507   2.703  69.784  1.00  0.00    -0.117 NA 
HETATM   15  N   UNL     1      -7.428   6.262  67.981  1.00  0.00    -0.088 NA 
ENDBRANCH   3   5
TORSDOF 1
ENDMDL
MODEL      181
REMARK 921   NORMALIZED FREE ENERGY PREDICTED BY IDOCK:   -2.53 KCAL/MOL
REMARK 922        TOTAL FREE ENERGY PREDICTED BY IDOCK:   -2.77 KCAL/MOL
REMARK 923 INTER-LIGAND FREE ENERGY PREDICTED BY IDOCK:   -2.70 KCAL/MOL
REMARK 924 INTRA-LIGAND FREE ENERGY PREDICTED BY IDOCK:   -0.07 KCAL/MOL
REMARK 927      BINDING AFFINITY PREDICTED BY RF-SCORE:    0.00 PKD
ROOT
HETATM    1  O   UNL     1      -8.654  13.002  67.263  1.00  0.00    -0.190 OA 
HETATM    2  H   UNL     1      -8.438  13.924  67.180  1.00  0.00     0.000 HD 
HETATM    3  N   UNL     1      -8.313  12.212  66.437  1.00  0.00    -0.399 NA 
HETATM    4  H   UNL     1      -7.780  12.532  65.628  1.00  0.00     0.000 HD 
ENDROOT
BRANCH   3   5
HETATM    5 FE   UNL     1      -8.765  10.289  66.610  1.00  0.00    -0.121 Fe 
HETATM    6  C   UNL     1     -10.554  10.754  67.450  1.00  0.00    -0.242 C  
HETATM    7  C   UNL     1      -7.908  10.237  68.448  1.00  0.00    -0.102 C  
HETATM    8  C   UNL     1      -6.986   9.807  65.770  1.00  0.00    -0.103 C  
HETATM    9  C   UNL     1      -9.220   8.322  66.774  1.00  0.00    -0.169 C  
HETATM   10  C   UNL     1      -9.619  10.334  64.775  1.00  0.00    -0.307 C  
HETATM   11  N   UNL     1      -9.482   7.199  66.868  1.00  0.00    -0.152 NA 
HETATM   12  N   UNL     1      -7.420  10.206  69.497  1.00  0.00    -0.117 NA 
HETATM   13  N   UNL     1      -5.969   9.531  65.291  1.00  0.00    -0.063 NA 
HETATM   14  N   UNL     1     -11.573  11.020  67.928  1.00  0.00    -0.545 NA 
HETATM   15  N   UNL     1     -10.107  10.360  63.726  1.00  0.00    -0.193 NA 
ENDBRANCH   3   5
TORSDOF 1
ENDMDL
MODEL      182
REMARK 921   NORMALIZED FREE ENERGY PREDICTED BY IDOCK:   -2.52 KCAL/MOL
REMARK 922        TOTAL FREE ENERGY PREDICTED BY IDOCK:   -2.76 KCAL/MOL
REMARK 923 INTER-LIGAND FREE ENERGY PREDICTED BY IDOCK:   -2.69 KCAL/MOL
REMARK 924 INTRA-LIGAND FREE ENERGY PREDICTED BY IDOCK:   -0.07 KCAL/MOL
REMARK 927      BINDING AFFINITY PREDICTED BY RF-SCORE:    0.00 PKD
ROOT
HETATM    1  O   UNL     1      -8.379  16.122  65.656  1.00  0.00    -0.028 OA 
HETATM    2  H   UNL     1      -7.743  16.340  64.985  1.00  0.00     0.000 HD 
HETATM    3  N   UNL     1      -8.076  15.462  66.602  1.00  0.00    -0.332 NA 
HETATM    4  H   UNL     1      -7.118  15.125  66.691  1.00  0.00     0.000 HD 
ENDROOT
BRANCH   3   5
HETATM    5 FE   UNL     1      -9.404  15.009  68.004  1.00  0.00    -0.170 Fe 
HETATM    6  C   UNL     1      -8.935  13.040  67.854  1.00  0.00    -0.200 C  
HETATM    7  C   UNL     1     -10.842  14.781  66.590  1.00  0.00    -0.319 C  
HETATM    8  C   UNL     1      -9.883  16.971  68.169  1.00  0.00    -0.273 C  
HETATM    9  C   UNL     1     -10.758  14.558  69.442  1.00  0.00    -0.195 C  
HETATM   10  C   UNL     1      -7.975  15.238  69.419  1.00  0.00    -0.223 C  
HETATM   11  N   UNL     1     -11.530  14.299  70.264  1.00  0.00    -0.213 NA 
HETATM   12  N   UNL     1     -11.663  14.651  65.785  1.00  0.00    -0.335 NA 
HETATM   13  N   UNL     1     -10.157  18.091  68.263  1.00  0.00    -0.364 NA 
HETATM   14  N   UNL     1      -8.667  11.918  67.768  1.00  0.00    -0.151 NA 
HETATM   15  N   UNL     1      -7.158  15.369  70.228  1.00  0.00     0.115 NA 
ENDBRANCH   3   5
TORSDOF 1
ENDMDL
MODEL      183
REMARK 921   NORMALIZED FREE ENERGY PREDICTED BY IDOCK:   -2.50 KCAL/MOL
REMARK 922        TOTAL FREE ENERGY PREDICTED BY IDOCK:   -2.74 KCAL/MOL
REMARK 923 INTER-LIGAND FREE ENERGY PREDICTED BY IDOCK:   -2.67 KCAL/MOL
REMARK 924 INTRA-LIGAND FREE ENERGY PREDICTED BY IDOCK:   -0.07 KCAL/MOL
REMARK 927      BINDING AFFINITY PREDICTED BY RF-SCORE:    0.00 PKD
ROOT
HETATM    1  O   UNL     1      -8.899   8.216  74.467  1.00  0.00    -0.353 OA 
HETATM    2  H   UNL     1      -9.014   8.699  75.277  1.00  0.00     0.000 HD 
HETATM    3  N   UNL     1      -9.747   7.485  74.059  1.00  0.00    -0.399 NA 
HETATM    4  H   UNL     1     -10.612   7.375  74.589  1.00  0.00     0.000 HD 
ENDROOT
BRANCH   3   5
HETATM    5 FE   UNL     1      -9.507   6.479  72.367  1.00  0.00    -0.144 Fe 
HETATM    6  C   UNL     1     -11.180   7.325  71.590  1.00  0.00    -0.245 C  
HETATM    7  C   UNL     1     -10.615   4.947  73.102  1.00  0.00    -0.220 C  
HETATM    8  C   UNL     1      -7.833   5.626  73.125  1.00  0.00    -0.100 C  
HETATM    9  C   UNL     1      -9.247   5.452  70.640  1.00  0.00    -0.148 C  
HETATM   10  C   UNL     1      -8.397   8.002  71.629  1.00  0.00    -0.124 C  
HETATM   11  N   UNL     1      -9.099   4.867  69.652  1.00  0.00    -0.102 NA 
HETATM   12  N   UNL     1     -11.248   4.072  73.520  1.00  0.00    -0.260 NA 
HETATM   13  N   UNL     1      -6.876   5.139  73.557  1.00  0.00    -0.073 NA 
HETATM   14  N   UNL     1     -12.133   7.809  71.148  1.00  0.00    -0.304 NA 
HETATM   15  N   UNL     1      -7.763   8.874  71.207  1.00  0.00    -0.195 NA 
ENDBRANCH   3   5
TORSDOF 1
ENDMDL
MODEL      184
REMARK 921   NORMALIZED FREE ENERGY PREDICTED BY IDOCK:   -2.49 KCAL/MOL
REMARK 922        TOTAL FREE ENERGY PREDICTED BY IDOCK:   -2.74 KCAL/MOL
REMARK 923 INTER-LIGAND FREE ENERGY PREDICTED BY IDOCK:   -2.60 KCAL/MOL
REMARK 924 INTRA-LIGAND FREE ENERGY PREDICTED BY IDOCK:   -0.13 KCAL/MOL
REMARK 927      BINDING AFFINITY PREDICTED BY RF-SCORE:    0.00 PKD
ROOT
HETATM    1  O   UNL     1     -11.270   9.339  68.329  1.00  0.00    -0.486 OA 
HETATM    2  H   UNL     1     -11.683  10.072  67.888  1.00  0.00     0.000 HD 
HETATM    3  N   UNL     1     -10.226   8.902  67.953  1.00  0.00    -0.210 NA 
HETATM    4  H   UNL     1      -9.770   9.321  67.143  1.00  0.00     0.000 HD 
ENDROOT
BRANCH   3   5
HETATM    5 FE   UNL     1      -9.364   7.372  68.874  1.00  0.00    -0.140 Fe 
HETATM    6  C   UNL     1      -7.617   7.736  67.907  1.00  0.00    -0.116 C  
HETATM    7  C   UNL     1      -9.940   6.127  67.379  1.00  0.00    -0.141 C  
HETATM    8  C   UNL     1     -11.099   6.996  69.850  1.00  0.00    -0.264 C  
HETATM    9  C   UNL     1      -8.490   5.812  69.827  1.00  0.00    -0.123 C  
HETATM   10  C   UNL     1      -8.789   8.608  70.370  1.00  0.00    -0.157 C  
HETATM   11  N   UNL     1      -7.990   4.922  70.371  1.00  0.00    -0.069 NA 
HETATM   12  N   UNL     1     -10.267   5.415  66.527  1.00  0.00    -0.222 NA 
HETATM   13  N   UNL     1     -12.090   6.780  70.408  1.00  0.00    -0.303 NA 
HETATM   14  N   UNL     1      -6.621   7.944  67.356  1.00  0.00    -0.056 NA 
HETATM   15  N   UNL     1      -8.461   9.316  71.226  1.00  0.00    -0.315 NA 
ENDBRANCH   3   5
TORSDOF 1
ENDMDL
MODEL      185
REMARK 921   NORMALIZED FREE ENERGY PREDICTED BY IDOCK:   -2.46 KCAL/MOL
REMARK 922        TOTAL FREE ENERGY PREDICTED BY IDOCK:   -2.70 KCAL/MOL
REMARK 923 INTER-LIGAND FREE ENERGY PREDICTED BY IDOCK:   -2.56 KCAL/MOL
REMARK 924 INTRA-LIGAND FREE ENERGY PREDICTED BY IDOCK:   -0.14 KCAL/MOL
REMARK 927      BINDING AFFINITY PREDICTED BY RF-SCORE:    0.00 PKD
ROOT
HETATM    1  O   UNL     1      -9.679  11.107  69.459  1.00  0.00    -0.418 OA 
HETATM    2  H   UNL     1     -10.128  11.928  69.293  1.00  0.00     0.000 HD 
HETATM    3  N   UNL     1      -9.950  10.121  68.846  1.00  0.00    -0.189 NA 
HETATM    4  H   UNL     1     -10.676  10.159  68.131  1.00  0.00     0.000 HD 
ENDROOT
BRANCH   3   5
HETATM    5 FE   UNL     1      -9.013   8.408  69.193  1.00  0.00    -0.132 Fe 
HETATM    6  C   UNL     1     -10.343   7.410  68.030  1.00  0.00    -0.199 C  
HETATM    7  C   UNL     1     -10.180   8.081  70.820  1.00  0.00    -0.194 C  
HETATM    8  C   UNL     1      -7.674   9.389  70.355  1.00  0.00    -0.153 C  
HETATM    9  C   UNL     1      -8.043   6.665  69.547  1.00  0.00    -0.126 C  
HETATM   10  C   UNL     1      -7.843   8.730  67.573  1.00  0.00    -0.102 C  
HETATM   11  N   UNL     1      -7.489   5.669  69.749  1.00  0.00    -0.073 NA 
HETATM   12  N   UNL     1     -10.845   7.893  71.748  1.00  0.00    -0.230 NA 
HETATM   13  N   UNL     1      -6.909   9.949  71.020  1.00  0.00    -0.336 NA 
HETATM   14  N   UNL     1     -11.101   6.842  67.366  1.00  0.00    -0.325 NA 
HETATM   15  N   UNL     1      -7.174   8.915  66.646  1.00  0.00    -0.084 NA 
ENDBRANCH   3   5
TORSDOF 1
ENDMDL
MODEL      186
REMARK 921   NORMALIZED FREE ENERGY PREDICTED BY IDOCK:   -2.43 KCAL/MOL
REMARK 922        TOTAL FREE ENERGY PREDICTED BY IDOCK:   -2.67 KCAL/MOL
REMARK 923 INTER-LIGAND FREE ENERGY PREDICTED BY IDOCK:   -2.53 KCAL/MOL
REMARK 924 INTRA-LIGAND FREE ENERGY PREDICTED BY IDOCK:   -0.15 KCAL/MOL
REMARK 927      BINDING AFFINITY PREDICTED BY RF-SCORE:    0.00 PKD
ROOT
HETATM    1  O   UNL     1      -8.879  12.870  68.493  1.00  0.00    -0.321 OA 
HETATM    2  H   UNL     1      -9.286  13.670  68.807  1.00  0.00     0.000 HD 
HETATM    3  N   UNL     1      -9.354  11.803  68.732  1.00  0.00    -0.388 NA 
HETATM    4  H   UNL     1     -10.210  11.747  69.283  1.00  0.00     0.000 HD 
ENDROOT
BRANCH   3   5
HETATM    5 FE   UNL     1      -8.505  10.134  68.077  1.00  0.00    -0.108 Fe 
HETATM    6  C   UNL     1      -9.998   9.022  68.886  1.00  0.00    -0.189 C  
HETATM    7  C   UNL     1      -7.446   9.978  69.801  1.00  0.00    -0.151 C  
HETATM    8  C   UNL     1      -7.008  11.229  67.261  1.00  0.00    -0.109 C  
HETATM    9  C   UNL     1      -7.634   8.437  67.397  1.00  0.00    -0.098 C  
HETATM   10  C   UNL     1      -9.557  10.286  66.354  1.00  0.00    -0.185 C  
HETATM   11  N   UNL     1      -7.137   7.466  67.008  1.00  0.00    -0.081 NA 
HETATM   12  N   UNL     1      -6.841   9.888  70.783  1.00  0.00    -0.300 NA 
HETATM   13  N   UNL     1      -6.153  11.854  66.794  1.00  0.00    -0.162 NA 
HETATM   14  N   UNL     1     -10.849   8.389  69.347  1.00  0.00    -0.145 NA 
HETATM   15  N   UNL     1     -10.158  10.373  65.369  1.00  0.00    -0.290 NA 
ENDBRANCH   3   5
TORSDOF 1
ENDMDL
MODEL      187
REMARK 921   NORMALIZED FREE ENERGY PREDICTED BY IDOCK:   -2.43 KCAL/MOL
REMARK 922        TOTAL FREE ENERGY PREDICTED BY IDOCK:   -2.67 KCAL/MOL
REMARK 923 INTER-LIGAND FREE ENERGY PREDICTED BY IDOCK:   -2.60 KCAL/MOL
REMARK 924 INTRA-LIGAND FREE ENERGY PREDICTED BY IDOCK:   -0.07 KCAL/MOL
REMARK 927      BINDING AFFINITY PREDICTED BY RF-SCORE:    0.00 PKD
ROOT
HETATM    1  O   UNL     1      -9.020   7.968  73.756  1.00  0.00    -0.272 OA 
HETATM    2  H   UNL     1      -9.082   8.518  74.528  1.00  0.00     0.000 HD 
HETATM    3  N   UNL     1      -9.928   7.272  73.421  1.00  0.00    -0.263 NA 
HETATM    4  H   UNL     1     -10.786   7.267  73.972  1.00  0.00     0.000 HD 
ENDROOT
BRANCH   3   5
HETATM    5 FE   UNL     1      -9.798   6.123  71.810  1.00  0.00    -0.159 Fe 
HETATM    6  C   UNL     1      -7.911   5.574  72.316  1.00  0.00    -0.103 C  
HETATM    7  C   UNL     1      -9.065   7.682  70.738  1.00  0.00    -0.153 C  
HETATM    8  C   UNL     1     -11.682   6.657  71.290  1.00  0.00    -0.334 C  
HETATM    9  C   UNL     1      -9.679   4.946  70.165  1.00  0.00    -0.213 C  
HETATM   10  C   UNL     1     -10.533   4.564  72.872  1.00  0.00    -0.190 C  
HETATM   11  N   UNL     1      -9.610   4.273  69.226  1.00  0.00    -0.185 NA 
HETATM   12  N   UNL     1      -8.646   8.570  70.126  1.00  0.00    -0.128 NA 
HETATM   13  N   UNL     1     -12.758   6.962  70.993  1.00  0.00    -0.301 NA 
HETATM   14  N   UNL     1      -6.835   5.261  72.606  1.00  0.00    -0.073 NA 
HETATM   15  N   UNL     1     -10.953   3.673  73.481  1.00  0.00    -0.226 NA 
ENDBRANCH   3   5
TORSDOF 1
ENDMDL
MODEL      188
REMARK 921   NORMALIZED FREE ENERGY PREDICTED BY IDOCK:   -2.40 KCAL/MOL
REMARK 922        TOTAL FREE ENERGY PREDICTED BY IDOCK:   -2.63 KCAL/MOL
REMARK 923 INTER-LIGAND FREE ENERGY PREDICTED BY IDOCK:   -2.56 KCAL/MOL
REMARK 924 INTRA-LIGAND FREE ENERGY PREDICTED BY IDOCK:   -0.07 KCAL/MOL
REMARK 927      BINDING AFFINITY PREDICTED BY RF-SCORE:    0.00 PKD
ROOT
HETATM    1  O   UNL     1      -8.824  12.551  65.969  1.00  0.00    -0.416 OA 
HETATM    2  H   UNL     1      -8.661  13.483  65.873  1.00  0.00     0.000 HD 
HETATM    3  N   UNL     1      -8.181  11.887  66.723  1.00  0.00    -0.269 NA 
HETATM    4  H   UNL     1      -7.444  12.326  67.274  1.00  0.00     0.000 HD 
ENDROOT
BRANCH   3   5
HETATM    5 FE   UNL     1      -8.522   9.944  66.924  1.00  0.00    -0.115 Fe 
HETATM    6  C   UNL     1      -7.982  10.021  68.879  1.00  0.00    -0.101 C  
HETATM    7  C   UNL     1      -6.604   9.538  66.403  1.00  0.00    -0.071 C  
HETATM    8  C   UNL     1      -9.067   9.850  64.975  1.00  0.00    -0.218 C  
HETATM    9  C   UNL     1      -8.882   7.960  67.120  1.00  0.00    -0.132 C  
HETATM   10  C   UNL     1     -10.438  10.343  67.441  1.00  0.00    -0.249 C  
HETATM   11  N   UNL     1      -9.087   6.827  67.233  1.00  0.00    -0.118 NA 
HETATM   12  N   UNL     1      -5.510   9.305  66.106  1.00  0.00    -0.043 NA 
HETATM   13  N   UNL     1      -9.379   9.795  63.862  1.00  0.00    -0.218 NA 
HETATM   14  N   UNL     1      -7.675  10.065  69.994  1.00  0.00    -0.174 NA 
HETATM   15  N   UNL     1     -11.534  10.571  67.737  1.00  0.00    -0.438 NA 
ENDBRANCH   3   5
TORSDOF 1
ENDMDL
MODEL      189
REMARK 921   NORMALIZED FREE ENERGY PREDICTED BY IDOCK:   -2.37 KCAL/MOL
REMARK 922        TOTAL FREE ENERGY PREDICTED BY IDOCK:   -2.61 KCAL/MOL
REMARK 923 INTER-LIGAND FREE ENERGY PREDICTED BY IDOCK:   -2.54 KCAL/MOL
REMARK 924 INTRA-LIGAND FREE ENERGY PREDICTED BY IDOCK:   -0.07 KCAL/MOL
REMARK 927      BINDING AFFINITY PREDICTED BY RF-SCORE:    0.00 PKD
ROOT
HETATM    1  O   UNL     1      -8.702   7.872  67.087  1.00  0.00    -0.128 OA 
HETATM    2  H   UNL     1      -8.820   7.797  66.147  1.00  0.00     0.000 HD 
HETATM    3  N   UNL     1      -9.603   8.198  67.797  1.00  0.00    -0.148 NA 
HETATM    4  H   UNL     1     -10.515   8.401  67.388  1.00  0.00     0.000 HD 
ENDROOT
BRANCH   3   5
HETATM    5 FE   UNL     1      -9.357   8.353  69.759  1.00  0.00    -0.144 Fe 
HETATM    6  C   UNL     1      -7.731   9.538  69.491  1.00  0.00    -0.100 C  
HETATM    7  C   UNL     1      -8.168   6.709  69.755  1.00  0.00    -0.127 C  
HETATM    8  C   UNL     1     -10.980   7.174  70.044  1.00  0.00    -0.262 C  
HETATM    9  C   UNL     1      -9.120   8.512  71.764  1.00  0.00    -0.235 C  
HETATM   10  C   UNL     1     -10.545   9.992  69.769  1.00  0.00    -0.267 C  
HETATM   11  N   UNL     1      -8.984   8.604  72.910  1.00  0.00    -0.338 NA 
HETATM   12  N   UNL     1      -7.490   5.772  69.755  1.00  0.00    -0.074 NA 
HETATM   13  N   UNL     1     -11.907   6.501  70.208  1.00  0.00    -0.384 NA 
HETATM   14  N   UNL     1      -6.805  10.214  69.338  1.00  0.00    -0.061 NA 
HETATM   15  N   UNL     1     -11.225  10.929  69.775  1.00  0.00    -0.270 NA 
ENDBRANCH   3   5
TORSDOF 1
ENDMDL
MODEL      190
REMARK 921   NORMALIZED FREE ENERGY PREDICTED BY IDOCK:   -2.37 KCAL/MOL
REMARK 922        TOTAL FREE ENERGY PREDICTED BY IDOCK:   -2.61 KCAL/MOL
REMARK 923 INTER-LIGAND FREE ENERGY PREDICTED BY IDOCK:   -2.54 KCAL/MOL
REMARK 924 INTRA-LIGAND FREE ENERGY PREDICTED BY IDOCK:   -0.07 KCAL/MOL
REMARK 927      BINDING AFFINITY PREDICTED BY RF-SCORE:    0.00 PKD
ROOT
HETATM    1  O   UNL     1     -11.270   8.666  67.537  1.00  0.00    -0.370 OA 
HETATM    2  H   UNL     1     -12.003   9.228  67.314  1.00  0.00     0.000 HD 
HETATM    3  N   UNL     1     -10.894   7.818  66.787  1.00  0.00    -0.447 NA 
HETATM    4  H   UNL     1     -11.367   7.694  65.892  1.00  0.00     0.000 HD 
ENDROOT
BRANCH   3   5
HETATM    5 FE   UNL     1      -9.364   6.645  67.252  1.00  0.00    -0.125 Fe 
HETATM    6  C   UNL     1     -10.166   5.122  66.176  1.00  0.00    -0.222 C  
HETATM    7  C   UNL     1     -10.342   5.998  68.908  1.00  0.00    -0.218 C  
HETATM    8  C   UNL     1      -8.548   8.155  68.328  1.00  0.00    -0.130 C  
HETATM    9  C   UNL     1      -7.792   5.458  67.726  1.00  0.00    -0.096 C  
HETATM   10  C   UNL     1      -8.381   7.288  65.604  1.00  0.00    -0.140 C  
HETATM   11  N   UNL     1      -6.895   4.779  67.996  1.00  0.00    -0.055 NA 
HETATM   12  N   UNL     1     -10.900   5.629  69.853  1.00  0.00    -0.334 NA 
HETATM   13  N   UNL     1      -8.081   9.017  68.944  1.00  0.00    -0.103 NA 
HETATM   14  N   UNL     1     -10.623   4.255  65.562  1.00  0.00    -0.177 NA 
HETATM   15  N   UNL     1      -7.819   7.657  64.661  1.00  0.00    -0.121 NA 
ENDBRANCH   3   5
TORSDOF 1
ENDMDL
MODEL      191
REMARK 921   NORMALIZED FREE ENERGY PREDICTED BY IDOCK:   -2.37 KCAL/MOL
REMARK 922        TOTAL FREE ENERGY PREDICTED BY IDOCK:   -2.61 KCAL/MOL
REMARK 923 INTER-LIGAND FREE ENERGY PREDICTED BY IDOCK:   -2.53 KCAL/MOL
REMARK 924 INTRA-LIGAND FREE ENERGY PREDICTED BY IDOCK:   -0.08 KCAL/MOL
REMARK 927      BINDING AFFINITY PREDICTED BY RF-SCORE:    0.00 PKD
ROOT
HETATM    1  O   UNL     1      -9.964  13.586  68.299  1.00  0.00    -0.228 OA 
HETATM    2  H   UNL     1     -10.564  14.171  68.747  1.00  0.00     0.000 HD 
HETATM    3  N   UNL     1      -9.685  12.520  68.754  1.00  0.00    -0.416 NA 
HETATM    4  H   UNL     1     -10.097  12.231  69.641  1.00  0.00     0.000 HD 
ENDROOT
BRANCH   3   5
HETATM    5 FE   UNL     1      -8.434  11.301  67.817  1.00  0.00    -0.111 Fe 
HETATM    6  C   UNL     1      -7.542  10.816  69.575  1.00  0.00    -0.088 C  
HETATM    7  C   UNL     1      -7.117  12.823  67.561  1.00  0.00    -0.148 C  
HETATM    8  C   UNL     1      -9.314  11.770  66.054  1.00  0.00    -0.220 C  
HETATM    9  C   UNL     1      -7.165  10.051  66.850  1.00  0.00    -0.091 C  
HETATM   10  C   UNL     1      -9.744   9.778  68.066  1.00  0.00    -0.145 C  
HETATM   11  N   UNL     1      -6.441   9.337  66.299  1.00  0.00    -0.065 NA 
HETATM   12  N   UNL     1      -6.365  13.691  67.414  1.00  0.00    -0.309 NA 
HETATM   13  N   UNL     1      -9.816  12.038  65.046  1.00  0.00    -0.226 NA 
HETATM   14  N   UNL     1      -7.034  10.540  70.577  1.00  0.00    -0.273 NA 
HETATM   15  N   UNL     1     -10.494   8.908  68.209  1.00  0.00    -0.213 NA 
ENDBRANCH   3   5
TORSDOF 1
ENDMDL
MODEL      192
REMARK 921   NORMALIZED FREE ENERGY PREDICTED BY IDOCK:   -2.32 KCAL/MOL
REMARK 922        TOTAL FREE ENERGY PREDICTED BY IDOCK:   -2.55 KCAL/MOL
REMARK 923 INTER-LIGAND FREE ENERGY PREDICTED BY IDOCK:   -2.43 KCAL/MOL
REMARK 924 INTRA-LIGAND FREE ENERGY PREDICTED BY IDOCK:   -0.12 KCAL/MOL
REMARK 927      BINDING AFFINITY PREDICTED BY RF-SCORE:    0.00 PKD
ROOT
HETATM    1  O   UNL     1      -9.911   3.132  71.048  1.00  0.00    -0.158 OA 
HETATM    2  H   UNL     1     -10.067   2.303  70.611  1.00  0.00     0.000 HD 
HETATM    3  N   UNL     1      -9.565   4.096  70.437  1.00  0.00    -0.181 NA 
HETATM    4  H   UNL     1      -9.433   4.028  69.428  1.00  0.00     0.000 HD 
ENDROOT
BRANCH   3   5
HETATM    5 FE   UNL     1      -9.241   5.827  71.349  1.00  0.00    -0.132 Fe 
HETATM    6  C   UNL     1      -7.380   5.226  71.893  1.00  0.00    -0.087 C  
HETATM    7  C   UNL     1      -9.996   5.076  73.076  1.00  0.00    -0.161 C  
HETATM    8  C   UNL     1     -11.094   6.444  70.812  1.00  0.00    -0.307 C  
HETATM    9  C   UNL     1      -8.917   7.601  72.271  1.00  0.00    -0.135 C  
HETATM   10  C   UNL     1      -8.490   6.583  69.628  1.00  0.00    -0.131 C  
HETATM   11  N   UNL     1      -8.731   8.615  72.797  1.00  0.00    -0.398 NA 
HETATM   12  N   UNL     1     -10.426   4.648  74.062  1.00  0.00    -0.241 NA 
HETATM   13  N   UNL     1     -12.153   6.797  70.506  1.00  0.00    -0.350 NA 
HETATM   14  N   UNL     1      -6.319   4.883  72.202  1.00  0.00    -0.032 NA 
HETATM   15  N   UNL     1      -8.060   7.015  68.643  1.00  0.00    -0.120 NA 
ENDBRANCH   3   5
TORSDOF 1
ENDMDL
MODEL      193
REMARK 921   NORMALIZED FREE ENERGY PREDICTED BY IDOCK:   -2.30 KCAL/MOL
REMARK 922        TOTAL FREE ENERGY PREDICTED BY IDOCK:   -2.53 KCAL/MOL
REMARK 923 INTER-LIGAND FREE ENERGY PREDICTED BY IDOCK:   -2.38 KCAL/MOL
REMARK 924 INTRA-LIGAND FREE ENERGY PREDICTED BY IDOCK:   -0.15 KCAL/MOL
REMARK 927      BINDING AFFINITY PREDICTED BY RF-SCORE:    0.00 PKD
ROOT
HETATM    1  O   UNL     1      -7.535   8.736  74.120  1.00  0.00    -0.405 OA 
HETATM    2  H   UNL     1      -7.043   9.347  74.656  1.00  0.00     0.000 HD 
HETATM    3  N   UNL     1      -7.186   8.470  73.011  1.00  0.00    -0.307 NA 
HETATM    4  H   UNL     1      -6.347   8.906  72.631  1.00  0.00     0.000 HD 
ENDROOT
BRANCH   3   5
HETATM    5 FE   UNL     1      -8.213   7.194  71.893  1.00  0.00    -0.097 Fe 
HETATM    6  C   UNL     1      -7.134   5.638  72.625  1.00  0.00    -0.089 C  
HETATM    7  C   UNL     1      -6.877   7.418  70.382  1.00  0.00    -0.052 C  
HETATM    8  C   UNL     1      -9.302   8.734  71.154  1.00  0.00    -0.233 C  
HETATM    9  C   UNL     1      -9.273   5.897  70.753  1.00  0.00    -0.153 C  
HETATM   10  C   UNL     1      -9.551   6.967  73.395  1.00  0.00    -0.191 C  
HETATM   11  N   UNL     1      -9.879   5.156  70.102  1.00  0.00    -0.209 NA 
HETATM   12  N   UNL     1      -6.116   7.545  69.520  1.00  0.00    -0.030 NA 
HETATM   13  N   UNL     1      -9.924   9.613  70.731  1.00  0.00    -0.249 NA 
HETATM   14  N   UNL     1      -6.519   4.752  73.043  1.00  0.00    -0.045 NA 
HETATM   15  N   UNL     1     -10.316   6.838  74.254  1.00  0.00    -0.324 NA 
ENDBRANCH   3   5
TORSDOF 1
ENDMDL
MODEL      194
REMARK 921   NORMALIZED FREE ENERGY PREDICTED BY IDOCK:   -2.30 KCAL/MOL
REMARK 922        TOTAL FREE ENERGY PREDICTED BY IDOCK:   -2.53 KCAL/MOL
REMARK 923 INTER-LIGAND FREE ENERGY PREDICTED BY IDOCK:   -2.41 KCAL/MOL
REMARK 924 INTRA-LIGAND FREE ENERGY PREDICTED BY IDOCK:   -0.12 KCAL/MOL
REMARK 927      BINDING AFFINITY PREDICTED BY RF-SCORE:    0.00 PKD
ROOT
HETATM    1  O   UNL     1     -11.170   9.416  68.863  1.00  0.00    -0.448 OA 
HETATM    2  H   UNL     1     -11.782   9.842  68.273  1.00  0.00     0.000 HD 
HETATM    3  N   UNL     1     -10.240   8.797  68.446  1.00  0.00    -0.192 NA 
HETATM    4  H   UNL     1     -10.099   8.722  67.439  1.00  0.00     0.000 HD 
ENDROOT
BRANCH   3   5
HETATM    5 FE   UNL     1      -8.964   7.910  69.678  1.00  0.00    -0.133 Fe 
HETATM    6  C   UNL     1     -10.073   8.476  71.281  1.00  0.00    -0.222 C  
HETATM    7  C   UNL     1      -7.882   9.620  69.814  1.00  0.00    -0.142 C  
HETATM    8  C   UNL     1      -7.847   7.334  68.089  1.00  0.00    -0.118 C  
HETATM    9  C   UNL     1      -7.659   6.993  70.928  1.00  0.00    -0.086 C  
HETATM   10  C   UNL     1     -10.038   6.199  69.544  1.00  0.00    -0.185 C  
HETATM   11  N   UNL     1      -6.915   6.470  71.642  1.00  0.00    -0.071 NA 
HETATM   12  N   UNL     1      -7.264  10.596  69.893  1.00  0.00    -0.141 NA 
HETATM   13  N   UNL     1      -7.209   7.005  67.182  1.00  0.00    -0.086 NA 
HETATM   14  N   UNL     1     -10.706   8.798  72.195  1.00  0.00    -0.343 NA 
HETATM   15  N   UNL     1     -10.653   5.221  69.467  1.00  0.00    -0.247 NA 
ENDBRANCH   3   5
TORSDOF 1
ENDMDL
MODEL      195
REMARK 921   NORMALIZED FREE ENERGY PREDICTED BY IDOCK:   -2.29 KCAL/MOL
REMARK 922        TOTAL FREE ENERGY PREDICTED BY IDOCK:   -2.52 KCAL/MOL
REMARK 923 INTER-LIGAND FREE ENERGY PREDICTED BY IDOCK:   -2.39 KCAL/MOL
REMARK 924 INTRA-LIGAND FREE ENERGY PREDICTED BY IDOCK:   -0.14 KCAL/MOL
REMARK 927      BINDING AFFINITY PREDICTED BY RF-SCORE:    0.00 PKD
ROOT
HETATM    1  O   UNL     1      -9.911   3.132  71.048  1.00  0.00    -0.158 OA 
HETATM    2  H   UNL     1     -10.067   2.303  70.611  1.00  0.00     0.000 HD 
HETATM    3  N   UNL     1      -9.565   4.096  70.437  1.00  0.00    -0.181 NA 
HETATM    4  H   UNL     1      -9.433   4.028  69.428  1.00  0.00     0.000 HD 
ENDROOT
BRANCH   3   5
HETATM    5 FE   UNL     1      -9.241   5.827  71.349  1.00  0.00    -0.132 Fe 
HETATM    6  C   UNL     1      -8.314   6.557  69.698  1.00  0.00    -0.131 C  
HETATM    7  C   UNL     1      -7.465   5.142  72.051  1.00  0.00    -0.092 C  
HETATM    8  C   UNL     1     -10.166   5.115  73.004  1.00  0.00    -0.183 C  
HETATM    9  C   UNL     1      -8.922   7.594  72.287  1.00  0.00    -0.135 C  
HETATM   10  C   UNL     1     -11.013   6.515  70.654  1.00  0.00    -0.287 C  
HETATM   11  N   UNL     1      -8.741   8.604  72.822  1.00  0.00    -0.398 NA 
HETATM   12  N   UNL     1      -6.452   4.752  72.453  1.00  0.00    -0.040 NA 
HETATM   13  N   UNL     1     -10.695   4.709  73.951  1.00  0.00    -0.275 NA 
HETATM   14  N   UNL     1      -7.786   6.973  68.756  1.00  0.00    -0.108 NA 
HETATM   15  N   UNL     1     -12.027   6.908  70.256  1.00  0.00    -0.268 NA 
ENDBRANCH   3   5
TORSDOF 1
ENDMDL
MODEL      196
REMARK 921   NORMALIZED FREE ENERGY PREDICTED BY IDOCK:   -2.29 KCAL/MOL
REMARK 922        TOTAL FREE ENERGY PREDICTED BY IDOCK:   -2.52 KCAL/MOL
REMARK 923 INTER-LIGAND FREE ENERGY PREDICTED BY IDOCK:   -2.39 KCAL/MOL
REMARK 924 INTRA-LIGAND FREE ENERGY PREDICTED BY IDOCK:   -0.13 KCAL/MOL
REMARK 927      BINDING AFFINITY PREDICTED BY RF-SCORE:    0.00 PKD
ROOT
HETATM    1  O   UNL     1     -11.851   7.089  71.109  1.00  0.00    -0.301 OA 
HETATM    2  H   UNL     1     -12.760   7.017  71.376  1.00  0.00     0.000 HD 
HETATM    3  N   UNL     1     -11.331   6.238  70.455  1.00  0.00    -0.369 NA 
HETATM    4  H   UNL     1     -11.871   5.418  70.178  1.00  0.00     0.000 HD 
ENDROOT
BRANCH   3   5
HETATM    5 FE   UNL     1      -9.434   6.391  69.896  1.00  0.00    -0.143 Fe 
HETATM    6  C   UNL     1      -8.828   5.459  71.595  1.00  0.00    -0.135 C  
HETATM    7  C   UNL     1      -9.289   8.190  70.823  1.00  0.00    -0.158 C  
HETATM    8  C   UNL     1     -10.021   7.319  68.194  1.00  0.00    -0.159 C  
HETATM    9  C   UNL     1      -7.500   6.544  69.312  1.00  0.00    -0.095 C  
HETATM   10  C   UNL     1      -9.573   4.598  68.967  1.00  0.00    -0.172 C  
HETATM   11  N   UNL     1      -6.395   6.631  68.979  1.00  0.00    -0.034 NA 
HETATM   12  N   UNL     1      -9.205   9.216  71.351  1.00  0.00    -0.292 NA 
HETATM   13  N   UNL     1     -10.356   7.850  67.221  1.00  0.00    -0.278 NA 
HETATM   14  N   UNL     1      -8.483   4.928  72.563  1.00  0.00    -0.119 NA 
HETATM   15  N   UNL     1      -9.653   3.572  68.435  1.00  0.00    -0.137 NA 
ENDBRANCH   3   5
TORSDOF 1
ENDMDL
MODEL      197
REMARK 921   NORMALIZED FREE ENERGY PREDICTED BY IDOCK:   -2.28 KCAL/MOL
REMARK 922        TOTAL FREE ENERGY PREDICTED BY IDOCK:   -2.51 KCAL/MOL
REMARK 923 INTER-LIGAND FREE ENERGY PREDICTED BY IDOCK:   -2.43 KCAL/MOL
REMARK 924 INTRA-LIGAND FREE ENERGY PREDICTED BY IDOCK:   -0.08 KCAL/MOL
REMARK 927      BINDING AFFINITY PREDICTED BY RF-SCORE:    0.00 PKD
ROOT
HETATM    1  O   UNL     1      -7.254  13.173  67.425  1.00  0.00    -0.208 OA 
HETATM    2  H   UNL     1      -6.693  13.931  67.308  1.00  0.00     0.000 HD 
HETATM    3  N   UNL     1      -7.579  12.497  66.498  1.00  0.00    -0.196 NA 
HETATM    4  H   UNL     1      -7.251  12.738  65.563  1.00  0.00     0.000 HD 
ENDROOT
BRANCH   3   5
HETATM    5 FE   UNL     1      -8.749  10.915  66.743  1.00  0.00    -0.130 Fe 
HETATM    6  C   UNL     1      -9.816  11.410  65.088  1.00  0.00    -0.260 C  
HETATM    7  C   UNL     1     -10.013  12.007  67.893  1.00  0.00    -0.197 C  
HETATM    8  C   UNL     1      -7.693  10.404  68.394  1.00  0.00    -0.098 C  
HETATM    9  C   UNL     1      -9.932   9.290  66.997  1.00  0.00    -0.224 C  
HETATM   10  C   UNL     1      -7.489   9.818  65.598  1.00  0.00    -0.110 C  
HETATM   11  N   UNL     1     -10.608   8.363  67.142  1.00  0.00    -0.302 NA 
HETATM   12  N   UNL     1     -10.735  12.630  68.550  1.00  0.00    -0.243 NA 
HETATM   13  N   UNL     1      -7.090  10.112  69.338  1.00  0.00    -0.074 NA 
HETATM   14  N   UNL     1     -10.423  11.692  64.145  1.00  0.00    -0.318 NA 
HETATM   15  N   UNL     1      -6.769   9.191  64.944  1.00  0.00    -0.073 NA 
ENDBRANCH   3   5
TORSDOF 1
ENDMDL
MODEL      198
REMARK 921   NORMALIZED FREE ENERGY PREDICTED BY IDOCK:   -2.23 KCAL/MOL
REMARK 922        TOTAL FREE ENERGY PREDICTED BY IDOCK:   -2.46 KCAL/MOL
REMARK 923 INTER-LIGAND FREE ENERGY PREDICTED BY IDOCK:   -2.38 KCAL/MOL
REMARK 924 INTRA-LIGAND FREE ENERGY PREDICTED BY IDOCK:   -0.08 KCAL/MOL
REMARK 927      BINDING AFFINITY PREDICTED BY RF-SCORE:    0.00 PKD
ROOT
HETATM    1  O   UNL     1     -11.047   8.734  67.423  1.00  0.00    -0.418 OA 
HETATM    2  H   UNL     1     -11.736   9.355  67.215  1.00  0.00     0.000 HD 
HETATM    3  N   UNL     1     -10.616   7.991  66.597  1.00  0.00    -0.402 NA 
HETATM    4  H   UNL     1     -10.993   8.021  65.650  1.00  0.00     0.000 HD 
ENDROOT
BRANCH   3   5
HETATM    5 FE   UNL     1      -9.177   6.697  67.033  1.00  0.00    -0.121 Fe 
HETATM    6  C   UNL     1      -8.175   7.195  65.339  1.00  0.00    -0.137 C  
HETATM    7  C   UNL     1     -10.164   5.237  66.028  1.00  0.00    -0.126 C  
HETATM    8  C   UNL     1     -10.162   6.190  68.729  1.00  0.00    -0.184 C  
HETATM    9  C   UNL     1      -7.709   5.379  67.492  1.00  0.00    -0.092 C  
HETATM   10  C   UNL     1      -8.189   8.149  68.040  1.00  0.00    -0.129 C  
HETATM   11  N   UNL     1      -6.870   4.626  67.753  1.00  0.00    -0.055 NA 
HETATM   12  N   UNL     1     -10.726   4.403  65.455  1.00  0.00    -0.212 NA 
HETATM   13  N   UNL     1     -10.725   5.900  69.698  1.00  0.00    -0.313 NA 
HETATM   14  N   UNL     1      -7.604   7.480  64.374  1.00  0.00    -0.104 NA 
HETATM   15  N   UNL     1      -7.625   8.979  68.616  1.00  0.00    -0.091 NA 
ENDBRANCH   3   5
TORSDOF 1
ENDMDL
MODEL      199
REMARK 921   NORMALIZED FREE ENERGY PREDICTED BY IDOCK:   -2.21 KCAL/MOL
REMARK 922        TOTAL FREE ENERGY PREDICTED BY IDOCK:   -2.44 KCAL/MOL
REMARK 923 INTER-LIGAND FREE ENERGY PREDICTED BY IDOCK:   -2.31 KCAL/MOL
REMARK 924 INTRA-LIGAND FREE ENERGY PREDICTED BY IDOCK:   -0.12 KCAL/MOL
REMARK 927      BINDING AFFINITY PREDICTED BY RF-SCORE:    0.00 PKD
ROOT
HETATM    1  O   UNL     1      -6.552   8.466  67.419  1.00  0.00    -0.057 OA 
HETATM    2  H   UNL     1      -5.841   8.102  66.905  1.00  0.00     0.000 HD 
HETATM    3  N   UNL     1      -7.683   8.144  67.223  1.00  0.00    -0.096 NA 
HETATM    4  H   UNL     1      -7.891   7.466  66.491  1.00  0.00     0.000 HD 
ENDROOT
BRANCH   3   5
HETATM    5 FE   UNL     1      -9.167   8.904  68.297  1.00  0.00    -0.132 Fe 
HETATM    6  C   UNL     1      -8.596   7.815  69.912  1.00  0.00    -0.137 C  
HETATM    7  C   UNL     1     -10.389   7.398  67.705  1.00  0.00    -0.231 C  
HETATM    8  C   UNL     1      -9.749  10.001  66.697  1.00  0.00    -0.194 C  
HETATM    9  C   UNL     1     -10.680   9.694  69.389  1.00  0.00    -0.228 C  
HETATM   10  C   UNL     1      -7.953  10.412  68.890  1.00  0.00    -0.123 C  
HETATM   11  N   UNL     1     -11.544  10.144  70.013  1.00  0.00    -0.262 NA 
HETATM   12  N   UNL     1     -11.088   6.539  67.367  1.00  0.00    -0.367 NA 
HETATM   13  N   UNL     1     -10.082  10.628  65.783  1.00  0.00    -0.256 NA 
HETATM   14  N   UNL     1      -8.270   7.194  70.832  1.00  0.00    -0.115 NA 
HETATM   15  N   UNL     1      -7.258  11.274  69.229  1.00  0.00    -0.114 NA 
ENDBRANCH   3   5
TORSDOF 1
ENDMDL
MODEL      200
REMARK 921   NORMALIZED FREE ENERGY PREDICTED BY IDOCK:   -2.20 KCAL/MOL
REMARK 922        TOTAL FREE ENERGY PREDICTED BY IDOCK:   -2.43 KCAL/MOL
REMARK 923 INTER-LIGAND FREE ENERGY PREDICTED BY IDOCK:   -2.35 KCAL/MOL
REMARK 924 INTRA-LIGAND FREE ENERGY PREDICTED BY IDOCK:   -0.08 KCAL/MOL
REMARK 927      BINDING AFFINITY PREDICTED BY RF-SCORE:    0.00 PKD
ROOT
HETATM    1  O   UNL     1      -6.629   7.987  67.773  1.00  0.00    -0.054 OA 
HETATM    2  H   UNL     1      -6.010   7.815  67.072  1.00  0.00     0.000 HD 
HETATM    3  N   UNL     1      -7.788   8.148  67.546  1.00  0.00    -0.109 NA 
HETATM    4  H   UNL     1      -8.121   8.102  66.583  1.00  0.00     0.000 HD 
ENDROOT
BRANCH   3   5
HETATM    5 FE   UNL     1      -9.079   8.504  69.009  1.00  0.00    -0.134 Fe 
HETATM    6  C   UNL     1      -9.883  10.047  67.963  1.00  0.00    -0.142 C  
HETATM    7  C   UNL     1      -7.761   9.775  69.883  1.00  0.00    -0.157 C  
HETATM    8  C   UNL     1      -8.291   6.966  70.065  1.00  0.00    -0.139 C  
HETATM    9  C   UNL     1     -10.399   8.855  70.505  1.00  0.00    -0.203 C  
HETATM   10  C   UNL     1     -10.397   7.235  68.143  1.00  0.00    -0.194 C  
HETATM   11  N   UNL     1     -11.153   9.055  71.359  1.00  0.00    -0.300 NA 
HETATM   12  N   UNL     1      -7.010  10.500  70.383  1.00  0.00    -0.287 NA 
HETATM   13  N   UNL     1      -7.840   6.087  70.669  1.00  0.00    -0.104 NA 
HETATM   14  N   UNL     1     -10.342  10.926  67.367  1.00  0.00    -0.201 NA 
HETATM   15  N   UNL     1     -11.151   6.509  67.647  1.00  0.00    -0.328 NA 
ENDBRANCH   3   5
TORSDOF 1
ENDMDL
MODEL      201
REMARK 921   NORMALIZED FREE ENERGY PREDICTED BY IDOCK:   -2.19 KCAL/MOL
REMARK 922        TOTAL FREE ENERGY PREDICTED BY IDOCK:   -2.41 KCAL/MOL
REMARK 923 INTER-LIGAND FREE ENERGY PREDICTED BY IDOCK:   -2.30 KCAL/MOL
REMARK 924 INTRA-LIGAND FREE ENERGY PREDICTED BY IDOCK:   -0.11 KCAL/MOL
REMARK 927      BINDING AFFINITY PREDICTED BY RF-SCORE:    0.00 PKD
ROOT
HETATM    1  O   UNL     1      -9.540  11.261  69.634  1.00  0.00    -0.257 OA 
HETATM    2  H   UNL     1     -10.026  12.077  69.600  1.00  0.00     0.000 HD 
HETATM    3  N   UNL     1      -9.763  10.378  68.865  1.00  0.00    -0.188 NA 
HETATM    4  H   UNL     1     -10.490  10.499  68.159  1.00  0.00     0.000 HD 
ENDROOT
BRANCH   3   5
HETATM    5 FE   UNL     1      -8.747   8.676  68.936  1.00  0.00    -0.117 Fe 
HETATM    6  C   UNL     1      -9.825   8.065  70.544  1.00  0.00    -0.182 C  
HETATM    7  C   UNL     1      -7.378   9.527  70.168  1.00  0.00    -0.124 C  
HETATM    8  C   UNL     1      -7.665   9.269  67.329  1.00  0.00    -0.095 C  
HETATM    9  C   UNL     1      -7.709   6.938  68.994  1.00  0.00    -0.110 C  
HETATM   10  C   UNL     1     -10.108   7.823  67.704  1.00  0.00    -0.196 C  
HETATM   11  N   UNL     1      -7.117   5.944  69.028  1.00  0.00    -0.067 NA 
HETATM   12  N   UNL     1      -6.596  10.011  70.871  1.00  0.00    -0.317 NA 
HETATM   13  N   UNL     1      -7.046   9.607  66.412  1.00  0.00    -0.091 NA 
HETATM   14  N   UNL     1     -10.439   7.717  71.460  1.00  0.00    -0.204 NA 
HETATM   15  N   UNL     1     -10.887   7.335  67.000  1.00  0.00    -0.354 NA 
ENDBRANCH   3   5
TORSDOF 1
ENDMDL
MODEL      202
REMARK 921   NORMALIZED FREE ENERGY PREDICTED BY IDOCK:   -2.17 KCAL/MOL
REMARK 922        TOTAL FREE ENERGY PREDICTED BY IDOCK:   -2.40 KCAL/MOL
REMARK 923 INTER-LIGAND FREE ENERGY PREDICTED BY IDOCK:   -2.33 KCAL/MOL
REMARK 924 INTRA-LIGAND FREE ENERGY PREDICTED BY IDOCK:   -0.07 KCAL/MOL
REMARK 927      BINDING AFFINITY PREDICTED BY RF-SCORE:    0.00 PKD
ROOT
HETATM    1  O   UNL     1     -11.178   6.932  69.082  1.00  0.00    -0.459 OA 
HETATM    2  H   UNL     1     -11.563   7.383  68.340  1.00  0.00     0.000 HD 
HETATM    3  N   UNL     1     -10.045   7.122  69.401  1.00  0.00    -0.172 NA 
HETATM    4  H   UNL     1      -9.478   7.780  68.866  1.00  0.00     0.000 HD 
ENDROOT
BRANCH   3   5
HETATM    5 FE   UNL     1      -9.244   6.180  70.951  1.00  0.00    -0.139 Fe 
HETATM    6  C   UNL     1     -11.070   5.987  71.816  1.00  0.00    -0.276 C  
HETATM    7  C   UNL     1      -8.972   7.950  71.906  1.00  0.00    -0.136 C  
HETATM    8  C   UNL     1      -7.414   6.361  70.102  1.00  0.00    -0.094 C  
HETATM    9  C   UNL     1      -8.417   5.212  72.527  1.00  0.00    -0.121 C  
HETATM   10  C   UNL     1      -9.510   4.412  70.003  1.00  0.00    -0.181 C  
HETATM   11  N   UNL     1      -7.945   4.658  73.427  1.00  0.00    -0.098 NA 
HETATM   12  N   UNL     1      -8.816   8.959  72.451  1.00  0.00    -0.349 NA 
HETATM   13  N   UNL     1      -6.368   6.465  69.617  1.00  0.00    -0.037 NA 
HETATM   14  N   UNL     1     -12.112   5.877  72.307  1.00  0.00    -0.201 NA 
HETATM   15  N   UNL     1      -9.662   3.401  69.460  1.00  0.00    -0.068 NA 
ENDBRANCH   3   5
TORSDOF 1
ENDMDL
MODEL      203
REMARK 921   NORMALIZED FREE ENERGY PREDICTED BY IDOCK:   -2.17 KCAL/MOL
REMARK 922        TOTAL FREE ENERGY PREDICTED BY IDOCK:   -2.40 KCAL/MOL
REMARK 923 INTER-LIGAND FREE ENERGY PREDICTED BY IDOCK:   -2.29 KCAL/MOL
REMARK 924 INTRA-LIGAND FREE ENERGY PREDICTED BY IDOCK:   -0.11 KCAL/MOL
REMARK 927      BINDING AFFINITY PREDICTED BY RF-SCORE:    0.00 PKD
ROOT
HETATM    1  O   UNL     1      -8.583   6.803  67.823  1.00  0.00    -0.121 OA 
HETATM    2  H   UNL     1      -8.767   6.479  66.948  1.00  0.00     0.000 HD 
HETATM    3  N   UNL     1      -9.442   6.875  68.647  1.00  0.00    -0.135 NA 
HETATM    4  H   UNL     1     -10.390   6.584  68.410  1.00  0.00     0.000 HD 
ENDROOT
BRANCH   3   5
HETATM    5 FE   UNL     1      -9.057   7.550  70.472  1.00  0.00    -0.141 Fe 
HETATM    6  C   UNL     1      -9.976   9.310  70.046  1.00  0.00    -0.209 C  
HETATM    7  C   UNL     1      -7.288   8.312  69.833  1.00  0.00    -0.064 C  
HETATM    8  C   UNL     1      -8.139   5.800  70.914  1.00  0.00    -0.119 C  
HETATM    9  C   UNL     1      -8.666   8.228  72.340  1.00  0.00    -0.213 C  
HETATM   10  C   UNL     1     -10.819   6.790  71.115  1.00  0.00    -0.238 C  
HETATM   11  N   UNL     1      -8.443   8.615  73.408  1.00  0.00    -0.358 NA 
HETATM   12  N   UNL     1      -6.279   8.747  69.471  1.00  0.00    -0.039 NA 
HETATM   13  N   UNL     1      -7.614   4.800  71.168  1.00  0.00    -0.078 NA 
HETATM   14  N   UNL     1     -10.500  10.312  69.804  1.00  0.00    -0.255 NA 
HETATM   15  N   UNL     1     -11.826   6.354  71.483  1.00  0.00    -0.318 NA 
ENDBRANCH   3   5
TORSDOF 1
ENDMDL
MODEL      204
REMARK 921   NORMALIZED FREE ENERGY PREDICTED BY IDOCK:   -2.16 KCAL/MOL
REMARK 922        TOTAL FREE ENERGY PREDICTED BY IDOCK:   -2.39 KCAL/MOL
REMARK 923 INTER-LIGAND FREE ENERGY PREDICTED BY IDOCK:   -2.32 KCAL/MOL
REMARK 924 INTRA-LIGAND FREE ENERGY PREDICTED BY IDOCK:   -0.07 KCAL/MOL
REMARK 927      BINDING AFFINITY PREDICTED BY RF-SCORE:    0.00 PKD
ROOT
HETATM    1  O   UNL     1     -10.609   5.593  69.526  1.00  0.00    -0.273 OA 
HETATM    2  H   UNL     1     -10.832   5.100  68.744  1.00  0.00     0.000 HD 
HETATM    3  N   UNL     1      -9.472   5.816  69.810  1.00  0.00    -0.145 NA 
HETATM    4  H   UNL     1      -8.727   5.472  69.205  1.00  0.00     0.000 HD 
ENDROOT
BRANCH   3   5
HETATM    5 FE   UNL     1      -9.007   6.845  71.441  1.00  0.00    -0.132 Fe 
HETATM    6  C   UNL     1     -10.546   5.992  72.454  1.00  0.00    -0.217 C  
HETATM    7  C   UNL     1     -10.224   8.358  70.852  1.00  0.00    -0.194 C  
HETATM    8  C   UNL     1      -7.465   7.703  70.446  1.00  0.00    -0.079 C  
HETATM    9  C   UNL     1      -8.518   7.894  73.103  1.00  0.00    -0.186 C  
HETATM   10  C   UNL     1      -7.789   5.340  72.032  1.00  0.00    -0.108 C  
HETATM   11  N   UNL     1      -8.239   8.492  74.054  1.00  0.00    -0.358 NA 
HETATM   12  N   UNL     1     -10.917   9.222  70.518  1.00  0.00    -0.248 NA 
HETATM   13  N   UNL     1      -6.584   8.193  69.878  1.00  0.00    -0.039 NA 
HETATM   14  N   UNL     1     -11.423   5.506  73.030  1.00  0.00    -0.270 NA 
HETATM   15  N   UNL     1      -7.093   4.479  72.369  1.00  0.00    -0.067 NA 
ENDBRANCH   3   5
TORSDOF 1
ENDMDL
MODEL      205
REMARK 921   NORMALIZED FREE ENERGY PREDICTED BY IDOCK:   -2.16 KCAL/MOL
REMARK 922        TOTAL FREE ENERGY PREDICTED BY IDOCK:   -2.39 KCAL/MOL
REMARK 923 INTER-LIGAND FREE ENERGY PREDICTED BY IDOCK:   -2.27 KCAL/MOL
REMARK 924 INTRA-LIGAND FREE ENERGY PREDICTED BY IDOCK:   -0.12 KCAL/MOL
REMARK 927      BINDING AFFINITY PREDICTED BY RF-SCORE:    0.00 PKD
ROOT
HETATM    1  O   UNL     1      -9.766   2.527  67.829  1.00  0.00    -0.357 OA 
HETATM    2  H   UNL     1      -9.862   1.658  68.202  1.00  0.00     0.000 HD 
HETATM    3  N   UNL     1      -9.224   3.401  68.432  1.00  0.00    -0.158 NA 
HETATM    4  H   UNL     1      -8.858   3.213  69.365  1.00  0.00     0.000 HD 
ENDROOT
BRANCH   3   5
HETATM    5 FE   UNL     1      -9.024   5.214  67.653  1.00  0.00    -0.110 Fe 
HETATM    6  C   UNL     1     -10.583   5.895  68.760  1.00  0.00    -0.272 C  
HETATM    7  C   UNL     1     -10.297   4.725  66.150  1.00  0.00    -0.300 C  
HETATM    8  C   UNL     1      -7.465   4.553  66.542  1.00  0.00    -0.082 C  
HETATM    9  C   UNL     1      -8.806   7.064  66.857  1.00  0.00    -0.124 C  
HETATM   10  C   UNL     1      -7.752   5.707  69.148  1.00  0.00    -0.088 C  
HETATM   11  N   UNL     1      -8.682   8.121  66.403  1.00  0.00    -0.140 NA 
HETATM   12  N   UNL     1     -11.023   4.448  65.292  1.00  0.00    -0.136 NA 
HETATM   13  N   UNL     1      -6.574   4.175  65.907  1.00  0.00    -0.040 NA 
HETATM   14  N   UNL     1     -11.472   6.282  69.392  1.00  0.00    -0.394 NA 
HETATM   15  N   UNL     1      -7.024   5.988  70.003  1.00  0.00    -0.067 NA 
ENDBRANCH   3   5
TORSDOF 1
ENDMDL
MODEL      206
REMARK 921   NORMALIZED FREE ENERGY PREDICTED BY IDOCK:   -2.14 KCAL/MOL
REMARK 922        TOTAL FREE ENERGY PREDICTED BY IDOCK:   -2.36 KCAL/MOL
REMARK 923 INTER-LIGAND FREE ENERGY PREDICTED BY IDOCK:   -2.30 KCAL/MOL
REMARK 924 INTRA-LIGAND FREE ENERGY PREDICTED BY IDOCK:   -0.07 KCAL/MOL
REMARK 927      BINDING AFFINITY PREDICTED BY RF-SCORE:    0.00 PKD
ROOT
HETATM    1  O   UNL     1     -10.402   4.312  72.299  1.00  0.00    -0.183 OA 
HETATM    2  H   UNL     1     -10.449   3.624  72.953  1.00  0.00     0.000 HD 
HETATM    3  N   UNL     1      -9.391   4.915  72.111  1.00  0.00    -0.134 NA 
HETATM    4  H   UNL     1      -8.562   4.689  72.662  1.00  0.00     0.000 HD 
ENDROOT
BRANCH   3   5
HETATM    5 FE   UNL     1      -9.293   6.351  70.746  1.00  0.00    -0.145 Fe 
HETATM    6  C   UNL     1     -11.280   6.714  70.942  1.00  0.00    -0.302 C  
HETATM    7  C   UNL     1      -9.677   5.003  69.279  1.00  0.00    -0.179 C  
HETATM    8  C   UNL     1      -7.307   6.004  70.540  1.00  0.00    -0.085 C  
HETATM    9  C   UNL     1      -9.180   7.821  69.357  1.00  0.00    -0.149 C  
HETATM   10  C   UNL     1      -8.906   7.699  72.206  1.00  0.00    -0.131 C  
HETATM   11  N   UNL     1      -9.117   8.661  68.564  1.00  0.00    -0.139 NA 
HETATM   12  N   UNL     1      -9.896   4.236  68.441  1.00  0.00    -0.086 NA 
HETATM   13  N   UNL     1      -6.173   5.806  70.421  1.00  0.00    -0.029 NA 
HETATM   14  N   UNL     1     -12.413   6.921  71.055  1.00  0.00    -0.365 NA 
HETATM   15  N   UNL     1      -8.685   8.470  73.040  1.00  0.00    -0.371 NA 
ENDBRANCH   3   5
TORSDOF 1
ENDMDL
MODEL      207
REMARK 921   NORMALIZED FREE ENERGY PREDICTED BY IDOCK:   -2.12 KCAL/MOL
REMARK 922        TOTAL FREE ENERGY PREDICTED BY IDOCK:   -2.34 KCAL/MOL
REMARK 923 INTER-LIGAND FREE ENERGY PREDICTED BY IDOCK:   -2.26 KCAL/MOL
REMARK 924 INTRA-LIGAND FREE ENERGY PREDICTED BY IDOCK:   -0.08 KCAL/MOL
REMARK 927      BINDING AFFINITY PREDICTED BY RF-SCORE:    0.00 PKD
ROOT
HETATM    1  O   UNL     1      -6.700   7.487  66.342  1.00  0.00    -0.055 OA 
HETATM    2  H   UNL     1      -6.182   7.056  65.672  1.00  0.00     0.000 HD 
HETATM    3  N   UNL     1      -7.853   7.736  66.165  1.00  0.00    -0.091 NA 
HETATM    4  H   UNL     1      -8.290   7.482  65.279  1.00  0.00     0.000 HD 
ENDROOT
BRANCH   3   5
HETATM    5 FE   UNL     1      -8.933   8.635  67.564  1.00  0.00    -0.124 Fe 
HETATM    6  C   UNL     1     -10.421   7.273  67.332  1.00  0.00    -0.289 C  
HETATM    7  C   UNL     1      -9.792   9.822  66.161  1.00  0.00    -0.263 C  
HETATM    8  C   UNL     1      -7.457  10.000  67.811  1.00  0.00    -0.089 C  
HETATM    9  C   UNL     1     -10.026   9.555  69.001  1.00  0.00    -0.180 C  
HETATM   10  C   UNL     1      -8.078   7.455  68.970  1.00  0.00    -0.127 C  
HETATM   11  N   UNL     1     -10.650  10.080  69.821  1.00  0.00    -0.248 NA 
HETATM   12  N   UNL     1     -10.282  10.500  65.361  1.00  0.00    -0.286 NA 
HETATM   13  N   UNL     1      -6.615  10.781  67.953  1.00  0.00    -0.063 NA 
HETATM   14  N   UNL     1     -11.268   6.497  67.199  1.00  0.00    -0.348 NA 
HETATM   15  N   UNL     1      -7.589   6.781  69.773  1.00  0.00    -0.102 NA 
ENDBRANCH   3   5
TORSDOF 1
ENDMDL
MODEL      208
REMARK 921   NORMALIZED FREE ENERGY PREDICTED BY IDOCK:   -2.11 KCAL/MOL
REMARK 922        TOTAL FREE ENERGY PREDICTED BY IDOCK:   -2.33 KCAL/MOL
REMARK 923 INTER-LIGAND FREE ENERGY PREDICTED BY IDOCK:   -2.26 KCAL/MOL
REMARK 924 INTRA-LIGAND FREE ENERGY PREDICTED BY IDOCK:   -0.07 KCAL/MOL
REMARK 927      BINDING AFFINITY PREDICTED BY RF-SCORE:    0.00 PKD
ROOT
HETATM    1  O   UNL     1     -11.542   6.665  68.576  1.00  0.00    -0.552 OA 
HETATM    2  H   UNL     1     -12.449   6.937  68.660  1.00  0.00     0.000 HD 
HETATM    3  N   UNL     1     -10.982   6.102  69.466  1.00  0.00    -0.359 NA 
HETATM    4  H   UNL     1     -11.486   5.909  70.331  1.00  0.00     0.000 HD 
ENDROOT
BRANCH   3   5
HETATM    5 FE   UNL     1      -9.090   5.535  69.290  1.00  0.00    -0.105 Fe 
HETATM    6  C   UNL     1      -9.478   4.695  67.484  1.00  0.00    -0.153 C  
HETATM    7  C   UNL     1      -9.515   3.776  70.207  1.00  0.00    -0.187 C  
HETATM    8  C   UNL     1      -8.684   6.372  71.090  1.00  0.00    -0.135 C  
HETATM    9  C   UNL     1      -7.153   4.969  69.117  1.00  0.00    -0.056 C  
HETATM   10  C   UNL     1      -8.659   7.290  68.377  1.00  0.00    -0.124 C  
HETATM   11  N   UNL     1      -6.046   4.645  69.017  1.00  0.00    -0.028 NA 
HETATM   12  N   UNL     1      -9.756   2.773  70.731  1.00  0.00    -0.108 NA 
HETATM   13  N   UNL     1      -8.452   6.849  72.118  1.00  0.00    -0.113 NA 
HETATM   14  N   UNL     1      -9.700   4.217  66.454  1.00  0.00    -0.206 NA 
HETATM   15  N   UNL     1      -8.413   8.293  67.855  1.00  0.00    -0.131 NA 
ENDBRANCH   3   5
TORSDOF 1
ENDMDL
MODEL      209
REMARK 921   NORMALIZED FREE ENERGY PREDICTED BY IDOCK:   -2.06 KCAL/MOL
REMARK 922        TOTAL FREE ENERGY PREDICTED BY IDOCK:   -2.28 KCAL/MOL
REMARK 923 INTER-LIGAND FREE ENERGY PREDICTED BY IDOCK:   -2.15 KCAL/MOL
REMARK 924 INTRA-LIGAND FREE ENERGY PREDICTED BY IDOCK:   -0.13 KCAL/MOL
REMARK 927      BINDING AFFINITY PREDICTED BY RF-SCORE:    0.00 PKD
ROOT
HETATM    1  O   UNL     1      -6.632   7.491  67.019  1.00  0.00    -0.058 OA 
HETATM    2  H   UNL     1      -5.911   7.606  66.412  1.00  0.00     0.000 HD 
HETATM    3  N   UNL     1      -7.679   7.049  66.658  1.00  0.00    -0.092 NA 
HETATM    4  H   UNL     1      -7.803   6.792  65.679  1.00  0.00     0.000 HD 
ENDROOT
BRANCH   3   5
HETATM    5 FE   UNL     1      -9.183   6.808  67.927  1.00  0.00    -0.118 Fe 
HETATM    6  C   UNL     1     -10.126   5.573  66.621  1.00  0.00    -0.209 C  
HETATM    7  C   UNL     1     -10.141   8.404  67.120  1.00  0.00    -0.265 C  
HETATM    8  C   UNL     1      -8.255   8.036  69.244  1.00  0.00    -0.127 C  
HETATM    9  C   UNL     1     -10.711   6.561  69.235  1.00  0.00    -0.280 C  
HETATM   10  C   UNL     1      -8.231   5.217  68.739  1.00  0.00    -0.085 C  
HETATM   11  N   UNL     1     -11.584   6.420  69.981  1.00  0.00    -0.432 NA 
HETATM   12  N   UNL     1     -10.689   9.314  66.660  1.00  0.00    -0.084 NA 
HETATM   13  N   UNL     1      -7.725   8.738  69.996  1.00  0.00    -0.077 NA 
HETATM   14  N   UNL     1     -10.663   4.868  65.877  1.00  0.00    -0.268 NA 
HETATM   15  N   UNL     1      -7.686   4.307  69.203  1.00  0.00    -0.055 NA 
ENDBRANCH   3   5
TORSDOF 1
ENDMDL
MODEL      210
REMARK 921   NORMALIZED FREE ENERGY PREDICTED BY IDOCK:   -2.04 KCAL/MOL
REMARK 922        TOTAL FREE ENERGY PREDICTED BY IDOCK:   -2.26 KCAL/MOL
REMARK 923 INTER-LIGAND FREE ENERGY PREDICTED BY IDOCK:   -2.12 KCAL/MOL
REMARK 924 INTRA-LIGAND FREE ENERGY PREDICTED BY IDOCK:   -0.14 KCAL/MOL
REMARK 927      BINDING AFFINITY PREDICTED BY RF-SCORE:    0.00 PKD
ROOT
HETATM    1  O   UNL     1      -9.667   4.638  67.328  1.00  0.00    -0.163 OA 
HETATM    2  H   UNL     1      -9.726   3.886  66.749  1.00  0.00     0.000 HD 
HETATM    3  N   UNL     1      -8.798   5.445  67.205  1.00  0.00    -0.107 NA 
HETATM    4  H   UNL     1      -8.104   5.326  66.467  1.00  0.00     0.000 HD 
ENDROOT
BRANCH   3   5
HETATM    5 FE   UNL     1      -8.677   7.013  68.413  1.00  0.00    -0.118 Fe 
HETATM    6  C   UNL     1      -9.565   8.192  67.019  1.00  0.00    -0.196 C  
HETATM    7  C   UNL     1      -6.854   7.477  67.654  1.00  0.00    -0.071 C  
HETATM    8  C   UNL     1      -7.793   5.850  69.817  1.00  0.00    -0.100 C  
HETATM    9  C   UNL     1      -8.557   8.607  69.658  1.00  0.00    -0.131 C  
HETATM   10  C   UNL     1     -10.495   6.553  69.177  1.00  0.00    -0.221 C  
HETATM   11  N   UNL     1      -8.489   9.518  70.368  1.00  0.00    -0.204 NA 
HETATM   12  N   UNL     1      -5.814   7.743  67.222  1.00  0.00    -0.036 NA 
HETATM   13  N   UNL     1      -7.287   5.187  70.619  1.00  0.00    -0.067 NA 
HETATM   14  N   UNL     1     -10.072   8.863  66.225  1.00  0.00    -0.275 NA 
HETATM   15  N   UNL     1     -11.534   6.290  69.613  1.00  0.00    -0.429 NA 
ENDBRANCH   3   5
TORSDOF 1
ENDMDL
MODEL      211
REMARK 921   NORMALIZED FREE ENERGY PREDICTED BY IDOCK:   -1.94 KCAL/MOL
REMARK 922        TOTAL FREE ENERGY PREDICTED BY IDOCK:   -2.16 KCAL/MOL
REMARK 923 INTER-LIGAND FREE ENERGY PREDICTED BY IDOCK:   -2.07 KCAL/MOL
REMARK 924 INTRA-LIGAND FREE ENERGY PREDICTED BY IDOCK:   -0.09 KCAL/MOL
REMARK 927      BINDING AFFINITY PREDICTED BY RF-SCORE:    0.00 PKD
ROOT
HETATM    1  O   UNL     1      -9.566   2.548  66.793  1.00  0.00    -0.396 OA 
HETATM    2  H   UNL     1     -10.065   1.750  66.924  1.00  0.00     0.000 HD 
HETATM    3  N   UNL     1      -9.622   3.445  67.577  1.00  0.00    -0.277 NA 
HETATM    4  H   UNL     1     -10.215   3.354  68.401  1.00  0.00     0.000 HD 
ENDROOT
BRANCH   3   5
HETATM    5 FE   UNL     1      -8.580   5.110  67.305  1.00  0.00    -0.105 Fe 
HETATM    6  C   UNL     1      -8.517   5.434  69.308  1.00  0.00    -0.099 C  
HETATM    7  C   UNL     1     -10.297   6.183  67.180  1.00  0.00    -0.230 C  
HETATM    8  C   UNL     1      -8.630   4.802  65.304  1.00  0.00    -0.137 C  
HETATM    9  C   UNL     1      -7.509   6.805  67.017  1.00  0.00    -0.087 C  
HETATM   10  C   UNL     1      -6.863   4.045  67.426  1.00  0.00    -0.051 C  
HETATM   11  N   UNL     1      -6.896   7.774  66.853  1.00  0.00    -0.070 NA 
HETATM   12  N   UNL     1     -11.277   6.796  67.108  1.00  0.00    -0.334 NA 
HETATM   13  N   UNL     1      -8.659   4.626  64.160  1.00  0.00    -0.132 NA 
HETATM   14  N   UNL     1      -8.480   5.617  70.450  1.00  0.00    -0.125 NA 
HETATM   15  N   UNL     1      -5.881   3.436  67.496  1.00  0.00    -0.022 NA 
ENDBRANCH   3   5
TORSDOF 1
ENDMDL
MODEL      212
REMARK 921   NORMALIZED FREE ENERGY PREDICTED BY IDOCK:   -1.94 KCAL/MOL
REMARK 922        TOTAL FREE ENERGY PREDICTED BY IDOCK:   -2.15 KCAL/MOL
REMARK 923 INTER-LIGAND FREE ENERGY PREDICTED BY IDOCK:   -2.01 KCAL/MOL
REMARK 924 INTRA-LIGAND FREE ENERGY PREDICTED BY IDOCK:   -0.14 KCAL/MOL
REMARK 927      BINDING AFFINITY PREDICTED BY RF-SCORE:    0.00 PKD
ROOT
HETATM    1  O   UNL     1      -9.751   2.401  68.048  1.00  0.00    -0.318 OA 
HETATM    2  H   UNL     1      -9.860   1.519  68.384  1.00  0.00     0.000 HD 
HETATM    3  N   UNL     1      -8.881   3.111  68.449  1.00  0.00    -0.106 NA 
HETATM    4  H   UNL     1      -8.243   2.765  69.166  1.00  0.00     0.000 HD 
ENDROOT
BRANCH   3   5
HETATM    5 FE   UNL     1      -8.654   4.952  67.747  1.00  0.00    -0.101 Fe 
HETATM    6  C   UNL     1      -7.086   4.355  66.604  1.00  0.00    -0.067 C  
HETATM    7  C   UNL     1      -7.385   5.392  69.268  1.00  0.00    -0.065 C  
HETATM    8  C   UNL     1     -10.218   5.565  68.879  1.00  0.00    -0.214 C  
HETATM    9  C   UNL     1      -8.436   6.834  67.030  1.00  0.00    -0.114 C  
HETATM   10  C   UNL     1      -9.921   4.519  66.229  1.00  0.00    -0.247 C  
HETATM   11  N   UNL     1      -8.311   7.908  66.619  1.00  0.00    -0.121 NA 
HETATM   12  N   UNL     1      -6.661   5.645  70.135  1.00  0.00    -0.046 NA 
HETATM   13  N   UNL     1     -11.111   5.915  69.526  1.00  0.00    -0.385 NA 
HETATM   14  N   UNL     1      -6.194   4.014  65.952  1.00  0.00    -0.031 NA 
HETATM   15  N   UNL     1     -10.646   4.272  65.361  1.00  0.00    -0.199 NA 
ENDBRANCH   3   5
TORSDOF 1
ENDMDL
MODEL      213
REMARK 921   NORMALIZED FREE ENERGY PREDICTED BY IDOCK:   -1.91 KCAL/MOL
REMARK 922        TOTAL FREE ENERGY PREDICTED BY IDOCK:   -2.11 KCAL/MOL
REMARK 923 INTER-LIGAND FREE ENERGY PREDICTED BY IDOCK:   -1.99 KCAL/MOL
REMARK 924 INTRA-LIGAND FREE ENERGY PREDICTED BY IDOCK:   -0.13 KCAL/MOL
REMARK 927      BINDING AFFINITY PREDICTED BY RF-SCORE:    0.00 PKD
ROOT
HETATM    1  O   UNL     1      -7.421   5.917  73.953  1.00  0.00    -0.092 OA 
HETATM    2  H   UNL     1      -6.980   6.082  74.779  1.00  0.00     0.000 HD 
HETATM    3  N   UNL     1      -7.980   6.792  73.366  1.00  0.00    -0.098 NA 
HETATM    4  H   UNL     1      -7.985   7.734  73.758  1.00  0.00     0.000 HD 
ENDROOT
BRANCH   3   5
HETATM    5 FE   UNL     1      -8.899   6.446  71.643  1.00  0.00    -0.127 Fe 
HETATM    6  C   UNL     1      -7.441   7.435  70.634  1.00  0.00    -0.078 C  
HETATM    7  C   UNL     1      -9.945   8.174  71.837  1.00  0.00    -0.212 C  
HETATM    8  C   UNL     1     -10.360   5.454  72.634  1.00  0.00    -0.203 C  
HETATM    9  C   UNL     1      -9.841   6.081  69.888  1.00  0.00    -0.170 C  
HETATM   10  C   UNL     1      -7.860   4.720  71.446  1.00  0.00    -0.096 C  
HETATM   11  N   UNL     1     -10.378   5.872  68.884  1.00  0.00    -0.204 NA 
HETATM   12  N   UNL     1     -10.542   9.159  71.946  1.00  0.00    -0.320 NA 
HETATM   13  N   UNL     1     -11.196   4.887  73.200  1.00  0.00    -0.317 NA 
HETATM   14  N   UNL     1      -6.610   7.997  70.059  1.00  0.00    -0.039 NA 
HETATM   15  N   UNL     1      -7.266   3.733  71.333  1.00  0.00    -0.032 NA 
ENDBRANCH   3   5
TORSDOF 1
ENDMDL
MODEL      214
REMARK 921   NORMALIZED FREE ENERGY PREDICTED BY IDOCK:   -1.89 KCAL/MOL
REMARK 922        TOTAL FREE ENERGY PREDICTED BY IDOCK:   -2.09 KCAL/MOL
REMARK 923 INTER-LIGAND FREE ENERGY PREDICTED BY IDOCK:   -1.96 KCAL/MOL
REMARK 924 INTRA-LIGAND FREE ENERGY PREDICTED BY IDOCK:   -0.14 KCAL/MOL
REMARK 927      BINDING AFFINITY PREDICTED BY RF-SCORE:    0.00 PKD
ROOT
HETATM    1  O   UNL     1      -7.846  14.419  69.282  1.00  0.00    -0.304 OA 
HETATM    2  H   UNL     1      -7.423  13.589  69.468  1.00  0.00     0.000 HD 
HETATM    3  N   UNL     1      -8.813  14.478  68.586  1.00  0.00    -0.185 NA 
HETATM    4  H   UNL     1      -9.191  13.621  68.182  1.00  0.00     0.000 HD 
ENDROOT
BRANCH   3   5
HETATM    5 FE   UNL     1      -9.695  16.211  68.201  1.00  0.00    -0.202 Fe 
HETATM    6  C   UNL     1     -10.586  16.197  70.025  1.00  0.00    -0.269 C  
HETATM    7  C   UNL     1     -11.290  15.241  67.407  1.00  0.00    -0.284 C  
HETATM    8  C   UNL     1      -8.812  16.243  66.378  1.00  0.00    -0.311 C  
HETATM    9  C   UNL     1     -10.585  17.987  67.800  1.00  0.00    -0.394 C  
HETATM   10  C   UNL     1      -8.105  17.186  68.989  1.00  0.00    -0.119 C  
HETATM   11  N   UNL     1     -11.093  19.001  67.573  1.00  0.00    -0.269 NA 
HETATM   12  N   UNL     1     -12.201  14.688  66.954  1.00  0.00    -0.216 NA 
HETATM   13  N   UNL     1      -8.307  16.262  65.337  1.00  0.00     0.886 NA 
HETATM   14  N   UNL     1     -11.093  16.189  71.064  1.00  0.00    -0.231 NA 
HETATM   15  N   UNL     1      -7.196  17.742  69.440  1.00  0.00    -0.059 NA 
ENDBRANCH   3   5
TORSDOF 1
ENDMDL
MODEL      215
REMARK 921   NORMALIZED FREE ENERGY PREDICTED BY IDOCK:   -1.87 KCAL/MOL
REMARK 922        TOTAL FREE ENERGY PREDICTED BY IDOCK:   -2.08 KCAL/MOL
REMARK 923 INTER-LIGAND FREE ENERGY PREDICTED BY IDOCK:   -1.98 KCAL/MOL
REMARK 924 INTRA-LIGAND FREE ENERGY PREDICTED BY IDOCK:   -0.09 KCAL/MOL
REMARK 927      BINDING AFFINITY PREDICTED BY RF-SCORE:    0.00 PKD
ROOT
HETATM    1  O   UNL     1      -9.763   1.927  67.208  1.00  0.00    -0.394 OA 
HETATM    2  H   UNL     1     -10.062   1.027  67.264  1.00  0.00     0.000 HD 
HETATM    3  N   UNL     1      -9.178   2.440  68.112  1.00  0.00    -0.189 NA 
HETATM    4  H   UNL     1      -8.996   1.903  68.960  1.00  0.00     0.000 HD 
ENDROOT
BRANCH   3   5
HETATM    5 FE   UNL     1      -8.553   4.318  67.994  1.00  0.00    -0.090 Fe 
HETATM    6  C   UNL     1      -7.064   3.937  69.321  1.00  0.00    -0.046 C  
HETATM    7  C   UNL     1      -9.786   4.841  69.518  1.00  0.00    -0.201 C  
HETATM    8  C   UNL     1     -10.030   4.715  66.666  1.00  0.00    -0.236 C  
HETATM    9  C   UNL     1      -7.917   6.237  67.860  1.00  0.00    -0.111 C  
HETATM   10  C   UNL     1      -7.322   3.803  66.471  1.00  0.00    -0.072 C  
HETATM   11  N   UNL     1      -7.553   7.333  67.783  1.00  0.00    -0.108 NA 
HETATM   12  N   UNL     1     -10.489   5.140  70.387  1.00  0.00    -0.252 NA 
HETATM   13  N   UNL     1     -10.874   4.942  65.908  1.00  0.00    -0.221 NA 
HETATM   14  N   UNL     1      -6.216   3.720  70.076  1.00  0.00    -0.026 NA 
HETATM   15  N   UNL     1      -6.619   3.509  65.600  1.00  0.00    -0.036 NA 
ENDBRANCH   3   5
TORSDOF 1
ENDMDL
MODEL      216
REMARK 921   NORMALIZED FREE ENERGY PREDICTED BY IDOCK:   -1.74 KCAL/MOL
REMARK 922        TOTAL FREE ENERGY PREDICTED BY IDOCK:   -1.94 KCAL/MOL
REMARK 923 INTER-LIGAND FREE ENERGY PREDICTED BY IDOCK:   -1.86 KCAL/MOL
REMARK 924 INTRA-LIGAND FREE ENERGY PREDICTED BY IDOCK:   -0.08 KCAL/MOL
REMARK 927      BINDING AFFINITY PREDICTED BY RF-SCORE:    0.00 PKD
ROOT
HETATM    1  O   UNL     1      -6.753   5.594  73.661  1.00  0.00    -0.076 OA 
HETATM    2  H   UNL     1      -6.132   5.749  74.363  1.00  0.00     0.000 HD 
HETATM    3  N   UNL     1      -7.434   6.475  73.234  1.00  0.00    -0.085 NA 
HETATM    4  H   UNL     1      -7.350   7.410  73.631  1.00  0.00     0.000 HD 
ENDROOT
BRANCH   3   5
HETATM    5 FE   UNL     1      -8.728   6.151  71.767  1.00  0.00    -0.125 Fe 
HETATM    6  C   UNL     1     -10.161   7.190  72.762  1.00  0.00    -0.209 C  
HETATM    7  C   UNL     1      -9.340   4.437  72.664  1.00  0.00    -0.129 C  
HETATM    8  C   UNL     1      -7.310   5.114  70.759  1.00  0.00    -0.069 C  
HETATM    9  C   UNL     1     -10.040   5.822  70.259  1.00  0.00    -0.211 C  
HETATM   10  C   UNL     1      -8.121   7.859  70.866  1.00  0.00    -0.101 C  
HETATM   11  N   UNL     1     -10.790   5.634  69.398  1.00  0.00    -0.313 NA 
HETATM   12  N   UNL     1      -9.689   3.458  73.174  1.00  0.00    -0.110 NA 
HETATM   13  N   UNL     1      -6.500   4.521  70.183  1.00  0.00    -0.030 NA 
HETATM   14  N   UNL     1     -10.977   7.782  73.329  1.00  0.00    -0.323 NA 
HETATM   15  N   UNL     1      -7.773   8.835  70.351  1.00  0.00    -0.081 NA 
ENDBRANCH   3   5
TORSDOF 1
ENDMDL
MODEL      217
REMARK 921   NORMALIZED FREE ENERGY PREDICTED BY IDOCK:   -1.69 KCAL/MOL
REMARK 922        TOTAL FREE ENERGY PREDICTED BY IDOCK:   -1.89 KCAL/MOL
REMARK 923 INTER-LIGAND FREE ENERGY PREDICTED BY IDOCK:   -1.76 KCAL/MOL
REMARK 924 INTRA-LIGAND FREE ENERGY PREDICTED BY IDOCK:   -0.12 KCAL/MOL
REMARK 927      BINDING AFFINITY PREDICTED BY RF-SCORE:    0.00 PKD
ROOT
HETATM    1  O   UNL     1     -11.235   5.206  72.213  1.00  0.00    -0.167 OA 
HETATM    2  H   UNL     1     -12.105   5.322  72.577  1.00  0.00     0.000 HD 
HETATM    3  N   UNL     1     -10.419   6.074  72.274  1.00  0.00    -0.199 NA 
HETATM    4  H   UNL     1     -10.660   6.957  72.725  1.00  0.00     0.000 HD 
ENDROOT
BRANCH   3   5
HETATM    5 FE   UNL     1      -8.603   5.830  71.515  1.00  0.00    -0.116 Fe 
HETATM    6  C   UNL     1      -9.171   6.735  69.789  1.00  0.00    -0.146 C  
HETATM    7  C   UNL     1      -9.146   4.029  70.756  1.00  0.00    -0.110 C  
HETATM    8  C   UNL     1      -8.019   4.928  73.232  1.00  0.00    -0.100 C  
HETATM    9  C   UNL     1      -6.743   5.584  70.752  1.00  0.00    -0.044 C  
HETATM   10  C   UNL     1      -8.056   7.626  72.272  1.00  0.00    -0.107 C  
HETATM   11  N   UNL     1      -5.681   5.444  70.316  1.00  0.00    -0.015 NA 
HETATM   12  N   UNL     1      -9.453   3.001  70.323  1.00  0.00    -0.159 NA 
HETATM   13  N   UNL     1      -7.684   4.412  74.212  1.00  0.00    -0.084 NA 
HETATM   14  N   UNL     1      -9.495   7.252  68.806  1.00  0.00    -0.143 NA 
HETATM   15  N   UNL     1      -7.743   8.653  72.706  1.00  0.00    -0.371 NA 
ENDBRANCH   3   5
TORSDOF 1
ENDMDL
MODEL      218
REMARK 921   NORMALIZED FREE ENERGY PREDICTED BY IDOCK:   -1.68 KCAL/MOL
REMARK 922        TOTAL FREE ENERGY PREDICTED BY IDOCK:   -1.87 KCAL/MOL
REMARK 923 INTER-LIGAND FREE ENERGY PREDICTED BY IDOCK:   -1.80 KCAL/MOL
REMARK 924 INTRA-LIGAND FREE ENERGY PREDICTED BY IDOCK:   -0.08 KCAL/MOL
REMARK 927      BINDING AFFINITY PREDICTED BY RF-SCORE:    0.00 PKD
ROOT
HETATM    1  O   UNL     1      -7.860   3.809  66.611  1.00  0.00    -0.087 OA 
HETATM    2  H   UNL     1      -7.340   3.021  66.725  1.00  0.00     0.000 HD 
HETATM    3  N   UNL     1      -8.021   4.576  67.509  1.00  0.00    -0.099 NA 
HETATM    4  H   UNL     1      -7.596   4.384  68.415  1.00  0.00     0.000 HD 
ENDROOT
BRANCH   3   5
HETATM    5 FE   UNL     1      -9.105   6.220  67.270  1.00  0.00    -0.118 Fe 
HETATM    6  C   UNL     1      -7.811   7.277  68.422  1.00  0.00    -0.122 C  
HETATM    7  C   UNL     1     -10.200   5.756  68.914  1.00  0.00    -0.204 C  
HETATM    8  C   UNL     1     -10.406   5.181  66.115  1.00  0.00    -0.236 C  
HETATM    9  C   UNL     1     -10.215   7.895  67.012  1.00  0.00    -0.312 C  
HETATM   10  C   UNL     1      -8.018   6.686  65.627  1.00  0.00    -0.115 C  
HETATM   11  N   UNL     1     -10.848   8.852  66.865  1.00  0.00    -0.067 NA 
HETATM   12  N   UNL     1     -10.825   5.492  69.851  1.00  0.00    -0.299 NA 
HETATM   13  N   UNL     1     -11.149   4.588  65.455  1.00  0.00     0.010 NA 
HETATM   14  N   UNL     1      -7.073   7.879  69.078  1.00  0.00    -0.068 NA 
HETATM   15  N   UNL     1      -7.397   6.953  64.687  1.00  0.00    -0.083 NA 
ENDBRANCH   3   5
TORSDOF 1
ENDMDL
MODEL      219
REMARK 921   NORMALIZED FREE ENERGY PREDICTED BY IDOCK:   -1.61 KCAL/MOL
REMARK 922        TOTAL FREE ENERGY PREDICTED BY IDOCK:   -1.80 KCAL/MOL
REMARK 923 INTER-LIGAND FREE ENERGY PREDICTED BY IDOCK:   -1.73 KCAL/MOL
REMARK 924 INTRA-LIGAND FREE ENERGY PREDICTED BY IDOCK:   -0.07 KCAL/MOL
REMARK 927      BINDING AFFINITY PREDICTED BY RF-SCORE:    0.00 PKD
ROOT
HETATM    1  O   UNL     1      -7.259   3.827  66.762  1.00  0.00    -0.065 OA 
HETATM    2  H   UNL     1      -6.766   3.053  67.006  1.00  0.00     0.000 HD 
HETATM    3  N   UNL     1      -7.459   4.703  67.546  1.00  0.00    -0.077 NA 
HETATM    4  H   UNL     1      -7.095   4.620  68.494  1.00  0.00     0.000 HD 
ENDROOT
BRANCH   3   5
HETATM    5 FE   UNL     1      -8.489   6.319  67.035  1.00  0.00    -0.104 Fe 
HETATM    6  C   UNL     1      -9.846   5.179  66.046  1.00  0.00    -0.163 C  
HETATM    7  C   UNL     1      -7.393   6.501  65.337  1.00  0.00    -0.076 C  
HETATM    8  C   UNL     1      -7.147   7.473  68.021  1.00  0.00    -0.084 C  
HETATM    9  C   UNL     1      -9.539   7.976  66.526  1.00  0.00    -0.226 C  
HETATM   10  C   UNL     1      -9.584   6.146  68.729  1.00  0.00    -0.125 C  
HETATM   11  N   UNL     1     -10.139   8.922  66.236  1.00  0.00    -0.275 NA 
HETATM   12  N   UNL     1      -6.769   6.605  64.369  1.00  0.00    -0.041 NA 
HETATM   13  N   UNL     1      -6.380   8.132  68.583  1.00  0.00    -0.051 NA 
HETATM   14  N   UNL     1     -10.619   4.529  65.482  1.00  0.00    -0.252 NA 
HETATM   15  N   UNL     1     -10.210   6.046  69.698  1.00  0.00    -0.191 NA 
ENDBRANCH   3   5
TORSDOF 1
ENDMDL
MODEL      220
REMARK 921   NORMALIZED FREE ENERGY PREDICTED BY IDOCK:   -1.57 KCAL/MOL
REMARK 922        TOTAL FREE ENERGY PREDICTED BY IDOCK:   -1.76 KCAL/MOL
REMARK 923 INTER-LIGAND FREE ENERGY PREDICTED BY IDOCK:   -1.69 KCAL/MOL
REMARK 924 INTRA-LIGAND FREE ENERGY PREDICTED BY IDOCK:   -0.07 KCAL/MOL
REMARK 927      BINDING AFFINITY PREDICTED BY RF-SCORE:    0.00 PKD
ROOT
HETATM    1  O   UNL     1      -9.742   2.521  67.044  1.00  0.00    -0.396 OA 
HETATM    2  H   UNL     1     -10.079   1.665  66.805  1.00  0.00     0.000 HD 
HETATM    3  N   UNL     1      -9.028   2.660  67.989  1.00  0.00    -0.140 NA 
HETATM    4  H   UNL     1      -8.775   1.847  68.550  1.00  0.00     0.000 HD 
ENDROOT
BRANCH   3   5
HETATM    5 FE   UNL     1      -8.325   4.446  68.487  1.00  0.00    -0.080 Fe 
HETATM    6  C   UNL     1     -10.017   5.336  67.805  1.00  0.00    -0.162 C  
HETATM    7  C   UNL     1      -7.476   4.641  66.655  1.00  0.00    -0.086 C  
HETATM    8  C   UNL     1      -6.631   3.575  69.176  1.00  0.00    -0.034 C  
HETATM    9  C   UNL     1      -7.601   6.266  69.008  1.00  0.00    -0.096 C  
HETATM   10  C   UNL     1      -9.167   4.257  70.318  1.00  0.00    -0.133 C  
HETATM   11  N   UNL     1      -7.188   7.305  69.305  1.00  0.00    -0.079 NA 
HETATM   12  N   UNL     1      -6.991   4.753  65.610  1.00  0.00    -0.061 NA 
HETATM   13  N   UNL     1      -5.662   3.078  69.569  1.00  0.00    -0.018 NA 
HETATM   14  N   UNL     1     -10.982   5.842  67.416  1.00  0.00    -0.246 NA 
HETATM   15  N   UNL     1      -9.649   4.149  71.365  1.00  0.00    -0.157 NA 
ENDBRANCH   3   5
TORSDOF 1
ENDMDL
MODEL      221
REMARK 921   NORMALIZED FREE ENERGY PREDICTED BY IDOCK:   -1.45 KCAL/MOL
REMARK 922        TOTAL FREE ENERGY PREDICTED BY IDOCK:   -1.64 KCAL/MOL
REMARK 923 INTER-LIGAND FREE ENERGY PREDICTED BY IDOCK:   -1.49 KCAL/MOL
REMARK 924 INTRA-LIGAND FREE ENERGY PREDICTED BY IDOCK:   -0.15 KCAL/MOL
REMARK 927      BINDING AFFINITY PREDICTED BY RF-SCORE:    0.00 PKD
ROOT
HETATM    1  O   UNL     1      -7.789   3.852  66.568  1.00  0.00    -0.088 OA 
HETATM    2  H   UNL     1      -7.565   3.002  66.931  1.00  0.00     0.000 HD 
HETATM    3  N   UNL     1      -7.736   4.840  67.233  1.00  0.00    -0.090 NA 
HETATM    4  H   UNL     1      -7.447   4.773  68.209  1.00  0.00     0.000 HD 
ENDROOT
BRANCH   3   5
HETATM    5 FE   UNL     1      -8.203   6.612  66.474  1.00  0.00    -0.097 Fe 
HETATM    6  C   UNL     1      -6.248   6.991  66.081  1.00  0.00    -0.039 C  
HETATM    7  C   UNL     1      -8.007   7.465  68.304  1.00  0.00    -0.124 C  
HETATM    8  C   UNL     1     -10.159   6.248  66.857  1.00  0.00    -0.183 C  
HETATM    9  C   UNL     1      -8.692   8.416  65.693  1.00  0.00    -0.172 C  
HETATM   10  C   UNL     1      -8.403   5.766  64.646  1.00  0.00    -0.102 C  
HETATM   11  N   UNL     1      -8.970   9.447  65.247  1.00  0.00    -0.192 NA 
HETATM   12  N   UNL     1      -7.896   7.953  69.348  1.00  0.00    -0.112 NA 
HETATM   13  N   UNL     1     -11.277   6.041  67.075  1.00  0.00    -0.148 NA 
HETATM   14  N   UNL     1      -5.134   7.207  65.856  1.00  0.00    -0.023 NA 
HETATM   15  N   UNL     1      -8.518   5.282  63.601  1.00  0.00    -0.121 NA 
ENDBRANCH   3   5
TORSDOF 1
ENDMDL
MODEL      222
REMARK 921   NORMALIZED FREE ENERGY PREDICTED BY IDOCK:   -1.44 KCAL/MOL
REMARK 922        TOTAL FREE ENERGY PREDICTED BY IDOCK:   -1.63 KCAL/MOL
REMARK 923 INTER-LIGAND FREE ENERGY PREDICTED BY IDOCK:   -1.55 KCAL/MOL
REMARK 924 INTRA-LIGAND FREE ENERGY PREDICTED BY IDOCK:   -0.07 KCAL/MOL
REMARK 927      BINDING AFFINITY PREDICTED BY RF-SCORE:    0.00 PKD
ROOT
HETATM    1  O   UNL     1      -9.555   1.675  67.272  1.00  0.00    -0.380 OA 
HETATM    2  H   UNL     1     -10.083   1.124  67.838  1.00  0.00     0.000 HD 
HETATM    3  N   UNL     1      -9.302   2.801  67.570  1.00  0.00    -0.299 NA 
HETATM    4  H   UNL     1      -9.659   3.180  68.447  1.00  0.00     0.000 HD 
ENDROOT
BRANCH   3   5
HETATM    5 FE   UNL     1      -8.200   3.951  66.388  1.00  0.00    -0.095 Fe 
HETATM    6  C   UNL     1      -9.029   3.103  64.741  1.00  0.00    -0.130 C  
HETATM    7  C   UNL     1      -6.729   2.554  66.375  1.00  0.00    -0.043 C  
HETATM    8  C   UNL     1      -7.364   4.810  68.021  1.00  0.00    -0.070 C  
HETATM    9  C   UNL     1      -7.075   5.136  65.190  1.00  0.00    -0.063 C  
HETATM   10  C   UNL     1      -9.662   5.350  66.400  1.00  0.00    -0.166 C  
HETATM   11  N   UNL     1      -6.434   5.812  64.504  1.00  0.00    -0.036 NA 
HETATM   12  N   UNL     1      -5.889   1.757  66.367  1.00  0.00    -0.018 NA 
HETATM   13  N   UNL     1      -6.886   5.301  68.954  1.00  0.00    -0.053 NA 
HETATM   14  N   UNL     1      -9.502   2.620  63.802  1.00  0.00    -0.109 NA 
HETATM   15  N   UNL     1     -10.499   6.150  66.406  1.00  0.00    -0.093 NA 
ENDBRANCH   3   5
TORSDOF 1
ENDMDL
MODEL      223
REMARK 921   NORMALIZED FREE ENERGY PREDICTED BY IDOCK:   -1.44 KCAL/MOL
REMARK 922        TOTAL FREE ENERGY PREDICTED BY IDOCK:   -1.62 KCAL/MOL
REMARK 923 INTER-LIGAND FREE ENERGY PREDICTED BY IDOCK:   -1.50 KCAL/MOL
REMARK 924 INTRA-LIGAND FREE ENERGY PREDICTED BY IDOCK:   -0.13 KCAL/MOL
REMARK 927      BINDING AFFINITY PREDICTED BY RF-SCORE:    0.00 PKD
ROOT
HETATM    1  O   UNL     1      -8.375   2.789  66.161  1.00  0.00    -0.084 OA 
HETATM    2  H   UNL     1      -8.377   1.935  66.577  1.00  0.00     0.000 HD 
HETATM    3  N   UNL     1      -7.992   3.758  66.742  1.00  0.00    -0.095 NA 
HETATM    4  H   UNL     1      -7.663   3.668  67.703  1.00  0.00     0.000 HD 
ENDROOT
BRANCH   3   5
HETATM    5 FE   UNL     1      -7.987   5.540  65.872  1.00  0.00    -0.091 Fe 
HETATM    6  C   UNL     1      -9.797   5.974  66.681  1.00  0.00    -0.164 C  
HETATM    7  C   UNL     1      -8.898   4.761  64.235  1.00  0.00    -0.132 C  
HETATM    8  C   UNL     1      -6.178   5.125  65.059  1.00  0.00    -0.034 C  
HETATM    9  C   UNL     1      -7.968   7.361  64.985  1.00  0.00    -0.129 C  
HETATM   10  C   UNL     1      -7.075   6.323  67.501  1.00  0.00    -0.073 C  
HETATM   11  N   UNL     1      -7.957   8.402  64.480  1.00  0.00    -0.139 NA 
HETATM   12  N   UNL     1      -9.417   4.318  63.301  1.00  0.00    -0.141 NA 
HETATM   13  N   UNL     1      -5.145   4.889  64.593  1.00  0.00    -0.009 NA 
HETATM   14  N   UNL     1     -10.829   6.221  67.143  1.00  0.00    -0.354 NA 
HETATM   15  N   UNL     1      -6.554   6.770  68.433  1.00  0.00    -0.056 NA 
ENDBRANCH   3   5
TORSDOF 1
ENDMDL
MODEL      224
REMARK 921   NORMALIZED FREE ENERGY PREDICTED BY IDOCK:   -1.32 KCAL/MOL
REMARK 922        TOTAL FREE ENERGY PREDICTED BY IDOCK:   -1.49 KCAL/MOL
REMARK 923 INTER-LIGAND FREE ENERGY PREDICTED BY IDOCK:   -1.35 KCAL/MOL
REMARK 924 INTRA-LIGAND FREE ENERGY PREDICTED BY IDOCK:   -0.14 KCAL/MOL
REMARK 927      BINDING AFFINITY PREDICTED BY RF-SCORE:    0.00 PKD
ROOT
HETATM    1  O   UNL     1     -10.800   5.805  68.723  1.00  0.00    -0.264 OA 
HETATM    2  H   UNL     1     -11.514   6.139  68.191  1.00  0.00     0.000 HD 
HETATM    3  N   UNL     1      -9.762   5.485  68.231  1.00  0.00    -0.126 NA 
HETATM    4  H   UNL     1      -9.638   5.571  67.223  1.00  0.00     0.000 HD 
ENDROOT
BRANCH   3   5
HETATM    5 FE   UNL     1      -8.274   4.789  69.341  1.00  0.00    -0.070 Fe 
HETATM    6  C   UNL     1      -6.986   4.970  67.782  1.00  0.00    -0.061 C  
HETATM    7  C   UNL     1      -8.712   2.893  68.767  1.00  0.00    -0.085 C  
HETATM    8  C   UNL     1      -9.544   4.604  70.909  1.00  0.00    -0.179 C  
HETATM    9  C   UNL     1      -6.758   4.084  70.486  1.00  0.00    -0.033 C  
HETATM   10  C   UNL     1      -7.833   6.678  69.920  1.00  0.00    -0.115 C  
HETATM   11  N   UNL     1      -5.892   3.683  71.140  1.00  0.00    -0.013 NA 
HETATM   12  N   UNL     1      -8.961   1.811  68.441  1.00  0.00    -0.108 NA 
HETATM   13  N   UNL     1     -10.269   4.498  71.805  1.00  0.00    -0.184 NA 
HETATM   14  N   UNL     1      -6.253   5.075  66.894  1.00  0.00    -0.031 NA 
HETATM   15  N   UNL     1      -7.582   7.759  70.251  1.00  0.00    -0.086 NA 
ENDBRANCH   3   5
TORSDOF 1
ENDMDL
MODEL      225
REMARK 921   NORMALIZED FREE ENERGY PREDICTED BY IDOCK:   -1.26 KCAL/MOL
REMARK 922        TOTAL FREE ENERGY PREDICTED BY IDOCK:   -1.43 KCAL/MOL
REMARK 923 INTER-LIGAND FREE ENERGY PREDICTED BY IDOCK:   -1.37 KCAL/MOL
REMARK 924 INTRA-LIGAND FREE ENERGY PREDICTED BY IDOCK:   -0.07 KCAL/MOL
REMARK 927      BINDING AFFINITY PREDICTED BY RF-SCORE:    0.00 PKD
ROOT
HETATM    1  O   UNL     1     -10.330   2.966  72.683  1.00  0.00    -0.156 OA 
HETATM    2  H   UNL     1     -10.803   2.231  73.058  1.00  0.00     0.000 HD 
HETATM    3  N   UNL     1      -9.161   3.106  72.871  1.00  0.00    -0.090 NA 
HETATM    4  H   UNL     1      -8.660   2.428  73.443  1.00  0.00     0.000 HD 
ENDROOT
BRANCH   3   5
HETATM    5 FE   UNL     1      -8.175   4.639  72.088  1.00  0.00    -0.089 Fe 
HETATM    6  C   UNL     1      -9.340   5.949  73.111  1.00  0.00    -0.139 C  
HETATM    7  C   UNL     1      -9.470   4.695  70.527  1.00  0.00    -0.177 C  
HETATM    8  C   UNL     1      -7.001   3.345  71.063  1.00  0.00    -0.033 C  
HETATM    9  C   UNL     1      -7.156   6.197  71.290  1.00  0.00    -0.077 C  
HETATM   10  C   UNL     1      -6.878   4.586  73.641  1.00  0.00    -0.065 C  
HETATM   11  N   UNL     1      -6.574   7.087  70.834  1.00  0.00    -0.048 NA 
HETATM   12  N   UNL     1     -10.208   4.729  69.636  1.00  0.00    -0.209 NA 
HETATM   13  N   UNL     1      -6.330   2.607  70.476  1.00  0.00    -0.023 NA 
HETATM   14  N   UNL     1     -10.004   6.696  73.694  1.00  0.00    -0.217 NA 
HETATM   15  N   UNL     1      -6.136   4.555  74.530  1.00  0.00    -0.044 NA 
ENDBRANCH   3   5
TORSDOF 1
ENDMDL
MODEL      226
REMARK 921   NORMALIZED FREE ENERGY PREDICTED BY IDOCK:   -1.25 KCAL/MOL
REMARK 922        TOTAL FREE ENERGY PREDICTED BY IDOCK:   -1.42 KCAL/MOL
REMARK 923 INTER-LIGAND FREE ENERGY PREDICTED BY IDOCK:   -1.28 KCAL/MOL
REMARK 924 INTRA-LIGAND FREE ENERGY PREDICTED BY IDOCK:   -0.15 KCAL/MOL
REMARK 927      BINDING AFFINITY PREDICTED BY RF-SCORE:    0.00 PKD
ROOT
HETATM    1  O   UNL     1      -7.769  14.774  69.653  1.00  0.00    -0.349 OA 
HETATM    2  H   UNL     1      -7.399  13.947  69.942  1.00  0.00     0.000 HD 
HETATM    3  N   UNL     1      -8.813  14.814  69.078  1.00  0.00    -0.304 NA 
HETATM    4  H   UNL     1      -9.317  13.947  68.893  1.00  0.00     0.000 HD 
ENDROOT
BRANCH   3   5
HETATM    5 FE   UNL     1      -9.585  16.539  68.475  1.00  0.00    -0.191 Fe 
HETATM    6  C   UNL     1     -11.095  15.566  67.530  1.00  0.00    -0.305 C  
HETATM    7  C   UNL     1      -8.469  16.464  66.782  1.00  0.00    -0.244 C  
HETATM    8  C   UNL     1      -8.086  17.525  69.416  1.00  0.00     0.364 C  
HETATM    9  C   UNL     1     -10.370  18.306  67.872  1.00  0.00    -0.399 C  
HETATM   10  C   UNL     1     -10.698  16.620  70.164  1.00  0.00    -0.084 C  
HETATM   11  N   UNL     1     -10.819  19.315  67.527  1.00  0.00    -0.461 NA 
HETATM   12  N   UNL     1      -7.833  16.423  65.816  1.00  0.00     0.345 NA 
HETATM   13  N   UNL     1      -7.230  18.090  69.952  1.00  0.00     0.543 NA 
HETATM   14  N   UNL     1     -11.956  15.012  66.992  1.00  0.00    -0.127 NA 
HETATM   15  N   UNL     1     -11.335  16.666  71.129  1.00  0.00    -0.067 NA 
ENDBRANCH   3   5
TORSDOF 1
ENDMDL
MODEL      227
REMARK 921   NORMALIZED FREE ENERGY PREDICTED BY IDOCK:   -1.13 KCAL/MOL
REMARK 922        TOTAL FREE ENERGY PREDICTED BY IDOCK:   -1.30 KCAL/MOL
REMARK 923 INTER-LIGAND FREE ENERGY PREDICTED BY IDOCK:   -1.23 KCAL/MOL
REMARK 924 INTRA-LIGAND FREE ENERGY PREDICTED BY IDOCK:   -0.07 KCAL/MOL
REMARK 927      BINDING AFFINITY PREDICTED BY RF-SCORE:    0.00 PKD
ROOT
HETATM    1  O   UNL     1     -10.517   5.490  68.537  1.00  0.00    -0.193 OA 
HETATM    2  H   UNL     1     -11.350   5.331  68.967  1.00  0.00     0.000 HD 
HETATM    3  N   UNL     1     -10.113   4.758  67.687  1.00  0.00    -0.122 NA 
HETATM    4  H   UNL     1     -10.670   3.947  67.417  1.00  0.00     0.000 HD 
ENDROOT
BRANCH   3   5
HETATM    5 FE   UNL     1      -8.376   5.091  66.789  1.00  0.00    -0.103 Fe 
HETATM    6  C   UNL     1      -7.700   3.262  67.354  1.00  0.00    -0.077 C  
HETATM    7  C   UNL     1      -7.632   5.900  68.494  1.00  0.00    -0.090 C  
HETATM    8  C   UNL     1      -9.036   6.918  66.214  1.00  0.00    -0.141 C  
HETATM    9  C   UNL     1      -6.609   5.438  65.862  1.00  0.00    -0.045 C  
HETATM   10  C   UNL     1      -9.114   4.287  65.084  1.00  0.00    -0.145 C  
HETATM   11  N   UNL     1      -5.599   5.635  65.332  1.00  0.00    -0.013 NA 
HETATM   12  N   UNL     1      -7.206   6.362  69.466  1.00  0.00    -0.076 NA 
HETATM   13  N   UNL     1      -9.412   7.962  65.886  1.00  0.00    -0.015 NA 
HETATM   14  N   UNL     1      -7.315   2.220  67.675  1.00  0.00    -0.055 NA 
HETATM   15  N   UNL     1      -9.536   3.828  64.109  1.00  0.00    -0.153 NA 
ENDBRANCH   3   5
TORSDOF 1
ENDMDL
MODEL      228
REMARK 921   NORMALIZED FREE ENERGY PREDICTED BY IDOCK:   -1.13 KCAL/MOL
REMARK 922        TOTAL FREE ENERGY PREDICTED BY IDOCK:   -1.29 KCAL/MOL
REMARK 923 INTER-LIGAND FREE ENERGY PREDICTED BY IDOCK:   -1.19 KCAL/MOL
REMARK 924 INTRA-LIGAND FREE ENERGY PREDICTED BY IDOCK:   -0.10 KCAL/MOL
REMARK 927      BINDING AFFINITY PREDICTED BY RF-SCORE:    0.00 PKD
ROOT
HETATM    1  O   UNL     1     -10.303   4.668  68.918  1.00  0.00    -0.043 OA 
HETATM    2  H   UNL     1     -10.811   4.204  68.262  1.00  0.00     0.000 HD 
HETATM    3  N   UNL     1      -9.163   4.388  69.128  1.00  0.00    -0.127 NA 
HETATM    4  H   UNL     1      -8.725   3.638  68.593  1.00  0.00     0.000 HD 
ENDROOT
BRANCH   3   5
HETATM    5 FE   UNL     1      -8.105   5.356  70.497  1.00  0.00    -0.084 Fe 
HETATM    6  C   UNL     1      -8.101   3.718  71.695  1.00  0.00    -0.066 C  
HETATM    7  C   UNL     1      -9.813   6.006  71.380  1.00  0.00    -0.173 C  
HETATM    8  C   UNL     1      -8.097   7.000  69.313  1.00  0.00    -0.120 C  
HETATM    9  C   UNL     1      -7.017   6.352  71.886  1.00  0.00    -0.080 C  
HETATM   10  C   UNL     1      -6.398   4.715  69.619  1.00  0.00    -0.027 C  
HETATM   11  N   UNL     1      -6.396   6.920  72.680  1.00  0.00    -0.053 NA 
HETATM   12  N   UNL     1     -10.786   6.377  71.884  1.00  0.00    -0.231 NA 
HETATM   13  N   UNL     1      -8.092   7.939  68.637  1.00  0.00    -0.124 NA 
HETATM   14  N   UNL     1      -8.099   2.784  72.378  1.00  0.00    -0.055 NA 
HETATM   15  N   UNL     1      -5.422   4.347  69.117  1.00  0.00    -0.011 NA 
ENDBRANCH   3   5
TORSDOF 1
ENDMDL
MODEL      229
REMARK 921   NORMALIZED FREE ENERGY PREDICTED BY IDOCK:   -0.38 KCAL/MOL
REMARK 922        TOTAL FREE ENERGY PREDICTED BY IDOCK:   -0.50 KCAL/MOL
REMARK 923 INTER-LIGAND FREE ENERGY PREDICTED BY IDOCK:   -0.38 KCAL/MOL
REMARK 924 INTRA-LIGAND FREE ENERGY PREDICTED BY IDOCK:   -0.12 KCAL/MOL
REMARK 927      BINDING AFFINITY PREDICTED BY RF-SCORE:    0.00 PKD
ROOT
HETATM    1  O   UNL     1     -11.641  10.896  64.989  1.00  0.00     0.397 OA 
HETATM    2  H   UNL     1     -12.562  10.712  64.844  1.00  0.00     0.000 HD 
HETATM    3  N   UNL     1     -10.884  10.034  65.316  1.00  0.00     0.481 NA 
HETATM    4  H   UNL     1     -11.231   9.084  65.444  1.00  0.00     0.000 HD 
ENDROOT
BRANCH   3   5
HETATM    5 FE   UNL     1      -8.962  10.418  65.617  1.00  0.00    -0.144 Fe 
HETATM    6  C   UNL     1      -9.249  10.437  67.626  1.00  0.00    -0.148 C  
HETATM    7  C   UNL     1      -9.332  12.412  65.538  1.00  0.00     0.118 C  
HETATM    8  C   UNL     1      -8.656  10.400  63.614  1.00  0.00    -0.186 C  
HETATM    9  C   UNL     1      -6.995  10.802  65.913  1.00  0.00    -0.079 C  
HETATM   10  C   UNL     1      -8.586   8.431  65.693  1.00  0.00    -0.174 C  
HETATM   11  N   UNL     1      -5.871  11.021  66.084  1.00  0.00    -0.145 NA 
HETATM   12  N   UNL     1      -9.541  13.549  65.494  1.00  0.00    -0.029 NA 
HETATM   13  N   UNL     1      -8.481  10.390  62.470  1.00  0.00    -0.171 NA 
HETATM   14  N   UNL     1      -9.414  10.448  68.771  1.00  0.00    -0.166 NA 
HETATM   15  N   UNL     1      -8.371   7.294  65.736  1.00  0.00    -0.134 NA 
ENDBRANCH   3   5
TORSDOF 1
ENDMDL
MODEL      230
REMARK 921   NORMALIZED FREE ENERGY PREDICTED BY IDOCK:    1.55 KCAL/MOL
REMARK 922        TOTAL FREE ENERGY PREDICTED BY IDOCK:    1.54 KCAL/MOL
REMARK 923 INTER-LIGAND FREE ENERGY PREDICTED BY IDOCK:    1.67 KCAL/MOL
REMARK 924 INTRA-LIGAND FREE ENERGY PREDICTED BY IDOCK:   -0.13 KCAL/MOL
REMARK 927      BINDING AFFINITY PREDICTED BY RF-SCORE:    0.00 PKD
ROOT
HETATM    1  O   UNL     1      -7.788  15.695  65.343  1.00  0.00     1.866 OA 
HETATM    2  H   UNL     1      -6.929  16.058  65.160  1.00  0.00     0.000 HD 
HETATM    3  N   UNL     1      -8.102  15.384  66.451  1.00  0.00    -0.302 NA 
HETATM    4  H   UNL     1      -7.438  15.509  67.214  1.00  0.00     0.000 HD 
ENDROOT
BRANCH   3   5
HETATM    5 FE   UNL     1      -9.895  14.627  66.833  1.00  0.00    -0.217 Fe 
HETATM    6  C   UNL     1      -9.257  13.947  68.636  1.00  0.00    -0.094 C  
HETATM    7  C   UNL     1      -9.355  12.871  65.972  1.00  0.00    -0.024 C  
HETATM    8  C   UNL     1     -10.551  15.302  65.039  1.00  0.00    -0.418 C  
HETATM    9  C   UNL     1     -11.733  13.866  67.218  1.00  0.00    -0.386 C  
HETATM   10  C   UNL     1     -10.441  16.378  67.691  1.00  0.00    -0.302 C  
HETATM   11  N   UNL     1     -12.782  13.431  67.439  1.00  0.00     0.387 NA 
HETATM   12  N   UNL     1      -9.049  11.869  65.481  1.00  0.00    -0.010 NA 
HETATM   13  N   UNL     1     -10.925  15.686  64.014  1.00  0.00     0.209 NA 
HETATM   14  N   UNL     1      -8.892  13.560  69.664  1.00  0.00     1.333 NA 
HETATM   15  N   UNL     1     -10.753  17.379  68.181  1.00  0.00    -0.373 NA 
ENDBRANCH   3   5
TORSDOF 1
ENDMDL
MODEL      231
REMARK 921   NORMALIZED FREE ENERGY PREDICTED BY IDOCK:    4.19 KCAL/MOL
REMARK 922        TOTAL FREE ENERGY PREDICTED BY IDOCK:    4.34 KCAL/MOL
REMARK 923 INTER-LIGAND FREE ENERGY PREDICTED BY IDOCK:    4.48 KCAL/MOL
REMARK 924 INTRA-LIGAND FREE ENERGY PREDICTED BY IDOCK:   -0.14 KCAL/MOL
REMARK 927      BINDING AFFINITY PREDICTED BY RF-SCORE:    0.00 PKD
ROOT
HETATM    1  O   UNL     1     -11.575  12.101  68.307  1.00  0.00    -0.283 OA 
HETATM    2  H   UNL     1     -12.355  12.446  67.887  1.00  0.00     0.000 HD 
HETATM    3  N   UNL     1     -10.517  12.126  67.758  1.00  0.00    -0.201 NA 
HETATM    4  H   UNL     1     -10.447  12.525  66.822  1.00  0.00     0.000 HD 
ENDROOT
BRANCH   3   5
HETATM    5 FE   UNL     1      -8.890  11.405  68.634  1.00  0.00    -0.128 Fe 
HETATM    6  C   UNL     1      -7.712  12.265  67.222  1.00  0.00    -0.161 C  
HETATM    7  C   UNL     1      -9.014   9.719  67.513  1.00  0.00    -0.131 C  
HETATM    8  C   UNL     1     -10.051  10.543  70.054  1.00  0.00     0.103 C  
HETATM    9  C   UNL     1      -7.235  10.672  69.542  1.00  0.00    -0.140 C  
HETATM   10  C   UNL     1      -8.763  13.084  69.758  1.00  0.00     2.399 C  
HETATM   11  N   UNL     1      -6.288  10.253  70.060  1.00  0.00    -0.086 NA 
HETATM   12  N   UNL     1      -9.084   8.756  66.875  1.00  0.00    -0.134 NA 
HETATM   13  N   UNL     1     -10.713  10.050  70.865  1.00  0.00    -0.243 NA 
HETATM   14  N   UNL     1      -7.041  12.756  66.418  1.00  0.00     0.929 NA 
HETATM   15  N   UNL     1      -8.690  14.045  70.400  1.00  0.00     2.551 NA 
ENDBRANCH   3   5
TORSDOF 1
ENDMDL
MODEL      232
REMARK 921   NORMALIZED FREE ENERGY PREDICTED BY IDOCK:    5.80 KCAL/MOL
REMARK 922        TOTAL FREE ENERGY PREDICTED BY IDOCK:    6.04 KCAL/MOL
REMARK 923 INTER-LIGAND FREE ENERGY PREDICTED BY IDOCK:    6.11 KCAL/MOL
REMARK 924 INTRA-LIGAND FREE ENERGY PREDICTED BY IDOCK:   -0.07 KCAL/MOL
REMARK 927      BINDING AFFINITY PREDICTED BY RF-SCORE:    0.00 PKD
ROOT
HETATM    1  O   UNL     1     -13.134  14.915  64.686  1.00  0.00    -0.217 OA 
HETATM    2  H   UNL     1     -14.049  14.814  64.449  1.00  0.00     0.000 HD 
HETATM    3  N   UNL     1     -12.817  15.387  65.734  1.00  0.00     1.001 NA 
HETATM    4  H   UNL     1     -13.540  15.689  66.387  1.00  0.00     0.000 HD 
ENDROOT
BRANCH   3   5
HETATM    5 FE   UNL     1     -10.908  15.597  66.228  1.00  0.00    -0.286 Fe 
HETATM    6  C   UNL     1     -11.175  14.438  67.873  1.00  0.00    -0.286 C  
HETATM    7  C   UNL     1     -11.354  17.252  67.314  1.00  0.00     0.520 C  
HETATM    8  C   UNL     1     -10.621  16.753  64.590  1.00  0.00     0.592 C  
HETATM    9  C   UNL     1      -8.954  15.810  66.720  1.00  0.00    -0.260 C  
HETATM   10  C   UNL     1     -10.455  13.948  65.145  1.00  0.00    -0.393 C  
HETATM   11  N   UNL     1      -7.838  15.931  67.001  1.00  0.00    -0.210 NA 
HETATM   12  N   UNL     1     -11.607  18.196  67.933  1.00  0.00     0.939 NA 
HETATM   13  N   UNL     1     -10.458  17.414  63.654  1.00  0.00     5.315 NA 
HETATM   14  N   UNL     1     -11.328  13.777  68.810  1.00  0.00    -0.264 NA 
HETATM   15  N   UNL     1     -10.197  13.005  64.525  1.00  0.00    -0.341 NA 
ENDBRANCH   3   5
TORSDOF 1
ENDMDL
MODEL      233
REMARK 921   NORMALIZED FREE ENERGY PREDICTED BY IDOCK:   37.74 KCAL/MOL
REMARK 922        TOTAL FREE ENERGY PREDICTED BY IDOCK:   39.85 KCAL/MOL
REMARK 923 INTER-LIGAND FREE ENERGY PREDICTED BY IDOCK:   39.98 KCAL/MOL
REMARK 924 INTRA-LIGAND FREE ENERGY PREDICTED BY IDOCK:   -0.12 KCAL/MOL
REMARK 927      BINDING AFFINITY PREDICTED BY RF-SCORE:    0.00 PKD
ROOT
HETATM    1  O   UNL     1      -7.677  14.710  68.469  1.00  0.00    -0.113 OA 
HETATM    2  H   UNL     1      -7.390  15.030  67.621  1.00  0.00     0.000 HD 
HETATM    3  N   UNL     1      -7.079  14.983  69.464  1.00  0.00    -0.181 NA 
HETATM    4  H   UNL     1      -6.246  15.568  69.405  1.00  0.00     0.000 HD 
ENDROOT
BRANCH   3   5
HETATM    5 FE   UNL     1      -7.678  14.317  71.234  1.00  0.00     0.013 Fe 
HETATM    6  C   UNL     1      -6.581  15.742  72.175  1.00  0.00     3.360 C  
HETATM    7  C   UNL     1      -6.100  13.044  71.306  1.00  0.00     0.732 C  
HETATM    8  C   UNL     1      -8.782  12.891  70.311  1.00  0.00     4.843 C  
HETATM    9  C   UNL     1      -8.303  13.634  73.036  1.00  0.00    12.367 C  
HETATM   10  C   UNL     1      -9.257  15.583  71.166  1.00  0.00     2.861 C  
HETATM   11  N   UNL     1      -8.659  13.245  74.066  1.00  0.00    10.669 NA 
HETATM   12  N   UNL     1      -5.200  12.317  71.349  1.00  0.00    -0.313 NA 
HETATM   13  N   UNL     1      -9.412  12.075  69.785  1.00  0.00     1.656 NA 
HETATM   14  N   UNL     1      -5.955  16.554  72.711  1.00  0.00     2.341 NA 
HETATM   15  N   UNL     1     -10.159  16.307  71.127  1.00  0.00     1.743 NA 
ENDBRANCH   3   5
TORSDOF 1
ENDMDL
MODEL      234
REMARK 921   NORMALIZED FREE ENERGY PREDICTED BY IDOCK:   41.75 KCAL/MOL
REMARK 922        TOTAL FREE ENERGY PREDICTED BY IDOCK:   44.09 KCAL/MOL
REMARK 923 INTER-LIGAND FREE ENERGY PREDICTED BY IDOCK:   44.17 KCAL/MOL
REMARK 924 INTRA-LIGAND FREE ENERGY PREDICTED BY IDOCK:   -0.07 KCAL/MOL
REMARK 927      BINDING AFFINITY PREDICTED BY RF-SCORE:    0.00 PKD
ROOT
HETATM    1  O   UNL     1     -11.542  11.926  64.543  1.00  0.00    -0.322 OA 
HETATM    2  H   UNL     1     -12.196  12.588  64.347  1.00  0.00     0.000 HD 
HETATM    3  N   UNL     1     -11.785  10.765  64.422  1.00  0.00     0.809 NA 
HETATM    4  H   UNL     1     -12.710  10.477  64.104  1.00  0.00     0.000 HD 
ENDROOT
BRANCH   3   5
HETATM    5 FE   UNL     1     -10.419   9.385  64.829  1.00  0.00    -0.380 Fe 
HETATM    6  C   UNL     1     -11.543   8.685  66.368  1.00  0.00     4.222 C  
HETATM    7  C   UNL     1      -9.479  10.666  66.090  1.00  0.00    -0.179 C  
HETATM    8  C   UNL     1      -9.287  10.069  63.295  1.00  0.00    -0.256 C  
HETATM    9  C   UNL     1      -9.023   7.974  65.231  1.00  0.00     0.137 C  
HETATM   10  C   UNL     1     -11.352   8.104  63.569  1.00  0.00    17.923 C  
HETATM   11  N   UNL     1      -8.226   7.168  65.461  1.00  0.00    -0.135 NA 
HETATM   12  N   UNL     1      -8.941  11.395  66.810  1.00  0.00    -0.170 NA 
HETATM   13  N   UNL     1      -8.639  10.460  62.419  1.00  0.00    -0.186 NA 
HETATM   14  N   UNL     1     -12.184   8.286  67.244  1.00  0.00     5.160 NA 
HETATM   15  N   UNL     1     -11.885   7.371  62.849  1.00  0.00    17.545 NA 
ENDBRANCH   3   5
TORSDOF 1
ENDMDL
