MODEL        1
REMARK 921   NORMALIZED FREE ENERGY PREDICTED BY IDOCK:   -7.93 KCAL/MOL
REMARK 922        TOTAL FREE ENERGY PREDICTED BY IDOCK:   -8.83 KCAL/MOL
REMARK 923 INTER-LIGAND FREE ENERGY PREDICTED BY IDOCK:   -8.40 KCAL/MOL
REMARK 924 INTRA-LIGAND FREE ENERGY PREDICTED BY IDOCK:   -0.43 KCAL/MOL
REMARK 927      BINDING AFFINITY PREDICTED BY RF-SCORE:    0.00 PKD
ROOT
HETATM    1  O   UNL     1     -13.227   9.936  72.329  1.00  0.00    -0.431 OA 
HETATM    2  N   UNL     1     -12.268   9.513  71.670  1.00  0.00    -0.375 N  
HETATM    3  O   UNL     1     -11.757   8.393  71.805  1.00  0.00    -0.274 OA 
HETATM    4  C   UNL     1     -11.686  10.410  70.663  1.00  0.00    -0.351 A  
HETATM    5  C   UNL     1     -12.252  11.672  70.449  1.00  0.00    -0.434 A  
HETATM    6  C   UNL     1     -11.656  12.564  69.537  1.00  0.00    -0.348 A  
HETATM    7  C   UNL     1     -10.544  12.150  68.783  1.00  0.00    -0.201 A  
HETATM    8  N   UNL     1      -9.924  12.920  67.788  1.00  0.00    -0.224 N  
HETATM    9  C   UNL     1      -9.978  10.889  69.026  1.00  0.00    -0.206 A  
HETATM   10  C   UNL     1     -10.543  10.016  69.961  1.00  0.00    -0.344 A  
HETATM   11  H   UNL     1      -8.933  12.744  67.630  1.00  0.00     0.000 HD 
HETATM   12  C   UNL     1     -10.504  13.885  67.004  1.00  0.00    -0.278 C  
HETATM   13  C   UNL     1     -12.000  14.100  67.138  1.00  0.00    -0.426 C  
HETATM   14  O   UNL     1      -9.821  14.453  66.150  1.00  0.00    -0.293 OA 
HETATM   15  N   UNL     1     -12.315  14.677  68.438  1.00  0.00    -0.606 NA 
HETATM   16  C   UNL     1     -12.153  13.976  69.509  1.00  0.00    -0.347 C  
HETATM   17  H   UNL     1     -12.664  15.633  68.502  1.00  0.00     0.000 HD 
ENDROOT
BRANCH  16  18
HETATM   18  C   UNL     1     -12.468  14.658  70.812  1.00  0.00    -0.407 A  
HETATM   19  C   UNL     1     -13.801  14.726  71.240  1.00  0.00    -0.460 A  
HETATM   20  C   UNL     1     -14.123  15.361  72.440  1.00  0.00    -0.645 A  
HETATM   21  C   UNL     1     -13.117  15.934  73.218  1.00  0.00    -0.694 A  
HETATM   22  C   UNL     1     -11.792  15.885  72.792  1.00  0.00    -0.583 A  
HETATM   23  C   UNL     1     -11.467  15.260  71.587  1.00  0.00    -0.471 A  
ENDBRANCH  16  18
TORSDOF 1
ENDMDL
MODEL        2
REMARK 921   NORMALIZED FREE ENERGY PREDICTED BY IDOCK:   -7.55 KCAL/MOL
REMARK 922        TOTAL FREE ENERGY PREDICTED BY IDOCK:   -8.42 KCAL/MOL
REMARK 923 INTER-LIGAND FREE ENERGY PREDICTED BY IDOCK:   -8.54 KCAL/MOL
REMARK 924 INTRA-LIGAND FREE ENERGY PREDICTED BY IDOCK:    0.13 KCAL/MOL
REMARK 927      BINDING AFFINITY PREDICTED BY RF-SCORE:    0.00 PKD
ROOT
HETATM    1  O   UNL     1     -11.998  13.233  66.398  1.00  0.00    -0.384 OA 
HETATM    2  N   UNL     1     -11.471  14.314  66.692  1.00  0.00    -0.350 N  
HETATM    3  O   UNL     1     -10.857  15.040  65.897  1.00  0.00    -0.318 OA 
HETATM    4  C   UNL     1     -11.569  14.763  68.087  1.00  0.00    -0.332 A  
HETATM    5  C   UNL     1     -12.283  13.994  69.013  1.00  0.00    -0.280 A  
HETATM    6  C   UNL     1     -12.322  14.381  70.367  1.00  0.00    -0.406 A  
HETATM    7  C   UNL     1     -11.711  15.584  70.765  1.00  0.00    -0.362 A  
HETATM    8  N   UNL     1     -11.760  16.110  72.064  1.00  0.00    -0.500 N  
HETATM    9  C   UNL     1     -10.983  16.330  69.826  1.00  0.00    -0.354 A  
HETATM   10  C   UNL     1     -10.908  15.927  68.490  1.00  0.00    -0.298 A  
HETATM   11  H   UNL     1     -10.974  16.695  72.346  1.00  0.00     0.000 HD 
HETATM   12  C   UNL     1     -12.747  15.924  72.999  1.00  0.00    -0.507 C  
HETATM   13  C   UNL     1     -13.981  15.147  72.579  1.00  0.00    -0.486 C  
HETATM   14  O   UNL     1     -12.650  16.484  74.092  1.00  0.00    -0.668 OA 
HETATM   15  N   UNL     1     -13.646  13.747  72.354  1.00  0.00    -0.546 NA 
HETATM   16  C   UNL     1     -12.896  13.417  71.357  1.00  0.00    -0.333 C  
HETATM   17  H   UNL     1     -14.004  13.028  72.983  1.00  0.00     0.000 HD 
ENDROOT
BRANCH  16  18
HETATM   18  C   UNL     1     -12.571  11.955  71.217  1.00  0.00    -0.383 A  
HETATM   19  C   UNL     1     -13.239  11.028  72.027  1.00  0.00    -0.447 A  
HETATM   20  C   UNL     1     -12.950   9.667  71.925  1.00  0.00    -0.527 A  
HETATM   21  C   UNL     1     -11.991   9.224  71.015  1.00  0.00    -0.369 A  
HETATM   22  C   UNL     1     -11.310  10.141  70.217  1.00  0.00    -0.387 A  
HETATM   23  C   UNL     1     -11.589  11.504  70.324  1.00  0.00    -0.305 A  
ENDBRANCH  16  18
TORSDOF 1
ENDMDL
MODEL        3
REMARK 921   NORMALIZED FREE ENERGY PREDICTED BY IDOCK:   -7.28 KCAL/MOL
REMARK 922        TOTAL FREE ENERGY PREDICTED BY IDOCK:   -8.14 KCAL/MOL
REMARK 923 INTER-LIGAND FREE ENERGY PREDICTED BY IDOCK:   -7.69 KCAL/MOL
REMARK 924 INTRA-LIGAND FREE ENERGY PREDICTED BY IDOCK:   -0.45 KCAL/MOL
REMARK 927      BINDING AFFINITY PREDICTED BY RF-SCORE:    0.00 PKD
ROOT
HETATM    1  O   UNL     1     -11.698  16.156  70.786  1.00  0.00    -0.382 OA 
HETATM    2  N   UNL     1     -11.842  14.934  70.650  1.00  0.00    -0.282 N  
HETATM    3  O   UNL     1     -12.070  14.142  71.575  1.00  0.00    -0.314 OA 
HETATM    4  C   UNL     1     -11.720  14.380  69.296  1.00  0.00    -0.317 A  
HETATM    5  C   UNL     1     -11.498  15.239  68.213  1.00  0.00    -0.359 A  
HETATM    6  C   UNL     1     -11.309  14.710  66.922  1.00  0.00    -0.361 A  
HETATM    7  C   UNL     1     -11.427  13.324  66.713  1.00  0.00    -0.350 A  
HETATM    8  N   UNL     1     -11.345  12.697  65.462  1.00  0.00    -0.309 N  
HETATM    9  C   UNL     1     -11.629  12.477  67.814  1.00  0.00    -0.401 A  
HETATM   10  C   UNL     1     -11.777  12.996  69.103  1.00  0.00    -0.378 A  
HETATM   11  H   UNL     1     -11.010  11.734  65.458  1.00  0.00     0.000 HD 
HETATM   12  C   UNL     1     -11.663  13.236  64.240  1.00  0.00    -0.407 C  
HETATM   13  C   UNL     1     -12.263  14.629  64.217  1.00  0.00    -0.408 C  
HETATM   14  O   UNL     1     -11.560  12.536  63.232  1.00  0.00    -0.468 OA 
HETATM   15  N   UNL     1     -11.272  15.615  64.623  1.00  0.00    -0.646 NA 
HETATM   16  C   UNL     1     -10.849  15.639  65.842  1.00  0.00    -0.293 C  
HETATM   17  H   UNL     1     -10.912  16.287  63.946  1.00  0.00     0.000 HD 
ENDROOT
BRANCH  16  18
HETATM   18  C   UNL     1      -9.799  16.666  66.169  1.00  0.00    -0.340 A  
HETATM   19  C   UNL     1     -10.192  17.991  66.398  1.00  0.00    -0.393 A  
HETATM   20  C   UNL     1      -9.239  18.966  66.695  1.00  0.00    -0.343 A  
HETATM   21  C   UNL     1      -7.889  18.624  66.761  1.00  0.00    -0.258 A  
HETATM   22  C   UNL     1      -7.488  17.311  66.519  1.00  0.00    -0.315 A  
HETATM   23  C   UNL     1      -8.438  16.336  66.212  1.00  0.00    -0.369 A  
ENDBRANCH  16  18
TORSDOF 1
ENDMDL
MODEL        4
REMARK 921   NORMALIZED FREE ENERGY PREDICTED BY IDOCK:   -7.21 KCAL/MOL
REMARK 922        TOTAL FREE ENERGY PREDICTED BY IDOCK:   -8.06 KCAL/MOL
REMARK 923 INTER-LIGAND FREE ENERGY PREDICTED BY IDOCK:   -7.68 KCAL/MOL
REMARK 924 INTRA-LIGAND FREE ENERGY PREDICTED BY IDOCK:   -0.38 KCAL/MOL
REMARK 927      BINDING AFFINITY PREDICTED BY RF-SCORE:    0.00 PKD
ROOT
HETATM    1  O   UNL     1     -10.110  19.647  69.442  1.00  0.00    -0.390 OA 
HETATM    2  N   UNL     1     -10.153  19.430  68.225  1.00  0.00    -0.411 N  
HETATM    3  O   UNL     1     -10.053  20.299  67.347  1.00  0.00    -0.411 OA 
HETATM    4  C   UNL     1     -10.350  18.042  67.788  1.00  0.00    -0.393 A  
HETATM    5  C   UNL     1     -10.433  17.020  68.741  1.00  0.00    -0.347 A  
HETATM    6  C   UNL     1     -10.693  15.698  68.334  1.00  0.00    -0.271 A  
HETATM    7  C   UNL     1     -10.785  15.396  66.964  1.00  0.00    -0.321 A  
HETATM    8  N   UNL     1     -10.955  14.105  66.442  1.00  0.00    -0.307 N  
HETATM    9  C   UNL     1     -10.720  16.436  66.024  1.00  0.00    -0.194 A  
HETATM   10  C   UNL     1     -10.503  17.756  66.428  1.00  0.00    -0.297 A  
HETATM   11  H   UNL     1     -11.432  14.039  65.543  1.00  0.00     0.000 HD 
HETATM   12  C   UNL     1     -10.552  12.922  67.006  1.00  0.00    -0.252 C  
HETATM   13  C   UNL     1      -9.747  12.989  68.291  1.00  0.00    -0.221 C  
HETATM   14  O   UNL     1     -10.755  11.869  66.399  1.00  0.00    -0.246 OA 
HETATM   15  N   UNL     1     -10.580  13.465  69.387  1.00  0.00    -0.432 NA 
HETATM   16  C   UNL     1     -11.001  14.685  69.392  1.00  0.00    -0.257 C  
HETATM   17  H   UNL     1     -10.830  12.836  70.149  1.00  0.00     0.000 HD 
ENDROOT
BRANCH  16  18
HETATM   18  C   UNL     1     -11.884  15.085  70.542  1.00  0.00    -0.347 A  
HETATM   19  C   UNL     1     -11.293  15.548  71.725  1.00  0.00    -0.463 A  
HETATM   20  C   UNL     1     -12.088  15.918  72.811  1.00  0.00    -0.611 A  
HETATM   21  C   UNL     1     -13.477  15.823  72.723  1.00  0.00    -0.659 A  
HETATM   22  C   UNL     1     -14.072  15.348  71.556  1.00  0.00    -0.596 A  
HETATM   23  C   UNL     1     -13.279  14.967  70.471  1.00  0.00    -0.255 A  
ENDBRANCH  16  18
TORSDOF 1
ENDMDL
MODEL        5
REMARK 921   NORMALIZED FREE ENERGY PREDICTED BY IDOCK:   -7.21 KCAL/MOL
REMARK 922        TOTAL FREE ENERGY PREDICTED BY IDOCK:   -8.06 KCAL/MOL
REMARK 923 INTER-LIGAND FREE ENERGY PREDICTED BY IDOCK:   -7.67 KCAL/MOL
REMARK 924 INTRA-LIGAND FREE ENERGY PREDICTED BY IDOCK:   -0.39 KCAL/MOL
REMARK 927      BINDING AFFINITY PREDICTED BY RF-SCORE:    0.00 PKD
ROOT
HETATM    1  O   UNL     1     -10.042  18.782  68.865  1.00  0.00    -0.390 OA 
HETATM    2  N   UNL     1     -10.204  18.380  67.705  1.00  0.00    -0.366 N  
HETATM    3  O   UNL     1     -10.082  19.080  66.691  1.00  0.00    -0.339 OA 
HETATM    4  C   UNL     1     -10.580  16.973  67.519  1.00  0.00    -0.310 A  
HETATM    5  C   UNL     1     -10.695  16.132  68.633  1.00  0.00    -0.295 A  
HETATM    6  C   UNL     1     -11.124  14.802  68.469  1.00  0.00    -0.275 A  
HETATM    7  C   UNL     1     -11.356  14.299  67.176  1.00  0.00    -0.337 A  
HETATM    8  N   UNL     1     -11.702  12.970  66.888  1.00  0.00    -0.365 N  
HETATM    9  C   UNL     1     -11.256  15.161  66.074  1.00  0.00    -0.275 A  
HETATM   10  C   UNL     1     -10.869  16.494  66.237  1.00  0.00    -0.037 A  
HETATM   11  H   UNL     1     -12.252  12.818  66.044  1.00  0.00     0.000 HD 
HETATM   12  C   UNL     1     -11.382  11.853  67.617  1.00  0.00    -0.304 C  
HETATM   13  C   UNL     1     -10.476  12.028  68.821  1.00  0.00    -0.183 C  
HETATM   14  O   UNL     1     -11.743  10.748  67.208  1.00  0.00    -0.396 OA 
HETATM   15  N   UNL     1     -11.165  12.767  69.871  1.00  0.00    -0.483 NA 
HETATM   16  C   UNL     1     -11.453  14.013  69.698  1.00  0.00    -0.258 C  
HETATM   17  H   UNL     1     -11.419  12.301  70.741  1.00  0.00     0.000 HD 
ENDROOT
BRANCH  16  18
HETATM   18  C   UNL     1     -12.196  14.692  70.817  1.00  0.00    -0.394 A  
HETATM   19  C   UNL     1     -11.468  15.254  71.874  1.00  0.00    -0.504 A  
HETATM   20  C   UNL     1     -12.132  15.882  72.929  1.00  0.00    -0.612 A  
HETATM   21  C   UNL     1     -13.524  15.948  72.936  1.00  0.00    -0.637 A  
HETATM   22  C   UNL     1     -14.256  15.378  71.896  1.00  0.00    -0.640 A  
HETATM   23  C   UNL     1     -13.596  14.740  70.844  1.00  0.00    -0.273 A  
ENDBRANCH  16  18
TORSDOF 1
ENDMDL
MODEL        6
REMARK 921   NORMALIZED FREE ENERGY PREDICTED BY IDOCK:   -7.03 KCAL/MOL
REMARK 922        TOTAL FREE ENERGY PREDICTED BY IDOCK:   -7.88 KCAL/MOL
REMARK 923 INTER-LIGAND FREE ENERGY PREDICTED BY IDOCK:   -7.76 KCAL/MOL
REMARK 924 INTRA-LIGAND FREE ENERGY PREDICTED BY IDOCK:   -0.12 KCAL/MOL
REMARK 927      BINDING AFFINITY PREDICTED BY RF-SCORE:    0.00 PKD
ROOT
HETATM    1  O   UNL     1     -12.347  12.325  65.457  1.00  0.00    -0.602 OA 
HETATM    2  N   UNL     1     -11.808  13.439  65.477  1.00  0.00    -0.345 N  
HETATM    3  O   UNL     1     -11.370  14.031  64.481  1.00  0.00    -0.368 OA 
HETATM    4  C   UNL     1     -11.667  14.103  66.779  1.00  0.00    -0.410 A  
HETATM    5  C   UNL     1     -12.179  13.490  67.929  1.00  0.00    -0.168 A  
HETATM    6  C   UNL     1     -11.984  14.087  69.190  1.00  0.00    -0.400 A  
HETATM    7  C   UNL     1     -11.348  15.338  69.278  1.00  0.00    -0.298 A  
HETATM    8  N   UNL     1     -11.177  16.063  70.466  1.00  0.00    -0.370 N  
HETATM    9  C   UNL     1     -10.824  15.927  68.117  1.00  0.00    -0.317 A  
HETATM   10  C   UNL     1     -10.980  15.318  66.869  1.00  0.00    -0.315 A  
HETATM   11  H   UNL     1     -10.372  16.687  70.505  1.00  0.00     0.000 HD 
HETATM   12  C   UNL     1     -11.973  16.026  71.583  1.00  0.00    -0.499 C  
HETATM   13  C   UNL     1     -13.239  15.191  71.522  1.00  0.00    -0.429 C  
HETATM   14  O   UNL     1     -11.698  16.752  72.539  1.00  0.00    -0.421 OA 
HETATM   15  N   UNL     1     -12.908  13.774  71.460  1.00  0.00    -0.353 NA 
HETATM   16  C   UNL     1     -12.341  13.290  70.406  1.00  0.00    -0.295 C  
HETATM   17  H   UNL     1     -13.125  13.163  72.247  1.00  0.00     0.000 HD 
ENDROOT
BRANCH  16  18
HETATM   18  C   UNL     1     -12.002  11.825  70.438  1.00  0.00    -0.422 A  
HETATM   19  C   UNL     1     -12.762  10.969  71.245  1.00  0.00    -0.537 A  
HETATM   20  C   UNL     1     -12.464   9.606  71.300  1.00  0.00    -0.445 A  
HETATM   21  C   UNL     1     -11.405   9.093  70.553  1.00  0.00    -0.300 A  
HETATM   22  C   UNL     1     -10.634   9.941  69.761  1.00  0.00    -0.296 A  
HETATM   23  C   UNL     1     -10.922  11.306  69.711  1.00  0.00    -0.170 A  
ENDBRANCH  16  18
TORSDOF 1
ENDMDL
MODEL        7
REMARK 921   NORMALIZED FREE ENERGY PREDICTED BY IDOCK:   -7.02 KCAL/MOL
REMARK 922        TOTAL FREE ENERGY PREDICTED BY IDOCK:   -7.86 KCAL/MOL
REMARK 923 INTER-LIGAND FREE ENERGY PREDICTED BY IDOCK:   -7.39 KCAL/MOL
REMARK 924 INTRA-LIGAND FREE ENERGY PREDICTED BY IDOCK:   -0.48 KCAL/MOL
REMARK 927      BINDING AFFINITY PREDICTED BY RF-SCORE:    0.00 PKD
ROOT
HETATM    1  O   UNL     1     -12.749  16.091  72.152  1.00  0.00    -0.449 OA 
HETATM    2  N   UNL     1     -12.781  14.854  72.140  1.00  0.00    -0.310 N  
HETATM    3  O   UNL     1     -13.063  14.146  73.117  1.00  0.00    -0.547 OA 
HETATM    4  C   UNL     1     -12.447  14.176  70.882  1.00  0.00    -0.365 A  
HETATM    5  C   UNL     1     -12.156  14.935  69.742  1.00  0.00    -0.357 A  
HETATM    6  C   UNL     1     -11.766  14.293  68.551  1.00  0.00    -0.376 A  
HETATM    7  C   UNL     1     -11.751  12.888  68.489  1.00  0.00    -0.339 A  
HETATM    8  N   UNL     1     -11.463  12.145  67.335  1.00  0.00    -0.328 N  
HETATM    9  C   UNL     1     -12.026  12.145  69.647  1.00  0.00    -0.351 A  
HETATM   10  C   UNL     1     -12.374  12.781  70.842  1.00  0.00    -0.356 A  
HETATM   11  H   UNL     1     -11.059  11.220  67.480  1.00  0.00     0.000 HD 
HETATM   12  C   UNL     1     -11.665  12.523  66.031  1.00  0.00    -0.417 C  
HETATM   13  C   UNL     1     -12.361  13.848  65.779  1.00  0.00    -0.486 C  
HETATM   14  O   UNL     1     -11.382  11.735  65.128  1.00  0.00    -0.293 OA 
HETATM   15  N   UNL     1     -11.506  14.956  66.184  1.00  0.00    -0.316 NA 
HETATM   16  C   UNL     1     -11.244  15.143  67.434  1.00  0.00    -0.323 C  
HETATM   17  H   UNL     1     -11.116  15.583  65.482  1.00  0.00     0.000 HD 
ENDROOT
BRANCH  16  18
HETATM   18  C   UNL     1     -10.325  16.288  67.763  1.00  0.00    -0.287 A  
HETATM   19  C   UNL     1      -8.997  16.014  68.113  1.00  0.00    -0.183 A  
HETATM   20  C   UNL     1      -8.125  17.057  68.432  1.00  0.00    -0.245 A  
HETATM   21  C   UNL     1      -8.575  18.376  68.406  1.00  0.00    -0.345 A  
HETATM   22  C   UNL     1      -9.900  18.654  68.074  1.00  0.00    -0.378 A  
HETATM   23  C   UNL     1     -10.778  17.614  67.764  1.00  0.00    -0.336 A  
ENDBRANCH  16  18
TORSDOF 1
ENDMDL
MODEL        8
REMARK 921   NORMALIZED FREE ENERGY PREDICTED BY IDOCK:   -7.01 KCAL/MOL
REMARK 922        TOTAL FREE ENERGY PREDICTED BY IDOCK:   -7.85 KCAL/MOL
REMARK 923 INTER-LIGAND FREE ENERGY PREDICTED BY IDOCK:   -7.87 KCAL/MOL
REMARK 924 INTRA-LIGAND FREE ENERGY PREDICTED BY IDOCK:    0.02 KCAL/MOL
REMARK 927      BINDING AFFINITY PREDICTED BY RF-SCORE:    0.00 PKD
ROOT
HETATM    1  O   UNL     1     -12.277  12.115  65.563  1.00  0.00    -0.549 OA 
HETATM    2  N   UNL     1     -11.672  13.195  65.580  1.00  0.00    -0.340 N  
HETATM    3  O   UNL     1     -11.149  13.728  64.591  1.00  0.00    -0.357 OA 
HETATM    4  C   UNL     1     -11.555  13.890  66.868  1.00  0.00    -0.378 A  
HETATM    5  C   UNL     1     -12.160  13.345  68.007  1.00  0.00    -0.283 A  
HETATM    6  C   UNL     1     -11.992  13.967  69.258  1.00  0.00    -0.396 A  
HETATM    7  C   UNL     1     -11.286  15.180  69.344  1.00  0.00    -0.283 A  
HETATM    8  N   UNL     1     -11.130  15.930  70.519  1.00  0.00    -0.354 N  
HETATM    9  C   UNL     1     -10.669  15.700  68.196  1.00  0.00    -0.287 A  
HETATM   10  C   UNL     1     -10.799  15.063  66.959  1.00  0.00    -0.311 A  
HETATM   11  H   UNL     1     -10.290  16.505  70.582  1.00  0.00     0.000 HD 
HETATM   12  C   UNL     1     -11.982  15.976  71.594  1.00  0.00    -0.499 C  
HETATM   13  C   UNL     1     -13.291  15.217  71.491  1.00  0.00    -0.473 C  
HETATM   14  O   UNL     1     -11.709  16.714  72.542  1.00  0.00    -0.485 OA 
HETATM   15  N   UNL     1     -13.046  13.781  71.485  1.00  0.00    -0.353 NA 
HETATM   16  C   UNL     1     -12.458  13.232  70.476  1.00  0.00    -0.260 C  
HETATM   17  H   UNL     1     -13.339  13.210  72.278  1.00  0.00     0.000 HD 
ENDROOT
BRANCH  16  18
HETATM   18  C   UNL     1     -12.212  11.751  70.567  1.00  0.00    -0.438 A  
HETATM   19  C   UNL     1     -11.200  11.181  69.784  1.00  0.00    -0.318 A  
HETATM   20  C   UNL     1     -10.956   9.808  69.841  1.00  0.00    -0.299 A  
HETATM   21  C   UNL     1     -11.723   8.997  70.677  1.00  0.00    -0.237 A  
HETATM   22  C   UNL     1     -12.742   9.555  71.447  1.00  0.00    -0.445 A  
HETATM   23  C   UNL     1     -12.996  10.926  71.384  1.00  0.00    -0.527 A  
ENDBRANCH  16  18
TORSDOF 1
ENDMDL
MODEL        9
REMARK 921   NORMALIZED FREE ENERGY PREDICTED BY IDOCK:   -6.97 KCAL/MOL
REMARK 922        TOTAL FREE ENERGY PREDICTED BY IDOCK:   -7.80 KCAL/MOL
REMARK 923 INTER-LIGAND FREE ENERGY PREDICTED BY IDOCK:   -7.33 KCAL/MOL
REMARK 924 INTRA-LIGAND FREE ENERGY PREDICTED BY IDOCK:   -0.47 KCAL/MOL
REMARK 927      BINDING AFFINITY PREDICTED BY RF-SCORE:    0.00 PKD
ROOT
HETATM    1  O   UNL     1     -12.238  10.550  70.165  1.00  0.00    -0.292 OA 
HETATM    2  N   UNL     1     -12.581  11.465  70.924  1.00  0.00    -0.371 N  
HETATM    3  O   UNL     1     -13.232  11.311  71.967  1.00  0.00    -0.506 OA 
HETATM    4  C   UNL     1     -12.198  12.834  70.557  1.00  0.00    -0.307 A  
HETATM    5  C   UNL     1     -11.430  13.054  69.407  1.00  0.00    -0.323 A  
HETATM    6  C   UNL     1     -11.120  14.369  69.010  1.00  0.00    -0.282 A  
HETATM    7  C   UNL     1     -11.512  15.451  69.818  1.00  0.00    -0.324 A  
HETATM    8  N   UNL     1     -11.185  16.792  69.566  1.00  0.00    -0.296 N  
HETATM    9  C   UNL     1     -12.298  15.213  70.955  1.00  0.00    -0.408 A  
HETATM   10  C   UNL     1     -12.642  13.911  71.330  1.00  0.00    -0.450 A  
HETATM   11  H   UNL     1     -11.839  17.491  69.916  1.00  0.00     0.000 HD 
HETATM   12  C   UNL     1     -10.082  17.267  68.903  1.00  0.00    -0.331 C  
HETATM   13  C   UNL     1      -9.034  16.262  68.462  1.00  0.00    -0.219 C  
HETATM   14  O   UNL     1      -9.928  18.485  68.792  1.00  0.00    -0.374 OA 
HETATM   15  N   UNL     1      -9.560  15.412  67.402  1.00  0.00    -0.209 NA 
HETATM   16  C   UNL     1     -10.500  14.567  67.662  1.00  0.00    -0.246 C  
HETATM   17  H   UNL     1      -9.186  15.485  66.456  1.00  0.00     0.000 HD 
ENDROOT
BRANCH  16  18
HETATM   18  C   UNL     1     -11.010  13.754  66.504  1.00  0.00    -0.299 A  
HETATM   19  C   UNL     1     -10.122  12.914  65.819  1.00  0.00    -0.294 A  
HETATM   20  C   UNL     1     -10.566  12.155  64.735  1.00  0.00    -0.335 A  
HETATM   21  C   UNL     1     -11.898  12.233  64.328  1.00  0.00    -0.482 A  
HETATM   22  C   UNL     1     -12.783  13.078  64.994  1.00  0.00    -0.475 A  
HETATM   23  C   UNL     1     -12.340  13.847  66.072  1.00  0.00    -0.511 A  
ENDBRANCH  16  18
TORSDOF 1
ENDMDL
MODEL       10
REMARK 921   NORMALIZED FREE ENERGY PREDICTED BY IDOCK:   -6.94 KCAL/MOL
REMARK 922        TOTAL FREE ENERGY PREDICTED BY IDOCK:   -7.78 KCAL/MOL
REMARK 923 INTER-LIGAND FREE ENERGY PREDICTED BY IDOCK:   -7.69 KCAL/MOL
REMARK 924 INTRA-LIGAND FREE ENERGY PREDICTED BY IDOCK:   -0.08 KCAL/MOL
REMARK 927      BINDING AFFINITY PREDICTED BY RF-SCORE:    0.00 PKD
ROOT
HETATM    1  O   UNL     1      -8.496  16.524  68.837  1.00  0.00    -0.232 OA 
HETATM    2  N   UNL     1      -8.865  17.025  67.767  1.00  0.00    -0.220 N  
HETATM    3  O   UNL     1      -8.556  18.159  67.374  1.00  0.00    -0.241 OA 
HETATM    4  C   UNL     1      -9.742  16.222  66.905  1.00  0.00    -0.238 A  
HETATM    5  C   UNL     1     -10.088  14.921  67.290  1.00  0.00    -0.235 A  
HETATM    6  C   UNL     1     -10.985  14.171  66.505  1.00  0.00    -0.309 A  
HETATM    7  C   UNL     1     -11.463  14.703  65.294  1.00  0.00    -0.361 A  
HETATM    8  N   UNL     1     -12.289  14.015  64.393  1.00  0.00    -0.627 N  
HETATM    9  C   UNL     1     -11.121  16.016  64.936  1.00  0.00    -0.381 A  
HETATM   10  C   UNL     1     -10.263  16.778  65.734  1.00  0.00    -0.311 A  
HETATM   11  H   UNL     1     -12.907  14.586  63.818  1.00  0.00     0.000 HD 
HETATM   12  C   UNL     1     -12.358  12.658  64.199  1.00  0.00    -0.436 C  
HETATM   13  C   UNL     1     -11.378  11.785  64.961  1.00  0.00    -0.225 C  
HETATM   14  O   UNL     1     -13.123  12.214  63.342  1.00  0.00    -0.752 OA 
HETATM   15  N   UNL     1     -11.683  11.804  66.385  1.00  0.00    -0.503 NA 
HETATM   16  C   UNL     1     -11.504  12.885  67.067  1.00  0.00    -0.339 C  
HETATM   17  H   UNL     1     -12.036  10.964  66.844  1.00  0.00     0.000 HD 
ENDROOT
BRANCH  16  18
HETATM   18  C   UNL     1     -11.876  12.829  68.524  1.00  0.00    -0.345 A  
HETATM   19  C   UNL     1     -11.883  11.590  69.177  1.00  0.00    -0.406 A  
HETATM   20  C   UNL     1     -12.233  11.507  70.526  1.00  0.00    -0.469 A  
HETATM   21  C   UNL     1     -12.580  12.661  71.227  1.00  0.00    -0.339 A  
HETATM   22  C   UNL     1     -12.591  13.895  70.581  1.00  0.00    -0.405 A  
HETATM   23  C   UNL     1     -12.252  13.980  69.229  1.00  0.00    -0.319 A  
ENDBRANCH  16  18
TORSDOF 1
ENDMDL
MODEL       11
REMARK 921   NORMALIZED FREE ENERGY PREDICTED BY IDOCK:   -6.87 KCAL/MOL
REMARK 922        TOTAL FREE ENERGY PREDICTED BY IDOCK:   -7.70 KCAL/MOL
REMARK 923 INTER-LIGAND FREE ENERGY PREDICTED BY IDOCK:   -7.21 KCAL/MOL
REMARK 924 INTRA-LIGAND FREE ENERGY PREDICTED BY IDOCK:   -0.49 KCAL/MOL
REMARK 927      BINDING AFFINITY PREDICTED BY RF-SCORE:    0.00 PKD
ROOT
HETATM    1  O   UNL     1     -11.780  16.345  63.708  1.00  0.00    -1.049 OA 
HETATM    2  N   UNL     1     -11.922  15.243  64.253  1.00  0.00    -0.341 N  
HETATM    3  O   UNL     1     -12.775  14.402  63.936  1.00  0.00    -0.771 OA 
HETATM    4  C   UNL     1     -11.022  14.914  65.366  1.00  0.00    -0.364 A  
HETATM    5  C   UNL     1     -10.019  15.817  65.738  1.00  0.00    -0.389 A  
HETATM    6  C   UNL     1      -9.199  15.540  66.848  1.00  0.00    -0.257 A  
HETATM    7  C   UNL     1      -9.338  14.317  67.528  1.00  0.00    -0.199 A  
HETATM    8  N   UNL     1      -8.522  13.899  68.590  1.00  0.00    -0.296 N  
HETATM    9  C   UNL     1     -10.362  13.433  67.155  1.00  0.00    -0.246 A  
HETATM   10  C   UNL     1     -11.204  13.724  66.078  1.00  0.00    -0.307 A  
HETATM   11  H   UNL     1      -8.946  13.262  69.264  1.00  0.00     0.000 HD 
HETATM   12  C   UNL     1      -7.216  14.251  68.822  1.00  0.00    -0.129 C  
HETATM   13  C   UNL     1      -6.521  15.111  67.784  1.00  0.00    -0.161 C  
HETATM   14  O   UNL     1      -6.630  13.769  69.792  1.00  0.00    -0.111 OA 
HETATM   15  N   UNL     1      -7.095  16.450  67.768  1.00  0.00    -0.126 NA 
HETATM   16  C   UNL     1      -8.301  16.629  67.347  1.00  0.00    -0.173 C  
HETATM   17  H   UNL     1      -6.543  17.246  68.088  1.00  0.00     0.000 HD 
ENDROOT
BRANCH  16  18
HETATM   18  C   UNL     1      -8.829  18.036  67.396  1.00  0.00    -0.245 A  
HETATM   19  C   UNL     1      -8.232  19.015  66.591  1.00  0.00    -0.301 A  
HETATM   20  C   UNL     1      -8.695  20.331  66.623  1.00  0.00    -0.318 A  
HETATM   21  C   UNL     1      -9.754  20.678  67.462  1.00  0.00    -0.509 A  
HETATM   22  C   UNL     1     -10.342  19.713  68.278  1.00  0.00    -0.539 A  
HETATM   23  C   UNL     1      -9.875  18.398  68.256  1.00  0.00    -0.383 A  
ENDBRANCH  16  18
TORSDOF 1
ENDMDL
MODEL       12
REMARK 921   NORMALIZED FREE ENERGY PREDICTED BY IDOCK:   -6.81 KCAL/MOL
REMARK 922        TOTAL FREE ENERGY PREDICTED BY IDOCK:   -7.64 KCAL/MOL
REMARK 923 INTER-LIGAND FREE ENERGY PREDICTED BY IDOCK:   -7.23 KCAL/MOL
REMARK 924 INTRA-LIGAND FREE ENERGY PREDICTED BY IDOCK:   -0.41 KCAL/MOL
REMARK 927      BINDING AFFINITY PREDICTED BY RF-SCORE:    0.00 PKD
ROOT
HETATM    1  O   UNL     1      -7.011  14.398  69.609  1.00  0.00    -0.138 OA 
HETATM    2  N   UNL     1      -7.015  15.191  68.659  1.00  0.00    -0.109 N  
HETATM    3  O   UNL     1      -6.184  16.094  68.489  1.00  0.00    -0.112 OA 
HETATM    4  C   UNL     1      -8.090  15.060  67.667  1.00  0.00    -0.169 A  
HETATM    5  C   UNL     1      -9.031  14.032  67.797  1.00  0.00    -0.186 A  
HETATM    6  C   UNL     1     -10.105  13.943  66.891  1.00  0.00    -0.260 A  
HETATM    7  C   UNL     1     -10.179  14.839  65.809  1.00  0.00    -0.338 A  
HETATM    8  N   UNL     1     -11.153  14.791  64.800  1.00  0.00    -0.514 N  
HETATM    9  C   UNL     1      -9.239  15.876  65.707  1.00  0.00    -0.241 A  
HETATM   10  C   UNL     1      -8.194  15.991  66.629  1.00  0.00    -0.324 A  
HETATM   11  H   UNL     1     -11.385  15.676  64.352  1.00  0.00     0.000 HD 
HETATM   12  C   UNL     1     -11.827  13.684  64.350  1.00  0.00    -0.424 C  
HETATM   13  C   UNL     1     -11.432  12.335  64.920  1.00  0.00    -0.332 C  
HETATM   14  O   UNL     1     -12.637  13.810  63.430  1.00  0.00    -0.842 OA 
HETATM   15  N   UNL     1     -11.810  12.247  66.324  1.00  0.00    -0.581 NA 
HETATM   16  C   UNL     1     -11.207  12.978  67.200  1.00  0.00    -0.286 C  
HETATM   17  H   UNL     1     -12.549  11.608  66.615  1.00  0.00     0.000 HD 
ENDROOT
BRANCH  16  18
HETATM   18  C   UNL     1     -11.681  12.852  68.621  1.00  0.00    -0.359 A  
HETATM   19  C   UNL     1     -11.777  11.578  69.196  1.00  0.00    -0.395 A  
HETATM   20  C   UNL     1     -12.223  11.430  70.510  1.00  0.00    -0.478 A  
HETATM   21  C   UNL     1     -12.579  12.554  71.256  1.00  0.00    -0.332 A  
HETATM   22  C   UNL     1     -12.501  13.823  70.686  1.00  0.00    -0.429 A  
HETATM   23  C   UNL     1     -12.066  13.974  69.369  1.00  0.00    -0.386 A  
ENDBRANCH  16  18
TORSDOF 1
ENDMDL
MODEL       13
REMARK 921   NORMALIZED FREE ENERGY PREDICTED BY IDOCK:   -6.81 KCAL/MOL
REMARK 922        TOTAL FREE ENERGY PREDICTED BY IDOCK:   -7.64 KCAL/MOL
REMARK 923 INTER-LIGAND FREE ENERGY PREDICTED BY IDOCK:   -7.20 KCAL/MOL
REMARK 924 INTRA-LIGAND FREE ENERGY PREDICTED BY IDOCK:   -0.44 KCAL/MOL
REMARK 927      BINDING AFFINITY PREDICTED BY RF-SCORE:    0.00 PKD
ROOT
HETATM    1  O   UNL     1     -11.697  11.068  69.365  1.00  0.00    -0.269 OA 
HETATM    2  N   UNL     1     -12.020  12.110  69.950  1.00  0.00    -0.325 N  
HETATM    3  O   UNL     1     -12.622  12.156  71.032  1.00  0.00    -0.362 OA 
HETATM    4  C   UNL     1     -11.676  13.385  69.308  1.00  0.00    -0.330 A  
HETATM    5  C   UNL     1     -10.965  13.385  68.102  1.00  0.00    -0.277 A  
HETATM    6  C   UNL     1     -10.694  14.600  67.446  1.00  0.00    -0.280 A  
HETATM    7  C   UNL     1     -11.067  15.816  68.047  1.00  0.00    -0.337 A  
HETATM    8  N   UNL     1     -10.774  17.085  67.527  1.00  0.00    -0.307 N  
HETATM    9  C   UNL     1     -11.798  15.795  69.245  1.00  0.00    -0.358 A  
HETATM   10  C   UNL     1     -12.104  14.588  69.879  1.00  0.00    -0.389 A  
HETATM   11  H   UNL     1     -11.423  17.833  67.765  1.00  0.00     0.000 HD 
HETATM   12  C   UNL     1      -9.710  17.431  66.733  1.00  0.00    -0.290 C  
HETATM   13  C   UNL     1      -8.666  16.368  66.446  1.00  0.00    -0.319 C  
HETATM   14  O   UNL     1      -9.581  18.605  66.383  1.00  0.00    -0.322 OA 
HETATM   15  N   UNL     1      -9.225  15.325  65.595  1.00  0.00    -0.391 NA 
HETATM   16  C   UNL     1     -10.139  14.539  66.056  1.00  0.00    -0.318 C  
HETATM   17  H   UNL     1      -8.895  15.216  64.637  1.00  0.00     0.000 HD 
ENDROOT
BRANCH  16  18
HETATM   18  C   UNL     1     -10.687  13.514  65.102  1.00  0.00    -0.349 A  
HETATM   19  C   UNL     1     -11.895  13.775  64.443  1.00  0.00    -0.458 A  
HETATM   20  C   UNL     1     -12.431  12.837  63.559  1.00  0.00    -0.474 A  
HETATM   21  C   UNL     1     -11.766  11.634  63.331  1.00  0.00    -0.325 A  
HETATM   22  C   UNL     1     -10.571  11.359  63.995  1.00  0.00    -0.444 A  
HETATM   23  C   UNL     1     -10.038  12.290  64.888  1.00  0.00    -0.274 A  
ENDBRANCH  16  18
TORSDOF 1
ENDMDL
MODEL       14
REMARK 921   NORMALIZED FREE ENERGY PREDICTED BY IDOCK:   -6.78 KCAL/MOL
REMARK 922        TOTAL FREE ENERGY PREDICTED BY IDOCK:   -7.61 KCAL/MOL
REMARK 923 INTER-LIGAND FREE ENERGY PREDICTED BY IDOCK:   -7.13 KCAL/MOL
REMARK 924 INTRA-LIGAND FREE ENERGY PREDICTED BY IDOCK:   -0.48 KCAL/MOL
REMARK 927      BINDING AFFINITY PREDICTED BY RF-SCORE:    0.00 PKD
ROOT
HETATM    1  O   UNL     1     -12.541  14.466  70.234  1.00  0.00    -0.345 OA 
HETATM    2  N   UNL     1     -12.363  13.245  70.139  1.00  0.00    -0.276 N  
HETATM    3  O   UNL     1     -12.550  12.431  71.054  1.00  0.00    -0.360 OA 
HETATM    4  C   UNL     1     -11.884  12.724  68.853  1.00  0.00    -0.308 A  
HETATM    5  C   UNL     1     -11.692  13.601  67.778  1.00  0.00    -0.397 A  
HETATM    6  C   UNL     1     -11.166  13.121  66.564  1.00  0.00    -0.339 A  
HETATM    7  C   UNL     1     -10.913  11.746  66.410  1.00  0.00    -0.294 A  
HETATM    8  N   UNL     1     -10.471  11.146  65.221  1.00  0.00    -0.272 N  
HETATM    9  C   UNL     1     -11.091  10.886  67.504  1.00  0.00    -0.375 A  
HETATM   10  C   UNL     1     -11.575  11.367  68.724  1.00  0.00    -0.378 A  
HETATM   11  H   UNL     1      -9.921  10.293  65.321  1.00  0.00     0.000 HD 
HETATM   12  C   UNL     1     -10.696  11.578  63.939  1.00  0.00    -0.395 C  
HETATM   13  C   UNL     1     -11.599  12.783  63.747  1.00  0.00    -0.481 C  
HETATM   14  O   UNL     1     -10.259  10.915  62.998  1.00  0.00    -0.292 OA 
HETATM   15  N   UNL     1     -10.955  13.985  64.259  1.00  0.00    -0.598 NA 
HETATM   16  C   UNL     1     -10.764  14.123  65.527  1.00  0.00    -0.324 C  
HETATM   17  H   UNL     1     -10.656  14.718  63.616  1.00  0.00     0.000 HD 
ENDROOT
BRANCH  16  18
HETATM   18  C   UNL     1     -10.061  15.378  65.968  1.00  0.00    -0.346 A  
HETATM   19  C   UNL     1      -8.787  15.278  66.543  1.00  0.00    -0.335 A  
HETATM   20  C   UNL     1      -8.116  16.426  66.969  1.00  0.00    -0.235 A  
HETATM   21  C   UNL     1      -8.714  17.677  66.826  1.00  0.00    -0.277 A  
HETATM   22  C   UNL     1      -9.988  17.783  66.270  1.00  0.00    -0.322 A  
HETATM   23  C   UNL     1     -10.666  16.637  65.853  1.00  0.00    -0.179 A  
ENDBRANCH  16  18
TORSDOF 1
ENDMDL
MODEL       15
REMARK 921   NORMALIZED FREE ENERGY PREDICTED BY IDOCK:   -6.78 KCAL/MOL
REMARK 922        TOTAL FREE ENERGY PREDICTED BY IDOCK:   -7.61 KCAL/MOL
REMARK 923 INTER-LIGAND FREE ENERGY PREDICTED BY IDOCK:   -7.30 KCAL/MOL
REMARK 924 INTRA-LIGAND FREE ENERGY PREDICTED BY IDOCK:   -0.31 KCAL/MOL
REMARK 927      BINDING AFFINITY PREDICTED BY RF-SCORE:    0.00 PKD
ROOT
HETATM    1  O   UNL     1     -10.859  17.278  65.894  1.00  0.00    -0.184 OA 
HETATM    2  N   UNL     1     -11.147  16.426  65.044  1.00  0.00    -0.294 N  
HETATM    3  O   UNL     1     -11.437  16.673  63.865  1.00  0.00    -1.186 OA 
HETATM    4  C   UNL     1     -11.161  15.020  65.467  1.00  0.00    -0.357 A  
HETATM    5  C   UNL     1     -10.806  14.688  66.780  1.00  0.00    -0.312 A  
HETATM    6  C   UNL     1     -10.885  13.351  67.213  1.00  0.00    -0.278 A  
HETATM    7  C   UNL     1     -11.240  12.342  66.299  1.00  0.00    -0.317 A  
HETATM    8  N   UNL     1     -11.268  10.972  66.596  1.00  0.00    -0.150 N  
HETATM    9  C   UNL     1     -11.612  12.697  64.993  1.00  0.00    -0.384 A  
HETATM   10  C   UNL     1     -11.574  14.029  64.572  1.00  0.00    -0.403 A  
HETATM   11  H   UNL     1     -11.922  10.405  66.058  1.00  0.00     0.000 HD 
HETATM   12  C   UNL     1     -10.512  10.309  67.530  1.00  0.00    -0.244 C  
HETATM   13  C   UNL     1      -9.454  11.101  68.274  1.00  0.00    -0.182 C  
HETATM   14  O   UNL     1     -10.639   9.089  67.647  1.00  0.00    -0.257 OA 
HETATM   15  N   UNL     1     -10.078  12.070  69.166  1.00  0.00    -0.411 NA 
HETATM   16  C   UNL     1     -10.721  13.075  68.675  1.00  0.00    -0.248 C  
HETATM   17  H   UNL     1     -10.007  11.954  70.176  1.00  0.00     0.000 HD 
ENDROOT
BRANCH  16  18
HETATM   18  C   UNL     1     -11.365  14.007  69.665  1.00  0.00    -0.270 A  
HETATM   19  C   UNL     1     -12.644  13.705  70.152  1.00  0.00    -0.215 A  
HETATM   20  C   UNL     1     -13.269  14.557  71.064  1.00  0.00    -0.414 A  
HETATM   21  C   UNL     1     -12.623  15.716  71.491  1.00  0.00    -0.511 A  
HETATM   22  C   UNL     1     -11.358  16.032  70.999  1.00  0.00    -0.423 A  
HETATM   23  C   UNL     1     -10.734  15.188  70.079  1.00  0.00    -0.259 A  
ENDBRANCH  16  18
TORSDOF 1
ENDMDL
MODEL       16
REMARK 921   NORMALIZED FREE ENERGY PREDICTED BY IDOCK:   -6.67 KCAL/MOL
REMARK 922        TOTAL FREE ENERGY PREDICTED BY IDOCK:   -7.49 KCAL/MOL
REMARK 923 INTER-LIGAND FREE ENERGY PREDICTED BY IDOCK:   -7.14 KCAL/MOL
REMARK 924 INTRA-LIGAND FREE ENERGY PREDICTED BY IDOCK:   -0.35 KCAL/MOL
REMARK 927      BINDING AFFINITY PREDICTED BY RF-SCORE:    0.00 PKD
ROOT
HETATM    1  O   UNL     1     -13.659  13.397  65.516  1.00  0.00    -0.310 OA 
HETATM    2  N   UNL     1     -12.566  13.566  64.960  1.00  0.00    -0.412 N  
HETATM    3  O   UNL     1     -12.260  13.111  63.849  1.00  0.00    -0.503 OA 
HETATM    4  C   UNL     1     -11.553  14.353  65.675  1.00  0.00    -0.347 A  
HETATM    5  C   UNL     1     -11.864  14.918  66.918  1.00  0.00    -0.202 A  
HETATM    6  C   UNL     1     -10.876  15.614  67.641  1.00  0.00    -0.307 A  
HETATM    7  C   UNL     1      -9.605  15.809  67.073  1.00  0.00    -0.226 A  
HETATM    8  N   UNL     1      -8.575  16.556  67.663  1.00  0.00    -0.181 N  
HETATM    9  C   UNL     1      -9.305  15.217  65.836  1.00  0.00    -0.308 A  
HETATM   10  C   UNL     1     -10.271  14.491  65.134  1.00  0.00    -0.420 A  
HETATM   11  H   UNL     1      -7.622  16.285  67.421  1.00  0.00     0.000 HD 
HETATM   12  C   UNL     1      -8.707  17.612  68.529  1.00  0.00    -0.285 C  
HETATM   13  C   UNL     1     -10.108  18.110  68.828  1.00  0.00    -0.376 C  
HETATM   14  O   UNL     1      -7.694  18.182  68.937  1.00  0.00    -0.276 OA 
HETATM   15  N   UNL     1     -10.846  17.119  69.600  1.00  0.00    -0.325 NA 
HETATM   16  C   UNL     1     -11.182  15.999  69.055  1.00  0.00    -0.347 C  
HETATM   17  H   UNL     1     -11.096  17.309  70.570  1.00  0.00     0.000 HD 
ENDROOT
BRANCH  16  18
HETATM   18  C   UNL     1     -11.910  15.017  69.931  1.00  0.00    -0.362 A  
HETATM   19  C   UNL     1     -12.960  15.475  70.739  1.00  0.00    -0.490 A  
HETATM   20  C   UNL     1     -13.647  14.587  71.569  1.00  0.00    -0.465 A  
HETATM   21  C   UNL     1     -13.288  13.241  71.599  1.00  0.00    -0.406 A  
HETATM   22  C   UNL     1     -12.235  12.781  70.811  1.00  0.00    -0.338 A  
HETATM   23  C   UNL     1     -11.538  13.667  69.988  1.00  0.00    -0.250 A  
ENDBRANCH  16  18
TORSDOF 1
ENDMDL
MODEL       17
REMARK 921   NORMALIZED FREE ENERGY PREDICTED BY IDOCK:   -6.60 KCAL/MOL
REMARK 922        TOTAL FREE ENERGY PREDICTED BY IDOCK:   -7.42 KCAL/MOL
REMARK 923 INTER-LIGAND FREE ENERGY PREDICTED BY IDOCK:   -6.97 KCAL/MOL
REMARK 924 INTRA-LIGAND FREE ENERGY PREDICTED BY IDOCK:   -0.45 KCAL/MOL
REMARK 927      BINDING AFFINITY PREDICTED BY RF-SCORE:    0.00 PKD
ROOT
HETATM    1  O   UNL     1      -9.779   9.511  68.294  1.00  0.00    -0.143 OA 
HETATM    2  N   UNL     1     -10.552   9.328  69.243  1.00  0.00    -0.224 N  
HETATM    3  O   UNL     1     -10.813   8.224  69.739  1.00  0.00    -0.241 OA 
HETATM    4  C   UNL     1     -11.220  10.505  69.813  1.00  0.00    -0.298 A  
HETATM    5  C   UNL     1     -10.929  11.779  69.309  1.00  0.00    -0.231 A  
HETATM    6  C   UNL     1     -11.617  12.904  69.803  1.00  0.00    -0.288 A  
HETATM    7  C   UNL     1     -12.533  12.752  70.859  1.00  0.00    -0.283 A  
HETATM    8  N   UNL     1     -13.209  13.810  71.485  1.00  0.00    -0.349 N  
HETATM    9  C   UNL     1     -12.826  11.466  71.337  1.00  0.00    -0.502 A  
HETATM   10  C   UNL     1     -12.174  10.342  70.821  1.00  0.00    -0.457 A  
HETATM   11  H   UNL     1     -14.117  13.589  71.893  1.00  0.00     0.000 HD 
HETATM   12  C   UNL     1     -12.785  15.109  71.609  1.00  0.00    -0.356 C  
HETATM   13  C   UNL     1     -11.394  15.449  71.109  1.00  0.00    -0.378 C  
HETATM   14  O   UNL     1     -13.491  15.914  72.218  1.00  0.00    -0.451 OA 
HETATM   15  N   UNL     1     -11.340  15.355  69.656  1.00  0.00    -0.282 NA 
HETATM   16  C   UNL     1     -11.445  14.204  69.081  1.00  0.00    -0.296 C  
HETATM   17  H   UNL     1     -11.220  16.197  69.093  1.00  0.00     0.000 HD 
ENDROOT
BRANCH  16  18
HETATM   18  C   UNL     1     -11.415  14.200  67.577  1.00  0.00    -0.365 A  
HETATM   19  C   UNL     1     -10.313  14.757  66.917  1.00  0.00    -0.267 A  
HETATM   20  C   UNL     1     -10.263  14.774  65.522  1.00  0.00    -0.400 A  
HETATM   21  C   UNL     1     -11.315  14.239  64.780  1.00  0.00    -0.382 A  
HETATM   22  C   UNL     1     -12.422  13.697  65.429  1.00  0.00    -0.537 A  
HETATM   23  C   UNL     1     -12.481  13.687  66.824  1.00  0.00    -0.241 A  
ENDBRANCH  16  18
TORSDOF 1
ENDMDL
MODEL       18
REMARK 921   NORMALIZED FREE ENERGY PREDICTED BY IDOCK:   -6.58 KCAL/MOL
REMARK 922        TOTAL FREE ENERGY PREDICTED BY IDOCK:   -7.40 KCAL/MOL
REMARK 923 INTER-LIGAND FREE ENERGY PREDICTED BY IDOCK:   -7.28 KCAL/MOL
REMARK 924 INTRA-LIGAND FREE ENERGY PREDICTED BY IDOCK:   -0.12 KCAL/MOL
REMARK 927      BINDING AFFINITY PREDICTED BY RF-SCORE:    0.00 PKD
ROOT
HETATM    1  O   UNL     1     -10.104   9.545  69.048  1.00  0.00    -0.179 OA 
HETATM    2  N   UNL     1     -10.946   9.343  69.932  1.00  0.00    -0.237 N  
HETATM    3  O   UNL     1     -11.247   8.227  70.379  1.00  0.00    -0.263 OA 
HETATM    4  C   UNL     1     -11.650  10.509  70.482  1.00  0.00    -0.350 A  
HETATM    5  C   UNL     1     -11.318  11.793  70.034  1.00  0.00    -0.130 A  
HETATM    6  C   UNL     1     -12.036  12.909  70.505  1.00  0.00    -0.364 A  
HETATM    7  C   UNL     1     -13.029  12.735  71.486  1.00  0.00    -0.292 A  
HETATM    8  N   UNL     1     -13.745  13.780  72.087  1.00  0.00    -0.495 N  
HETATM    9  C   UNL     1     -13.361  11.439  71.907  1.00  0.00    -0.409 A  
HETATM   10  C   UNL     1     -12.677  10.325  71.412  1.00  0.00    -0.547 A  
HETATM   11  H   UNL     1     -14.682  13.554  72.421  1.00  0.00     0.000 HD 
HETATM   12  C   UNL     1     -13.327  15.073  72.277  1.00  0.00    -0.398 C  
HETATM   13  C   UNL     1     -11.901  15.419  71.889  1.00  0.00    -0.429 C  
HETATM   14  O   UNL     1     -14.074  15.866  72.852  1.00  0.00    -0.561 OA 
HETATM   15  N   UNL     1     -11.740  15.361  70.443  1.00  0.00    -0.290 NA 
HETATM   16  C   UNL     1     -11.806  14.226  69.832  1.00  0.00    -0.322 C  
HETATM   17  H   UNL     1     -11.575  16.217  69.913  1.00  0.00     0.000 HD 
ENDROOT
BRANCH  16  18
HETATM   18  C   UNL     1     -11.665  14.260  68.335  1.00  0.00    -0.373 A  
HETATM   19  C   UNL     1     -10.937  15.301  67.744  1.00  0.00    -0.312 A  
HETATM   20  C   UNL     1     -10.797  15.363  66.356  1.00  0.00    -0.303 A  
HETATM   21  C   UNL     1     -11.386  14.387  65.552  1.00  0.00    -0.334 A  
HETATM   22  C   UNL     1     -12.125  13.358  66.132  1.00  0.00    -0.481 A  
HETATM   23  C   UNL     1     -12.276  13.299  67.518  1.00  0.00    -0.213 A  
ENDBRANCH  16  18
TORSDOF 1
ENDMDL
MODEL       19
REMARK 921   NORMALIZED FREE ENERGY PREDICTED BY IDOCK:   -6.57 KCAL/MOL
REMARK 922        TOTAL FREE ENERGY PREDICTED BY IDOCK:   -7.38 KCAL/MOL
REMARK 923 INTER-LIGAND FREE ENERGY PREDICTED BY IDOCK:   -6.89 KCAL/MOL
REMARK 924 INTRA-LIGAND FREE ENERGY PREDICTED BY IDOCK:   -0.49 KCAL/MOL
REMARK 927      BINDING AFFINITY PREDICTED BY RF-SCORE:    0.00 PKD
ROOT
HETATM    1  O   UNL     1     -11.537  14.438  64.270  1.00  0.00    -0.347 OA 
HETATM    2  N   UNL     1     -11.338  15.540  64.796  1.00  0.00    -0.399 N  
HETATM    3  O   UNL     1     -11.190  16.602  64.176  1.00  0.00    -1.103 OA 
HETATM    4  C   UNL     1     -11.259  15.590  66.261  1.00  0.00    -0.096 A  
HETATM    5  C   UNL     1     -11.456  14.422  67.007  1.00  0.00    -0.376 A  
HETATM    6  C   UNL     1     -11.312  14.448  68.407  1.00  0.00    -0.312 A  
HETATM    7  C   UNL     1     -11.052  15.668  69.058  1.00  0.00    -0.279 A  
HETATM    8  N   UNL     1     -10.974  15.827  70.449  1.00  0.00    -0.336 N  
HETATM    9  C   UNL     1     -10.838  16.824  68.293  1.00  0.00    -0.366 A  
HETATM   10  C   UNL     1     -10.940  16.793  66.899  1.00  0.00     0.083 A  
HETATM   11  H   UNL     1     -10.380  16.584  70.786  1.00  0.00     0.000 HD 
HETATM   12  C   UNL     1     -11.609  15.079  71.408  1.00  0.00    -0.346 C  
HETATM   13  C   UNL     1     -12.584  14.014  70.942  1.00  0.00    -0.361 C  
HETATM   14  O   UNL     1     -11.455  15.370  72.595  1.00  0.00    -0.459 OA 
HETATM   15  N   UNL     1     -11.873  12.931  70.275  1.00  0.00    -0.535 NA 
HETATM   16  C   UNL     1     -11.302  13.141  69.137  1.00  0.00    -0.281 C  
HETATM   17  H   UNL     1     -11.826  12.009  70.707  1.00  0.00     0.000 HD 
ENDROOT
BRANCH  16  18
HETATM   18  C   UNL     1     -10.560  11.980  68.534  1.00  0.00    -0.252 A  
HETATM   19  C   UNL     1     -11.286  10.882  68.057  1.00  0.00    -0.382 A  
HETATM   20  C   UNL     1     -10.623   9.787  67.500  1.00  0.00    -0.335 A  
HETATM   21  C   UNL     1      -9.231   9.782  67.421  1.00  0.00    -0.151 A  
HETATM   22  C   UNL     1      -8.500  10.864  67.908  1.00  0.00    -0.129 A  
HETATM   23  C   UNL     1      -9.159  11.956  68.475  1.00  0.00    -0.123 A  
ENDBRANCH  16  18
TORSDOF 1
ENDMDL
MODEL       20
REMARK 921   NORMALIZED FREE ENERGY PREDICTED BY IDOCK:   -6.56 KCAL/MOL
REMARK 922        TOTAL FREE ENERGY PREDICTED BY IDOCK:   -7.37 KCAL/MOL
REMARK 923 INTER-LIGAND FREE ENERGY PREDICTED BY IDOCK:   -6.97 KCAL/MOL
REMARK 924 INTRA-LIGAND FREE ENERGY PREDICTED BY IDOCK:   -0.40 KCAL/MOL
REMARK 927      BINDING AFFINITY PREDICTED BY RF-SCORE:    0.00 PKD
ROOT
HETATM    1  O   UNL     1     -12.281  11.296  68.344  1.00  0.00    -0.604 OA 
HETATM    2  N   UNL     1     -11.078  11.298  68.052  1.00  0.00    -0.243 N  
HETATM    3  O   UNL     1     -10.458  10.322  67.608  1.00  0.00    -0.204 OA 
HETATM    4  C   UNL     1     -10.329  12.543  68.261  1.00  0.00    -0.236 A  
HETATM    5  C   UNL     1     -10.994  13.683  68.727  1.00  0.00    -0.292 A  
HETATM    6  C   UNL     1     -10.270  14.860  68.997  1.00  0.00    -0.243 A  
HETATM    7  C   UNL     1      -8.892  14.909  68.716  1.00  0.00    -0.183 A  
HETATM    8  N   UNL     1      -8.090  16.050  68.864  1.00  0.00    -0.204 N  
HETATM    9  C   UNL     1      -8.239  13.751  68.269  1.00  0.00    -0.156 A  
HETATM   10  C   UNL     1      -8.949  12.569  68.039  1.00  0.00    -0.192 A  
HETATM   11  H   UNL     1      -7.103  15.888  69.061  1.00  0.00     0.000 HD 
HETATM   12  C   UNL     1      -8.486  17.361  68.772  1.00  0.00    -0.225 C  
HETATM   13  C   UNL     1      -9.923  17.640  68.375  1.00  0.00    -0.356 C  
HETATM   14  O   UNL     1      -7.644  18.251  68.900  1.00  0.00    -0.285 OA 
HETATM   15  N   UNL     1     -10.832  17.225  69.436  1.00  0.00    -0.318 NA 
HETATM   16  C   UNL     1     -10.976  15.972  69.707  1.00  0.00    -0.334 C  
HETATM   17  H   UNL     1     -11.354  17.925  69.963  1.00  0.00     0.000 HD 
ENDROOT
BRANCH  16  18
HETATM   18  C   UNL     1     -11.906  15.633  70.840  1.00  0.00    -0.428 A  
HETATM   19  C   UNL     1     -13.278  15.517  70.581  1.00  0.00    -0.293 A  
HETATM   20  C   UNL     1     -14.165  15.212  71.615  1.00  0.00    -0.664 A  
HETATM   21  C   UNL     1     -13.687  15.025  72.912  1.00  0.00    -0.461 A  
HETATM   22  C   UNL     1     -12.326  15.155  73.179  1.00  0.00    -0.541 A  
HETATM   23  C   UNL     1     -11.437  15.470  72.150  1.00  0.00    -0.512 A  
ENDBRANCH  16  18
TORSDOF 1
ENDMDL
MODEL       21
REMARK 921   NORMALIZED FREE ENERGY PREDICTED BY IDOCK:   -6.50 KCAL/MOL
REMARK 922        TOTAL FREE ENERGY PREDICTED BY IDOCK:   -7.31 KCAL/MOL
REMARK 923 INTER-LIGAND FREE ENERGY PREDICTED BY IDOCK:   -6.82 KCAL/MOL
REMARK 924 INTRA-LIGAND FREE ENERGY PREDICTED BY IDOCK:   -0.49 KCAL/MOL
REMARK 927      BINDING AFFINITY PREDICTED BY RF-SCORE:    0.00 PKD
ROOT
HETATM    1  O   UNL     1      -9.847   9.419  68.072  1.00  0.00    -0.154 OA 
HETATM    2  N   UNL     1     -10.614   9.231  69.025  1.00  0.00    -0.219 N  
HETATM    3  O   UNL     1     -10.903   8.121  69.491  1.00  0.00    -0.213 OA 
HETATM    4  C   UNL     1     -11.239  10.410  69.638  1.00  0.00    -0.277 A  
HETATM    5  C   UNL     1     -10.916  11.689  69.169  1.00  0.00    -0.270 A  
HETATM    6  C   UNL     1     -11.564  12.819  69.704  1.00  0.00    -0.322 A  
HETATM    7  C   UNL     1     -12.472  12.663  70.766  1.00  0.00    -0.270 A  
HETATM    8  N   UNL     1     -13.108  13.721  71.432  1.00  0.00    -0.347 N  
HETATM    9  C   UNL     1     -12.798  11.372  71.210  1.00  0.00    -0.481 A  
HETATM   10  C   UNL     1     -12.187  10.246  70.653  1.00  0.00    -0.422 A  
HETATM   11  H   UNL     1     -14.018  13.516  71.844  1.00  0.00     0.000 HD 
HETATM   12  C   UNL     1     -12.643  15.002  71.590  1.00  0.00    -0.339 C  
HETATM   13  C   UNL     1     -11.248  15.316  71.082  1.00  0.00    -0.330 C  
HETATM   14  O   UNL     1     -13.318  15.810  72.230  1.00  0.00    -0.453 OA 
HETATM   15  N   UNL     1     -11.214  15.264  69.627  1.00  0.00    -0.258 NA 
HETATM   16  C   UNL     1     -11.361  14.135  69.019  1.00  0.00    -0.275 C  
HETATM   17  H   UNL     1     -11.075  16.118  69.088  1.00  0.00     0.000 HD 
ENDROOT
BRANCH  16  18
HETATM   18  C   UNL     1     -11.348  14.174  67.516  1.00  0.00    -0.343 A  
HETATM   19  C   UNL     1     -12.530  13.894  66.818  1.00  0.00    -0.254 A  
HETATM   20  C   UNL     1     -12.545  13.915  65.422  1.00  0.00    -0.538 A  
HETATM   21  C   UNL     1     -11.380  14.213  64.717  1.00  0.00    -0.371 A  
HETATM   22  C   UNL     1     -10.196  14.477  65.403  1.00  0.00    -0.415 A  
HETATM   23  C   UNL     1     -10.175  14.446  66.799  1.00  0.00    -0.270 A  
ENDBRANCH  16  18
TORSDOF 1
ENDMDL
MODEL       22
REMARK 921   NORMALIZED FREE ENERGY PREDICTED BY IDOCK:   -6.47 KCAL/MOL
REMARK 922        TOTAL FREE ENERGY PREDICTED BY IDOCK:   -7.28 KCAL/MOL
REMARK 923 INTER-LIGAND FREE ENERGY PREDICTED BY IDOCK:   -6.80 KCAL/MOL
REMARK 924 INTRA-LIGAND FREE ENERGY PREDICTED BY IDOCK:   -0.48 KCAL/MOL
REMARK 927      BINDING AFFINITY PREDICTED BY RF-SCORE:    0.00 PKD
ROOT
HETATM    1  O   UNL     1     -13.659  13.865  65.473  1.00  0.00    -0.579 OA 
HETATM    2  N   UNL     1     -12.744  13.142  65.061  1.00  0.00    -0.437 N  
HETATM    3  O   UNL     1     -12.791  12.462  64.026  1.00  0.00    -0.717 OA 
HETATM    4  C   UNL     1     -11.516  13.073  65.864  1.00  0.00    -0.337 A  
HETATM    5  C   UNL     1     -11.401  13.851  67.023  1.00  0.00    -0.343 A  
HETATM    6  C   UNL     1     -10.257  13.737  67.835  1.00  0.00    -0.245 A  
HETATM    7  C   UNL     1      -9.198  12.904  67.434  1.00  0.00    -0.197 A  
HETATM    8  N   UNL     1      -7.979  12.779  68.117  1.00  0.00    -0.147 N  
HETATM    9  C   UNL     1      -9.339  12.117  66.281  1.00  0.00    -0.221 A  
HETATM   10  C   UNL     1     -10.491  12.197  65.493  1.00  0.00    -0.300 A  
HETATM   11  H   UNL     1      -7.494  11.888  68.020  1.00  0.00     0.000 HD 
HETATM   12  C   UNL     1      -7.368  13.723  68.903  1.00  0.00    -0.076 C  
HETATM   13  C   UNL     1      -8.007  15.097  68.985  1.00  0.00    -0.188 C  
HETATM   14  O   UNL     1      -6.277  13.463  69.413  1.00  0.00    -0.098 OA 
HETATM   15  N   UNL     1      -9.274  15.025  69.701  1.00  0.00    -0.455 NA 
HETATM   16  C   UNL     1     -10.277  14.407  69.174  1.00  0.00    -0.127 C  
HETATM   17  H   UNL     1      -9.369  15.462  70.617  1.00  0.00     0.000 HD 
ENDROOT
BRANCH  16  18
HETATM   18  C   UNL     1     -11.537  14.349  69.994  1.00  0.00    -0.334 A  
HETATM   19  C   UNL     1     -12.193  15.544  70.317  1.00  0.00    -0.432 A  
HETATM   20  C   UNL     1     -13.359  15.520  71.085  1.00  0.00    -0.553 A  
HETATM   21  C   UNL     1     -13.873  14.305  71.536  1.00  0.00    -0.428 A  
HETATM   22  C   UNL     1     -13.216  13.114  71.231  1.00  0.00    -0.202 A  
HETATM   23  C   UNL     1     -12.045  13.134  70.473  1.00  0.00    -0.385 A  
ENDBRANCH  16  18
TORSDOF 1
ENDMDL
MODEL       23
REMARK 921   NORMALIZED FREE ENERGY PREDICTED BY IDOCK:   -6.38 KCAL/MOL
REMARK 922        TOTAL FREE ENERGY PREDICTED BY IDOCK:   -7.18 KCAL/MOL
REMARK 923 INTER-LIGAND FREE ENERGY PREDICTED BY IDOCK:   -6.69 KCAL/MOL
REMARK 924 INTRA-LIGAND FREE ENERGY PREDICTED BY IDOCK:   -0.49 KCAL/MOL
REMARK 927      BINDING AFFINITY PREDICTED BY RF-SCORE:    0.00 PKD
ROOT
HETATM    1  O   UNL     1      -7.090  13.789  67.281  1.00  0.00    -0.132 OA 
HETATM    2  N   UNL     1      -8.004  12.957  67.355  1.00  0.00    -0.177 N  
HETATM    3  O   UNL     1      -7.948  11.804  66.906  1.00  0.00    -0.160 OA 
HETATM    4  C   UNL     1      -9.250  13.371  68.012  1.00  0.00    -0.209 A  
HETATM    5  C   UNL     1      -9.349  14.653  68.567  1.00  0.00    -0.201 A  
HETATM    6  C   UNL     1     -10.563  15.081  69.136  1.00  0.00    -0.251 A  
HETATM    7  C   UNL     1     -11.648  14.189  69.217  1.00  0.00    -0.304 A  
HETATM    8  N   UNL     1     -12.872  14.479  69.837  1.00  0.00    -0.529 N  
HETATM    9  C   UNL     1     -11.537  12.916  68.637  1.00  0.00    -0.353 A  
HETATM   10  C   UNL     1     -10.345  12.502  68.036  1.00  0.00    -0.226 A  
HETATM   11  H   UNL     1     -13.689  13.986  69.478  1.00  0.00     0.000 HD 
HETATM   12  C   UNL     1     -13.093  15.350  70.873  1.00  0.00    -0.468 C  
HETATM   13  C   UNL     1     -11.886  16.020  71.503  1.00  0.00    -0.486 C  
HETATM   14  O   UNL     1     -14.233  15.469  71.324  1.00  0.00    -0.544 OA 
HETATM   15  N   UNL     1     -11.283  16.961  70.568  1.00  0.00    -0.290 NA 
HETATM   16  C   UNL     1     -10.694  16.526  69.506  1.00  0.00    -0.321 C  
HETATM   17  H   UNL     1     -11.326  17.963  70.753  1.00  0.00     0.000 HD 
ENDROOT
BRANCH  16  18
HETATM   18  C   UNL     1     -10.129  17.566  68.577  1.00  0.00    -0.363 A  
HETATM   19  C   UNL     1      -8.971  18.257  68.954  1.00  0.00    -0.148 A  
HETATM   20  C   UNL     1      -8.430  19.234  68.116  1.00  0.00    -0.362 A  
HETATM   21  C   UNL     1      -9.045  19.526  66.899  1.00  0.00    -0.392 A  
HETATM   22  C   UNL     1     -10.207  18.854  66.524  1.00  0.00    -0.470 A  
HETATM   23  C   UNL     1     -10.756  17.884  67.365  1.00  0.00    -0.306 A  
ENDBRANCH  16  18
TORSDOF 1
ENDMDL
MODEL       24
REMARK 921   NORMALIZED FREE ENERGY PREDICTED BY IDOCK:   -6.22 KCAL/MOL
REMARK 922        TOTAL FREE ENERGY PREDICTED BY IDOCK:   -7.02 KCAL/MOL
REMARK 923 INTER-LIGAND FREE ENERGY PREDICTED BY IDOCK:   -6.66 KCAL/MOL
REMARK 924 INTRA-LIGAND FREE ENERGY PREDICTED BY IDOCK:   -0.36 KCAL/MOL
REMARK 927      BINDING AFFINITY PREDICTED BY RF-SCORE:    0.00 PKD
ROOT
HETATM    1  O   UNL     1     -11.989   9.899  71.365  1.00  0.00    -0.362 OA 
HETATM    2  N   UNL     1     -11.402   9.175  70.551  1.00  0.00    -0.264 N  
HETATM    3  O   UNL     1     -10.994   8.030  70.790  1.00  0.00    -0.239 OA 
HETATM    4  C   UNL     1     -11.160   9.717  69.208  1.00  0.00    -0.149 A  
HETATM    5  C   UNL     1     -11.634  10.993  68.880  1.00  0.00    -0.383 A  
HETATM    6  C   UNL     1     -11.345  11.548  67.619  1.00  0.00    -0.358 A  
HETATM    7  C   UNL     1     -10.651  10.783  66.664  1.00  0.00    -0.232 A  
HETATM    8  N   UNL     1     -10.384  11.199  65.352  1.00  0.00    -0.264 N  
HETATM    9  C   UNL     1     -10.166   9.515  67.018  1.00  0.00    -0.321 A  
HETATM   10  C   UNL     1     -10.417   8.977  68.284  1.00  0.00    -0.247 A  
HETATM   11  H   UNL     1      -9.550  10.808  64.913  1.00  0.00     0.000 HD 
HETATM   12  C   UNL     1     -11.118  12.075  64.592  1.00  0.00    -0.322 C  
HETATM   13  C   UNL     1     -12.420  12.594  65.173  1.00  0.00    -0.463 C  
HETATM   14  O   UNL     1     -10.758  12.314  63.439  1.00  0.00    -0.446 OA 
HETATM   15  N   UNL     1     -12.156  13.475  66.303  1.00  0.00    -0.419 NA 
HETATM   16  C   UNL     1     -11.669  12.992  67.396  1.00  0.00    -0.374 C  
HETATM   17  H   UNL     1     -12.355  14.473  66.230  1.00  0.00     0.000 HD 
ENDROOT
BRANCH  16  18
HETATM   18  C   UNL     1     -11.393  13.975  68.500  1.00  0.00    -0.308 A  
HETATM   19  C   UNL     1     -10.133  14.583  68.571  1.00  0.00    -0.242 A  
HETATM   20  C   UNL     1      -9.847  15.493  69.590  1.00  0.00    -0.281 A  
HETATM   21  C   UNL     1     -10.816  15.797  70.546  1.00  0.00    -0.319 A  
HETATM   22  C   UNL     1     -12.066  15.184  70.492  1.00  0.00    -0.390 A  
HETATM   23  C   UNL     1     -12.353  14.266  69.480  1.00  0.00    -0.272 A  
ENDBRANCH  16  18
TORSDOF 1
ENDMDL
MODEL       25
REMARK 921   NORMALIZED FREE ENERGY PREDICTED BY IDOCK:   -6.21 KCAL/MOL
REMARK 922        TOTAL FREE ENERGY PREDICTED BY IDOCK:   -7.00 KCAL/MOL
REMARK 923 INTER-LIGAND FREE ENERGY PREDICTED BY IDOCK:   -6.70 KCAL/MOL
REMARK 924 INTRA-LIGAND FREE ENERGY PREDICTED BY IDOCK:   -0.30 KCAL/MOL
REMARK 927      BINDING AFFINITY PREDICTED BY RF-SCORE:    0.00 PKD
ROOT
HETATM    1  O   UNL     1      -6.727  15.825  70.184  1.00  0.00    -0.060 OA 
HETATM    2  N   UNL     1      -6.627  16.686  69.300  1.00  0.00    -0.204 N  
HETATM    3  O   UNL     1      -5.715  17.521  69.227  1.00  0.00    -0.184 OA 
HETATM    4  C   UNL     1      -7.673  16.729  68.270  1.00  0.00    -0.187 A  
HETATM    5  C   UNL     1      -8.705  15.783  68.290  1.00  0.00    -0.172 A  
HETATM    6  C   UNL     1      -9.749  15.861  67.349  1.00  0.00    -0.227 A  
HETATM    7  C   UNL     1      -9.706  16.840  66.341  1.00  0.00    -0.290 A  
HETATM    8  N   UNL     1     -10.643  16.957  65.304  1.00  0.00    -0.222 N  
HETATM    9  C   UNL     1      -8.675  17.792  66.349  1.00  0.00    -0.255 A  
HETATM   10  C   UNL     1      -7.659  17.742  67.307  1.00  0.00    -0.217 A  
HETATM   11  H   UNL     1     -10.780  17.892  64.920  1.00  0.00     0.000 HD 
HETATM   12  C   UNL     1     -11.395  15.954  64.747  1.00  0.00    -0.309 C  
HETATM   13  C   UNL     1     -11.141  14.535  65.219  1.00  0.00    -0.353 C  
HETATM   14  O   UNL     1     -12.157  16.222  63.817  1.00  0.00    -0.959 OA 
HETATM   15  N   UNL     1     -11.575  14.374  66.600  1.00  0.00    -0.371 NA 
HETATM   16  C   UNL     1     -10.942  14.978  67.548  1.00  0.00    -0.307 C  
HETATM   17  H   UNL     1     -12.377  13.784  66.818  1.00  0.00     0.000 HD 
ENDROOT
BRANCH  16  18
HETATM   18  C   UNL     1     -11.476  14.787  68.941  1.00  0.00    -0.321 A  
HETATM   19  C   UNL     1     -11.595  15.900  69.784  1.00  0.00    -0.340 A  
HETATM   20  C   UNL     1     -12.079  15.750  71.084  1.00  0.00    -0.475 A  
HETATM   21  C   UNL     1     -12.445  14.488  71.551  1.00  0.00    -0.424 A  
HETATM   22  C   UNL     1     -12.315  13.373  70.724  1.00  0.00    -0.433 A  
HETATM   23  C   UNL     1     -11.821  13.518  69.427  1.00  0.00    -0.389 A  
ENDBRANCH  16  18
TORSDOF 1
ENDMDL
MODEL       26
REMARK 921   NORMALIZED FREE ENERGY PREDICTED BY IDOCK:   -6.15 KCAL/MOL
REMARK 922        TOTAL FREE ENERGY PREDICTED BY IDOCK:   -6.94 KCAL/MOL
REMARK 923 INTER-LIGAND FREE ENERGY PREDICTED BY IDOCK:   -6.45 KCAL/MOL
REMARK 924 INTRA-LIGAND FREE ENERGY PREDICTED BY IDOCK:   -0.49 KCAL/MOL
REMARK 927      BINDING AFFINITY PREDICTED BY RF-SCORE:    0.00 PKD
ROOT
HETATM    1  O   UNL     1      -7.902  15.364  68.319  1.00  0.00    -0.119 OA 
HETATM    2  N   UNL     1      -8.558  16.056  67.529  1.00  0.00    -0.174 N  
HETATM    3  O   UNL     1      -8.477  17.289  67.434  1.00  0.00    -0.197 OA 
HETATM    4  C   UNL     1      -9.511  15.367  66.650  1.00  0.00    -0.259 A  
HETATM    5  C   UNL     1      -9.612  13.972  66.695  1.00  0.00    -0.299 A  
HETATM    6  C   UNL     1     -10.573  13.310  65.907  1.00  0.00    -0.288 A  
HETATM    7  C   UNL     1     -11.370  14.049  65.015  1.00  0.00    -0.342 A  
HETATM    8  N   UNL     1     -12.296  13.489  64.122  1.00  0.00    -0.634 N  
HETATM    9  C   UNL     1     -11.269  15.449  64.998  1.00  0.00    -0.393 A  
HETATM   10  C   UNL     1     -10.344  16.112  65.809  1.00  0.00    -0.398 A  
HETATM   11  H   UNL     1     -13.089  14.075  63.864  1.00  0.00     0.000 HD 
HETATM   12  C   UNL     1     -12.254  12.239  63.558  1.00  0.00    -0.568 C  
HETATM   13  C   UNL     1     -11.035  11.379  63.835  1.00  0.00    -0.366 C  
HETATM   14  O   UNL     1     -13.138  11.909  62.766  1.00  0.00    -0.197 OA 
HETATM   15  N   UNL     1     -11.008  10.973  65.234  1.00  0.00    -0.101 NA 
HETATM   16  C   UNL     1     -10.803  11.852  66.156  1.00  0.00    -0.292 C  
HETATM   17  H   UNL     1     -11.152   9.995  65.485  1.00  0.00     0.000 HD 
ENDROOT
BRANCH  16  18
HETATM   18  C   UNL     1     -10.826  11.355  67.575  1.00  0.00    -0.291 A  
HETATM   19  C   UNL     1      -9.839  10.454  67.997  1.00  0.00    -0.170 A  
HETATM   20  C   UNL     1      -9.842   9.969  69.306  1.00  0.00    -0.227 A  
HETATM   21  C   UNL     1     -10.831  10.379  70.199  1.00  0.00    -0.333 A  
HETATM   22  C   UNL     1     -11.825  11.262  69.783  1.00  0.00    -0.437 A  
HETATM   23  C   UNL     1     -11.832  11.741  68.472  1.00  0.00    -0.365 A  
ENDBRANCH  16  18
TORSDOF 1
ENDMDL
MODEL       27
REMARK 921   NORMALIZED FREE ENERGY PREDICTED BY IDOCK:   -6.05 KCAL/MOL
REMARK 922        TOTAL FREE ENERGY PREDICTED BY IDOCK:   -6.84 KCAL/MOL
REMARK 923 INTER-LIGAND FREE ENERGY PREDICTED BY IDOCK:   -6.35 KCAL/MOL
REMARK 924 INTRA-LIGAND FREE ENERGY PREDICTED BY IDOCK:   -0.49 KCAL/MOL
REMARK 927      BINDING AFFINITY PREDICTED BY RF-SCORE:    0.00 PKD
ROOT
HETATM    1  O   UNL     1     -12.581  14.967  64.315  1.00  0.00    -0.699 OA 
HETATM    2  N   UNL     1     -12.301  13.841  63.882  1.00  0.00    -0.371 N  
HETATM    3  O   UNL     1     -12.772  13.345  62.849  1.00  0.00    -0.535 OA 
HETATM    4  C   UNL     1     -11.352  13.031  64.655  1.00  0.00    -0.327 A  
HETATM    5  C   UNL     1     -10.766  13.563  65.810  1.00  0.00    -0.278 A  
HETATM    6  C   UNL     1      -9.910  12.767  66.595  1.00  0.00    -0.250 A  
HETATM    7  C   UNL     1      -9.583  11.467  66.169  1.00  0.00    -0.218 A  
HETATM    8  N   UNL     1      -8.678  10.619  66.824  1.00  0.00    -0.129 N  
HETATM    9  C   UNL     1     -10.196  10.944  65.021  1.00  0.00    -0.367 A  
HETATM   10  C   UNL     1     -11.078  11.717  64.261  1.00  0.00    -0.420 A  
HETATM   11  H   UNL     1      -8.835   9.617  66.716  1.00  0.00     0.000 HD 
HETATM   12  C   UNL     1      -7.603  10.987  67.594  1.00  0.00    -0.104 C  
HETATM   13  C   UNL     1      -7.275  12.465  67.689  1.00  0.00    -0.130 C  
HETATM   14  O   UNL     1      -6.885  10.111  68.078  1.00  0.00    -0.069 OA 
HETATM   15  N   UNL     1      -8.311  13.167  68.435  1.00  0.00    -0.236 NA 
HETATM   16  C   UNL     1      -9.493  13.293  67.933  1.00  0.00    -0.214 C  
HETATM   17  H   UNL     1      -8.103  13.560  69.353  1.00  0.00     0.000 HD 
ENDROOT
BRANCH  16  18
HETATM   18  C   UNL     1     -10.512  14.001  68.783  1.00  0.00    -0.238 A  
HETATM   19  C   UNL     1     -10.391  15.382  68.982  1.00  0.00    -0.243 A  
HETATM   20  C   UNL     1     -11.317  16.063  69.773  1.00  0.00    -0.331 A  
HETATM   21  C   UNL     1     -12.367  15.367  70.373  1.00  0.00    -0.443 A  
HETATM   22  C   UNL     1     -12.485  13.991  70.193  1.00  0.00    -0.380 A  
HETATM   23  C   UNL     1     -11.554  13.305  69.411  1.00  0.00    -0.364 A  
ENDBRANCH  16  18
TORSDOF 1
ENDMDL
MODEL       28
REMARK 921   NORMALIZED FREE ENERGY PREDICTED BY IDOCK:   -6.01 KCAL/MOL
REMARK 922        TOTAL FREE ENERGY PREDICTED BY IDOCK:   -6.79 KCAL/MOL
REMARK 923 INTER-LIGAND FREE ENERGY PREDICTED BY IDOCK:   -6.33 KCAL/MOL
REMARK 924 INTRA-LIGAND FREE ENERGY PREDICTED BY IDOCK:   -0.46 KCAL/MOL
REMARK 927      BINDING AFFINITY PREDICTED BY RF-SCORE:    0.00 PKD
ROOT
HETATM    1  O   UNL     1     -13.276  13.527  65.003  1.00  0.00    -0.721 OA 
HETATM    2  N   UNL     1     -12.648  12.691  64.341  1.00  0.00    -0.415 N  
HETATM    3  O   UNL     1     -12.977  12.288  63.217  1.00  0.00    -0.707 OA 
HETATM    4  C   UNL     1     -11.430  12.127  64.936  1.00  0.00    -0.325 A  
HETATM    5  C   UNL     1     -10.998  12.578  66.189  1.00  0.00    -0.318 A  
HETATM    6  C   UNL     1      -9.872  11.992  66.798  1.00  0.00    -0.218 A  
HETATM    7  C   UNL     1      -9.137  11.012  66.106  1.00  0.00    -0.192 A  
HETATM    8  N   UNL     1      -7.954  10.423  66.577  1.00  0.00    -0.119 N  
HETATM    9  C   UNL     1      -9.597  10.558  64.860  1.00  0.00    -0.334 A  
HETATM   10  C   UNL     1     -10.738  11.110  64.272  1.00  0.00    -0.403 A  
HETATM   11  H   UNL     1      -7.758   9.477  66.251  1.00  0.00     0.000 HD 
HETATM   12  C   UNL     1      -7.031  10.979  67.427  1.00  0.00    -0.086 C  
HETATM   13  C   UNL     1      -7.236  12.422  67.847  1.00  0.00    -0.110 C  
HETATM   14  O   UNL     1      -6.024  10.333  67.722  1.00  0.00    -0.045 OA 
HETATM   15  N   UNL     1      -8.404  12.539  68.709  1.00  0.00    -0.350 NA 
HETATM   16  C   UNL     1      -9.584  12.339  68.225  1.00  0.00    -0.212 C  
HETATM   17  H   UNL     1      -8.291  12.778  69.694  1.00  0.00     0.000 HD 
ENDROOT
BRANCH  16  18
HETATM   18  C   UNL     1     -10.732  12.445  69.191  1.00  0.00    -0.081 A  
HETATM   19  C   UNL     1     -11.290  11.272  69.715  1.00  0.00    -0.348 A  
HETATM   20  C   UNL     1     -12.362  11.339  70.606  1.00  0.00    -0.477 A  
HETATM   21  C   UNL     1     -12.885  12.578  70.975  1.00  0.00    -0.246 A  
HETATM   22  C   UNL     1     -12.346  13.749  70.445  1.00  0.00    -0.423 A  
HETATM   23  C   UNL     1     -11.281  13.685  69.546  1.00  0.00    -0.205 A  
ENDBRANCH  16  18
TORSDOF 1
ENDMDL
MODEL       29
REMARK 921   NORMALIZED FREE ENERGY PREDICTED BY IDOCK:   -5.98 KCAL/MOL
REMARK 922        TOTAL FREE ENERGY PREDICTED BY IDOCK:   -6.76 KCAL/MOL
REMARK 923 INTER-LIGAND FREE ENERGY PREDICTED BY IDOCK:   -6.44 KCAL/MOL
REMARK 924 INTRA-LIGAND FREE ENERGY PREDICTED BY IDOCK:   -0.32 KCAL/MOL
REMARK 927      BINDING AFFINITY PREDICTED BY RF-SCORE:    0.00 PKD
ROOT
HETATM    1  O   UNL     1      -8.117  10.093  67.242  1.00  0.00    -0.113 OA 
HETATM    2  N   UNL     1      -8.636   9.526  68.212  1.00  0.00    -0.120 N  
HETATM    3  O   UNL     1      -8.331   8.395  68.616  1.00  0.00    -0.118 OA 
HETATM    4  C   UNL     1      -9.699  10.241  68.930  1.00  0.00    -0.189 A  
HETATM    5  C   UNL     1     -10.053  11.536  68.533  1.00  0.00    -0.211 A  
HETATM    6  C   UNL     1     -11.119  12.199  69.171  1.00  0.00    -0.263 A  
HETATM    7  C   UNL     1     -11.769  11.589  70.259  1.00  0.00    -0.289 A  
HETATM    8  N   UNL     1     -12.782  12.190  71.020  1.00  0.00    -0.294 N  
HETATM    9  C   UNL     1     -11.414  10.283  70.628  1.00  0.00    -0.435 A  
HETATM   10  C   UNL     1     -10.383   9.606  69.971  1.00  0.00    -0.298 A  
HETATM   11  H   UNL     1     -13.455  11.561  71.457  1.00  0.00     0.000 HD 
HETATM   12  C   UNL     1     -12.968  13.531  71.243  1.00  0.00    -0.304 C  
HETATM   13  C   UNL     1     -11.927  14.490  70.698  1.00  0.00    -0.319 C  
HETATM   14  O   UNL     1     -13.898  13.894  71.965  1.00  0.00    -0.428 OA 
HETATM   15  N   UNL     1     -11.974  14.516  69.242  1.00  0.00    -0.382 NA 
HETATM   16  C   UNL     1     -11.611  13.478  68.567  1.00  0.00    -0.333 C  
HETATM   17  H   UNL     1     -12.294  15.354  68.756  1.00  0.00     0.000 HD 
ENDROOT
BRANCH  16  18
HETATM   18  C   UNL     1     -11.724  13.577  67.071  1.00  0.00    -0.424 A  
HETATM   19  C   UNL     1     -11.314  14.755  66.434  1.00  0.00    -0.339 A  
HETATM   20  C   UNL     1     -11.416  14.878  65.047  1.00  0.00    -0.379 A  
HETATM   21  C   UNL     1     -11.931  13.826  64.290  1.00  0.00    -0.481 A  
HETATM   22  C   UNL     1     -12.355  12.656  64.918  1.00  0.00    -0.563 A  
HETATM   23  C   UNL     1     -12.264  12.534  66.305  1.00  0.00    -0.159 A  
ENDBRANCH  16  18
TORSDOF 1
ENDMDL
MODEL       30
REMARK 921   NORMALIZED FREE ENERGY PREDICTED BY IDOCK:   -5.96 KCAL/MOL
REMARK 922        TOTAL FREE ENERGY PREDICTED BY IDOCK:   -6.74 KCAL/MOL
REMARK 923 INTER-LIGAND FREE ENERGY PREDICTED BY IDOCK:   -6.45 KCAL/MOL
REMARK 924 INTRA-LIGAND FREE ENERGY PREDICTED BY IDOCK:   -0.29 KCAL/MOL
REMARK 927      BINDING AFFINITY PREDICTED BY RF-SCORE:    0.00 PKD
ROOT
HETATM    1  O   UNL     1     -10.620   8.105  66.482  1.00  0.00    -0.190 OA 
HETATM    2  N   UNL     1      -9.832   8.982  66.105  1.00  0.00    -0.286 N  
HETATM    3  O   UNL     1      -9.020   8.851  65.179  1.00  0.00    -0.197 OA 
HETATM    4  C   UNL     1      -9.851  10.266  66.816  1.00  0.00    -0.197 A  
HETATM    5  C   UNL     1     -10.776  10.474  67.846  1.00  0.00    -0.305 A  
HETATM    6  C   UNL     1     -10.754  11.676  68.579  1.00  0.00    -0.250 A  
HETATM    7  C   UNL     1      -9.856  12.696  68.217  1.00  0.00    -0.227 A  
HETATM    8  N   UNL     1      -9.804  13.962  68.819  1.00  0.00    -0.379 N  
HETATM    9  C   UNL     1      -8.923  12.462  67.195  1.00  0.00    -0.195 A  
HETATM   10  C   UNL     1      -8.916  11.254  66.493  1.00  0.00    -0.189 A  
HETATM   11  H   UNL     1      -8.900  14.433  68.808  1.00  0.00     0.000 HD 
HETATM   12  C   UNL     1     -10.835  14.639  69.421  1.00  0.00    -0.243 C  
HETATM   13  C   UNL     1     -12.218  14.017  69.363  1.00  0.00    -0.292 C  
HETATM   14  O   UNL     1     -10.627  15.763  69.879  1.00  0.00    -0.283 OA 
HETATM   15  N   UNL     1     -12.265  12.807  70.174  1.00  0.00    -0.289 NA 
HETATM   16  C   UNL     1     -11.599  11.763  69.812  1.00  0.00    -0.299 C  
HETATM   17  H   UNL     1     -12.823  12.786  71.027  1.00  0.00     0.000 HD 
ENDROOT
BRANCH  16  18
HETATM   18  C   UNL     1     -11.674  10.569  70.724  1.00  0.00    -0.454 A  
HETATM   19  C   UNL     1     -12.901  10.242  71.316  1.00  0.00    -0.522 A  
HETATM   20  C   UNL     1     -12.997   9.145  72.174  1.00  0.00    -0.498 A  
HETATM   21  C   UNL     1     -11.870   8.372  72.447  1.00  0.00    -0.452 A  
HETATM   22  C   UNL     1     -10.642   8.701  71.874  1.00  0.00    -0.411 A  
HETATM   23  C   UNL     1     -10.540   9.803  71.025  1.00  0.00    -0.295 A  
ENDBRANCH  16  18
TORSDOF 1
ENDMDL
MODEL       31
REMARK 921   NORMALIZED FREE ENERGY PREDICTED BY IDOCK:   -5.94 KCAL/MOL
REMARK 922        TOTAL FREE ENERGY PREDICTED BY IDOCK:   -6.72 KCAL/MOL
REMARK 923 INTER-LIGAND FREE ENERGY PREDICTED BY IDOCK:   -7.02 KCAL/MOL
REMARK 924 INTRA-LIGAND FREE ENERGY PREDICTED BY IDOCK:    0.31 KCAL/MOL
REMARK 927      BINDING AFFINITY PREDICTED BY RF-SCORE:    0.00 PKD
ROOT
HETATM    1  O   UNL     1     -10.729  16.976  66.674  1.00  0.00    -0.228 OA 
HETATM    2  N   UNL     1     -10.825  16.240  65.683  1.00  0.00    -0.259 N  
HETATM    3  O   UNL     1     -10.883  16.637  64.511  1.00  0.00    -0.847 OA 
HETATM    4  C   UNL     1     -10.887  14.791  65.915  1.00  0.00    -0.330 A  
HETATM    5  C   UNL     1     -10.788  14.292  67.219  1.00  0.00    -0.285 A  
HETATM    6  C   UNL     1     -10.918  12.911  67.455  1.00  0.00    -0.283 A  
HETATM    7  C   UNL     1     -11.063  12.029  66.370  1.00  0.00    -0.318 A  
HETATM    8  N   UNL     1     -11.114  10.632  66.480  1.00  0.00    -0.042 N  
HETATM    9  C   UNL     1     -11.180  12.549  65.071  1.00  0.00    -0.344 A  
HETATM   10  C   UNL     1     -11.092  13.924  64.838  1.00  0.00    -0.370 A  
HETATM   11  H   UNL     1     -11.637  10.139  65.756  1.00  0.00     0.000 HD 
HETATM   12  C   UNL     1     -10.540   9.853  67.453  1.00  0.00    -0.277 C  
HETATM   13  C   UNL     1      -9.667  10.542  68.485  1.00  0.00    -0.165 C  
HETATM   14  O   UNL     1     -10.658   8.629  67.388  1.00  0.00    -0.274 OA 
HETATM   15  N   UNL     1     -10.478  11.388  69.351  1.00  0.00    -0.434 NA 
HETATM   16  C   UNL     1     -11.037  12.449  68.875  1.00  0.00    -0.258 C  
HETATM   17  H   UNL     1     -10.603  11.143  70.333  1.00  0.00     0.000 HD 
ENDROOT
BRANCH  16  18
HETATM   18  C   UNL     1     -11.884  13.247  69.827  1.00  0.00    -0.394 A  
HETATM   19  C   UNL     1     -11.788  14.645  69.816  1.00  0.00    -0.366 A  
HETATM   20  C   UNL     1     -12.557  15.410  70.695  1.00  0.00    -0.491 A  
HETATM   21  C   UNL     1     -13.422  14.784  71.591  1.00  0.00    -0.468 A  
HETATM   22  C   UNL     1     -13.511  13.393  71.619  1.00  0.00    -0.378 A  
HETATM   23  C   UNL     1     -12.737  12.624  70.749  1.00  0.00    -0.213 A  
ENDBRANCH  16  18
TORSDOF 1
ENDMDL
MODEL       32
REMARK 921   NORMALIZED FREE ENERGY PREDICTED BY IDOCK:   -5.93 KCAL/MOL
REMARK 922        TOTAL FREE ENERGY PREDICTED BY IDOCK:   -6.71 KCAL/MOL
REMARK 923 INTER-LIGAND FREE ENERGY PREDICTED BY IDOCK:   -6.23 KCAL/MOL
REMARK 924 INTRA-LIGAND FREE ENERGY PREDICTED BY IDOCK:   -0.49 KCAL/MOL
REMARK 927      BINDING AFFINITY PREDICTED BY RF-SCORE:    0.00 PKD
ROOT
HETATM    1  O   UNL     1      -7.823  15.545  66.723  1.00  0.00    -0.217 OA 
HETATM    2  N   UNL     1      -7.099  14.747  67.333  1.00  0.00    -0.184 N  
HETATM    3  O   UNL     1      -5.896  14.921  67.567  1.00  0.00    -0.325 OA 
HETATM    4  C   UNL     1      -7.709  13.496  67.802  1.00  0.00    -0.163 A  
HETATM    5  C   UNL     1      -9.075  13.269  67.592  1.00  0.00    -0.204 A  
HETATM    6  C   UNL     1      -9.651  12.043  67.975  1.00  0.00    -0.199 A  
HETATM    7  C   UNL     1      -8.868  11.084  68.642  1.00  0.00    -0.164 A  
HETATM    8  N   UNL     1      -9.355   9.868  69.144  1.00  0.00    -0.181 N  
HETATM    9  C   UNL     1      -7.497  11.320  68.825  1.00  0.00    -0.123 A  
HETATM   10  C   UNL     1      -6.914  12.520  68.409  1.00  0.00    -0.096 A  
HETATM   11  H   UNL     1      -8.687   9.100  69.198  1.00  0.00     0.000 HD 
HETATM   12  C   UNL     1     -10.631   9.597  69.570  1.00  0.00    -0.229 C  
HETATM   13  C   UNL     1     -11.624  10.743  69.603  1.00  0.00    -0.316 C  
HETATM   14  O   UNL     1     -10.889   8.476  70.012  1.00  0.00    -0.237 OA 
HETATM   15  N   UNL     1     -11.948  11.174  68.250  1.00  0.00    -0.692 NA 
HETATM   16  C   UNL     1     -11.050  11.754  67.527  1.00  0.00    -0.272 C  
HETATM   17  H   UNL     1     -12.882  11.017  67.873  1.00  0.00     0.000 HD 
ENDROOT
BRANCH  16  18
HETATM   18  C   UNL     1     -11.456  12.135  66.129  1.00  0.00    -0.429 A  
HETATM   19  C   UNL     1     -10.964  11.388  65.051  1.00  0.00    -0.271 A  
HETATM   20  C   UNL     1     -11.317  11.724  63.743  1.00  0.00    -0.524 A  
HETATM   21  C   UNL     1     -12.160  12.809  63.505  1.00  0.00    -0.642 A  
HETATM   22  C   UNL     1     -12.640  13.567  64.572  1.00  0.00    -0.262 A  
HETATM   23  C   UNL     1     -12.281  13.240  65.880  1.00  0.00    -0.497 A  
ENDBRANCH  16  18
TORSDOF 1
ENDMDL
MODEL       33
REMARK 921   NORMALIZED FREE ENERGY PREDICTED BY IDOCK:   -5.93 KCAL/MOL
REMARK 922        TOTAL FREE ENERGY PREDICTED BY IDOCK:   -6.71 KCAL/MOL
REMARK 923 INTER-LIGAND FREE ENERGY PREDICTED BY IDOCK:   -6.23 KCAL/MOL
REMARK 924 INTRA-LIGAND FREE ENERGY PREDICTED BY IDOCK:   -0.48 KCAL/MOL
REMARK 927      BINDING AFFINITY PREDICTED BY RF-SCORE:    0.00 PKD
ROOT
HETATM    1  O   UNL     1     -13.200  12.102  64.459  1.00  0.00    -0.724 OA 
HETATM    2  N   UNL     1     -12.755  13.156  63.985  1.00  0.00    -0.127 N  
HETATM    3  O   UNL     1     -12.858  13.495  62.798  1.00  0.00    -0.304 OA 
HETATM    4  C   UNL     1     -12.043  14.064  64.893  1.00  0.00    -0.420 A  
HETATM    5  C   UNL     1     -11.933  13.740  66.251  1.00  0.00    -0.462 A  
HETATM    6  C   UNL     1     -11.192  14.570  67.113  1.00  0.00    -0.341 A  
HETATM    7  C   UNL     1     -10.635  15.765  66.622  1.00  0.00    -0.307 A  
HETATM    8  N   UNL     1      -9.953  16.706  67.406  1.00  0.00    -0.259 N  
HETATM    9  C   UNL     1     -10.738  16.062  65.255  1.00  0.00    -0.417 A  
HETATM   10  C   UNL     1     -11.440  15.219  64.388  1.00  0.00    -0.244 A  
HETATM   11  H   UNL     1      -9.246  17.266  66.930  1.00  0.00     0.000 HD 
HETATM   12  C   UNL     1     -10.130  16.958  68.743  1.00  0.00    -0.295 C  
HETATM   13  C   UNL     1     -11.244  16.219  69.461  1.00  0.00    -0.308 C  
HETATM   14  O   UNL     1      -9.464  17.846  69.279  1.00  0.00    -0.056 OA 
HETATM   15  N   UNL     1     -10.930  14.800  69.559  1.00  0.00    -0.263 NA 
HETATM   16  C   UNL     1     -10.907  14.070  68.495  1.00  0.00    -0.254 C  
HETATM   17  H   UNL     1     -10.730  14.383  70.468  1.00  0.00     0.000 HD 
ENDROOT
BRANCH  16  18
HETATM   18  C   UNL     1     -10.540  12.624  68.681  1.00  0.00    -0.245 A  
HETATM   19  C   UNL     1      -9.254  12.197  68.325  1.00  0.00    -0.192 A  
HETATM   20  C   UNL     1      -8.889  10.859  68.479  1.00  0.00    -0.153 A  
HETATM   21  C   UNL     1      -9.807   9.939  68.985  1.00  0.00    -0.193 A  
HETATM   22  C   UNL     1     -11.093  10.353  69.327  1.00  0.00    -0.303 A  
HETATM   23  C   UNL     1     -11.465  11.688  69.165  1.00  0.00    -0.364 A  
ENDBRANCH  16  18
TORSDOF 1
ENDMDL
MODEL       34
REMARK 921   NORMALIZED FREE ENERGY PREDICTED BY IDOCK:   -5.91 KCAL/MOL
REMARK 922        TOTAL FREE ENERGY PREDICTED BY IDOCK:   -6.69 KCAL/MOL
REMARK 923 INTER-LIGAND FREE ENERGY PREDICTED BY IDOCK:   -6.21 KCAL/MOL
REMARK 924 INTRA-LIGAND FREE ENERGY PREDICTED BY IDOCK:   -0.48 KCAL/MOL
REMARK 927      BINDING AFFINITY PREDICTED BY RF-SCORE:    0.00 PKD
ROOT
HETATM    1  O   UNL     1     -11.432  11.474  63.506  1.00  0.00    -0.404 OA 
HETATM    2  N   UNL     1     -11.949  12.558  63.804  1.00  0.00    -0.470 N  
HETATM    3  O   UNL     1     -12.457  13.345  62.993  1.00  0.00    -0.667 OA 
HETATM    4  C   UNL     1     -11.950  12.946  65.220  1.00  0.00    -0.419 A  
HETATM    5  C   UNL     1     -11.420  12.073  66.178  1.00  0.00    -0.401 A  
HETATM    6  C   UNL     1     -11.352  12.468  67.528  1.00  0.00    -0.368 A  
HETATM    7  C   UNL     1     -11.895  13.704  67.920  1.00  0.00    -0.366 A  
HETATM    8  N   UNL     1     -11.961  14.161  69.244  1.00  0.00    -0.328 N  
HETATM    9  C   UNL     1     -12.403  14.574  66.943  1.00  0.00    -0.083 A  
HETATM   10  C   UNL     1     -12.435  14.202  65.596  1.00  0.00    -0.490 A  
HETATM   11  H   UNL     1     -11.950  15.172  69.376  1.00  0.00     0.000 HD 
HETATM   12  C   UNL     1     -12.038  13.399  70.383  1.00  0.00    -0.333 C  
HETATM   13  C   UNL     1     -12.164  11.896  70.220  1.00  0.00    -0.271 C  
HETATM   14  O   UNL     1     -12.118  13.962  71.476  1.00  0.00    -0.240 OA 
HETATM   15  N   UNL     1     -10.929  11.339  69.684  1.00  0.00    -0.423 NA 
HETATM   16  C   UNL     1     -10.574  11.606  68.473  1.00  0.00    -0.215 C  
HETATM   17  H   UNL     1     -10.345  10.737  70.266  1.00  0.00     0.000 HD 
ENDROOT
BRANCH  16  18
HETATM   18  C   UNL     1      -9.269  11.020  68.010  1.00  0.00    -0.159 A  
HETATM   19  C   UNL     1      -8.212  11.881  67.686  1.00  0.00    -0.148 A  
HETATM   20  C   UNL     1      -6.993  11.365  67.246  1.00  0.00    -0.115 A  
HETATM   21  C   UNL     1      -6.823   9.986  67.124  1.00  0.00    -0.082 A  
HETATM   22  C   UNL     1      -7.873   9.124  67.429  1.00  0.00    -0.099 A  
HETATM   23  C   UNL     1      -9.098   9.637  67.860  1.00  0.00    -0.130 A  
ENDBRANCH  16  18
TORSDOF 1
ENDMDL
MODEL       35
REMARK 921   NORMALIZED FREE ENERGY PREDICTED BY IDOCK:   -5.89 KCAL/MOL
REMARK 922        TOTAL FREE ENERGY PREDICTED BY IDOCK:   -6.66 KCAL/MOL
REMARK 923 INTER-LIGAND FREE ENERGY PREDICTED BY IDOCK:   -6.20 KCAL/MOL
REMARK 924 INTRA-LIGAND FREE ENERGY PREDICTED BY IDOCK:   -0.47 KCAL/MOL
REMARK 927      BINDING AFFINITY PREDICTED BY RF-SCORE:    0.00 PKD
ROOT
HETATM    1  O   UNL     1      -9.681   5.213  68.488  1.00  0.00    -0.133 OA 
HETATM    2  N   UNL     1      -9.733   6.327  67.952  1.00  0.00    -0.120 N  
HETATM    3  O   UNL     1      -9.319   6.583  66.813  1.00  0.00    -0.146 OA 
HETATM    4  C   UNL     1     -10.317   7.429  68.728  1.00  0.00    -0.199 A  
HETATM    5  C   UNL     1     -10.831   7.180  70.006  1.00  0.00    -0.276 A  
HETATM    6  C   UNL     1     -11.328   8.244  70.783  1.00  0.00    -0.285 A  
HETATM    7  C   UNL     1     -11.381   9.539  70.238  1.00  0.00    -0.236 A  
HETATM    8  N   UNL     1     -11.932  10.654  70.887  1.00  0.00    -0.356 N  
HETATM    9  C   UNL     1     -10.842   9.773  68.964  1.00  0.00    -0.223 A  
HETATM   10  C   UNL     1     -10.312   8.726  68.205  1.00  0.00    -0.252 A  
HETATM   11  H   UNL     1     -11.548  11.563  70.631  1.00  0.00     0.000 HD 
HETATM   12  C   UNL     1     -12.932  10.658  71.827  1.00  0.00    -0.472 C  
HETATM   13  C   UNL     1     -13.601   9.336  72.153  1.00  0.00    -0.471 C  
HETATM   14  O   UNL     1     -13.323  11.734  72.280  1.00  0.00    -0.455 OA 
HETATM   15  N   UNL     1     -12.671   8.455  72.847  1.00  0.00    -0.667 NA 
HETATM   16  C   UNL     1     -11.651   7.973  72.220  1.00  0.00    -0.366 C  
HETATM   17  H   UNL     1     -12.825   8.218  73.826  1.00  0.00     0.000 HD 
ENDROOT
BRANCH  16  18
HETATM   18  C   UNL     1     -10.722   7.101  73.019  1.00  0.00    -0.359 A  
HETATM   19  C   UNL     1      -9.518   7.641  73.489  1.00  0.00    -0.347 A  
HETATM   20  C   UNL     1      -8.633   6.852  74.226  1.00  0.00    -0.189 A  
HETATM   21  C   UNL     1      -8.944   5.519  74.493  1.00  0.00    -0.121 A  
HETATM   22  C   UNL     1     -10.133   4.970  74.016  1.00  0.00    -0.235 A  
HETATM   23  C   UNL     1     -11.015   5.753  73.270  1.00  0.00    -0.292 A  
ENDBRANCH  16  18
TORSDOF 1
ENDMDL
MODEL       36
REMARK 921   NORMALIZED FREE ENERGY PREDICTED BY IDOCK:   -5.88 KCAL/MOL
REMARK 922        TOTAL FREE ENERGY PREDICTED BY IDOCK:   -6.65 KCAL/MOL
REMARK 923 INTER-LIGAND FREE ENERGY PREDICTED BY IDOCK:   -6.29 KCAL/MOL
REMARK 924 INTRA-LIGAND FREE ENERGY PREDICTED BY IDOCK:   -0.36 KCAL/MOL
REMARK 927      BINDING AFFINITY PREDICTED BY RF-SCORE:    0.00 PKD
ROOT
HETATM    1  O   UNL     1      -6.387  12.850  69.671  1.00  0.00    -0.121 OA 
HETATM    2  N   UNL     1      -6.660  13.965  69.207  1.00  0.00    -0.111 N  
HETATM    3  O   UNL     1      -5.940  14.968  69.308  1.00  0.00    -0.100 OA 
HETATM    4  C   UNL     1      -7.937  14.113  68.497  1.00  0.00    -0.145 A  
HETATM    5  C   UNL     1      -8.768  12.999  68.326  1.00  0.00    -0.173 A  
HETATM    6  C   UNL     1     -10.024  13.148  67.709  1.00  0.00    -0.227 A  
HETATM    7  C   UNL     1     -10.403  14.400  67.192  1.00  0.00    -0.262 A  
HETATM    8  N   UNL     1     -11.589  14.643  66.485  1.00  0.00    -0.362 N  
HETATM    9  C   UNL     1      -9.566  15.508  67.391  1.00  0.00    -0.213 A  
HETATM   10  C   UNL     1      -8.335  15.372  68.040  1.00  0.00    -0.142 A  
HETATM   11  H   UNL     1     -11.966  15.589  66.544  1.00  0.00     0.000 HD 
HETATM   12  C   UNL     1     -12.300  13.751  65.722  1.00  0.00    -0.486 C  
HETATM   13  C   UNL     1     -11.713  12.366  65.525  1.00  0.00    -0.407 C  
HETATM   14  O   UNL     1     -13.314  14.137  65.139  1.00  0.00    -0.684 OA 
HETATM   15  N   UNL     1     -11.732  11.624  66.779  1.00  0.00    -0.532 NA 
HETATM   16  C   UNL     1     -10.970  11.988  67.754  1.00  0.00    -0.232 C  
HETATM   17  H   UNL     1     -12.347  10.817  66.886  1.00  0.00     0.000 HD 
ENDROOT
BRANCH  16  18
HETATM   18  C   UNL     1     -11.077  11.190  69.024  1.00  0.00    -0.299 A  
HETATM   19  C   UNL     1     -12.005  11.582  69.998  1.00  0.00    -0.435 A  
HETATM   20  C   UNL     1     -12.119  10.865  71.190  1.00  0.00    -0.386 A  
HETATM   21  C   UNL     1     -11.307   9.755  71.417  1.00  0.00    -0.407 A  
HETATM   22  C   UNL     1     -10.371   9.368  70.460  1.00  0.00    -0.341 A  
HETATM   23  C   UNL     1     -10.246  10.089  69.271  1.00  0.00    -0.229 A  
ENDBRANCH  16  18
TORSDOF 1
ENDMDL
MODEL       37
REMARK 921   NORMALIZED FREE ENERGY PREDICTED BY IDOCK:   -5.84 KCAL/MOL
REMARK 922        TOTAL FREE ENERGY PREDICTED BY IDOCK:   -6.61 KCAL/MOL
REMARK 923 INTER-LIGAND FREE ENERGY PREDICTED BY IDOCK:   -6.12 KCAL/MOL
REMARK 924 INTRA-LIGAND FREE ENERGY PREDICTED BY IDOCK:   -0.49 KCAL/MOL
REMARK 927      BINDING AFFINITY PREDICTED BY RF-SCORE:    0.00 PKD
ROOT
HETATM    1  O   UNL     1     -11.974  11.845  63.217  1.00  0.00    -0.445 OA 
HETATM    2  N   UNL     1     -12.179  12.947  63.740  1.00  0.00    -0.468 N  
HETATM    3  O   UNL     1     -12.419  13.991  63.118  1.00  0.00    -0.733 OA 
HETATM    4  C   UNL     1     -12.120  13.027  65.206  1.00  0.00    -0.441 A  
HETATM    5  C   UNL     1     -11.886  11.867  65.954  1.00  0.00    -0.101 A  
HETATM    6  C   UNL     1     -11.758  11.947  67.353  1.00  0.00    -0.326 A  
HETATM    7  C   UNL     1     -11.948  13.181  68.001  1.00  0.00    -0.304 A  
HETATM    8  N   UNL     1     -11.929  13.362  69.392  1.00  0.00    -0.321 N  
HETATM    9  C   UNL     1     -12.160  14.336  67.233  1.00  0.00    -0.390 A  
HETATM   10  C   UNL     1     -12.248  14.266  65.840  1.00  0.00    -0.422 A  
HETATM   11  H   UNL     1     -11.641  14.281  69.725  1.00  0.00     0.000 HD 
HETATM   12  C   UNL     1     -12.254  12.439  70.354  1.00  0.00    -0.287 C  
HETATM   13  C   UNL     1     -12.788  11.095  69.893  1.00  0.00     0.120 C  
HETATM   14  O   UNL     1     -12.211  12.770  71.540  1.00  0.00     0.006 OA 
HETATM   15  N   UNL     1     -11.739  10.335  69.226  1.00  0.00    -0.483 NA 
HETATM   16  C   UNL     1     -11.283  10.731  68.086  1.00  0.00    -0.302 C  
HETATM   17  H   UNL     1     -11.366   9.491  69.659  1.00  0.00     0.000 HD 
ENDROOT
BRANCH  16  18
HETATM   18  C   UNL     1     -10.177   9.908  67.483  1.00  0.00    -0.265 A  
HETATM   19  C   UNL     1     -10.457   8.605  67.051  1.00  0.00    -0.354 A  
HETATM   20  C   UNL     1      -9.448   7.816  66.496  1.00  0.00    -0.262 A  
HETATM   21  C   UNL     1      -8.155   8.323  66.373  1.00  0.00    -0.105 A  
HETATM   22  C   UNL     1      -7.865   9.613  66.814  1.00  0.00    -0.102 A  
HETATM   23  C   UNL     1      -8.869  10.401  67.379  1.00  0.00    -0.133 A  
ENDBRANCH  16  18
TORSDOF 1
ENDMDL
MODEL       38
REMARK 921   NORMALIZED FREE ENERGY PREDICTED BY IDOCK:   -5.83 KCAL/MOL
REMARK 922        TOTAL FREE ENERGY PREDICTED BY IDOCK:   -6.60 KCAL/MOL
REMARK 923 INTER-LIGAND FREE ENERGY PREDICTED BY IDOCK:   -6.21 KCAL/MOL
REMARK 924 INTRA-LIGAND FREE ENERGY PREDICTED BY IDOCK:   -0.39 KCAL/MOL
REMARK 927      BINDING AFFINITY PREDICTED BY RF-SCORE:    0.00 PKD
ROOT
HETATM    1  O   UNL     1      -6.938  10.682  69.345  1.00  0.00    -0.079 OA 
HETATM    2  N   UNL     1      -7.127   9.460  69.315  1.00  0.00    -0.056 N  
HETATM    3  O   UNL     1      -6.272   8.620  69.004  1.00  0.00    -0.042 OA 
HETATM    4  C   UNL     1      -8.467   8.969  69.662  1.00  0.00    -0.128 A  
HETATM    5  C   UNL     1      -9.457   9.877  70.056  1.00  0.00    -0.246 A  
HETATM    6  C   UNL     1     -10.763   9.422  70.321  1.00  0.00    -0.299 A  
HETATM    7  C   UNL     1     -11.045   8.046  70.271  1.00  0.00    -0.224 A  
HETATM    8  N   UNL     1     -12.283   7.473  70.598  1.00  0.00    -0.528 N  
HETATM    9  C   UNL     1     -10.045   7.153  69.854  1.00  0.00    -0.197 A  
HETATM   10  C   UNL     1      -8.759   7.606  69.551  1.00  0.00    -0.136 A  
HETATM   11  H   UNL     1     -12.515   6.597  70.132  1.00  0.00     0.000 HD 
HETATM   12  C   UNL     1     -13.217   7.962  71.476  1.00  0.00    -0.306 C  
HETATM   13  C   UNL     1     -12.862   9.207  72.267  1.00  0.00    -0.401 C  
HETATM   14  O   UNL     1     -14.249   7.318  71.673  1.00  0.00    -0.430 OA 
HETATM   15  N   UNL     1     -12.785  10.364  71.384  1.00  0.00    -0.407 NA 
HETATM   16  C   UNL     1     -11.838  10.447  70.512  1.00  0.00    -0.337 C  
HETATM   17  H   UNL     1     -13.479  11.108  71.456  1.00  0.00     0.000 HD 
ENDROOT
BRANCH  16  18
HETATM   18  C   UNL     1     -11.853  11.656  69.617  1.00  0.00    -0.419 A  
HETATM   19  C   UNL     1     -11.998  12.925  70.192  1.00  0.00    -0.373 A  
HETATM   20  C   UNL     1     -12.024  14.064  69.385  1.00  0.00    -0.390 A  
HETATM   21  C   UNL     1     -11.910  13.940  68.001  1.00  0.00    -0.411 A  
HETATM   22  C   UNL     1     -11.782  12.680  67.420  1.00  0.00    -0.432 A  
HETATM   23  C   UNL     1     -11.766  11.538  68.223  1.00  0.00    -0.371 A  
ENDBRANCH  16  18
TORSDOF 1
ENDMDL
MODEL       39
REMARK 921   NORMALIZED FREE ENERGY PREDICTED BY IDOCK:   -5.81 KCAL/MOL
REMARK 922        TOTAL FREE ENERGY PREDICTED BY IDOCK:   -6.58 KCAL/MOL
REMARK 923 INTER-LIGAND FREE ENERGY PREDICTED BY IDOCK:   -6.39 KCAL/MOL
REMARK 924 INTRA-LIGAND FREE ENERGY PREDICTED BY IDOCK:   -0.19 KCAL/MOL
REMARK 927      BINDING AFFINITY PREDICTED BY RF-SCORE:    0.00 PKD
ROOT
HETATM    1  O   UNL     1     -13.413  15.730  70.997  1.00  0.00    -0.581 OA 
HETATM    2  N   UNL     1     -13.342  14.545  71.347  1.00  0.00    -0.343 N  
HETATM    3  O   UNL     1     -13.807  14.091  72.402  1.00  0.00    -0.493 OA 
HETATM    4  C   UNL     1     -12.645  13.611  70.454  1.00  0.00    -0.227 A  
HETATM    5  C   UNL     1     -12.134  14.070  69.234  1.00  0.00    -0.380 A  
HETATM    6  C   UNL     1     -11.404  13.198  68.404  1.00  0.00    -0.324 A  
HETATM    7  C   UNL     1     -11.262  11.847  68.768  1.00  0.00    -0.259 A  
HETATM    8  N   UNL     1     -10.632  10.872  67.981  1.00  0.00    -0.188 N  
HETATM    9  C   UNL     1     -11.763  11.410  70.004  1.00  0.00    -0.416 A  
HETATM   10  C   UNL     1     -12.454  12.284  70.848  1.00  0.00    -0.371 A  
HETATM   11  H   UNL     1     -10.206  10.092  68.480  1.00  0.00     0.000 HD 
HETATM   12  C   UNL     1     -10.524  10.852  66.613  1.00  0.00    -0.254 C  
HETATM   13  C   UNL     1     -11.236  11.939  65.831  1.00  0.00    -0.322 C  
HETATM   14  O   UNL     1      -9.958   9.901  66.071  1.00  0.00    -0.247 OA 
HETATM   15  N   UNL     1     -10.604  13.231  66.067  1.00  0.00    -0.282 NA 
HETATM   16  C   UNL     1     -10.684  13.784  67.230  1.00  0.00    -0.283 C  
HETATM   17  H   UNL     1     -10.098  13.697  65.314  1.00  0.00     0.000 HD 
ENDROOT
BRANCH  16  18
HETATM   18  C   UNL     1      -9.974  15.099  67.398  1.00  0.00    -0.226 A  
HETATM   19  C   UNL     1     -10.722  16.284  67.374  1.00  0.00    -0.287 A  
HETATM   20  C   UNL     1     -10.087  17.519  67.519  1.00  0.00    -0.326 A  
HETATM   21  C   UNL     1      -8.704  17.577  67.685  1.00  0.00    -0.223 A  
HETATM   22  C   UNL     1      -7.952  16.404  67.693  1.00  0.00    -0.165 A  
HETATM   23  C   UNL     1      -8.581  15.168  67.538  1.00  0.00    -0.193 A  
ENDBRANCH  16  18
TORSDOF 1
ENDMDL
MODEL       40
REMARK 921   NORMALIZED FREE ENERGY PREDICTED BY IDOCK:   -5.81 KCAL/MOL
REMARK 922        TOTAL FREE ENERGY PREDICTED BY IDOCK:   -6.58 KCAL/MOL
REMARK 923 INTER-LIGAND FREE ENERGY PREDICTED BY IDOCK:   -6.08 KCAL/MOL
REMARK 924 INTRA-LIGAND FREE ENERGY PREDICTED BY IDOCK:   -0.49 KCAL/MOL
REMARK 927      BINDING AFFINITY PREDICTED BY RF-SCORE:    0.00 PKD
ROOT
HETATM    1  O   UNL     1      -8.021  14.296  69.024  1.00  0.00    -0.117 OA 
HETATM    2  N   UNL     1      -9.069  14.909  68.785  1.00  0.00    -0.185 N  
HETATM    3  O   UNL     1      -9.423  15.951  69.355  1.00  0.00    -0.246 OA 
HETATM    4  C   UNL     1      -9.964  14.356  67.762  1.00  0.00    -0.226 A  
HETATM    5  C   UNL     1      -9.590  13.200  67.066  1.00  0.00    -0.241 A  
HETATM    6  C   UNL     1     -10.474  12.623  66.134  1.00  0.00    -0.278 A  
HETATM    7  C   UNL     1     -11.695  13.259  65.846  1.00  0.00    -0.365 A  
HETATM    8  N   UNL     1     -12.612  12.823  64.878  1.00  0.00    -0.622 N  
HETATM    9  C   UNL     1     -12.062  14.405  66.569  1.00  0.00    -0.395 A  
HETATM   10  C   UNL     1     -11.204  14.957  67.524  1.00  0.00    -0.334 A  
HETATM   11  H   UNL     1     -13.591  13.056  65.043  1.00  0.00     0.000 HD 
HETATM   12  C   UNL     1     -12.338  12.118  63.733  1.00  0.00    -0.532 C  
HETATM   13  C   UNL     1     -10.882  11.846  63.402  1.00  0.00    -0.399 C  
HETATM   14  O   UNL     1     -13.261  11.835  62.968  1.00  0.00    -0.474 OA 
HETATM   15  N   UNL     1     -10.310  10.910  64.361  1.00  0.00    -0.357 NA 
HETATM   16  C   UNL     1     -10.135  11.272  65.587  1.00  0.00    -0.247 C  
HETATM   17  H   UNL     1     -10.047   9.971  64.064  1.00  0.00     0.000 HD 
ENDROOT
BRANCH  16  18
HETATM   18  C   UNL     1      -9.571  10.234  66.519  1.00  0.00    -0.228 A  
HETATM   19  C   UNL     1      -8.252   9.800  66.336  1.00  0.00    -0.120 A  
HETATM   20  C   UNL     1      -7.707   8.832  67.180  1.00  0.00    -0.096 A  
HETATM   21  C   UNL     1      -8.476   8.290  68.209  1.00  0.00    -0.136 A  
HETATM   22  C   UNL     1      -9.795   8.705  68.387  1.00  0.00    -0.189 A  
HETATM   23  C   UNL     1     -10.347   9.665  67.539  1.00  0.00    -0.297 A  
ENDBRANCH  16  18
TORSDOF 1
ENDMDL
MODEL       41
REMARK 921   NORMALIZED FREE ENERGY PREDICTED BY IDOCK:   -5.75 KCAL/MOL
REMARK 922        TOTAL FREE ENERGY PREDICTED BY IDOCK:   -6.52 KCAL/MOL
REMARK 923 INTER-LIGAND FREE ENERGY PREDICTED BY IDOCK:   -6.06 KCAL/MOL
REMARK 924 INTRA-LIGAND FREE ENERGY PREDICTED BY IDOCK:   -0.46 KCAL/MOL
REMARK 927      BINDING AFFINITY PREDICTED BY RF-SCORE:    0.00 PKD
ROOT
HETATM    1  O   UNL     1      -6.166   8.536  71.187  1.00  0.00    -0.035 OA 
HETATM    2  N   UNL     1      -6.679   8.102  72.226  1.00  0.00    -0.072 N  
HETATM    3  O   UNL     1      -6.050   7.601  73.169  1.00  0.00    -0.057 OA 
HETATM    4  C   UNL     1      -8.141   8.173  72.345  1.00  0.00    -0.146 A  
HETATM    5  C   UNL     1      -8.892   8.763  71.321  1.00  0.00    -0.288 A  
HETATM    6  C   UNL     1     -10.297   8.771  71.395  1.00  0.00    -0.348 A  
HETATM    7  C   UNL     1     -10.938   8.260  72.539  1.00  0.00    -0.354 A  
HETATM    8  N   UNL     1     -12.322   8.295  72.758  1.00  0.00    -0.594 N  
HETATM    9  C   UNL     1     -10.170   7.655  73.545  1.00  0.00    -0.332 A  
HETATM   10  C   UNL     1      -8.776   7.609  73.455  1.00  0.00    -0.267 A  
HETATM   11  H   UNL     1     -12.707   7.556  73.347  1.00  0.00     0.000 HD 
HETATM   12  C   UNL     1     -13.218   9.211  72.269  1.00  0.00    -0.461 C  
HETATM   13  C   UNL     1     -12.669  10.384  71.478  1.00  0.00    -0.459 C  
HETATM   14  O   UNL     1     -14.406   9.114  72.582  1.00  0.00    -0.561 OA 
HETATM   15  N   UNL     1     -12.128   9.928  70.205  1.00  0.00    -0.472 NA 
HETATM   16  C   UNL     1     -11.062   9.200  70.182  1.00  0.00    -0.222 C  
HETATM   17  H   UNL     1     -12.590  10.183  69.332  1.00  0.00     0.000 HD 
ENDROOT
BRANCH  16  18
HETATM   18  C   UNL     1     -10.590   8.743  68.829  1.00  0.00    -0.174 A  
HETATM   19  C   UNL     1     -10.529   7.370  68.559  1.00  0.00    -0.215 A  
HETATM   20  C   UNL     1     -10.087   6.916  67.315  1.00  0.00    -0.256 A  
HETATM   21  C   UNL     1      -9.700   7.832  66.337  1.00  0.00    -0.219 A  
HETATM   22  C   UNL     1      -9.742   9.199  66.604  1.00  0.00    -0.287 A  
HETATM   23  C   UNL     1     -10.174   9.655  67.850  1.00  0.00    -0.242 A  
ENDBRANCH  16  18
TORSDOF 1
ENDMDL
MODEL       42
REMARK 921   NORMALIZED FREE ENERGY PREDICTED BY IDOCK:   -5.74 KCAL/MOL
REMARK 922        TOTAL FREE ENERGY PREDICTED BY IDOCK:   -6.51 KCAL/MOL
REMARK 923 INTER-LIGAND FREE ENERGY PREDICTED BY IDOCK:   -6.08 KCAL/MOL
REMARK 924 INTRA-LIGAND FREE ENERGY PREDICTED BY IDOCK:   -0.44 KCAL/MOL
REMARK 927      BINDING AFFINITY PREDICTED BY RF-SCORE:    0.00 PKD
ROOT
HETATM    1  O   UNL     1     -10.146   8.770  66.229  1.00  0.00    -0.291 OA 
HETATM    2  N   UNL     1     -10.364   9.987  66.159  1.00  0.00    -0.196 N  
HETATM    3  O   UNL     1     -10.191  10.679  65.146  1.00  0.00    -0.296 OA 
HETATM    4  C   UNL     1     -10.851  10.661  67.369  1.00  0.00    -0.296 A  
HETATM    5  C   UNL     1     -11.096   9.915  68.528  1.00  0.00    -0.181 A  
HETATM    6  C   UNL     1     -11.494  10.564  69.712  1.00  0.00    -0.365 A  
HETATM    7  C   UNL     1     -11.726  11.951  69.701  1.00  0.00    -0.343 A  
HETATM    8  N   UNL     1     -12.206  12.687  70.795  1.00  0.00    -0.454 N  
HETATM    9  C   UNL     1     -11.455  12.686  68.536  1.00  0.00    -0.349 A  
HETATM   10  C   UNL     1     -11.020  12.049  67.371  1.00  0.00    -0.311 A  
HETATM   11  H   UNL     1     -11.930  13.668  70.837  1.00  0.00     0.000 HD 
HETATM   12  C   UNL     1     -13.005  12.234  71.813  1.00  0.00    -0.325 C  
HETATM   13  C   UNL     1     -13.522  10.810  71.727  1.00  0.00    -0.203 C  
HETATM   14  O   UNL     1     -13.364  13.023  72.689  1.00  0.00    -0.463 OA 
HETATM   15  N   UNL     1     -12.428   9.863  71.890  1.00  0.00    -0.378 NA 
HETATM   16  C   UNL     1     -11.521   9.764  70.977  1.00  0.00    -0.383 C  
HETATM   17  H   UNL     1     -12.378   9.278  72.723  1.00  0.00     0.000 HD 
ENDROOT
BRANCH  16  18
HETATM   18  C   UNL     1     -10.407   8.788  71.240  1.00  0.00    -0.331 A  
HETATM   19  C   UNL     1     -10.726   7.454  71.525  1.00  0.00    -0.243 A  
HETATM   20  C   UNL     1      -9.713   6.528  71.782  1.00  0.00    -0.168 A  
HETATM   21  C   UNL     1      -8.379   6.930  71.757  1.00  0.00    -0.108 A  
HETATM   22  C   UNL     1      -8.054   8.258  71.489  1.00  0.00    -0.158 A  
HETATM   23  C   UNL     1      -9.064   9.189  71.243  1.00  0.00    -0.232 A  
ENDBRANCH  16  18
TORSDOF 1
ENDMDL
MODEL       43
REMARK 921   NORMALIZED FREE ENERGY PREDICTED BY IDOCK:   -5.66 KCAL/MOL
REMARK 922        TOTAL FREE ENERGY PREDICTED BY IDOCK:   -6.43 KCAL/MOL
REMARK 923 INTER-LIGAND FREE ENERGY PREDICTED BY IDOCK:   -6.05 KCAL/MOL
REMARK 924 INTRA-LIGAND FREE ENERGY PREDICTED BY IDOCK:   -0.37 KCAL/MOL
REMARK 927      BINDING AFFINITY PREDICTED BY RF-SCORE:    0.00 PKD
ROOT
HETATM    1  O   UNL     1     -10.486  15.527  70.455  1.00  0.00    -0.302 OA 
HETATM    2  N   UNL     1     -10.731  15.900  69.301  1.00  0.00    -0.238 N  
HETATM    3  O   UNL     1     -11.012  17.063  68.979  1.00  0.00    -0.256 OA 
HETATM    4  C   UNL     1     -10.700  14.888  68.237  1.00  0.00    -0.249 A  
HETATM    5  C   UNL     1     -10.353  13.568  68.546  1.00  0.00    -0.242 A  
HETATM    6  C   UNL     1     -10.390  12.578  67.546  1.00  0.00    -0.225 A  
HETATM    7  C   UNL     1     -10.695  12.938  66.221  1.00  0.00    -0.274 A  
HETATM    8  N   UNL     1     -10.677  12.055  65.131  1.00  0.00    -0.278 N  
HETATM    9  C   UNL     1     -11.060  14.262  65.934  1.00  0.00    -0.310 A  
HETATM   10  C   UNL     1     -11.064  15.239  66.933  1.00  0.00    -0.288 A  
HETATM   11  H   UNL     1     -11.303  12.277  64.357  1.00  0.00     0.000 HD 
HETATM   12  C   UNL     1      -9.911  10.925  64.990  1.00  0.00    -0.298 C  
HETATM   13  C   UNL     1      -8.893  10.621  66.074  1.00  0.00    -0.175 C  
HETATM   14  O   UNL     1      -9.996  10.270  63.950  1.00  0.00    -0.278 OA 
HETATM   15  N   UNL     1      -9.565  10.260  67.315  1.00  0.00    -0.157 NA 
HETATM   16  C   UNL     1     -10.237  11.149  67.965  1.00  0.00    -0.181 C  
HETATM   17  H   UNL     1      -9.504   9.306  67.670  1.00  0.00     0.000 HD 
ENDROOT
BRANCH  16  18
HETATM   18  C   UNL     1     -10.929  10.684  69.217  1.00  0.00    -0.294 A  
HETATM   19  C   UNL     1     -10.214   9.915  70.144  1.00  0.00    -0.326 A  
HETATM   20  C   UNL     1     -10.833   9.462  71.310  1.00  0.00    -0.431 A  
HETATM   21  C   UNL     1     -12.170   9.773  71.555  1.00  0.00    -0.493 A  
HETATM   22  C   UNL     1     -12.893  10.525  70.631  1.00  0.00    -0.407 A  
HETATM   23  C   UNL     1     -12.280  10.970  69.459  1.00  0.00    -0.352 A  
ENDBRANCH  16  18
TORSDOF 1
ENDMDL
MODEL       44
REMARK 921   NORMALIZED FREE ENERGY PREDICTED BY IDOCK:   -5.65 KCAL/MOL
REMARK 922        TOTAL FREE ENERGY PREDICTED BY IDOCK:   -6.41 KCAL/MOL
REMARK 923 INTER-LIGAND FREE ENERGY PREDICTED BY IDOCK:   -5.95 KCAL/MOL
REMARK 924 INTRA-LIGAND FREE ENERGY PREDICTED BY IDOCK:   -0.46 KCAL/MOL
REMARK 927      BINDING AFFINITY PREDICTED BY RF-SCORE:    0.00 PKD
ROOT
HETATM    1  O   UNL     1     -12.312  14.082  63.541  1.00  0.00    -0.748 OA 
HETATM    2  N   UNL     1     -12.383  12.989  64.116  1.00  0.00    -0.372 N  
HETATM    3  O   UNL     1     -13.229  12.117  63.874  1.00  0.00    -0.748 OA 
HETATM    4  C   UNL     1     -11.402  12.709  65.173  1.00  0.00    -0.308 A  
HETATM    5  C   UNL     1     -10.405  13.649  65.458  1.00  0.00    -0.319 A  
HETATM    6  C   UNL     1      -9.505  13.420  66.516  1.00  0.00    -0.252 A  
HETATM    7  C   UNL     1      -9.561  12.208  67.228  1.00  0.00    -0.185 A  
HETATM    8  N   UNL     1      -8.664  11.838  68.240  1.00  0.00    -0.164 N  
HETATM    9  C   UNL     1     -10.580  11.288  66.941  1.00  0.00    -0.300 A  
HETATM   10  C   UNL     1     -11.500  11.531  65.918  1.00  0.00    -0.086 A  
HETATM   11  H   UNL     1      -9.022  11.203  68.954  1.00  0.00     0.000 HD 
HETATM   12  C   UNL     1      -7.357  12.233  68.378  1.00  0.00    -0.109 C  
HETATM   13  C   UNL     1      -6.758  13.090  67.279  1.00  0.00    -0.008 C  
HETATM   14  O   UNL     1      -6.693  11.789  69.316  1.00  0.00    -0.103 OA 
HETATM   15  N   UNL     1      -7.373  14.411  67.275  1.00  0.00    -0.294 NA 
HETATM   16  C   UNL     1      -8.610  14.545  66.933  1.00  0.00    -0.179 C  
HETATM   17  H   UNL     1      -6.826  15.230  67.542  1.00  0.00     0.000 HD 
ENDROOT
BRANCH  16  18
HETATM   18  C   UNL     1      -9.175  15.938  66.990  1.00  0.00    -0.231 A  
HETATM   19  C   UNL     1      -8.577  16.947  66.224  1.00  0.00    -0.319 A  
HETATM   20  C   UNL     1      -9.075  18.250  66.265  1.00  0.00    -0.205 A  
HETATM   21  C   UNL     1     -10.171  18.553  67.072  1.00  0.00    -0.410 A  
HETATM   22  C   UNL     1     -10.762  17.558  67.848  1.00  0.00    -0.340 A  
HETATM   23  C   UNL     1     -10.260  16.256  67.819  1.00  0.00    -0.270 A  
ENDBRANCH  16  18
TORSDOF 1
ENDMDL
MODEL       45
REMARK 921   NORMALIZED FREE ENERGY PREDICTED BY IDOCK:   -5.62 KCAL/MOL
REMARK 922        TOTAL FREE ENERGY PREDICTED BY IDOCK:   -6.38 KCAL/MOL
REMARK 923 INTER-LIGAND FREE ENERGY PREDICTED BY IDOCK:   -5.89 KCAL/MOL
REMARK 924 INTRA-LIGAND FREE ENERGY PREDICTED BY IDOCK:   -0.49 KCAL/MOL
REMARK 927      BINDING AFFINITY PREDICTED BY RF-SCORE:    0.00 PKD
ROOT
HETATM    1  O   UNL     1      -8.600   9.830  69.125  1.00  0.00    -0.133 OA 
HETATM    2  N   UNL     1      -8.806   9.356  68.000  1.00  0.00    -0.124 N  
HETATM    3  O   UNL     1      -8.481   8.215  67.643  1.00  0.00    -0.129 OA 
HETATM    4  C   UNL     1      -9.473  10.214  67.012  1.00  0.00    -0.167 A  
HETATM    5  C   UNL     1      -9.891  11.499  67.379  1.00  0.00    -0.202 A  
HETATM    6  C   UNL     1     -10.466  12.352  66.418  1.00  0.00    -0.267 A  
HETATM    7  C   UNL     1     -10.694  11.879  65.113  1.00  0.00    -0.291 A  
HETATM    8  N   UNL     1     -11.336  12.609  64.102  1.00  0.00    -0.354 N  
HETATM    9  C   UNL     1     -10.250  10.596  64.759  1.00  0.00    -0.401 A  
HETATM   10  C   UNL     1      -9.641   9.761  65.700  1.00  0.00    -0.329 A  
HETATM   11  H   UNL     1     -11.071  12.385  63.144  1.00  0.00     0.000 HD 
HETATM   12  C   UNL     1     -12.281  13.591  64.259  1.00  0.00    -0.396 C  
HETATM   13  C   UNL     1     -12.778  13.876  65.665  1.00  0.00    -0.495 C  
HETATM   14  O   UNL     1     -12.770  14.117  63.259  1.00  0.00    -0.714 OA 
HETATM   15  N   UNL     1     -11.720  14.481  66.463  1.00  0.00    -0.380 NA 
HETATM   16  C   UNL     1     -10.684  13.785  66.793  1.00  0.00    -0.276 C  
HETATM   17  H   UNL     1     -11.798  15.452  66.762  1.00  0.00     0.000 HD 
ENDROOT
BRANCH  16  18
HETATM   18  C   UNL     1      -9.624  14.495  67.588  1.00  0.00    -0.214 A  
HETATM   19  C   UNL     1      -9.880  14.822  68.926  1.00  0.00    -0.222 A  
HETATM   20  C   UNL     1      -8.917  15.489  69.684  1.00  0.00    -0.158 A  
HETATM   21  C   UNL     1      -7.695  15.837  69.110  1.00  0.00    -0.220 A  
HETATM   22  C   UNL     1      -7.438  15.530  67.775  1.00  0.00    -0.168 A  
HETATM   23  C   UNL     1      -8.403  14.872  67.011  1.00  0.00    -0.246 A  
ENDBRANCH  16  18
TORSDOF 1
ENDMDL
MODEL       46
REMARK 921   NORMALIZED FREE ENERGY PREDICTED BY IDOCK:   -5.60 KCAL/MOL
REMARK 922        TOTAL FREE ENERGY PREDICTED BY IDOCK:   -6.36 KCAL/MOL
REMARK 923 INTER-LIGAND FREE ENERGY PREDICTED BY IDOCK:   -6.01 KCAL/MOL
REMARK 924 INTRA-LIGAND FREE ENERGY PREDICTED BY IDOCK:   -0.35 KCAL/MOL
REMARK 927      BINDING AFFINITY PREDICTED BY RF-SCORE:    0.00 PKD
ROOT
HETATM    1  O   UNL     1     -11.163  16.806  63.869  1.00  0.00    -0.878 OA 
HETATM    2  N   UNL     1     -11.858  15.855  64.248  1.00  0.00    -0.253 N  
HETATM    3  O   UNL     1     -13.020  15.637  63.877  1.00  0.00    -0.485 OA 
HETATM    4  C   UNL     1     -11.268  14.925  65.219  1.00  0.00    -0.369 A  
HETATM    5  C   UNL     1      -9.946  15.109  65.641  1.00  0.00    -0.387 A  
HETATM    6  C   UNL     1      -9.397  14.263  66.624  1.00  0.00    -0.302 A  
HETATM    7  C   UNL     1     -10.154  13.185  67.117  1.00  0.00    -0.242 A  
HETATM    8  N   UNL     1      -9.681  12.232  68.030  1.00  0.00    -0.200 N  
HETATM    9  C   UNL     1     -11.484  13.029  66.697  1.00  0.00    -0.382 A  
HETATM   10  C   UNL     1     -12.045  13.891  65.752  1.00  0.00    -0.449 A  
HETATM   11  H   UNL     1     -10.378  11.794  68.631  1.00  0.00     0.000 HD 
HETATM   12  C   UNL     1      -8.383  11.822  68.206  1.00  0.00    -0.159 C  
HETATM   13  C   UNL     1      -7.333  12.373  67.258  1.00  0.00    -0.127 C  
HETATM   14  O   UNL     1      -8.138  10.948  69.038  1.00  0.00    -0.142 OA 
HETATM   15  N   UNL     1      -7.133  13.797  67.496  1.00  0.00    -0.229 NA 
HETATM   16  C   UNL     1      -8.070  14.636  67.209  1.00  0.00    -0.206 C  
HETATM   17  H   UNL     1      -6.253  14.130  67.888  1.00  0.00     0.000 HD 
ENDROOT
BRANCH  16  18
HETATM   18  C   UNL     1      -7.795  16.082  67.518  1.00  0.00    -0.170 A  
HETATM   19  C   UNL     1      -8.131  16.583  68.783  1.00  0.00    -0.244 A  
HETATM   20  C   UNL     1      -7.895  17.923  69.093  1.00  0.00     0.010 A  
HETATM   21  C   UNL     1      -7.326  18.770  68.143  1.00  0.00    -0.281 A  
HETATM   22  C   UNL     1      -7.004  18.283  66.878  1.00  0.00    -0.213 A  
HETATM   23  C   UNL     1      -7.248  16.946  66.559  1.00  0.00    -0.297 A  
ENDBRANCH  16  18
TORSDOF 1
ENDMDL
MODEL       47
REMARK 921   NORMALIZED FREE ENERGY PREDICTED BY IDOCK:   -5.60 KCAL/MOL
REMARK 922        TOTAL FREE ENERGY PREDICTED BY IDOCK:   -6.36 KCAL/MOL
REMARK 923 INTER-LIGAND FREE ENERGY PREDICTED BY IDOCK:   -5.89 KCAL/MOL
REMARK 924 INTRA-LIGAND FREE ENERGY PREDICTED BY IDOCK:   -0.47 KCAL/MOL
REMARK 927      BINDING AFFINITY PREDICTED BY RF-SCORE:    0.00 PKD
ROOT
HETATM    1  O   UNL     1     -10.062  10.207  65.060  1.00  0.00    -0.330 OA 
HETATM    2  N   UNL     1     -10.394  11.373  65.308  1.00  0.00    -0.270 N  
HETATM    3  O   UNL     1     -10.329  12.313  64.503  1.00  0.00    -0.286 OA 
HETATM    4  C   UNL     1     -10.889  11.667  66.659  1.00  0.00    -0.283 A  
HETATM    5  C   UNL     1     -11.014  10.631  67.592  1.00  0.00    -0.370 A  
HETATM    6  C   UNL     1     -11.420  10.917  68.910  1.00  0.00    -0.369 A  
HETATM    7  C   UNL     1     -11.778  12.231  69.259  1.00  0.00    -0.330 A  
HETATM    8  N   UNL     1     -12.277  12.614  70.512  1.00  0.00    -0.411 N  
HETATM    9  C   UNL     1     -11.627  13.260  68.316  1.00  0.00    -0.369 A  
HETATM   10  C   UNL     1     -11.185  12.985  67.019  1.00  0.00    -0.325 A  
HETATM   11  H   UNL     1     -12.091  13.575  70.800  1.00  0.00     0.000 HD 
HETATM   12  C   UNL     1     -12.987  11.841  71.395  1.00  0.00    -0.306 C  
HETATM   13  C   UNL     1     -13.374  10.441  70.957  1.00  0.00    -0.175 C  
HETATM   14  O   UNL     1     -13.379  12.342  72.450  1.00  0.00    -0.481 OA 
HETATM   15  N   UNL     1     -12.190   9.597  70.851  1.00  0.00    -0.374 NA 
HETATM   16  C   UNL     1     -11.318   9.824  69.928  1.00  0.00    -0.192 C  
HETATM   17  H   UNL     1     -12.051   8.828  71.506  1.00  0.00     0.000 HD 
ENDROOT
BRANCH  16  18
HETATM   18  C   UNL     1     -10.109   8.930  69.912  1.00  0.00    -0.204 A  
HETATM   19  C   UNL     1      -8.901   9.409  70.435  1.00  0.00    -0.290 A  
HETATM   20  C   UNL     1      -7.761   8.603  70.424  1.00  0.00    -0.081 A  
HETATM   21  C   UNL     1      -7.821   7.317  69.889  1.00  0.00    -0.112 A  
HETATM   22  C   UNL     1      -9.015   6.839  69.353  1.00  0.00    -0.137 A  
HETATM   23  C   UNL     1     -10.154   7.645  69.352  1.00  0.00    -0.196 A  
ENDBRANCH  16  18
TORSDOF 1
ENDMDL
MODEL       48
REMARK 921   NORMALIZED FREE ENERGY PREDICTED BY IDOCK:   -5.59 KCAL/MOL
REMARK 922        TOTAL FREE ENERGY PREDICTED BY IDOCK:   -6.34 KCAL/MOL
REMARK 923 INTER-LIGAND FREE ENERGY PREDICTED BY IDOCK:   -6.00 KCAL/MOL
REMARK 924 INTRA-LIGAND FREE ENERGY PREDICTED BY IDOCK:   -0.34 KCAL/MOL
REMARK 927      BINDING AFFINITY PREDICTED BY RF-SCORE:    0.00 PKD
ROOT
HETATM    1  O   UNL     1     -10.051   8.256  69.293  1.00  0.00    -0.189 OA 
HETATM    2  N   UNL     1     -10.878   8.487  70.184  1.00  0.00    -0.236 N  
HETATM    3  O   UNL     1     -11.283   7.652  71.005  1.00  0.00    -0.257 OA 
HETATM    4  C   UNL     1     -11.428   9.845  70.267  1.00  0.00    -0.281 A  
HETATM    5  C   UNL     1     -10.974  10.832  69.384  1.00  0.00    -0.305 A  
HETATM    6  C   UNL     1     -11.548  12.117  69.410  1.00  0.00    -0.381 A  
HETATM    7  C   UNL     1     -12.518  12.428  70.381  1.00  0.00    -0.136 A  
HETATM    8  N   UNL     1     -13.093  13.695  70.556  1.00  0.00    -0.006 N  
HETATM    9  C   UNL     1     -12.975  11.420  71.244  1.00  0.00    -0.415 A  
HETATM   10  C   UNL     1     -12.436  10.131  71.193  1.00  0.00    -0.490 A  
HETATM   11  H   UNL     1     -14.036  13.715  70.943  1.00  0.00     0.000 HD 
HETATM   12  C   UNL     1     -12.529  14.911  70.263  1.00  0.00    -0.336 C  
HETATM   13  C   UNL     1     -11.088  14.925  69.786  1.00  0.00    -0.274 C  
HETATM   14  O   UNL     1     -13.163  15.939  70.505  1.00  0.00    -0.384 OA 
HETATM   15  N   UNL     1     -10.987  14.328  68.461  1.00  0.00    -0.243 NA 
HETATM   16  C   UNL     1     -11.200  13.065  68.305  1.00  0.00    -0.275 C  
HETATM   17  H   UNL     1     -10.749  14.908  67.656  1.00  0.00     0.000 HD 
ENDROOT
BRANCH  16  18
HETATM   18  C   UNL     1     -11.110  12.537  66.900  1.00  0.00    -0.323 A  
HETATM   19  C   UNL     1      -9.880  12.058  66.431  1.00  0.00    -0.238 A  
HETATM   20  C   UNL     1      -9.765  11.570  65.128  1.00  0.00    -0.268 A  
HETATM   21  C   UNL     1     -10.877  11.562  64.286  1.00  0.00    -0.421 A  
HETATM   22  C   UNL     1     -12.100  12.052  64.740  1.00  0.00    -0.282 A  
HETATM   23  C   UNL     1     -12.216  12.550  66.039  1.00  0.00    -0.263 A  
ENDBRANCH  16  18
TORSDOF 1
ENDMDL
MODEL       49
REMARK 921   NORMALIZED FREE ENERGY PREDICTED BY IDOCK:   -5.57 KCAL/MOL
REMARK 922        TOTAL FREE ENERGY PREDICTED BY IDOCK:   -6.33 KCAL/MOL
REMARK 923 INTER-LIGAND FREE ENERGY PREDICTED BY IDOCK:   -6.26 KCAL/MOL
REMARK 924 INTRA-LIGAND FREE ENERGY PREDICTED BY IDOCK:   -0.07 KCAL/MOL
REMARK 927      BINDING AFFINITY PREDICTED BY RF-SCORE:    0.00 PKD
ROOT
HETATM    1  O   UNL     1     -12.389  14.363  74.134  1.00  0.00    -0.227 OA 
HETATM    2  N   UNL     1     -12.818  15.175  73.304  1.00  0.00    -0.483 N  
HETATM    3  O   UNL     1     -13.403  16.231  73.586  1.00  0.00    -0.670 OA 
HETATM    4  C   UNL     1     -12.633  14.858  71.883  1.00  0.00    -0.331 A  
HETATM    5  C   UNL     1     -11.947  13.694  71.516  1.00  0.00     0.296 A  
HETATM    6  C   UNL     1     -11.827  13.348  70.156  1.00  0.00    -0.342 A  
HETATM    7  C   UNL     1     -12.326  14.216  69.169  1.00  0.00    -0.138 A  
HETATM    8  N   UNL     1     -12.188  14.016  67.788  1.00  0.00    -0.528 N  
HETATM    9  C   UNL     1     -13.029  15.368  69.557  1.00  0.00     0.461 A  
HETATM   10  C   UNL     1     -13.184  15.694  70.907  1.00  0.00    -0.355 A  
HETATM   11  H   UNL     1     -12.914  14.419  67.197  1.00  0.00     0.000 HD 
HETATM   12  C   UNL     1     -11.184  13.338  67.144  1.00  0.00    -0.299 C  
HETATM   13  C   UNL     1     -10.031  12.817  67.982  1.00  0.00    -0.225 C  
HETATM   14  O   UNL     1     -11.196  13.277  65.914  1.00  0.00    -0.287 OA 
HETATM   15  N   UNL     1     -10.483  11.737  68.851  1.00  0.00    -0.329 NA 
HETATM   16  C   UNL     1     -11.293  11.989  69.823  1.00  0.00    -0.126 C  
HETATM   17  H   UNL     1     -10.160  10.784  68.691  1.00  0.00     0.000 HD 
ENDROOT
BRANCH  16  18
HETATM   18  C   UNL     1     -11.738  10.813  70.648  1.00  0.00    -0.442 A  
HETATM   19  C   UNL     1     -12.988  10.858  71.279  1.00  0.00    -0.492 A  
HETATM   20  C   UNL     1     -13.422   9.785  72.059  1.00  0.00    -0.498 A  
HETATM   21  C   UNL     1     -12.609   8.663  72.215  1.00  0.00    -0.457 A  
HETATM   22  C   UNL     1     -11.357   8.618  71.604  1.00  0.00    -0.377 A  
HETATM   23  C   UNL     1     -10.915   9.693  70.833  1.00  0.00    -0.412 A  
ENDBRANCH  16  18
TORSDOF 1
ENDMDL
MODEL       50
REMARK 921   NORMALIZED FREE ENERGY PREDICTED BY IDOCK:   -5.56 KCAL/MOL
REMARK 922        TOTAL FREE ENERGY PREDICTED BY IDOCK:   -6.31 KCAL/MOL
REMARK 923 INTER-LIGAND FREE ENERGY PREDICTED BY IDOCK:   -5.84 KCAL/MOL
REMARK 924 INTRA-LIGAND FREE ENERGY PREDICTED BY IDOCK:   -0.48 KCAL/MOL
REMARK 927      BINDING AFFINITY PREDICTED BY RF-SCORE:    0.00 PKD
ROOT
HETATM    1  O   UNL     1     -11.707  12.837  63.527  1.00  0.00    -0.480 OA 
HETATM    2  N   UNL     1     -12.042  13.437  64.556  1.00  0.00    -0.394 N  
HETATM    3  O   UNL     1     -12.664  14.508  64.578  1.00  0.00    -0.653 OA 
HETATM    4  C   UNL     1     -11.665  12.843  65.845  1.00  0.00    -0.399 A  
HETATM    5  C   UNL     1     -10.993  11.615  65.872  1.00  0.00    -0.334 A  
HETATM    6  C   UNL     1     -10.566  11.074  67.099  1.00  0.00    -0.294 A  
HETATM    7  C   UNL     1     -10.890  11.731  68.300  1.00  0.00    -0.220 A  
HETATM    8  N   UNL     1     -10.592  11.242  69.581  1.00  0.00    -0.454 N  
HETATM    9  C   UNL     1     -11.546  12.970  68.252  1.00  0.00    -0.375 A  
HETATM   10  C   UNL     1     -11.935  13.530  67.032  1.00  0.00    -0.440 A  
HETATM   11  H   UNL     1     -10.463  11.939  70.313  1.00  0.00     0.000 HD 
HETATM   12  C   UNL     1     -10.454   9.930  69.957  1.00  0.00    -0.284 C  
HETATM   13  C   UNL     1     -10.742   8.862  68.919  1.00  0.00    -0.106 C  
HETATM   14  O   UNL     1     -10.217   9.667  71.137  1.00  0.00    -0.272 OA 
HETATM   15  N   UNL     1      -9.727   8.883  67.874  1.00  0.00    -0.155 NA 
HETATM   16  C   UNL     1      -9.656   9.886  67.064  1.00  0.00    -0.175 C  
HETATM   17  H   UNL     1      -9.072   8.107  67.782  1.00  0.00     0.000 HD 
ENDROOT
BRANCH  16  18
HETATM   18  C   UNL     1      -8.558   9.845  66.038  1.00  0.00    -0.147 A  
HETATM   19  C   UNL     1      -8.697   9.006  64.925  1.00  0.00    -0.200 A  
HETATM   20  C   UNL     1      -7.689   8.941  63.962  1.00  0.00    -0.128 A  
HETATM   21  C   UNL     1      -6.536   9.711  64.107  1.00  0.00    -0.111 A  
HETATM   22  C   UNL     1      -6.382  10.535  65.220  1.00  0.00    -0.080 A  
HETATM   23  C   UNL     1      -7.383  10.595  66.190  1.00  0.00    -0.138 A  
ENDBRANCH  16  18
TORSDOF 1
ENDMDL
MODEL       51
REMARK 921   NORMALIZED FREE ENERGY PREDICTED BY IDOCK:   -5.52 KCAL/MOL
REMARK 922        TOTAL FREE ENERGY PREDICTED BY IDOCK:   -6.28 KCAL/MOL
REMARK 923 INTER-LIGAND FREE ENERGY PREDICTED BY IDOCK:   -5.89 KCAL/MOL
REMARK 924 INTRA-LIGAND FREE ENERGY PREDICTED BY IDOCK:   -0.38 KCAL/MOL
REMARK 927      BINDING AFFINITY PREDICTED BY RF-SCORE:    0.00 PKD
ROOT
HETATM    1  O   UNL     1     -12.238  13.712  67.240  1.00  0.00    -0.366 OA 
HETATM    2  N   UNL     1     -12.476  13.573  66.034  1.00  0.00    -0.424 N  
HETATM    3  O   UNL     1     -13.343  14.199  65.408  1.00  0.00    -0.705 OA 
HETATM    4  C   UNL     1     -11.683  12.585  65.293  1.00  0.00    -0.386 A  
HETATM    5  C   UNL     1     -10.667  11.879  65.948  1.00  0.00    -0.326 A  
HETATM    6  C   UNL     1      -9.950  10.880  65.263  1.00  0.00    -0.330 A  
HETATM    7  C   UNL     1     -10.201  10.654  63.898  1.00  0.00    -0.236 A  
HETATM    8  N   UNL     1      -9.491   9.749  63.096  1.00  0.00    -0.534 N  
HETATM    9  C   UNL     1     -11.236  11.358  63.263  1.00  0.00    -0.152 A  
HETATM   10  C   UNL     1     -11.978  12.321  63.952  1.00  0.00    -0.582 A  
HETATM   11  H   UNL     1      -9.996   9.350  62.306  1.00  0.00     0.000 HD 
HETATM   12  C   UNL     1      -8.191   9.339  63.257  1.00  0.00    -0.176 C  
HETATM   13  C   UNL     1      -7.376   9.991  64.358  1.00  0.00    -0.138 C  
HETATM   14  O   UNL     1      -7.705   8.554  62.442  1.00  0.00    -0.116 OA 
HETATM   15  N   UNL     1      -7.879   9.593  65.666  1.00  0.00    -0.104 NA 
HETATM   16  C   UNL     1      -9.040   9.997  66.059  1.00  0.00    -0.155 C  
HETATM   17  H   UNL     1      -7.315   8.996  66.270  1.00  0.00     0.000 HD 
ENDROOT
BRANCH  16  18
HETATM   18  C   UNL     1      -9.499   9.512  67.407  1.00  0.00    -0.164 A  
HETATM   19  C   UNL     1     -10.261   8.339  67.484  1.00  0.00    -0.309 A  
HETATM   20  C   UNL     1     -10.708   7.870  68.721  1.00  0.00    -0.082 A  
HETATM   21  C   UNL     1     -10.398   8.572  69.885  1.00  0.00    -0.210 A  
HETATM   22  C   UNL     1      -9.654   9.748  69.815  1.00  0.00    -0.256 A  
HETATM   23  C   UNL     1      -9.215  10.225  68.580  1.00  0.00    -0.144 A  
ENDBRANCH  16  18
TORSDOF 1
ENDMDL
MODEL       52
REMARK 921   NORMALIZED FREE ENERGY PREDICTED BY IDOCK:   -5.47 KCAL/MOL
REMARK 922        TOTAL FREE ENERGY PREDICTED BY IDOCK:   -6.22 KCAL/MOL
REMARK 923 INTER-LIGAND FREE ENERGY PREDICTED BY IDOCK:   -5.73 KCAL/MOL
REMARK 924 INTRA-LIGAND FREE ENERGY PREDICTED BY IDOCK:   -0.49 KCAL/MOL
REMARK 927      BINDING AFFINITY PREDICTED BY RF-SCORE:    0.00 PKD
ROOT
HETATM    1  O   UNL     1      -9.354  16.799  65.727  1.00  0.00    -0.515 OA 
HETATM    2  N   UNL     1      -8.356  16.501  66.395  1.00  0.00    -0.297 N  
HETATM    3  O   UNL     1      -7.362  17.226  66.543  1.00  0.00    -0.219 OA 
HETATM    4  C   UNL     1      -8.342  15.187  67.050  1.00  0.00    -0.231 A  
HETATM    5  C   UNL     1      -9.457  14.347  66.941  1.00  0.00    -0.268 A  
HETATM    6  C   UNL     1      -9.424  13.058  67.506  1.00  0.00    -0.198 A  
HETATM    7  C   UNL     1      -8.301  12.652  68.249  1.00  0.00    -0.165 A  
HETATM    8  N   UNL     1      -8.194  11.428  68.926  1.00  0.00    -0.321 N  
HETATM    9  C   UNL     1      -7.185  13.499  68.329  1.00  0.00    -0.111 A  
HETATM   10  C   UNL     1      -7.200  14.764  67.735  1.00  0.00    -0.192 A  
HETATM   11  H   UNL     1      -7.252  11.055  69.043  1.00  0.00     0.000 HD 
HETATM   12  C   UNL     1      -9.216  10.675  69.448  1.00  0.00    -0.051 C  
HETATM   13  C   UNL     1     -10.619  11.249  69.386  1.00  0.00    -0.099 C  
HETATM   14  O   UNL     1      -8.947   9.630  70.042  1.00  0.00    -0.207 OA 
HETATM   15  N   UNL     1     -11.086  11.300  68.007  1.00  0.00    -0.243 NA 
HETATM   16  C   UNL     1     -10.538  12.115  67.171  1.00  0.00    -0.226 C  
HETATM   17  H   UNL     1     -11.846  10.691  67.702  1.00  0.00     0.000 HD 
ENDROOT
BRANCH  16  18
HETATM   18  C   UNL     1     -11.055  12.079  65.759  1.00  0.00    -0.371 A  
HETATM   19  C   UNL     1     -10.251  11.527  64.754  1.00  0.00    -0.331 A  
HETATM   20  C   UNL     1     -10.703  11.488  63.433  1.00  0.00    -0.444 A  
HETATM   21  C   UNL     1     -11.957  12.003  63.110  1.00  0.00    -0.323 A  
HETATM   22  C   UNL     1     -12.756  12.569  64.102  1.00  0.00    -0.417 A  
HETATM   23  C   UNL     1     -12.304  12.619  65.421  1.00  0.00    -0.499 A  
ENDBRANCH  16  18
TORSDOF 1
ENDMDL
MODEL       53
REMARK 921   NORMALIZED FREE ENERGY PREDICTED BY IDOCK:   -5.46 KCAL/MOL
REMARK 922        TOTAL FREE ENERGY PREDICTED BY IDOCK:   -6.21 KCAL/MOL
REMARK 923 INTER-LIGAND FREE ENERGY PREDICTED BY IDOCK:   -6.55 KCAL/MOL
REMARK 924 INTRA-LIGAND FREE ENERGY PREDICTED BY IDOCK:    0.34 KCAL/MOL
REMARK 927      BINDING AFFINITY PREDICTED BY RF-SCORE:    0.00 PKD
ROOT
HETATM    1  O   UNL     1     -12.875  13.809  66.143  1.00  0.00    -0.349 OA 
HETATM    2  N   UNL     1     -11.784  13.999  65.591  1.00  0.00    -0.342 N  
HETATM    3  O   UNL     1     -11.408  13.432  64.555  1.00  0.00    -0.338 OA 
HETATM    4  C   UNL     1     -10.862  14.956  66.215  1.00  0.00    -0.331 A  
HETATM    5  C   UNL     1     -11.256  15.648  67.366  1.00  0.00    -0.219 A  
HETATM    6  C   UNL     1     -10.352  16.514  68.010  1.00  0.00    -0.294 A  
HETATM    7  C   UNL     1      -9.084  16.743  67.446  1.00  0.00    -0.216 A  
HETATM    8  N   UNL     1      -8.139  17.647  67.952  1.00  0.00    -0.227 N  
HETATM    9  C   UNL     1      -8.699  16.025  66.303  1.00  0.00    -0.372 A  
HETATM   10  C   UNL     1      -9.580  15.134  65.684  1.00  0.00    -0.295 A  
HETATM   11  H   UNL     1      -7.160  17.430  67.766  1.00  0.00     0.000 HD 
HETATM   12  C   UNL     1      -8.383  18.790  68.669  1.00  0.00    -0.325 C  
HETATM   13  C   UNL     1      -9.830  19.200  68.874  1.00  0.00    -0.424 C  
HETATM   14  O   UNL     1      -7.434  19.493  69.018  1.00  0.00    -0.363 OA 
HETATM   15  N   UNL     1     -10.505  18.257  69.755  1.00  0.00     0.047 NA 
HETATM   16  C   UNL     1     -10.731  17.051  69.355  1.00  0.00    -0.184 C  
HETATM   17  H   UNL     1     -10.799  18.549  70.687  1.00  0.00     0.000 HD 
ENDROOT
BRANCH  16  18
HETATM   18  C   UNL     1     -11.401  16.132  70.339  1.00  0.00    -0.377 A  
HETATM   19  C   UNL     1     -11.686  14.815  69.955  1.00  0.00    -0.352 A  
HETATM   20  C   UNL     1     -12.316  13.943  70.845  1.00  0.00    -0.451 A  
HETATM   21  C   UNL     1     -12.666  14.382  72.121  1.00  0.00    -0.401 A  
HETATM   22  C   UNL     1     -12.399  15.695  72.505  1.00  0.00    -0.528 A  
HETATM   23  C   UNL     1     -11.780  16.573  71.615  1.00  0.00    -0.205 A  
ENDBRANCH  16  18
TORSDOF 1
ENDMDL
MODEL       54
REMARK 921   NORMALIZED FREE ENERGY PREDICTED BY IDOCK:   -5.43 KCAL/MOL
REMARK 922        TOTAL FREE ENERGY PREDICTED BY IDOCK:   -6.18 KCAL/MOL
REMARK 923 INTER-LIGAND FREE ENERGY PREDICTED BY IDOCK:   -5.72 KCAL/MOL
REMARK 924 INTRA-LIGAND FREE ENERGY PREDICTED BY IDOCK:   -0.46 KCAL/MOL
REMARK 927      BINDING AFFINITY PREDICTED BY RF-SCORE:    0.00 PKD
ROOT
HETATM    1  O   UNL     1     -11.248  13.250  68.772  1.00  0.00    -0.248 OA 
HETATM    2  N   UNL     1     -12.038  13.102  69.713  1.00  0.00    -0.298 N  
HETATM    3  O   UNL     1     -12.768  13.993  70.169  1.00  0.00    -0.302 OA 
HETATM    4  C   UNL     1     -12.107  11.777  70.342  1.00  0.00    -0.352 A  
HETATM    5  C   UNL     1     -11.328  10.729  69.838  1.00  0.00    -0.385 A  
HETATM    6  C   UNL     1     -11.335   9.476  70.480  1.00  0.00    -0.343 A  
HETATM    7  C   UNL     1     -12.190   9.259  71.575  1.00  0.00    -0.362 A  
HETATM    8  N   UNL     1     -12.343   8.031  72.236  1.00  0.00    -0.460 N  
HETATM    9  C   UNL     1     -12.948  10.327  72.079  1.00  0.00    -0.503 A  
HETATM   10  C   UNL     1     -12.912  11.584  71.469  1.00  0.00    -0.485 A  
HETATM   11  H   UNL     1     -12.610   8.075  73.218  1.00  0.00     0.000 HD 
HETATM   12  C   UNL     1     -12.173   6.777  71.706  1.00  0.00    -0.358 C  
HETATM   13  C   UNL     1     -11.878   6.670  70.222  1.00  0.00    -0.316 C  
HETATM   14  O   UNL     1     -12.375   5.793  72.420  1.00  0.00    -0.159 OA 
HETATM   15  N   UNL     1     -10.553   7.198  69.928  1.00  0.00    -0.224 NA 
HETATM   16  C   UNL     1     -10.321   8.461  70.051  1.00  0.00    -0.211 C  
HETATM   17  H   UNL     1      -9.808   6.570  69.625  1.00  0.00     0.000 HD 
ENDROOT
BRANCH  16  18
HETATM   18  C   UNL     1      -8.917   8.918  69.762  1.00  0.00    -0.149 A  
HETATM   19  C   UNL     1      -8.047   9.160  70.833  1.00  0.00    -0.201 A  
HETATM   20  C   UNL     1      -6.742   9.593  70.594  1.00  0.00    -0.116 A  
HETATM   21  C   UNL     1      -6.300   9.790  69.286  1.00  0.00    -0.047 A  
HETATM   22  C   UNL     1      -7.165   9.566  68.216  1.00  0.00    -0.076 A  
HETATM   23  C   UNL     1      -8.474   9.143  68.451  1.00  0.00    -0.128 A  
ENDBRANCH  16  18
TORSDOF 1
ENDMDL
MODEL       55
REMARK 921   NORMALIZED FREE ENERGY PREDICTED BY IDOCK:   -5.40 KCAL/MOL
REMARK 922        TOTAL FREE ENERGY PREDICTED BY IDOCK:   -6.15 KCAL/MOL
REMARK 923 INTER-LIGAND FREE ENERGY PREDICTED BY IDOCK:   -6.46 KCAL/MOL
REMARK 924 INTRA-LIGAND FREE ENERGY PREDICTED BY IDOCK:    0.31 KCAL/MOL
REMARK 927      BINDING AFFINITY PREDICTED BY RF-SCORE:    0.00 PKD
ROOT
HETATM    1  O   UNL     1     -12.391  14.372  67.086  1.00  0.00    -0.335 OA 
HETATM    2  N   UNL     1     -12.333  13.977  65.914  1.00  0.00    -0.471 N  
HETATM    3  O   UNL     1     -12.906  14.516  64.957  1.00  0.00    -0.562 OA 
HETATM    4  C   UNL     1     -11.539  12.772  65.641  1.00  0.00    -0.370 A  
HETATM    5  C   UNL     1     -10.845  12.148  66.684  1.00  0.00    -0.307 A  
HETATM    6  C   UNL     1     -10.139  10.954  66.444  1.00  0.00    -0.280 A  
HETATM    7  C   UNL     1     -10.067  10.438  65.137  1.00  0.00    -0.308 A  
HETATM    8  N   UNL     1      -9.324   9.308  64.767  1.00  0.00    -0.444 N  
HETATM    9  C   UNL     1     -10.786  11.066  64.109  1.00  0.00    -0.344 A  
HETATM   10  C   UNL     1     -11.521  12.230  64.352  1.00  0.00    -0.417 A  
HETATM   11  H   UNL     1      -9.668   8.783  63.963  1.00  0.00     0.000 HD 
HETATM   12  C   UNL     1      -8.187   8.828  65.367  1.00  0.00    -0.136 C  
HETATM   13  C   UNL     1      -7.588   9.642  66.499  1.00  0.00    -0.098 C  
HETATM   14  O   UNL     1      -7.637   7.831  64.897  1.00  0.00    -0.088 OA 
HETATM   15  N   UNL     1      -8.462   9.610  67.664  1.00  0.00    -0.125 NA 
HETATM   16  C   UNL     1      -9.608  10.202  67.625  1.00  0.00    -0.148 C  
HETATM   17  H   UNL     1      -8.169   9.122  68.510  1.00  0.00     0.000 HD 
ENDROOT
BRANCH  16  18
HETATM   18  C   UNL     1     -10.463  10.092  68.857  1.00  0.00    -0.229 A  
HETATM   19  C   UNL     1     -10.417   8.913  69.613  1.00  0.00    -0.218 A  
HETATM   20  C   UNL     1     -11.207   8.780  70.757  1.00  0.00    -0.309 A  
HETATM   21  C   UNL     1     -12.048   9.821  71.148  1.00  0.00    -0.460 A  
HETATM   22  C   UNL     1     -12.111  10.990  70.392  1.00  0.00    -0.463 A  
HETATM   23  C   UNL     1     -11.331  11.123  69.243  1.00  0.00    -0.349 A  
ENDBRANCH  16  18
TORSDOF 1
ENDMDL
MODEL       56
REMARK 921   NORMALIZED FREE ENERGY PREDICTED BY IDOCK:   -5.35 KCAL/MOL
REMARK 922        TOTAL FREE ENERGY PREDICTED BY IDOCK:   -6.10 KCAL/MOL
REMARK 923 INTER-LIGAND FREE ENERGY PREDICTED BY IDOCK:   -5.88 KCAL/MOL
REMARK 924 INTRA-LIGAND FREE ENERGY PREDICTED BY IDOCK:   -0.22 KCAL/MOL
REMARK 927      BINDING AFFINITY PREDICTED BY RF-SCORE:    0.00 PKD
ROOT
HETATM    1  O   UNL     1      -8.841   9.353  71.145  1.00  0.00    -0.272 OA 
HETATM    2  N   UNL     1      -7.959   9.662  70.334  1.00  0.00    -0.177 N  
HETATM    3  O   UNL     1      -6.775   9.302  70.406  1.00  0.00    -0.055 OA 
HETATM    4  C   UNL     1      -8.338  10.530  69.212  1.00  0.00    -0.137 A  
HETATM    5  C   UNL     1      -9.671  10.933  69.068  1.00  0.00    -0.181 A  
HETATM    6  C   UNL     1     -10.029  11.822  68.037  1.00  0.00    -0.191 A  
HETATM    7  C   UNL     1      -9.061  12.234  67.104  1.00  0.00    -0.193 A  
HETATM    8  N   UNL     1      -9.321  13.045  65.990  1.00  0.00    -0.462 N  
HETATM    9  C   UNL     1      -7.726  11.835  67.277  1.00  0.00    -0.158 A  
HETATM   10  C   UNL     1      -7.360  10.986  68.324  1.00  0.00    -0.088 A  
HETATM   11  H   UNL     1      -8.548  13.621  65.658  1.00  0.00     0.000 HD 
HETATM   12  C   UNL     1     -10.501  13.150  65.298  1.00  0.00    -0.307 C  
HETATM   13  C   UNL     1     -11.640  12.231  65.697  1.00  0.00    -0.380 C  
HETATM   14  O   UNL     1     -10.555  13.894  64.317  1.00  0.00    -0.328 OA 
HETATM   15  N   UNL     1     -12.144  12.591  67.016  1.00  0.00    -0.514 NA 
HETATM   16  C   UNL     1     -11.408  12.405  68.059  1.00  0.00    -0.287 C  
HETATM   17  H   UNL     1     -13.077  12.990  67.114  1.00  0.00     0.000 HD 
ENDROOT
BRANCH  16  18
HETATM   18  C   UNL     1     -11.991  12.836  69.377  1.00  0.00    -0.321 A  
HETATM   19  C   UNL     1     -11.973  14.196  69.716  1.00  0.00    -0.396 A  
HETATM   20  C   UNL     1     -12.498  14.623  70.937  1.00  0.00    -0.406 A  
HETATM   21  C   UNL     1     -13.041  13.696  71.826  1.00  0.00    -0.468 A  
HETATM   22  C   UNL     1     -13.047  12.340  71.503  1.00  0.00    -0.356 A  
HETATM   23  C   UNL     1     -12.513  11.908  70.288  1.00  0.00    -0.199 A  
ENDBRANCH  16  18
TORSDOF 1
ENDMDL
MODEL       57
REMARK 921   NORMALIZED FREE ENERGY PREDICTED BY IDOCK:   -5.34 KCAL/MOL
REMARK 922        TOTAL FREE ENERGY PREDICTED BY IDOCK:   -6.08 KCAL/MOL
REMARK 923 INTER-LIGAND FREE ENERGY PREDICTED BY IDOCK:   -5.65 KCAL/MOL
REMARK 924 INTRA-LIGAND FREE ENERGY PREDICTED BY IDOCK:   -0.44 KCAL/MOL
REMARK 927      BINDING AFFINITY PREDICTED BY RF-SCORE:    0.00 PKD
ROOT
HETATM    1  O   UNL     1      -9.561  16.368  65.484  1.00  0.00    -0.491 OA 
HETATM    2  N   UNL     1     -10.256  16.778  66.423  1.00  0.00    -0.313 N  
HETATM    3  O   UNL     1     -10.627  17.951  66.566  1.00  0.00    -0.324 OA 
HETATM    4  C   UNL     1     -10.659  15.806  67.447  1.00  0.00    -0.313 A  
HETATM    5  C   UNL     1     -10.294  14.462  67.309  1.00  0.00    -0.260 A  
HETATM    6  C   UNL     1     -10.617  13.538  68.322  1.00  0.00    -0.259 A  
HETATM    7  C   UNL     1     -11.377  13.956  69.429  1.00  0.00    -0.258 A  
HETATM    8  N   UNL     1     -11.828  13.107  70.450  1.00  0.00    -0.542 N  
HETATM    9  C   UNL     1     -11.716  15.311  69.560  1.00  0.00    -0.359 A  
HETATM   10  C   UNL     1     -11.363  16.238  68.575  1.00  0.00    -0.330 A  
HETATM   11  H   UNL     1     -11.965  13.534  71.366  1.00  0.00     0.000 HD 
HETATM   12  C   UNL     1     -12.105  11.767  70.355  1.00  0.00    -0.352 C  
HETATM   13  C   UNL     1     -12.014  11.122  68.985  1.00  0.00    -0.320 C  
HETATM   14  O   UNL     1     -12.522  11.170  71.349  1.00  0.00    -0.353 OA 
HETATM   15  N   UNL     1     -10.629  11.077  68.536  1.00  0.00    -0.179 NA 
HETATM   16  C   UNL     1     -10.011  12.171  68.244  1.00  0.00    -0.212 C  
HETATM   17  H   UNL     1     -10.148  10.182  68.452  1.00  0.00     0.000 HD 
ENDROOT
BRANCH  16  18
HETATM   18  C   UNL     1      -8.573  12.039  67.822  1.00  0.00    -0.157 A  
HETATM   19  C   UNL     1      -8.254  11.199  66.747  1.00  0.00    -0.154 A  
HETATM   20  C   UNL     1      -6.927  11.051  66.341  1.00  0.00    -0.122 A  
HETATM   21  C   UNL     1      -5.913  11.737  67.007  1.00  0.00    -0.153 A  
HETATM   22  C   UNL     1      -6.220  12.561  68.087  1.00  0.00    -0.072 A  
HETATM   23  C   UNL     1      -7.545  12.704  68.504  1.00  0.00    -0.121 A  
ENDBRANCH  16  18
TORSDOF 1
ENDMDL
MODEL       58
REMARK 921   NORMALIZED FREE ENERGY PREDICTED BY IDOCK:   -5.33 KCAL/MOL
REMARK 922        TOTAL FREE ENERGY PREDICTED BY IDOCK:   -6.08 KCAL/MOL
REMARK 923 INTER-LIGAND FREE ENERGY PREDICTED BY IDOCK:   -5.60 KCAL/MOL
REMARK 924 INTRA-LIGAND FREE ENERGY PREDICTED BY IDOCK:   -0.47 KCAL/MOL
REMARK 927      BINDING AFFINITY PREDICTED BY RF-SCORE:    0.00 PKD
ROOT
HETATM    1  O   UNL     1      -8.911   6.547  72.063  1.00  0.00    -0.140 OA 
HETATM    2  N   UNL     1      -9.808   7.307  72.450  1.00  0.00    -0.153 N  
HETATM    3  O   UNL     1     -10.276   7.322  73.597  1.00  0.00    -0.321 OA 
HETATM    4  C   UNL     1     -10.369   8.251  71.474  1.00  0.00    -0.214 A  
HETATM    5  C   UNL     1      -9.848   8.297  70.175  1.00  0.00    -0.184 A  
HETATM    6  C   UNL     1     -10.427   9.148  69.215  1.00  0.00    -0.231 A  
HETATM    7  C   UNL     1     -11.472  10.011  69.590  1.00  0.00    -0.155 A  
HETATM    8  N   UNL     1     -12.064  10.959  68.742  1.00  0.00    -0.450 N  
HETATM    9  C   UNL     1     -11.994   9.937  70.890  1.00  0.00    -0.434 A  
HETATM   10  C   UNL     1     -11.448   9.063  71.834  1.00  0.00    -0.440 A  
HETATM   11  H   UNL     1     -13.035  11.199  68.939  1.00  0.00     0.000 HD 
HETATM   12  C   UNL     1     -11.482  11.600  67.678  1.00  0.00    -0.303 C  
HETATM   13  C   UNL     1     -10.008  11.348  67.421  1.00  0.00    -0.186 C  
HETATM   14  O   UNL     1     -12.137  12.433  67.049  1.00  0.00    -0.549 OA 
HETATM   15  N   UNL     1      -9.798   9.978  66.974  1.00  0.00    -0.181 NA 
HETATM   16  C   UNL     1      -9.993   8.997  67.790  1.00  0.00    -0.187 C  
HETATM   17  H   UNL     1      -9.497   9.792  66.018  1.00  0.00     0.000 HD 
ENDROOT
BRANCH  16  18
HETATM   18  C   UNL     1      -9.788   7.613  67.239  1.00  0.00    -0.245 A  
HETATM   19  C   UNL     1      -8.523   7.254  66.755  1.00  0.00    -0.121 A  
HETATM   20  C   UNL     1      -8.307   5.979  66.229  1.00  0.00    -0.122 A  
HETATM   21  C   UNL     1      -9.353   5.058  66.181  1.00  0.00    -0.157 A  
HETATM   22  C   UNL     1     -10.618   5.413  66.645  1.00  0.00    -0.359 A  
HETATM   23  C   UNL     1     -10.841   6.691  67.162  1.00  0.00    -0.471 A  
ENDBRANCH  16  18
TORSDOF 1
ENDMDL
MODEL       59
REMARK 921   NORMALIZED FREE ENERGY PREDICTED BY IDOCK:   -5.31 KCAL/MOL
REMARK 922        TOTAL FREE ENERGY PREDICTED BY IDOCK:   -6.05 KCAL/MOL
REMARK 923 INTER-LIGAND FREE ENERGY PREDICTED BY IDOCK:   -5.72 KCAL/MOL
REMARK 924 INTRA-LIGAND FREE ENERGY PREDICTED BY IDOCK:   -0.33 KCAL/MOL
REMARK 927      BINDING AFFINITY PREDICTED BY RF-SCORE:    0.00 PKD
ROOT
HETATM    1  O   UNL     1     -12.385  13.371  70.695  1.00  0.00    -0.350 OA 
HETATM    2  N   UNL     1     -12.920  12.511  71.407  1.00  0.00    -0.320 N  
HETATM    3  O   UNL     1     -13.779  12.742  72.269  1.00  0.00    -0.527 OA 
HETATM    4  C   UNL     1     -12.495  11.117  71.225  1.00  0.00    -0.360 A  
HETATM    5  C   UNL     1     -11.554  10.802  70.238  1.00  0.00    -0.427 A  
HETATM    6  C   UNL     1     -11.090   9.480  70.106  1.00  0.00    -0.294 A  
HETATM    7  C   UNL     1     -11.637   8.465  70.911  1.00  0.00    -0.262 A  
HETATM    8  N   UNL     1     -11.315   7.104  70.807  1.00  0.00    -0.278 N  
HETATM    9  C   UNL     1     -12.565   8.803  71.908  1.00  0.00    -0.428 A  
HETATM   10  C   UNL     1     -12.997  10.122  72.069  1.00  0.00    -0.508 A  
HETATM   11  H   UNL     1     -11.403   6.551  71.658  1.00  0.00     0.000 HD 
HETATM   12  C   UNL     1     -10.892   6.434  69.686  1.00  0.00    -0.320 C  
HETATM   13  C   UNL     1     -10.850   7.201  68.378  1.00  0.00    -0.097 C  
HETATM   14  O   UNL     1     -10.676   5.224  69.758  1.00  0.00    -0.286 OA 
HETATM   15  N   UNL     1      -9.804   8.214  68.417  1.00  0.00    -0.166 NA 
HETATM   16  C   UNL     1      -9.923   9.232  69.201  1.00  0.00    -0.179 C  
HETATM   17  H   UNL     1      -8.979   8.120  67.826  1.00  0.00     0.000 HD 
ENDROOT
BRANCH  16  18
HETATM   18  C   UNL     1      -8.782  10.213  69.206  1.00  0.00    -0.186 A  
HETATM   19  C   UNL     1      -8.826  11.312  68.338  1.00  0.00    -0.159 A  
HETATM   20  C   UNL     1      -7.777  12.232  68.315  1.00  0.00    -0.143 A  
HETATM   21  C   UNL     1      -6.678  12.058  69.156  1.00  0.00    -0.101 A  
HETATM   22  C   UNL     1      -6.620  10.959  70.010  1.00  0.00    -0.151 A  
HETATM   23  C   UNL     1      -7.662  10.030  70.028  1.00  0.00    -0.181 A  
ENDBRANCH  16  18
TORSDOF 1
ENDMDL
MODEL       60
REMARK 921   NORMALIZED FREE ENERGY PREDICTED BY IDOCK:   -5.27 KCAL/MOL
REMARK 922        TOTAL FREE ENERGY PREDICTED BY IDOCK:   -6.01 KCAL/MOL
REMARK 923 INTER-LIGAND FREE ENERGY PREDICTED BY IDOCK:   -5.64 KCAL/MOL
REMARK 924 INTRA-LIGAND FREE ENERGY PREDICTED BY IDOCK:   -0.37 KCAL/MOL
REMARK 927      BINDING AFFINITY PREDICTED BY RF-SCORE:    0.00 PKD
ROOT
HETATM    1  O   UNL     1     -11.153   6.487  67.050  1.00  0.00    -0.399 OA 
HETATM    2  N   UNL     1     -10.031   6.829  66.653  1.00  0.00    -0.169 N  
HETATM    3  O   UNL     1      -9.277   6.122  65.971  1.00  0.00    -0.157 OA 
HETATM    4  C   UNL     1      -9.555   8.167  67.027  1.00  0.00    -0.196 A  
HETATM    5  C   UNL     1     -10.387   9.017  67.766  1.00  0.00    -0.304 A  
HETATM    6  C   UNL     1      -9.911  10.272  68.190  1.00  0.00    -0.166 A  
HETATM    7  C   UNL     1      -8.630  10.701  67.796  1.00  0.00    -0.123 A  
HETATM    8  N   UNL     1      -8.089  11.962  68.086  1.00  0.00    -0.147 N  
HETATM    9  C   UNL     1      -7.804   9.827  67.073  1.00  0.00    -0.102 A  
HETATM   10  C   UNL     1      -8.259   8.564  66.686  1.00  0.00    -0.108 A  
HETATM   11  H   UNL     1      -7.073  12.014  68.154  1.00  0.00     0.000 HD 
HETATM   12  C   UNL     1      -8.773  13.134  68.288  1.00  0.00    -0.165 C  
HETATM   13  C   UNL     1     -10.277  13.117  68.089  1.00  0.00    -0.239 C  
HETATM   14  O   UNL     1      -8.140  14.167  68.506  1.00  0.00    -0.137 OA 
HETATM   15  N   UNL     1     -10.918  12.324  69.130  1.00  0.00    -0.394 NA 
HETATM   16  C   UNL     1     -10.742  11.046  69.166  1.00  0.00    -0.234 C  
HETATM   17  H   UNL     1     -11.504  12.777  69.830  1.00  0.00     0.000 HD 
ENDROOT
BRANCH  16  18
HETATM   18  C   UNL     1     -11.410  10.307  70.293  1.00  0.00    -0.398 A  
HETATM   19  C   UNL     1     -12.753  10.578  70.582  1.00  0.00    -0.441 A  
HETATM   20  C   UNL     1     -13.396   9.914  71.628  1.00  0.00    -0.481 A  
HETATM   21  C   UNL     1     -12.699   8.979  72.393  1.00  0.00    -0.433 A  
HETATM   22  C   UNL     1     -11.357   8.716  72.122  1.00  0.00    -0.434 A  
HETATM   23  C   UNL     1     -10.709   9.386  71.083  1.00  0.00    -0.417 A  
ENDBRANCH  16  18
TORSDOF 1
ENDMDL
MODEL       61
REMARK 921   NORMALIZED FREE ENERGY PREDICTED BY IDOCK:   -5.24 KCAL/MOL
REMARK 922        TOTAL FREE ENERGY PREDICTED BY IDOCK:   -5.97 KCAL/MOL
REMARK 923 INTER-LIGAND FREE ENERGY PREDICTED BY IDOCK:   -5.48 KCAL/MOL
REMARK 924 INTRA-LIGAND FREE ENERGY PREDICTED BY IDOCK:   -0.49 KCAL/MOL
REMARK 927      BINDING AFFINITY PREDICTED BY RF-SCORE:    0.00 PKD
ROOT
HETATM    1  O   UNL     1     -11.537  12.521  65.811  1.00  0.00    -0.351 OA 
HETATM    2  N   UNL     1     -11.862  13.016  66.899  1.00  0.00    -0.382 N  
HETATM    3  O   UNL     1     -12.248  14.182  67.057  1.00  0.00    -0.432 OA 
HETATM    4  C   UNL     1     -11.771  12.162  68.090  1.00  0.00    -0.341 A  
HETATM    5  C   UNL     1     -11.375  10.826  67.956  1.00  0.00    -0.378 A  
HETATM    6  C   UNL     1     -11.217  10.021  69.101  1.00  0.00    -0.197 A  
HETATM    7  C   UNL     1     -11.540  10.541  70.367  1.00  0.00    -0.342 A  
HETATM    8  N   UNL     1     -11.504   9.807  71.562  1.00  0.00    -0.366 N  
HETATM    9  C   UNL     1     -11.916  11.888  70.483  1.00  0.00    -0.360 A  
HETATM   10  C   UNL     1     -12.034  12.701  69.353  1.00  0.00    -0.318 A  
HETATM   11  H   UNL     1     -11.323  10.337  72.414  1.00  0.00     0.000 HD 
HETATM   12  C   UNL     1     -11.684   8.455  71.712  1.00  0.00    -0.310 C  
HETATM   13  C   UNL     1     -12.060   7.651  70.481  1.00  0.00     0.047 C  
HETATM   14  O   UNL     1     -11.649   7.968  72.843  1.00  0.00    -0.397 OA 
HETATM   15  N   UNL     1     -10.945   7.606  69.545  1.00  0.00    -0.415 NA 
HETATM   16  C   UNL     1     -10.574   8.680  68.933  1.00  0.00    -0.144 C  
HETATM   17  H   UNL     1     -10.458   6.727  69.372  1.00  0.00     0.000 HD 
ENDROOT
BRANCH  16  18
HETATM   18  C   UNL     1      -9.393   8.553  68.010  1.00  0.00    -0.147 A  
HETATM   19  C   UNL     1      -9.528   7.809  66.831  1.00  0.00    -0.238 A  
HETATM   20  C   UNL     1      -8.445   7.667  65.961  1.00  0.00    -0.149 A  
HETATM   21  C   UNL     1      -7.223   8.265  66.266  1.00  0.00    -0.074 A  
HETATM   22  C   UNL     1      -7.077   8.993  67.445  1.00  0.00    -0.079 A  
HETATM   23  C   UNL     1      -8.154   9.128  68.322  1.00  0.00    -0.104 A  
ENDBRANCH  16  18
TORSDOF 1
ENDMDL
MODEL       62
REMARK 921   NORMALIZED FREE ENERGY PREDICTED BY IDOCK:   -5.22 KCAL/MOL
REMARK 922        TOTAL FREE ENERGY PREDICTED BY IDOCK:   -5.95 KCAL/MOL
REMARK 923 INTER-LIGAND FREE ENERGY PREDICTED BY IDOCK:   -5.46 KCAL/MOL
REMARK 924 INTRA-LIGAND FREE ENERGY PREDICTED BY IDOCK:   -0.49 KCAL/MOL
REMARK 927      BINDING AFFINITY PREDICTED BY RF-SCORE:    0.00 PKD
ROOT
HETATM    1  O   UNL     1     -11.650  13.254  66.891  1.00  0.00    -0.327 OA 
HETATM    2  N   UNL     1     -11.812  12.912  68.069  1.00  0.00    -0.355 N  
HETATM    3  O   UNL     1     -12.226  13.656  68.969  1.00  0.00    -0.334 OA 
HETATM    4  C   UNL     1     -11.477  11.529  68.430  1.00  0.00    -0.298 A  
HETATM    5  C   UNL     1     -11.039  10.641  67.440  1.00  0.00    -0.341 A  
HETATM    6  C   UNL     1     -10.649   9.334  67.790  1.00  0.00    -0.307 A  
HETATM    7  C   UNL     1     -10.780   8.901  69.121  1.00  0.00    -0.143 A  
HETATM    8  N   UNL     1     -10.504   7.600  69.566  1.00  0.00    -0.225 N  
HETATM    9  C   UNL     1     -11.201   9.811  70.103  1.00  0.00    -0.324 A  
HETATM   10  C   UNL     1     -11.551  11.122  69.765  1.00  0.00    -0.409 A  
HETATM   11  H   UNL     1     -10.210   7.506  70.538  1.00  0.00     0.000 HD 
HETATM   12  C   UNL     1     -10.586   6.439  68.840  1.00  0.00    -0.252 C  
HETATM   13  C   UNL     1     -11.122   6.528  67.423  1.00  0.00    -0.327 C  
HETATM   14  O   UNL     1     -10.335   5.367  69.393  1.00  0.00    -0.242 OA 
HETATM   15  N   UNL     1     -10.180   7.238  66.568  1.00  0.00    -0.472 NA 
HETATM   16  C   UNL     1      -9.974   8.500  66.746  1.00  0.00    -0.281 C  
HETATM   17  H   UNL     1      -9.683   6.740  65.830  1.00  0.00     0.000 HD 
ENDROOT
BRANCH  16  18
HETATM   18  C   UNL     1      -8.961   9.149  65.844  1.00  0.00    -0.231 A  
HETATM   19  C   UNL     1      -9.280   9.348  64.494  1.00  0.00    -0.155 A  
HETATM   20  C   UNL     1      -8.355   9.940  63.632  1.00  0.00    -0.164 A  
HETATM   21  C   UNL     1      -7.106  10.332  64.113  1.00  0.00    -0.053 A  
HETATM   22  C   UNL     1      -6.775  10.122  65.450  1.00  0.00    -0.121 A  
HETATM   23  C   UNL     1      -7.693   9.522  66.312  1.00  0.00    -0.101 A  
ENDBRANCH  16  18
TORSDOF 1
ENDMDL
MODEL       63
REMARK 921   NORMALIZED FREE ENERGY PREDICTED BY IDOCK:   -5.22 KCAL/MOL
REMARK 922        TOTAL FREE ENERGY PREDICTED BY IDOCK:   -5.95 KCAL/MOL
REMARK 923 INTER-LIGAND FREE ENERGY PREDICTED BY IDOCK:   -5.85 KCAL/MOL
REMARK 924 INTRA-LIGAND FREE ENERGY PREDICTED BY IDOCK:   -0.10 KCAL/MOL
REMARK 927      BINDING AFFINITY PREDICTED BY RF-SCORE:    0.00 PKD
ROOT
HETATM    1  O   UNL     1      -7.876   9.753  64.179  1.00  0.00    -0.122 OA 
HETATM    2  N   UNL     1      -8.161   8.852  64.979  1.00  0.00    -0.129 N  
HETATM    3  O   UNL     1      -7.732   7.691  64.917  1.00  0.00    -0.093 OA 
HETATM    4  C   UNL     1      -9.084   9.179  66.072  1.00  0.00    -0.197 A  
HETATM    5  C   UNL     1      -9.568  10.486  66.204  1.00  0.00    -0.237 A  
HETATM    6  C   UNL     1     -10.508  10.790  67.207  1.00  0.00    -0.282 A  
HETATM    7  C   UNL     1     -10.894   9.797  68.124  1.00  0.00    -0.214 A  
HETATM    8  N   UNL     1     -11.754  10.008  69.212  1.00  0.00    -0.477 N  
HETATM    9  C   UNL     1     -10.415   8.488  67.964  1.00  0.00    -0.249 A  
HETATM   10  C   UNL     1      -9.512   8.173  66.944  1.00  0.00    -0.244 A  
HETATM   11  H   UNL     1     -12.296   9.203  69.524  1.00  0.00     0.000 HD 
HETATM   12  C   UNL     1     -11.949  11.178  69.902  1.00  0.00    -0.363 C  
HETATM   13  C   UNL     1     -11.083  12.369  69.533  1.00  0.00    -0.016 C  
HETATM   14  O   UNL     1     -12.726  11.188  70.858  1.00  0.00    -0.357 OA 
HETATM   15  N   UNL     1     -11.429  12.855  68.204  1.00  0.00    -0.292 NA 
HETATM   16  C   UNL     1     -11.167  12.134  67.166  1.00  0.00    -0.314 C  
HETATM   17  H   UNL     1     -11.877  13.764  68.093  1.00  0.00     0.000 HD 
ENDROOT
BRANCH  16  18
HETATM   18  C   UNL     1     -11.589  12.694  65.836  1.00  0.00    -0.443 A  
HETATM   19  C   UNL     1     -11.714  14.082  65.691  1.00  0.00    -0.356 A  
HETATM   20  C   UNL     1     -12.112  14.629  64.470  1.00  0.00    -0.490 A  
HETATM   21  C   UNL     1     -12.390  13.793  63.389  1.00  0.00    -0.061 A  
HETATM   22  C   UNL     1     -12.283  12.411  63.530  1.00  0.00    -0.661 A  
HETATM   23  C   UNL     1     -11.895  11.860  64.752  1.00  0.00    -0.259 A  
ENDBRANCH  16  18
TORSDOF 1
ENDMDL
MODEL       64
REMARK 921   NORMALIZED FREE ENERGY PREDICTED BY IDOCK:   -5.19 KCAL/MOL
REMARK 922        TOTAL FREE ENERGY PREDICTED BY IDOCK:   -5.93 KCAL/MOL
REMARK 923 INTER-LIGAND FREE ENERGY PREDICTED BY IDOCK:   -5.43 KCAL/MOL
REMARK 924 INTRA-LIGAND FREE ENERGY PREDICTED BY IDOCK:   -0.49 KCAL/MOL
REMARK 927      BINDING AFFINITY PREDICTED BY RF-SCORE:    0.00 PKD
ROOT
HETATM    1  O   UNL     1     -12.281   7.511  72.502  1.00  0.00    -0.190 OA 
HETATM    2  N   UNL     1     -12.764   8.642  72.356  1.00  0.00    -0.389 N  
HETATM    3  O   UNL     1     -13.734   9.083  72.988  1.00  0.00    -0.275 OA 
HETATM    4  C   UNL     1     -12.149   9.520  71.353  1.00  0.00    -0.378 A  
HETATM    5  C   UNL     1     -11.028   9.080  70.639  1.00  0.00    -0.308 A  
HETATM    6  C   UNL     1     -10.477   9.888  69.627  1.00  0.00    -0.273 A  
HETATM    7  C   UNL     1     -11.006  11.170  69.394  1.00  0.00    -0.244 A  
HETATM    8  N   UNL     1     -10.484  12.091  68.473  1.00  0.00    -0.225 N  
HETATM    9  C   UNL     1     -12.142  11.586  70.104  1.00  0.00    -0.432 A  
HETATM   10  C   UNL     1     -12.716  10.769  71.082  1.00  0.00    -0.532 A  
HETATM   11  H   UNL     1     -11.146  12.757  68.074  1.00  0.00     0.000 HD 
HETATM   12  C   UNL     1      -9.184  12.197  68.049  1.00  0.00    -0.194 C  
HETATM   13  C   UNL     1      -8.153  11.293  68.700  1.00  0.00    -0.145 C  
HETATM   14  O   UNL     1      -8.884  13.086  67.252  1.00  0.00    -0.190 OA 
HETATM   15  N   UNL     1      -8.381   9.906  68.318  1.00  0.00    -0.109 NA 
HETATM   16  C   UNL     1      -9.432   9.287  68.739  1.00  0.00    -0.150 C  
HETATM   17  H   UNL     1      -7.711   9.424  67.719  1.00  0.00     0.000 HD 
ENDROOT
BRANCH  16  18
HETATM   18  C   UNL     1      -9.609   7.869  68.270  1.00  0.00    -0.164 A  
HETATM   19  C   UNL     1      -8.762   6.874  68.775  1.00  0.00    -0.129 A  
HETATM   20  C   UNL     1      -8.898   5.551  68.350  1.00  0.00    -0.107 A  
HETATM   21  C   UNL     1      -9.878   5.216  67.417  1.00  0.00    -0.193 A  
HETATM   22  C   UNL     1     -10.714   6.203  66.897  1.00  0.00    -0.413 A  
HETATM   23  C   UNL     1     -10.574   7.528  67.312  1.00  0.00    -0.394 A  
ENDBRANCH  16  18
TORSDOF 1
ENDMDL
MODEL       65
REMARK 921   NORMALIZED FREE ENERGY PREDICTED BY IDOCK:   -5.19 KCAL/MOL
REMARK 922        TOTAL FREE ENERGY PREDICTED BY IDOCK:   -5.92 KCAL/MOL
REMARK 923 INTER-LIGAND FREE ENERGY PREDICTED BY IDOCK:   -5.45 KCAL/MOL
REMARK 924 INTRA-LIGAND FREE ENERGY PREDICTED BY IDOCK:   -0.48 KCAL/MOL
REMARK 927      BINDING AFFINITY PREDICTED BY RF-SCORE:    0.00 PKD
ROOT
HETATM    1  O   UNL     1      -7.505  15.503  68.460  1.00  0.00    -0.112 OA 
HETATM    2  N   UNL     1      -8.598  16.044  68.249  1.00  0.00    -0.175 N  
HETATM    3  O   UNL     1      -8.939  17.148  68.696  1.00  0.00    -0.263 OA 
HETATM    4  C   UNL     1      -9.568  15.318  67.418  1.00  0.00    -0.207 A  
HETATM    5  C   UNL     1      -9.215  14.083  66.861  1.00  0.00    -0.271 A  
HETATM    6  C   UNL     1     -10.163  13.348  66.123  1.00  0.00    -0.301 A  
HETATM    7  C   UNL     1     -11.434  13.898  65.879  1.00  0.00    -0.325 A  
HETATM    8  N   UNL     1     -12.423  13.296  65.088  1.00  0.00    -0.499 N  
HETATM    9  C   UNL     1     -11.776  15.127  66.463  1.00  0.00    -0.030 A  
HETATM   10  C   UNL     1     -10.851  15.840  67.230  1.00  0.00    -0.298 A  
HETATM   11  H   UNL     1     -13.390  13.523  65.321  1.00  0.00     0.000 HD 
HETATM   12  C   UNL     1     -12.236  12.437  64.035  1.00  0.00    -0.490 C  
HETATM   13  C   UNL     1     -10.811  12.161  63.592  1.00  0.00    -0.464 C  
HETATM   14  O   UNL     1     -13.219  12.017  63.423  1.00  0.00    -0.687 OA 
HETATM   15  N   UNL     1     -10.103  11.396  64.610  1.00  0.00    -0.262 NA 
HETATM   16  C   UNL     1      -9.820  11.941  65.745  1.00  0.00    -0.238 C  
HETATM   17  H   UNL     1      -9.831  10.430  64.426  1.00  0.00     0.000 HD 
ENDROOT
BRANCH  16  18
HETATM   18  C   UNL     1      -9.120  11.070  66.751  1.00  0.00    -0.172 A  
HETATM   19  C   UNL     1      -9.774  10.754  67.949  1.00  0.00    -0.181 A  
HETATM   20  C   UNL     1      -9.143   9.955  68.905  1.00  0.00    -0.156 A  
HETATM   21  C   UNL     1      -7.857   9.472  68.672  1.00  0.00    -0.084 A  
HETATM   22  C   UNL     1      -7.193   9.796  67.490  1.00  0.00    -0.089 A  
HETATM   23  C   UNL     1      -7.816  10.602  66.536  1.00  0.00    -0.140 A  
ENDBRANCH  16  18
TORSDOF 1
ENDMDL
MODEL       66
REMARK 921   NORMALIZED FREE ENERGY PREDICTED BY IDOCK:   -5.18 KCAL/MOL
REMARK 922        TOTAL FREE ENERGY PREDICTED BY IDOCK:   -5.91 KCAL/MOL
REMARK 923 INTER-LIGAND FREE ENERGY PREDICTED BY IDOCK:   -5.44 KCAL/MOL
REMARK 924 INTRA-LIGAND FREE ENERGY PREDICTED BY IDOCK:   -0.48 KCAL/MOL
REMARK 927      BINDING AFFINITY PREDICTED BY RF-SCORE:    0.00 PKD
ROOT
HETATM    1  O   UNL     1      -8.119   7.474  65.089  1.00  0.00    -0.122 OA 
HETATM    2  N   UNL     1      -8.783   6.559  65.592  1.00  0.00    -0.129 N  
HETATM    3  O   UNL     1      -8.902   5.424  65.109  1.00  0.00    -0.156 OA 
HETATM    4  C   UNL     1      -9.493   6.842  66.846  1.00  0.00    -0.156 A  
HETATM    5  C   UNL     1      -9.360   8.098  67.449  1.00  0.00    -0.171 A  
HETATM    6  C   UNL     1     -10.093   8.400  68.612  1.00  0.00    -0.210 A  
HETATM    7  C   UNL     1     -10.891   7.409  69.210  1.00  0.00    -0.137 A  
HETATM    8  N   UNL     1     -11.595   7.570  70.413  1.00  0.00    -0.453 N  
HETATM    9  C   UNL     1     -11.028   6.162  68.580  1.00  0.00    -0.415 A  
HETATM   10  C   UNL     1     -10.333   5.873  67.402  1.00  0.00    -0.274 A  
HETATM   11  H   UNL     1     -12.439   7.010  70.523  1.00  0.00     0.000 HD 
HETATM   12  C   UNL     1     -11.273   8.399  71.458  1.00  0.00    -0.267 C  
HETATM   13  C   UNL     1      -9.968   9.169  71.374  1.00  0.00    -0.303 C  
HETATM   14  O   UNL     1     -11.987   8.401  72.462  1.00  0.00    -0.393 OA 
HETATM   15  N   UNL     1     -10.041  10.179  70.327  1.00  0.00    -0.413 NA 
HETATM   16  C   UNL     1     -10.100   9.820  69.089  1.00  0.00    -0.192 C  
HETATM   17  H   UNL     1     -10.046  11.169  70.571  1.00  0.00     0.000 HD 
ENDROOT
BRANCH  16  18
HETATM   18  C   UNL     1     -10.209  10.924  68.074  1.00  0.00    -0.202 A  
HETATM   19  C   UNL     1      -9.070  11.678  67.764  1.00  0.00    -0.175 A  
HETATM   20  C   UNL     1      -9.144  12.715  66.833  1.00  0.00    -0.218 A  
HETATM   21  C   UNL     1     -10.356  13.006  66.208  1.00  0.00    -0.291 A  
HETATM   22  C   UNL     1     -11.497  12.270  66.522  1.00  0.00    -0.438 A  
HETATM   23  C   UNL     1     -11.429  11.240  67.461  1.00  0.00    -0.324 A  
ENDBRANCH  16  18
TORSDOF 1
ENDMDL
MODEL       67
REMARK 921   NORMALIZED FREE ENERGY PREDICTED BY IDOCK:   -5.17 KCAL/MOL
REMARK 922        TOTAL FREE ENERGY PREDICTED BY IDOCK:   -5.90 KCAL/MOL
REMARK 923 INTER-LIGAND FREE ENERGY PREDICTED BY IDOCK:   -5.46 KCAL/MOL
REMARK 924 INTRA-LIGAND FREE ENERGY PREDICTED BY IDOCK:   -0.44 KCAL/MOL
REMARK 927      BINDING AFFINITY PREDICTED BY RF-SCORE:    0.00 PKD
ROOT
HETATM    1  O   UNL     1     -13.659   9.979  70.867  1.00  0.00    -0.297 OA 
HETATM    2  N   UNL     1     -12.732   9.478  71.515  1.00  0.00    -0.348 N  
HETATM    3  O   UNL     1     -12.844   8.990  72.649  1.00  0.00    -0.381 OA 
HETATM    4  C   UNL     1     -11.398   9.472  70.902  1.00  0.00    -0.341 A  
HETATM    5  C   UNL     1     -11.228   9.979  69.608  1.00  0.00    -0.285 A  
HETATM    6  C   UNL     1      -9.941  10.042  69.041  1.00  0.00    -0.203 A  
HETATM    7  C   UNL     1      -8.842   9.517  69.745  1.00  0.00    -0.199 A  
HETATM    8  N   UNL     1      -7.534   9.449  69.245  1.00  0.00    -0.073 N  
HETATM    9  C   UNL     1      -9.029   9.032  71.049  1.00  0.00    -0.304 A  
HETATM   10  C   UNL     1     -10.299   9.006  71.630  1.00  0.00    -0.420 A  
HETATM   11  H   UNL     1      -6.783   9.476  69.934  1.00  0.00     0.000 HD 
HETATM   12  C   UNL     1      -7.152   9.349  67.931  1.00  0.00    -0.081 C  
HETATM   13  C   UNL     1      -8.242   9.199  66.887  1.00  0.00    -0.116 C  
HETATM   14  O   UNL     1      -5.953   9.270  67.660  1.00  0.00    -0.051 OA 
HETATM   15  N   UNL     1      -9.017  10.429  66.782  1.00  0.00    -0.139 NA 
HETATM   16  C   UNL     1      -9.774  10.798  67.759  1.00  0.00    -0.162 C  
HETATM   17  H   UNL     1      -8.961  10.997  65.937  1.00  0.00     0.000 HD 
ENDROOT
BRANCH  16  18
HETATM   18  C   UNL     1     -10.512  12.097  67.583  1.00  0.00    -0.225 A  
HETATM   19  C   UNL     1     -10.311  13.124  68.514  1.00  0.00    -0.245 A  
HETATM   20  C   UNL     1     -10.989  14.337  68.381  1.00  0.00    -0.267 A  
HETATM   21  C   UNL     1     -11.873  14.529  67.320  1.00  0.00    -0.419 A  
HETATM   22  C   UNL     1     -12.090  13.506  66.399  1.00  0.00    -0.467 A  
HETATM   23  C   UNL     1     -11.422  12.288  66.535  1.00  0.00    -0.438 A  
ENDBRANCH  16  18
TORSDOF 1
ENDMDL
MODEL       68
REMARK 921   NORMALIZED FREE ENERGY PREDICTED BY IDOCK:   -5.15 KCAL/MOL
REMARK 922        TOTAL FREE ENERGY PREDICTED BY IDOCK:   -5.88 KCAL/MOL
REMARK 923 INTER-LIGAND FREE ENERGY PREDICTED BY IDOCK:   -5.42 KCAL/MOL
REMARK 924 INTRA-LIGAND FREE ENERGY PREDICTED BY IDOCK:   -0.47 KCAL/MOL
REMARK 927      BINDING AFFINITY PREDICTED BY RF-SCORE:    0.00 PKD
ROOT
HETATM    1  O   UNL     1     -12.498  12.245  64.765  1.00  0.00    -0.454 OA 
HETATM    2  N   UNL     1     -12.228  13.404  64.427  1.00  0.00    -0.397 N  
HETATM    3  O   UNL     1     -12.747  14.001  63.474  1.00  0.00    -0.805 OA 
HETATM    4  C   UNL     1     -11.208  14.121  65.204  1.00  0.00    -0.337 A  
HETATM    5  C   UNL     1     -10.619  13.500  66.312  1.00  0.00    -0.288 A  
HETATM    6  C   UNL     1      -9.591  14.153  67.019  1.00  0.00    -0.264 A  
HETATM    7  C   UNL     1      -9.219  15.460  66.659  1.00  0.00    -0.275 A  
HETATM    8  N   UNL     1      -8.272  16.236  67.343  1.00  0.00    -0.154 N  
HETATM    9  C   UNL     1      -9.807  16.058  65.533  1.00  0.00    -0.224 A  
HETATM   10  C   UNL     1     -10.799  15.396  64.804  1.00  0.00    -0.385 A  
HETATM   11  H   UNL     1      -7.773  16.933  66.791  1.00  0.00     0.000 HD 
HETATM   12  C   UNL     1      -7.942  16.161  68.672  1.00  0.00    -0.201 C  
HETATM   13  C   UNL     1      -8.737  15.210  69.546  1.00  0.00    -0.131 C  
HETATM   14  O   UNL     1      -7.102  16.941  69.125  1.00  0.00    -0.228 OA 
HETATM   15  N   UNL     1      -8.449  13.828  69.186  1.00  0.00    -0.315 NA 
HETATM   16  C   UNL     1      -8.836  13.366  68.045  1.00  0.00    -0.183 C  
HETATM   17  H   UNL     1      -7.942  13.226  69.834  1.00  0.00     0.000 HD 
ENDROOT
BRANCH  16  18
HETATM   18  C   UNL     1      -8.466  11.941  67.737  1.00  0.00    -0.154 A  
HETATM   19  C   UNL     1      -9.199  10.905  68.331  1.00  0.00    -0.168 A  
HETATM   20  C   UNL     1      -8.872   9.573  68.070  1.00  0.00    -0.123 A  
HETATM   21  C   UNL     1      -7.811   9.270  67.218  1.00  0.00    -0.099 A  
HETATM   22  C   UNL     1      -7.067  10.294  66.637  1.00  0.00    -0.108 A  
HETATM   23  C   UNL     1      -7.384  11.627  66.903  1.00  0.00    -0.125 A  
ENDBRANCH  16  18
TORSDOF 1
ENDMDL
MODEL       69
REMARK 921   NORMALIZED FREE ENERGY PREDICTED BY IDOCK:   -5.13 KCAL/MOL
REMARK 922        TOTAL FREE ENERGY PREDICTED BY IDOCK:   -5.86 KCAL/MOL
REMARK 923 INTER-LIGAND FREE ENERGY PREDICTED BY IDOCK:   -5.38 KCAL/MOL
REMARK 924 INTRA-LIGAND FREE ENERGY PREDICTED BY IDOCK:   -0.47 KCAL/MOL
REMARK 927      BINDING AFFINITY PREDICTED BY RF-SCORE:    0.00 PKD
ROOT
HETATM    1  O   UNL     1     -12.599  11.033  69.044  1.00  0.00    -0.378 OA 
HETATM    2  N   UNL     1     -11.503  10.716  69.523  1.00  0.00    -0.269 N  
HETATM    3  O   UNL     1     -11.308  10.430  70.712  1.00  0.00    -0.330 OA 
HETATM    4  C   UNL     1     -10.346  10.690  68.618  1.00  0.00    -0.186 A  
HETATM    5  C   UNL     1     -10.523  10.971  67.258  1.00  0.00    -0.270 A  
HETATM    6  C   UNL     1      -9.409  11.017  66.399  1.00  0.00    -0.204 A  
HETATM    7  C   UNL     1      -8.133  10.699  66.896  1.00  0.00    -0.124 A  
HETATM    8  N   UNL     1      -6.969  10.629  66.116  1.00  0.00    -0.130 N  
HETATM    9  C   UNL     1      -7.971  10.441  68.266  1.00  0.00    -0.111 A  
HETATM   10  C   UNL     1      -9.070  10.434  69.129  1.00  0.00    -0.197 A  
HETATM   11  H   UNL     1      -6.090  10.828  66.593  1.00  0.00     0.000 HD 
HETATM   12  C   UNL     1      -6.881  10.324  64.781  1.00  0.00    -0.087 C  
HETATM   13  C   UNL     1      -8.155   9.920  64.062  1.00  0.00    -0.152 C  
HETATM   14  O   UNL     1      -5.771  10.278  64.249  1.00  0.00    -0.120 OA 
HETATM   15  N   UNL     1      -9.058  11.058  63.953  1.00  0.00    -0.350 NA 
HETATM   16  C   UNL     1      -9.613  11.544  65.012  1.00  0.00    -0.197 C  
HETATM   17  H   UNL     1      -9.253  11.471  63.041  1.00  0.00     0.000 HD 
ENDROOT
BRANCH  16  18
HETATM   18  C   UNL     1     -10.504  12.740  64.816  1.00  0.00    -0.357 A  
HETATM   19  C   UNL     1     -11.640  12.616  64.005  1.00  0.00    -0.486 A  
HETATM   20  C   UNL     1     -12.479  13.712  63.797  1.00  0.00    -0.262 A  
HETATM   21  C   UNL     1     -12.187  14.937  64.396  1.00  0.00    -0.399 A  
HETATM   22  C   UNL     1     -11.050  15.072  65.191  1.00  0.00    -0.408 A  
HETATM   23  C   UNL     1     -10.203  13.981  65.392  1.00  0.00    -0.368 A  
ENDBRANCH  16  18
TORSDOF 1
ENDMDL
MODEL       70
REMARK 921   NORMALIZED FREE ENERGY PREDICTED BY IDOCK:   -5.13 KCAL/MOL
REMARK 922        TOTAL FREE ENERGY PREDICTED BY IDOCK:   -5.86 KCAL/MOL
REMARK 923 INTER-LIGAND FREE ENERGY PREDICTED BY IDOCK:   -5.40 KCAL/MOL
REMARK 924 INTRA-LIGAND FREE ENERGY PREDICTED BY IDOCK:   -0.46 KCAL/MOL
REMARK 927      BINDING AFFINITY PREDICTED BY RF-SCORE:    0.00 PKD
ROOT
HETATM    1  O   UNL     1      -9.804  16.202  65.095  1.00  0.00    -0.404 OA 
HETATM    2  N   UNL     1     -10.343  16.610  66.132  1.00  0.00    -0.333 N  
HETATM    3  O   UNL     1     -11.499  16.335  66.483  1.00  0.00     0.302 OA 
HETATM    4  C   UNL     1      -9.559  17.493  67.005  1.00  0.00    -0.268 A  
HETATM    5  C   UNL     1      -8.236  17.802  66.669  1.00  0.00    -0.287 A  
HETATM    6  C   UNL     1      -7.502  18.704  67.463  1.00  0.00    -0.237 A  
HETATM    7  C   UNL     1      -8.075  19.226  68.636  1.00  0.00    -0.370 A  
HETATM    8  N   UNL     1      -7.409  20.062  69.544  1.00  0.00    -0.096 N  
HETATM    9  C   UNL     1      -9.409  18.921  68.945  1.00  0.00    -0.335 A  
HETATM   10  C   UNL     1     -10.154  18.058  68.137  1.00  0.00    -0.378 A  
HETATM   11  H   UNL     1      -7.991  20.708  70.077  1.00  0.00     0.000 HD 
HETATM   12  C   UNL     1      -6.061  20.109  69.795  1.00  0.00    -0.357 C  
HETATM   13  C   UNL     1      -5.176  19.091  69.099  1.00  0.00    -0.193 C  
HETATM   14  O   UNL     1      -5.638  20.887  70.651  1.00  0.00    -0.549 OA 
HETATM   15  N   UNL     1      -5.127  19.357  67.668  1.00  0.00    -0.172 NA 
HETATM   16  C   UNL     1      -6.181  19.182  66.944  1.00  0.00    -0.181 C  
HETATM   17  H   UNL     1      -4.261  19.680  67.237  1.00  0.00     0.000 HD 
ENDROOT
BRANCH  16  18
HETATM   18  C   UNL     1      -6.054  19.513  65.482  1.00  0.00    -0.240 A  
HETATM   19  C   UNL     1      -5.415  18.601  64.631  1.00  0.00    -0.226 A  
HETATM   20  C   UNL     1      -5.275  18.887  63.272  1.00  0.00    -0.228 A  
HETATM   21  C   UNL     1      -5.769  20.084  62.756  1.00  0.00    -0.294 A  
HETATM   22  C   UNL     1      -6.392  21.003  63.599  1.00  0.00    -0.292 A  
HETATM   23  C   UNL     1      -6.524  20.726  64.961  1.00  0.00    -0.259 A  
ENDBRANCH  16  18
TORSDOF 1
ENDMDL
MODEL       71
REMARK 921   NORMALIZED FREE ENERGY PREDICTED BY IDOCK:   -5.11 KCAL/MOL
REMARK 922        TOTAL FREE ENERGY PREDICTED BY IDOCK:   -5.84 KCAL/MOL
REMARK 923 INTER-LIGAND FREE ENERGY PREDICTED BY IDOCK:   -5.35 KCAL/MOL
REMARK 924 INTRA-LIGAND FREE ENERGY PREDICTED BY IDOCK:   -0.49 KCAL/MOL
REMARK 927      BINDING AFFINITY PREDICTED BY RF-SCORE:    0.00 PKD
ROOT
HETATM    1  O   UNL     1      -8.159   8.714  74.312  1.00  0.00    -0.356 OA 
HETATM    2  N   UNL     1      -7.252   8.511  73.496  1.00  0.00    -0.058 N  
HETATM    3  O   UNL     1      -6.042   8.609  73.745  1.00  0.00    -0.117 OA 
HETATM    4  C   UNL     1      -7.636   8.140  72.128  1.00  0.00    -0.115 A  
HETATM    5  C   UNL     1      -8.990   7.983  71.807  1.00  0.00    -0.194 A  
HETATM    6  C   UNL     1      -9.370   7.697  70.482  1.00  0.00    -0.163 A  
HETATM    7  C   UNL     1      -8.382   7.488  69.504  1.00  0.00    -0.131 A  
HETATM    8  N   UNL     1      -8.641   7.115  68.177  1.00  0.00    -0.128 N  
HETATM    9  C   UNL     1      -7.031   7.671  69.839  1.00  0.00    -0.054 A  
HETATM   10  C   UNL     1      -6.653   7.995  71.145  1.00  0.00    -0.038 A  
HETATM   11  H   UNL     1      -7.956   7.410  67.481  1.00  0.00     0.000 HD 
HETATM   12  C   UNL     1      -9.713   6.398  67.710  1.00  0.00    -0.121 C  
HETATM   13  C   UNL     1     -10.696   5.852  68.729  1.00  0.00    -0.284 C  
HETATM   14  O   UNL     1      -9.777   6.128  66.510  1.00  0.00    -0.159 OA 
HETATM   15  N   UNL     1     -11.435   6.941  69.355  1.00  0.00    -0.573 NA 
HETATM   16  C   UNL     1     -10.826   7.765  70.139  1.00  0.00    -0.244 C  
HETATM   17  H   UNL     1     -12.432   7.051  69.175  1.00  0.00     0.000 HD 
ENDROOT
BRANCH  16  18
HETATM   18  C   UNL     1     -11.654   8.880  70.715  1.00  0.00    -0.301 A  
HETATM   19  C   UNL     1     -11.451  10.187  70.254  1.00  0.00    -0.381 A  
HETATM   20  C   UNL     1     -12.200  11.243  70.777  1.00  0.00    -0.479 A  
HETATM   21  C   UNL     1     -13.151  10.999  71.767  1.00  0.00    -0.554 A  
HETATM   22  C   UNL     1     -13.348   9.704  72.242  1.00  0.00    -0.498 A  
HETATM   23  C   UNL     1     -12.594   8.648  71.729  1.00  0.00    -0.396 A  
ENDBRANCH  16  18
TORSDOF 1
ENDMDL
MODEL       72
REMARK 921   NORMALIZED FREE ENERGY PREDICTED BY IDOCK:   -5.08 KCAL/MOL
REMARK 922        TOTAL FREE ENERGY PREDICTED BY IDOCK:   -5.81 KCAL/MOL
REMARK 923 INTER-LIGAND FREE ENERGY PREDICTED BY IDOCK:   -5.32 KCAL/MOL
REMARK 924 INTRA-LIGAND FREE ENERGY PREDICTED BY IDOCK:   -0.49 KCAL/MOL
REMARK 927      BINDING AFFINITY PREDICTED BY RF-SCORE:    0.00 PKD
ROOT
HETATM    1  O   UNL     1      -9.640   7.561  72.352  1.00  0.00    -0.148 OA 
HETATM    2  N   UNL     1     -10.711   8.162  72.505  1.00  0.00    -0.327 N  
HETATM    3  O   UNL     1     -11.516   7.949  73.422  1.00  0.00    -0.211 OA 
HETATM    4  C   UNL     1     -11.058   9.195  71.521  1.00  0.00    -0.365 A  
HETATM    5  C   UNL     1     -10.163   9.497  70.487  1.00  0.00    -0.349 A  
HETATM    6  C   UNL     1     -10.520  10.435  69.500  1.00  0.00    -0.274 A  
HETATM    7  C   UNL     1     -11.740  11.126  69.604  1.00  0.00    -0.339 A  
HETATM    8  N   UNL     1     -12.159  12.140  68.729  1.00  0.00    -0.217 N  
HETATM    9  C   UNL     1     -12.633  10.796  70.635  1.00  0.00    -0.446 A  
HETATM   10  C   UNL     1     -12.299   9.836  71.594  1.00  0.00    -0.495 A  
HETATM   11  H   UNL     1     -13.165  12.254  68.617  1.00  0.00     0.000 HD 
HETATM   12  C   UNL     1     -11.364  12.995  68.008  1.00  0.00    -0.290 C  
HETATM   13  C   UNL     1      -9.865  12.924  68.231  1.00  0.00    -0.228 C  
HETATM   14  O   UNL     1     -11.894  13.854  67.302  1.00  0.00    -0.364 OA 
HETATM   15  N   UNL     1      -9.334  11.669  67.718  1.00  0.00    -0.173 NA 
HETATM   16  C   UNL     1      -9.639  10.556  68.296  1.00  0.00    -0.158 C  
HETATM   17  H   UNL     1      -8.721  11.668  66.902  1.00  0.00     0.000 HD 
ENDROOT
BRANCH  16  18
HETATM   18  C   UNL     1      -9.077   9.304  67.681  1.00  0.00    -0.136 A  
HETATM   19  C   UNL     1      -7.696   9.076  67.741  1.00  0.00    -0.097 A  
HETATM   20  C   UNL     1      -7.146   7.927  67.171  1.00  0.00    -0.079 A  
HETATM   21  C   UNL     1      -7.972   7.001  66.535  1.00  0.00    -0.108 A  
HETATM   22  C   UNL     1      -9.345   7.228  66.456  1.00  0.00    -0.216 A  
HETATM   23  C   UNL     1      -9.897   8.381  67.016  1.00  0.00    -0.296 A  
ENDBRANCH  16  18
TORSDOF 1
ENDMDL
MODEL       73
REMARK 921   NORMALIZED FREE ENERGY PREDICTED BY IDOCK:   -5.06 KCAL/MOL
REMARK 922        TOTAL FREE ENERGY PREDICTED BY IDOCK:   -5.78 KCAL/MOL
REMARK 923 INTER-LIGAND FREE ENERGY PREDICTED BY IDOCK:   -5.98 KCAL/MOL
REMARK 924 INTRA-LIGAND FREE ENERGY PREDICTED BY IDOCK:    0.20 KCAL/MOL
REMARK 927      BINDING AFFINITY PREDICTED BY RF-SCORE:    0.00 PKD
ROOT
HETATM    1  O   UNL     1     -12.282  13.940  69.037  1.00  0.00    -0.350 OA 
HETATM    2  N   UNL     1     -12.010  13.682  67.857  1.00  0.00    -0.363 N  
HETATM    3  O   UNL     1     -12.278  14.415  66.895  1.00  0.00    -0.415 OA 
HETATM    4  C   UNL     1     -11.333  12.410  67.576  1.00  0.00    -0.315 A  
HETATM    5  C   UNL     1     -10.978  11.565  68.634  1.00  0.00    -0.270 A  
HETATM    6  C   UNL     1     -10.393  10.313  68.368  1.00  0.00    -0.202 A  
HETATM    7  C   UNL     1     -10.092   9.952  67.043  1.00  0.00    -0.218 A  
HETATM    8  N   UNL     1      -9.433   8.772  66.668  1.00  0.00    -0.185 N  
HETATM    9  C   UNL     1     -10.473  10.803  65.994  1.00  0.00    -0.273 A  
HETATM   10  C   UNL     1     -11.091  12.029  66.253  1.00  0.00    -0.363 A  
HETATM   11  H   UNL     1      -9.649   8.407  65.741  1.00  0.00     0.000 HD 
HETATM   12  C   UNL     1      -8.532   8.052  67.411  1.00  0.00    -0.126 C  
HETATM   13  C   UNL     1      -8.107   8.621  68.752  1.00  0.00    -0.116 C  
HETATM   14  O   UNL     1      -8.020   7.045  66.921  1.00  0.00    -0.111 OA 
HETATM   15  N   UNL     1      -9.220   8.588  69.692  1.00  0.00    -0.156 NA 
HETATM   16  C   UNL     1     -10.243   9.352  69.506  1.00  0.00    -0.209 C  
HETATM   17  H   UNL     1      -9.191   7.962  70.497  1.00  0.00     0.000 HD 
ENDROOT
BRANCH  16  18
HETATM   18  C   UNL     1     -11.362   9.230  70.503  1.00  0.00    -0.306 A  
HETATM   19  C   UNL     1     -11.851  10.388  71.122  1.00  0.00    -0.432 A  
HETATM   20  C   UNL     1     -12.883  10.303  72.058  1.00  0.00    -0.457 A  
HETATM   21  C   UNL     1     -13.430   9.062  72.383  1.00  0.00    -0.524 A  
HETATM   22  C   UNL     1     -12.938   7.904  71.783  1.00  0.00    -0.351 A  
HETATM   23  C   UNL     1     -11.899   7.984  70.855  1.00  0.00    -0.236 A  
ENDBRANCH  16  18
TORSDOF 1
ENDMDL
MODEL       74
REMARK 921   NORMALIZED FREE ENERGY PREDICTED BY IDOCK:   -5.02 KCAL/MOL
REMARK 922        TOTAL FREE ENERGY PREDICTED BY IDOCK:   -5.74 KCAL/MOL
REMARK 923 INTER-LIGAND FREE ENERGY PREDICTED BY IDOCK:   -5.41 KCAL/MOL
REMARK 924 INTRA-LIGAND FREE ENERGY PREDICTED BY IDOCK:   -0.33 KCAL/MOL
REMARK 927      BINDING AFFINITY PREDICTED BY RF-SCORE:    0.00 PKD
ROOT
HETATM    1  O   UNL     1      -9.352   8.204  72.928  1.00  0.00    -0.238 OA 
HETATM    2  N   UNL     1      -8.342   8.385  72.237  1.00  0.00    -0.163 N  
HETATM    3  O   UNL     1      -7.197   8.032  72.553  1.00  0.00    -0.084 OA 
HETATM    4  C   UNL     1      -8.509   9.079  70.953  1.00  0.00    -0.208 A  
HETATM    5  C   UNL     1      -9.789   9.465  70.536  1.00  0.00    -0.331 A  
HETATM    6  C   UNL     1      -9.949  10.192  69.342  1.00  0.00    -0.247 A  
HETATM    7  C   UNL     1      -8.831  10.456  68.531  1.00  0.00    -0.142 A  
HETATM    8  N   UNL     1      -8.884  11.095  67.284  1.00  0.00    -0.143 N  
HETATM    9  C   UNL     1      -7.554  10.079  68.976  1.00  0.00    -0.090 A  
HETATM   10  C   UNL     1      -7.387   9.392  70.181  1.00  0.00    -0.110 A  
HETATM   11  H   UNL     1      -8.050  11.611  67.003  1.00  0.00     0.000 HD 
HETATM   12  C   UNL     1      -9.933  11.104  66.399  1.00  0.00    -0.217 C  
HETATM   13  C   UNL     1     -11.148  10.260  66.736  1.00  0.00     0.099 C  
HETATM   14  O   UNL     1      -9.806  11.694  65.326  1.00  0.00    -0.239 OA 
HETATM   15  N   UNL     1     -11.847  10.815  67.887  1.00  0.00    -0.742 NA 
HETATM   16  C   UNL     1     -11.295  10.781  69.053  1.00  0.00    -0.284 C  
HETATM   17  H   UNL     1     -12.772  11.229  67.773  1.00  0.00     0.000 HD 
ENDROOT
BRANCH  16  18
HETATM   18  C   UNL     1     -12.069  11.406  70.181  1.00  0.00    -0.439 A  
HETATM   19  C   UNL     1     -11.918  12.776  70.432  1.00  0.00    -0.331 A  
HETATM   20  C   UNL     1     -12.617  13.381  71.478  1.00  0.00    -0.331 A  
HETATM   21  C   UNL     1     -13.467  12.621  72.280  1.00  0.00    -0.541 A  
HETATM   22  C   UNL     1     -13.611  11.255  72.046  1.00  0.00    -0.134 A  
HETATM   23  C   UNL     1     -12.906  10.644  71.008  1.00  0.00    -0.496 A  
ENDBRANCH  16  18
TORSDOF 1
ENDMDL
MODEL       75
REMARK 921   NORMALIZED FREE ENERGY PREDICTED BY IDOCK:   -5.01 KCAL/MOL
REMARK 922        TOTAL FREE ENERGY PREDICTED BY IDOCK:   -5.74 KCAL/MOL
REMARK 923 INTER-LIGAND FREE ENERGY PREDICTED BY IDOCK:   -5.30 KCAL/MOL
REMARK 924 INTRA-LIGAND FREE ENERGY PREDICTED BY IDOCK:   -0.43 KCAL/MOL
REMARK 927      BINDING AFFINITY PREDICTED BY RF-SCORE:    0.00 PKD
ROOT
HETATM    1  O   UNL     1     -11.175  19.259  67.430  1.00  0.00    -0.344 OA 
HETATM    2  N   UNL     1      -9.974  19.533  67.310  1.00  0.00    -0.355 N  
HETATM    3  O   UNL     1      -9.522  20.677  67.165  1.00  0.00    -0.415 OA 
HETATM    4  C   UNL     1      -9.017  18.420  67.330  1.00  0.00    -0.263 A  
HETATM    5  C   UNL     1      -9.477  17.113  67.528  1.00  0.00    -0.247 A  
HETATM    6  C   UNL     1      -8.574  16.034  67.477  1.00  0.00    -0.190 A  
HETATM    7  C   UNL     1      -7.200  16.283  67.310  1.00  0.00    -0.188 A  
HETATM    8  N   UNL     1      -6.204  15.296  67.331  1.00  0.00    -0.058 N  
HETATM    9  C   UNL     1      -6.760  17.597  67.093  1.00  0.00    -0.192 A  
HETATM   10  C   UNL     1      -7.660  18.667  67.102  1.00  0.00    -0.231 A  
HETATM   11  H   UNL     1      -5.362  15.491  66.790  1.00  0.00     0.000 HD 
HETATM   12  C   UNL     1      -6.236  14.097  67.997  1.00  0.00    -0.145 C  
HETATM   13  C   UNL     1      -7.427  13.819  68.895  1.00  0.00    -0.056 C  
HETATM   14  O   UNL     1      -5.259  13.349  67.933  1.00  0.00    -0.102 OA 
HETATM   15  N   UNL     1      -8.634  13.643  68.099  1.00  0.00    -0.170 NA 
HETATM   16  C   UNL     1      -9.138  14.647  67.464  1.00  0.00    -0.190 C  
HETATM   17  H   UNL     1      -9.080  12.728  68.043  1.00  0.00     0.000 HD 
ENDROOT
BRANCH  16  18
HETATM   18  C   UNL     1     -10.364  14.371  66.637  1.00  0.00    -0.275 A  
HETATM   19  C   UNL     1     -10.340  14.663  65.267  1.00  0.00    -0.425 A  
HETATM   20  C   UNL     1     -11.466  14.426  64.477  1.00  0.00    -0.352 A  
HETATM   21  C   UNL     1     -12.623  13.900  65.052  1.00  0.00    -0.422 A  
HETATM   22  C   UNL     1     -12.659  13.622  66.417  1.00  0.00    -0.289 A  
HETATM   23  C   UNL     1     -11.538  13.867  67.212  1.00  0.00    -0.393 A  
ENDBRANCH  16  18
TORSDOF 1
ENDMDL
MODEL       76
REMARK 921   NORMALIZED FREE ENERGY PREDICTED BY IDOCK:   -4.97 KCAL/MOL
REMARK 922        TOTAL FREE ENERGY PREDICTED BY IDOCK:   -5.69 KCAL/MOL
REMARK 923 INTER-LIGAND FREE ENERGY PREDICTED BY IDOCK:   -5.23 KCAL/MOL
REMARK 924 INTRA-LIGAND FREE ENERGY PREDICTED BY IDOCK:   -0.46 KCAL/MOL
REMARK 927      BINDING AFFINITY PREDICTED BY RF-SCORE:    0.00 PKD
ROOT
HETATM    1  O   UNL     1      -6.836   4.857  71.444  1.00  0.00    -0.040 OA 
HETATM    2  N   UNL     1      -7.642   4.528  72.324  1.00  0.00    -0.081 N  
HETATM    3  O   UNL     1      -7.417   3.696  73.214  1.00  0.00    -0.058 OA 
HETATM    4  C   UNL     1      -8.967   5.161  72.303  1.00  0.00    -0.128 A  
HETATM    5  C   UNL     1      -9.256   6.134  71.339  1.00  0.00    -0.149 A  
HETATM    6  C   UNL     1     -10.546   6.694  71.269  1.00  0.00    -0.256 A  
HETATM    7  C   UNL     1     -11.514   6.333  72.223  1.00  0.00    -0.306 A  
HETATM    8  N   UNL     1     -12.800   6.889  72.302  1.00  0.00    -0.536 N  
HETATM    9  C   UNL     1     -11.213   5.342  73.169  1.00  0.00    -0.382 A  
HETATM   10  C   UNL     1      -9.946   4.754  73.215  1.00  0.00    -0.184 A  
HETATM   11  H   UNL     1     -13.527   6.293  72.696  1.00  0.00     0.000 HD 
HETATM   12  C   UNL     1     -13.188   8.144  71.906  1.00  0.00    -0.325 C  
HETATM   13  C   UNL     1     -12.113   9.094  71.413  1.00  0.00    -0.337 C  
HETATM   14  O   UNL     1     -14.359   8.489  72.072  1.00  0.00    -0.430 OA 
HETATM   15  N   UNL     1     -11.576   8.635  70.139  1.00  0.00    -0.458 NA 
HETATM   16  C   UNL     1     -10.876   7.552  70.087  1.00  0.00    -0.249 C  
HETATM   17  H   UNL     1     -11.753   9.168  69.288  1.00  0.00     0.000 HD 
ENDROOT
BRANCH  16  18
HETATM   18  C   UNL     1     -10.390   7.130  68.728  1.00  0.00    -0.200 A  
HETATM   19  C   UNL     1     -10.820   5.905  68.201  1.00  0.00    -0.323 A  
HETATM   20  C   UNL     1     -10.378   5.485  66.946  1.00  0.00    -0.315 A  
HETATM   21  C   UNL     1      -9.502   6.283  66.212  1.00  0.00    -0.135 A  
HETATM   22  C   UNL     1      -9.057   7.496  66.735  1.00  0.00    -0.176 A  
HETATM   23  C   UNL     1      -9.488   7.915  67.995  1.00  0.00    -0.159 A  
ENDBRANCH  16  18
TORSDOF 1
ENDMDL
MODEL       77
REMARK 921   NORMALIZED FREE ENERGY PREDICTED BY IDOCK:   -4.97 KCAL/MOL
REMARK 922        TOTAL FREE ENERGY PREDICTED BY IDOCK:   -5.69 KCAL/MOL
REMARK 923 INTER-LIGAND FREE ENERGY PREDICTED BY IDOCK:   -5.28 KCAL/MOL
REMARK 924 INTRA-LIGAND FREE ENERGY PREDICTED BY IDOCK:   -0.41 KCAL/MOL
REMARK 927      BINDING AFFINITY PREDICTED BY RF-SCORE:    0.00 PKD
ROOT
HETATM    1  O   UNL     1      -8.408  10.641  67.445  1.00  0.00    -0.118 OA 
HETATM    2  N   UNL     1      -9.246  11.503  67.738  1.00  0.00    -0.161 N  
HETATM    3  O   UNL     1      -9.330  12.618  67.203  1.00  0.00    -0.197 OA 
HETATM    4  C   UNL     1     -10.202  11.188  68.807  1.00  0.00    -0.206 A  
HETATM    5  C   UNL     1     -10.169   9.928  69.417  1.00  0.00    -0.231 A  
HETATM    6  C   UNL     1     -11.035   9.644  70.490  1.00  0.00    -0.374 A  
HETATM    7  C   UNL     1     -11.987  10.599  70.889  1.00  0.00    -0.363 A  
HETATM    8  N   UNL     1     -12.953  10.393  71.885  1.00  0.00    -0.456 N  
HETATM    9  C   UNL     1     -11.990  11.864  70.280  1.00  0.00    -0.416 A  
HETATM   10  C   UNL     1     -11.105  12.163  69.242  1.00  0.00    -0.229 A  
HETATM   11  H   UNL     1     -13.273  11.222  72.385  1.00  0.00     0.000 HD 
HETATM   12  C   UNL     1     -13.516   9.200  72.261  1.00  0.00    -0.486 C  
HETATM   13  C   UNL     1     -13.144   7.961  71.468  1.00  0.00    -0.311 C  
HETATM   14  O   UNL     1     -14.378   9.196  73.141  1.00  0.00    -0.322 OA 
HETATM   15  N   UNL     1     -11.749   7.611  71.700  1.00  0.00    -0.271 NA 
HETATM   16  C   UNL     1     -10.810   8.378  71.257  1.00  0.00    -0.239 C  
HETATM   17  H   UNL     1     -11.513   6.761  72.211  1.00  0.00     0.000 HD 
ENDROOT
BRANCH  16  18
HETATM   18  C   UNL     1      -9.399   7.962  71.570  1.00  0.00    -0.179 A  
HETATM   19  C   UNL     1      -8.764   7.030  70.739  1.00  0.00    -0.148 A  
HETATM   20  C   UNL     1      -7.458   6.619  71.011  1.00  0.00    -0.084 A  
HETATM   21  C   UNL     1      -6.781   7.134  72.115  1.00  0.00    -0.056 A  
HETATM   22  C   UNL     1      -7.411   8.050  72.956  1.00  0.00    -0.163 A  
HETATM   23  C   UNL     1      -8.721   8.455  72.693  1.00  0.00    -0.267 A  
ENDBRANCH  16  18
TORSDOF 1
ENDMDL
MODEL       78
REMARK 921   NORMALIZED FREE ENERGY PREDICTED BY IDOCK:   -4.94 KCAL/MOL
REMARK 922        TOTAL FREE ENERGY PREDICTED BY IDOCK:   -5.66 KCAL/MOL
REMARK 923 INTER-LIGAND FREE ENERGY PREDICTED BY IDOCK:   -5.47 KCAL/MOL
REMARK 924 INTRA-LIGAND FREE ENERGY PREDICTED BY IDOCK:   -0.19 KCAL/MOL
REMARK 927      BINDING AFFINITY PREDICTED BY RF-SCORE:    0.00 PKD
ROOT
HETATM    1  O   UNL     1      -7.415  12.266  66.985  1.00  0.00    -0.140 OA 
HETATM    2  N   UNL     1      -8.563  11.839  66.806  1.00  0.00    -0.183 N  
HETATM    3  O   UNL     1      -8.855  10.879  66.080  1.00  0.00    -0.173 OA 
HETATM    4  C   UNL     1      -9.661  12.530  67.495  1.00  0.00    -0.196 A  
HETATM    5  C   UNL     1      -9.378  13.598  68.354  1.00  0.00    -0.181 A  
HETATM    6  C   UNL     1     -10.430  14.309  68.962  1.00  0.00    -0.212 A  
HETATM    7  C   UNL     1     -11.758  13.890  68.768  1.00  0.00    -0.357 A  
HETATM    8  N   UNL     1     -12.874  14.468  69.390  1.00  0.00    -0.344 N  
HETATM    9  C   UNL     1     -12.024  12.830  67.888  1.00  0.00    -0.320 A  
HETATM   10  C   UNL     1     -10.984  12.148  67.251  1.00  0.00    -0.308 A  
HETATM   11  H   UNL     1     -13.757  14.408  68.883  1.00  0.00     0.000 HD 
HETATM   12  C   UNL     1     -12.911  15.106  70.604  1.00  0.00    -0.371 C  
HETATM   13  C   UNL     1     -11.641  15.122  71.433  1.00  0.00    -0.373 C  
HETATM   14  O   UNL     1     -13.987  15.536  71.022  1.00  0.00    -0.535 OA 
HETATM   15  N   UNL     1     -10.629  15.954  70.796  1.00  0.00    -0.025 NA 
HETATM   16  C   UNL     1     -10.095  15.578  69.683  1.00  0.00    -0.293 C  
HETATM   17  H   UNL     1     -10.343  16.832  71.228  1.00  0.00     0.000 HD 
ENDROOT
BRANCH  16  18
HETATM   18  C   UNL     1      -9.085  16.512  69.074  1.00  0.00    -0.229 A  
HETATM   19  C   UNL     1      -7.721  16.218  69.204  1.00  0.00    -0.229 A  
HETATM   20  C   UNL     1      -6.762  17.071  68.657  1.00  0.00    -0.182 A  
HETATM   21  C   UNL     1      -7.159  18.224  67.980  1.00  0.00    -0.230 A  
HETATM   22  C   UNL     1      -8.513  18.532  67.861  1.00  0.00    -0.292 A  
HETATM   23  C   UNL     1      -9.475  17.686  68.416  1.00  0.00    -0.298 A  
ENDBRANCH  16  18
TORSDOF 1
ENDMDL
MODEL       79
REMARK 921   NORMALIZED FREE ENERGY PREDICTED BY IDOCK:   -4.92 KCAL/MOL
REMARK 922        TOTAL FREE ENERGY PREDICTED BY IDOCK:   -5.63 KCAL/MOL
REMARK 923 INTER-LIGAND FREE ENERGY PREDICTED BY IDOCK:   -5.15 KCAL/MOL
REMARK 924 INTRA-LIGAND FREE ENERGY PREDICTED BY IDOCK:   -0.48 KCAL/MOL
REMARK 927      BINDING AFFINITY PREDICTED BY RF-SCORE:    0.00 PKD
ROOT
HETATM    1  O   UNL     1     -10.976  11.563  69.896  1.00  0.00    -0.093 OA 
HETATM    2  N   UNL     1     -11.671  11.734  68.886  1.00  0.00    -0.300 N  
HETATM    3  O   UNL     1     -12.530  10.940  68.477  1.00  0.00    -0.375 OA 
HETATM    4  C   UNL     1     -11.453  12.961  68.109  1.00  0.00    -0.315 A  
HETATM    5  C   UNL     1     -10.519  13.905  68.552  1.00  0.00    -0.253 A  
HETATM    6  C   UNL     1     -10.253  15.049  67.775  1.00  0.00    -0.236 A  
HETATM    7  C   UNL     1     -10.989  15.279  66.599  1.00  0.00    -0.297 A  
HETATM    8  N   UNL     1     -10.871  16.423  65.796  1.00  0.00    -0.208 N  
HETATM    9  C   UNL     1     -11.907  14.312  66.161  1.00  0.00    -0.413 A  
HETATM   10  C   UNL     1     -12.144  13.155  66.909  1.00  0.00    -0.377 A  
HETATM   11  H   UNL     1     -11.087  16.306  64.807  1.00  0.00     0.000 HD 
HETATM   12  C   UNL     1     -10.495  17.681  66.194  1.00  0.00    -0.295 C  
HETATM   13  C   UNL     1     -10.269  17.916  67.676  1.00  0.00    -0.365 C  
HETATM   14  O   UNL     1     -10.468  18.589  65.362  1.00  0.00    -0.538 OA 
HETATM   15  N   UNL     1      -9.086  17.197  68.128  1.00  0.00    -0.240 NA 
HETATM   16  C   UNL     1      -9.091  15.908  68.165  1.00  0.00    -0.182 C  
HETATM   17  H   UNL     1      -8.254  17.712  68.416  1.00  0.00     0.000 HD 
ENDROOT
BRANCH  16  18
HETATM   18  C   UNL     1      -7.817  15.243  68.611  1.00  0.00    -0.142 A  
HETATM   19  C   UNL     1      -6.997  14.632  67.654  1.00  0.00    -0.205 A  
HETATM   20  C   UNL     1      -5.814  14.001  68.041  1.00  0.00    -0.138 A  
HETATM   21  C   UNL     1      -5.445  13.974  69.385  1.00  0.00    -0.083 A  
HETATM   22  C   UNL     1      -6.263  14.566  70.345  1.00  0.00    -0.174 A  
HETATM   23  C   UNL     1      -7.452  15.189  69.964  1.00  0.00     0.076 A  
ENDBRANCH  16  18
TORSDOF 1
ENDMDL
MODEL       80
REMARK 921   NORMALIZED FREE ENERGY PREDICTED BY IDOCK:   -4.90 KCAL/MOL
REMARK 922        TOTAL FREE ENERGY PREDICTED BY IDOCK:   -5.62 KCAL/MOL
REMARK 923 INTER-LIGAND FREE ENERGY PREDICTED BY IDOCK:   -5.14 KCAL/MOL
REMARK 924 INTRA-LIGAND FREE ENERGY PREDICTED BY IDOCK:   -0.47 KCAL/MOL
REMARK 927      BINDING AFFINITY PREDICTED BY RF-SCORE:    0.00 PKD
ROOT
HETATM    1  O   UNL     1      -8.041   7.002  67.844  1.00  0.00    -0.113 OA 
HETATM    2  N   UNL     1      -8.444   8.171  67.888  1.00  0.00    -0.131 N  
HETATM    3  O   UNL     1      -8.010   9.094  67.184  1.00  0.00    -0.104 OA 
HETATM    4  C   UNL     1      -9.504   8.492  68.852  1.00  0.00    -0.147 A  
HETATM    5  C   UNL     1     -10.051   7.475  69.644  1.00  0.00    -0.189 A  
HETATM    6  C   UNL     1     -11.017   7.786  70.619  1.00  0.00    -0.255 A  
HETATM    7  C   UNL     1     -11.488   9.106  70.737  1.00  0.00    -0.282 A  
HETATM    8  N   UNL     1     -12.506   9.513  71.611  1.00  0.00    -0.364 N  
HETATM    9  C   UNL     1     -10.913  10.115  69.949  1.00  0.00    -0.344 A  
HETATM   10  C   UNL     1      -9.925   9.816  69.008  1.00  0.00    -0.189 A  
HETATM   11  H   UNL     1     -12.468  10.480  71.933  1.00  0.00     0.000 HD 
HETATM   12  C   UNL     1     -13.548   8.755  72.083  1.00  0.00    -0.435 C  
HETATM   13  C   UNL     1     -13.697   7.345  71.545  1.00  0.00    -0.371 C  
HETATM   14  O   UNL     1     -14.379   9.277  72.828  1.00  0.00    -0.496 OA 
HETATM   15  N   UNL     1     -12.603   6.504  72.014  1.00  0.00    -0.508 NA 
HETATM   16  C   UNL     1     -11.402   6.716  71.592  1.00  0.00    -0.276 C  
HETATM   17  H   UNL     1     -12.786   5.750  72.675  1.00  0.00     0.000 HD 
ENDROOT
BRANCH  16  18
HETATM   18  C   UNL     1     -10.327   5.826  72.154  1.00  0.00    -0.249 A  
HETATM   19  C   UNL     1     -10.401   4.445  71.928  1.00  0.00    -0.167 A  
HETATM   20  C   UNL     1      -9.422   3.595  72.445  1.00  0.00    -0.185 A  
HETATM   21  C   UNL     1      -8.367   4.118  73.191  1.00  0.00    -0.090 A  
HETATM   22  C   UNL     1      -8.295   5.488  73.433  1.00  0.00    -0.113 A  
HETATM   23  C   UNL     1      -9.278   6.341  72.927  1.00  0.00    -0.133 A  
ENDBRANCH  16  18
TORSDOF 1
ENDMDL
MODEL       81
REMARK 921   NORMALIZED FREE ENERGY PREDICTED BY IDOCK:   -4.80 KCAL/MOL
REMARK 922        TOTAL FREE ENERGY PREDICTED BY IDOCK:   -5.51 KCAL/MOL
REMARK 923 INTER-LIGAND FREE ENERGY PREDICTED BY IDOCK:   -5.34 KCAL/MOL
REMARK 924 INTRA-LIGAND FREE ENERGY PREDICTED BY IDOCK:   -0.18 KCAL/MOL
REMARK 927      BINDING AFFINITY PREDICTED BY RF-SCORE:    0.00 PKD
ROOT
HETATM    1  O   UNL     1      -6.961   7.411  68.103  1.00  0.00    -0.070 OA 
HETATM    2  N   UNL     1      -7.693   6.441  68.337  1.00  0.00    -0.103 N  
HETATM    3  O   UNL     1      -7.413   5.264  68.070  1.00  0.00    -0.075 OA 
HETATM    4  C   UNL     1      -8.993   6.704  68.967  1.00  0.00    -0.130 A  
HETATM    5  C   UNL     1      -9.339   8.014  69.320  1.00  0.00    -0.151 A  
HETATM    6  C   UNL     1     -10.611   8.284  69.859  1.00  0.00    -0.232 A  
HETATM    7  C   UNL     1     -11.498   7.224  70.116  1.00  0.00    -0.165 A  
HETATM    8  N   UNL     1     -12.753   7.365  70.728  1.00  0.00    -0.585 N  
HETATM    9  C   UNL     1     -11.142   5.920  69.736  1.00  0.00    -0.422 A  
HETATM   10  C   UNL     1      -9.895   5.655  69.164  1.00  0.00    -0.216 A  
HETATM   11  H   UNL     1     -13.459   6.673  70.479  1.00  0.00     0.000 HD 
HETATM   12  C   UNL     1     -13.136   8.331  71.624  1.00  0.00    -0.334 C  
HETATM   13  C   UNL     1     -12.081   9.313  72.099  1.00  0.00    -0.283 C  
HETATM   14  O   UNL     1     -14.275   8.296  72.092  1.00  0.00    -0.395 OA 
HETATM   15  N   UNL     1     -11.680  10.192  71.009  1.00  0.00    -0.366 NA 
HETATM   16  C   UNL     1     -11.022   9.716  70.006  1.00  0.00    -0.260 C  
HETATM   17  H   UNL     1     -11.919  11.184  71.038  1.00  0.00     0.000 HD 
ENDROOT
BRANCH  16  18
HETATM   18  C   UNL     1     -10.678  10.685  68.908  1.00  0.00    -0.254 A  
HETATM   19  C   UNL     1      -9.368  11.173  68.817  1.00  0.00    -0.156 A  
HETATM   20  C   UNL     1      -9.023  12.080  67.814  1.00  0.00    -0.176 A  
HETATM   21  C   UNL     1      -9.984  12.506  66.898  1.00  0.00    -0.229 A  
HETATM   22  C   UNL     1     -11.293  12.037  66.991  1.00  0.00    -0.396 A  
HETATM   23  C   UNL     1     -11.645  11.138  68.000  1.00  0.00    -0.337 A  
ENDBRANCH  16  18
TORSDOF 1
ENDMDL
MODEL       82
REMARK 921   NORMALIZED FREE ENERGY PREDICTED BY IDOCK:   -4.79 KCAL/MOL
REMARK 922        TOTAL FREE ENERGY PREDICTED BY IDOCK:   -5.50 KCAL/MOL
REMARK 923 INTER-LIGAND FREE ENERGY PREDICTED BY IDOCK:   -5.17 KCAL/MOL
REMARK 924 INTRA-LIGAND FREE ENERGY PREDICTED BY IDOCK:   -0.33 KCAL/MOL
REMARK 927      BINDING AFFINITY PREDICTED BY RF-SCORE:    0.00 PKD
ROOT
HETATM    1  O   UNL     1     -10.994  17.576  66.971  1.00  0.00    -0.126 OA 
HETATM    2  N   UNL     1      -9.777  17.738  67.127  1.00  0.00    -0.279 N  
HETATM    3  O   UNL     1      -9.219  18.839  67.234  1.00  0.00    -0.282 OA 
HETATM    4  C   UNL     1      -8.931  16.539  67.176  1.00  0.00    -0.205 A  
HETATM    5  C   UNL     1      -9.521  15.271  67.096  1.00  0.00    -0.223 A  
HETATM    6  C   UNL     1      -8.711  14.120  67.071  1.00  0.00    -0.222 A  
HETATM    7  C   UNL     1      -7.317  14.245  67.211  1.00  0.00    -0.024 A  
HETATM    8  N   UNL     1      -6.425  13.166  67.285  1.00  0.00    -0.260 N  
HETATM    9  C   UNL     1      -6.743  15.524  67.269  1.00  0.00    -0.128 A  
HETATM   10  C   UNL     1      -7.542  16.671  67.254  1.00  0.00    -0.199 A  
HETATM   11  H   UNL     1      -5.477  13.338  66.952  1.00  0.00     0.000 HD 
HETATM   12  C   UNL     1      -6.684  11.904  67.757  1.00  0.00    -0.087 C  
HETATM   13  C   UNL     1      -8.052  11.642  68.360  1.00  0.00    -0.153 C  
HETATM   14  O   UNL     1      -5.774  11.074  67.781  1.00  0.00    -0.042 OA 
HETATM   15  N   UNL     1      -9.079  11.690  67.327  1.00  0.00    -0.164 NA 
HETATM   16  C   UNL     1      -9.363  12.810  66.753  1.00  0.00    -0.241 C  
HETATM   17  H   UNL     1      -9.572  10.839  67.057  1.00  0.00     0.000 HD 
ENDROOT
BRANCH  16  18
HETATM   18  C   UNL     1     -10.409  12.765  65.673  1.00  0.00    -0.296 A  
HETATM   19  C   UNL     1     -11.750  12.987  66.015  1.00  0.00    -0.442 A  
HETATM   20  C   UNL     1     -12.743  12.942  65.035  1.00  0.00    -0.474 A  
HETATM   21  C   UNL     1     -12.403  12.672  63.710  1.00  0.00    -0.568 A  
HETATM   22  C   UNL     1     -11.074  12.434  63.365  1.00  0.00    -0.465 A  
HETATM   23  C   UNL     1     -10.079  12.468  64.344  1.00  0.00    -0.284 A  
ENDBRANCH  16  18
TORSDOF 1
ENDMDL
MODEL       83
REMARK 921   NORMALIZED FREE ENERGY PREDICTED BY IDOCK:   -4.78 KCAL/MOL
REMARK 922        TOTAL FREE ENERGY PREDICTED BY IDOCK:   -5.49 KCAL/MOL
REMARK 923 INTER-LIGAND FREE ENERGY PREDICTED BY IDOCK:   -5.04 KCAL/MOL
REMARK 924 INTRA-LIGAND FREE ENERGY PREDICTED BY IDOCK:   -0.45 KCAL/MOL
REMARK 927      BINDING AFFINITY PREDICTED BY RF-SCORE:    0.00 PKD
ROOT
HETATM    1  O   UNL     1      -9.173   8.210  68.195  1.00  0.00    -0.134 OA 
HETATM    2  N   UNL     1      -8.865   7.017  68.078  1.00  0.00    -0.125 N  
HETATM    3  O   UNL     1      -8.311   6.524  67.086  1.00  0.00    -0.112 OA 
HETATM    4  C   UNL     1      -9.190   6.118  69.193  1.00  0.00    -0.127 A  
HETATM    5  C   UNL     1      -9.783   6.636  70.351  1.00  0.00    -0.186 A  
HETATM    6  C   UNL     1     -10.162   5.770  71.394  1.00  0.00    -0.269 A  
HETATM    7  C   UNL     1      -9.868   4.398  71.302  1.00  0.00    -0.190 A  
HETATM    8  N   UNL     1     -10.121   3.459  72.313  1.00  0.00    -0.165 N  
HETATM    9  C   UNL     1      -9.292   3.894  70.125  1.00  0.00    -0.241 A  
HETATM   10  C   UNL     1      -8.951   4.746  69.071  1.00  0.00    -0.139 A  
HETATM   11  H   UNL     1     -10.285   2.500  72.010  1.00  0.00     0.000 HD 
HETATM   12  C   UNL     1     -10.172   3.689  73.665  1.00  0.00    -0.142 C  
HETATM   13  C   UNL     1      -9.829   5.081  74.159  1.00  0.00    -0.174 C  
HETATM   14  O   UNL     1     -10.380   2.742  74.426  1.00  0.00    -0.137 OA 
HETATM   15  N   UNL     1     -10.854   6.032  73.751  1.00  0.00    -0.419 NA 
HETATM   16  C   UNL     1     -10.996   6.330  72.504  1.00  0.00    -0.251 C  
HETATM   17  H   UNL     1     -11.460   6.462  74.450  1.00  0.00     0.000 HD 
ENDROOT
BRANCH  16  18
HETATM   18  C   UNL     1     -12.101   7.293  72.165  1.00  0.00    -0.287 A  
HETATM   19  C   UNL     1     -13.315   6.791  71.680  1.00  0.00    -0.209 A  
HETATM   20  C   UNL     1     -14.355   7.661  71.349  1.00  0.00    -0.537 A  
HETATM   21  C   UNL     1     -14.186   9.037  71.497  1.00  0.00    -0.245 A  
HETATM   22  C   UNL     1     -12.975   9.546  71.964  1.00  0.00    -0.514 A  
HETATM   23  C   UNL     1     -11.930   8.679  72.286  1.00  0.00    -0.438 A  
ENDBRANCH  16  18
TORSDOF 1
ENDMDL
MODEL       84
REMARK 921   NORMALIZED FREE ENERGY PREDICTED BY IDOCK:   -4.78 KCAL/MOL
REMARK 922        TOTAL FREE ENERGY PREDICTED BY IDOCK:   -5.49 KCAL/MOL
REMARK 923 INTER-LIGAND FREE ENERGY PREDICTED BY IDOCK:   -5.23 KCAL/MOL
REMARK 924 INTRA-LIGAND FREE ENERGY PREDICTED BY IDOCK:   -0.27 KCAL/MOL
REMARK 927      BINDING AFFINITY PREDICTED BY RF-SCORE:    0.00 PKD
ROOT
HETATM    1  O   UNL     1     -11.014  10.888  65.121  1.00  0.00    -0.125 OA 
HETATM    2  N   UNL     1     -11.464  11.866  64.510  1.00  0.00    -0.317 N  
HETATM    3  O   UNL     1     -12.102  11.805  63.450  1.00  0.00    -0.491 OA 
HETATM    4  C   UNL     1     -11.213  13.198  65.077  1.00  0.00    -0.298 A  
HETATM    5  C   UNL     1     -10.527  13.315  66.292  1.00  0.00    -0.289 A  
HETATM    6  C   UNL     1     -10.221  14.590  66.805  1.00  0.00    -0.266 A  
HETATM    7  C   UNL     1     -10.678  15.739  66.136  1.00  0.00    -0.290 A  
HETATM    8  N   UNL     1     -10.506  17.052  66.599  1.00  0.00    -0.288 N  
HETATM    9  C   UNL     1     -11.345  15.602  64.909  1.00  0.00    -0.319 A  
HETATM   10  C   UNL     1     -11.616  14.338  64.376  1.00  0.00    -0.358 A  
HETATM   11  H   UNL     1     -10.466  17.782  65.888  1.00  0.00     0.000 HD 
HETATM   12  C   UNL     1     -10.386  17.464  67.902  1.00  0.00    -0.369 C  
HETATM   13  C   UNL     1     -10.547  16.420  68.991  1.00  0.00    -0.308 C  
HETATM   14  O   UNL     1     -10.268  18.667  68.142  1.00  0.00    -0.357 OA 
HETATM   15  N   UNL     1      -9.430  15.486  68.968  1.00  0.00    -0.224 NA 
HETATM   16  C   UNL     1      -9.293  14.670  67.978  1.00  0.00    -0.198 C  
HETATM   17  H   UNL     1      -8.756  15.475  69.734  1.00  0.00     0.000 HD 
ENDROOT
BRANCH  16  18
HETATM   18  C   UNL     1      -8.093  13.764  68.015  1.00  0.00    -0.163 A  
HETATM   19  C   UNL     1      -6.855  14.256  67.582  1.00  0.00    -0.201 A  
HETATM   20  C   UNL     1      -5.726  13.435  67.597  1.00  0.00    -0.072 A  
HETATM   21  C   UNL     1      -5.829  12.117  68.041  1.00  0.00    -0.059 A  
HETATM   22  C   UNL     1      -7.061  11.615  68.459  1.00  0.00    -0.089 A  
HETATM   23  C   UNL     1      -8.193  12.431  68.435  1.00  0.00    -0.144 A  
ENDBRANCH  16  18
TORSDOF 1
ENDMDL
MODEL       85
REMARK 921   NORMALIZED FREE ENERGY PREDICTED BY IDOCK:   -4.77 KCAL/MOL
REMARK 922        TOTAL FREE ENERGY PREDICTED BY IDOCK:   -5.48 KCAL/MOL
REMARK 923 INTER-LIGAND FREE ENERGY PREDICTED BY IDOCK:   -5.53 KCAL/MOL
REMARK 924 INTRA-LIGAND FREE ENERGY PREDICTED BY IDOCK:    0.06 KCAL/MOL
REMARK 927      BINDING AFFINITY PREDICTED BY RF-SCORE:    0.00 PKD
ROOT
HETATM    1  O   UNL     1      -6.831   8.743  66.320  1.00  0.00    -0.072 OA 
HETATM    2  N   UNL     1      -7.130   8.727  65.119  1.00  0.00    -0.085 N  
HETATM    3  O   UNL     1      -6.654   7.946  64.283  1.00  0.00    -0.059 OA 
HETATM    4  C   UNL     1      -8.110   9.714  64.648  1.00  0.00    -0.141 A  
HETATM    5  C   UNL     1      -8.701  10.594  65.563  1.00  0.00    -0.199 A  
HETATM    6  C   UNL     1      -9.588  11.589  65.108  1.00  0.00    -0.235 A  
HETATM    7  C   UNL     1      -9.939  11.640  63.747  1.00  0.00    -0.349 A  
HETATM    8  N   UNL     1     -10.874  12.530  63.199  1.00  0.00    -0.650 N  
HETATM    9  C   UNL     1      -9.320  10.764  62.843  1.00  0.00    -0.355 A  
HETATM   10  C   UNL     1      -8.408   9.801  63.285  1.00  0.00    -0.169 A  
HETATM   11  H   UNL     1     -10.738  12.785  62.221  1.00  0.00     0.000 HD 
HETATM   12  C   UNL     1     -11.952  13.096  63.832  1.00  0.00    -0.488 C  
HETATM   13  C   UNL     1     -12.246  12.658  65.254  1.00  0.00    -0.475 C  
HETATM   14  O   UNL     1     -12.697  13.841  63.194  1.00  0.00    -0.743 OA 
HETATM   15  N   UNL     1     -11.206  13.133  66.157  1.00  0.00    -0.290 NA 
HETATM   16  C   UNL     1     -10.014  12.646  66.079  1.00  0.00    -0.258 C  
HETATM   17  H   UNL     1     -11.420  13.849  66.851  1.00  0.00     0.000 HD 
ENDROOT
BRANCH  16  18
HETATM   18  C   UNL     1      -8.992  13.216  67.024  1.00  0.00    -0.228 A  
HETATM   19  C   UNL     1      -8.719  14.589  66.982  1.00  0.00    -0.256 A  
HETATM   20  C   UNL     1      -7.769  15.144  67.841  1.00  0.00    -0.145 A  
HETATM   21  C   UNL     1      -7.085  14.330  68.743  1.00  0.00    -0.105 A  
HETATM   22  C   UNL     1      -7.340  12.961  68.780  1.00  0.00    -0.066 A  
HETATM   23  C   UNL     1      -8.281  12.401  67.915  1.00  0.00    -0.163 A  
ENDBRANCH  16  18
TORSDOF 1
ENDMDL
MODEL       86
REMARK 921   NORMALIZED FREE ENERGY PREDICTED BY IDOCK:   -4.76 KCAL/MOL
REMARK 922        TOTAL FREE ENERGY PREDICTED BY IDOCK:   -5.46 KCAL/MOL
REMARK 923 INTER-LIGAND FREE ENERGY PREDICTED BY IDOCK:   -4.97 KCAL/MOL
REMARK 924 INTRA-LIGAND FREE ENERGY PREDICTED BY IDOCK:   -0.49 KCAL/MOL
REMARK 927      BINDING AFFINITY PREDICTED BY RF-SCORE:    0.00 PKD
ROOT
HETATM    1  O   UNL     1     -10.624   9.729  67.065  1.00  0.00    -0.239 OA 
HETATM    2  N   UNL     1      -9.735   8.883  66.909  1.00  0.00    -0.183 N  
HETATM    3  O   UNL     1      -9.223   8.588  65.819  1.00  0.00    -0.198 OA 
HETATM    4  C   UNL     1      -9.259   8.166  68.099  1.00  0.00    -0.133 A  
HETATM    5  C   UNL     1      -9.782   8.490  69.357  1.00  0.00    -0.177 A  
HETATM    6  C   UNL     1      -9.383   7.759  70.493  1.00  0.00    -0.163 A  
HETATM    7  C   UNL     1      -8.399   6.763  70.370  1.00  0.00    -0.130 A  
HETATM    8  N   UNL     1      -7.865   6.034  71.443  1.00  0.00    -0.110 N  
HETATM    9  C   UNL     1      -7.902   6.439  69.098  1.00  0.00    -0.109 A  
HETATM   10  C   UNL     1      -8.326   7.135  67.963  1.00  0.00    -0.119 A  
HETATM   11  H   UNL     1      -7.524   5.097  71.229  1.00  0.00     0.000 HD 
HETATM   12  C   UNL     1      -7.751   6.441  72.748  1.00  0.00    -0.103 C  
HETATM   13  C   UNL     1      -8.151   7.866  73.082  1.00  0.00    -0.162 C  
HETATM   14  O   UNL     1      -7.229   5.684  73.568  1.00  0.00    -0.085 OA 
HETATM   15  N   UNL     1      -9.591   8.036  72.940  1.00  0.00    -0.261 NA 
HETATM   16  C   UNL     1     -10.133   7.982  71.770  1.00  0.00    -0.191 C  
HETATM   17  H   UNL     1     -10.170   8.197  73.763  1.00  0.00     0.000 HD 
ENDROOT
BRANCH  16  18
HETATM   18  C   UNL     1     -11.628   8.132  71.715  1.00  0.00    -0.342 A  
HETATM   19  C   UNL     1     -12.200   9.369  72.041  1.00  0.00    -0.396 A  
HETATM   20  C   UNL     1     -13.586   9.534  72.007  1.00  0.00    -0.492 A  
HETATM   21  C   UNL     1     -14.407   8.465  71.651  1.00  0.00    -0.536 A  
HETATM   22  C   UNL     1     -13.847   7.227  71.341  1.00  0.00    -0.416 A  
HETATM   23  C   UNL     1     -12.462   7.055  71.384  1.00  0.00    -0.426 A  
ENDBRANCH  16  18
TORSDOF 1
ENDMDL
MODEL       87
REMARK 921   NORMALIZED FREE ENERGY PREDICTED BY IDOCK:   -4.73 KCAL/MOL
REMARK 922        TOTAL FREE ENERGY PREDICTED BY IDOCK:   -5.43 KCAL/MOL
REMARK 923 INTER-LIGAND FREE ENERGY PREDICTED BY IDOCK:   -5.48 KCAL/MOL
REMARK 924 INTRA-LIGAND FREE ENERGY PREDICTED BY IDOCK:    0.05 KCAL/MOL
REMARK 927      BINDING AFFINITY PREDICTED BY RF-SCORE:    0.00 PKD
ROOT
HETATM    1  O   UNL     1     -12.689  12.824  63.359  1.00  0.00    -0.698 OA 
HETATM    2  N   UNL     1     -12.279  13.812  63.982  1.00  0.00    -0.429 N  
HETATM    3  O   UNL     1     -12.700  14.967  63.831  1.00  0.00    -0.789 OA 
HETATM    4  C   UNL     1     -11.208  13.601  64.964  1.00  0.00    -0.321 A  
HETATM    5  C   UNL     1     -10.725  12.308  65.196  1.00  0.00    -0.330 A  
HETATM    6  C   UNL     1      -9.650  12.108  66.083  1.00  0.00    -0.250 A  
HETATM    7  C   UNL     1      -9.121  13.199  66.795  1.00  0.00    -0.209 A  
HETATM    8  N   UNL     1      -8.111  13.105  67.764  1.00  0.00    -0.150 N  
HETATM    9  C   UNL     1      -9.604  14.491  66.533  1.00  0.00    -0.311 A  
HETATM   10  C   UNL     1     -10.644  14.698  65.623  1.00  0.00    -0.344 A  
HETATM   11  H   UNL     1      -7.521  13.927  67.885  1.00  0.00     0.000 HD 
HETATM   12  C   UNL     1      -7.830  12.029  68.567  1.00  0.00    -0.129 C  
HETATM   13  C   UNL     1      -8.753  10.827  68.490  1.00  0.00    -0.149 C  
HETATM   14  O   UNL     1      -6.920  12.120  69.392  1.00  0.00    -0.065 OA 
HETATM   15  N   UNL     1      -8.614  10.163  67.201  1.00  0.00    -0.125 NA 
HETATM   16  C   UNL     1      -9.018  10.751  66.126  1.00  0.00    -0.177 C  
HETATM   17  H   UNL     1      -8.197   9.233  67.148  1.00  0.00     0.000 HD 
ENDROOT
BRANCH  16  18
HETATM   18  C   UNL     1      -8.805  10.010  64.834  1.00  0.00    -0.219 A  
HETATM   19  C   UNL     1      -8.495   8.644  64.876  1.00  0.00    -0.180 A  
HETATM   20  C   UNL     1      -8.283   7.934  63.694  1.00  0.00    -0.008 A  
HETATM   21  C   UNL     1      -8.377   8.584  62.464  1.00  0.00    -0.182 A  
HETATM   22  C   UNL     1      -8.669   9.946  62.414  1.00  0.00    -0.233 A  
HETATM   23  C   UNL     1      -8.871  10.662  63.595  1.00  0.00    -0.183 A  
ENDBRANCH  16  18
TORSDOF 1
ENDMDL
MODEL       88
REMARK 921   NORMALIZED FREE ENERGY PREDICTED BY IDOCK:   -4.71 KCAL/MOL
REMARK 922        TOTAL FREE ENERGY PREDICTED BY IDOCK:   -5.42 KCAL/MOL
REMARK 923 INTER-LIGAND FREE ENERGY PREDICTED BY IDOCK:   -4.93 KCAL/MOL
REMARK 924 INTRA-LIGAND FREE ENERGY PREDICTED BY IDOCK:   -0.49 KCAL/MOL
REMARK 927      BINDING AFFINITY PREDICTED BY RF-SCORE:    0.00 PKD
ROOT
HETATM    1  O   UNL     1      -8.077  10.642  62.482  1.00  0.00    -0.165 OA 
HETATM    2  N   UNL     1      -8.151   9.517  62.993  1.00  0.00    -0.137 N  
HETATM    3  O   UNL     1      -7.912   8.456  62.401  1.00  0.00    -0.137 OA 
HETATM    4  C   UNL     1      -8.563   9.434  64.400  1.00  0.00    -0.194 A  
HETATM    5  C   UNL     1      -8.809  10.608  65.121  1.00  0.00    -0.207 A  
HETATM    6  C   UNL     1      -9.273  10.534  66.448  1.00  0.00    -0.190 A  
HETATM    7  C   UNL     1      -9.408   9.280  67.070  1.00  0.00    -0.144 A  
HETATM    8  N   UNL     1      -9.778   9.091  68.410  1.00  0.00    -0.153 N  
HETATM    9  C   UNL     1      -9.177   8.114  66.325  1.00  0.00    -0.245 A  
HETATM   10  C   UNL     1      -8.755   8.183  64.994  1.00  0.00    -0.004 A  
HETATM   11  H   UNL     1     -10.256   8.218  68.629  1.00  0.00     0.000 HD 
HETATM   12  C   UNL     1      -9.568   9.951  69.458  1.00  0.00    -0.225 C  
HETATM   13  C   UNL     1      -8.766  11.211  69.190  1.00  0.00     0.070 C  
HETATM   14  O   UNL     1      -9.933   9.619  70.587  1.00  0.00    -0.273 OA 
HETATM   15  N   UNL     1      -9.516  12.116  68.331  1.00  0.00    -0.280 NA 
HETATM   16  C   UNL     1      -9.740  11.799  67.100  1.00  0.00    -0.183 C  
HETATM   17  H   UNL     1      -9.864  13.001  68.700  1.00  0.00     0.000 HD 
ENDROOT
BRANCH  16  18
HETATM   18  C   UNL     1     -10.552  12.773  66.292  1.00  0.00    -0.275 A  
HETATM   19  C   UNL     1     -11.846  12.414  65.894  1.00  0.00    -0.467 A  
HETATM   20  C   UNL     1     -12.619  13.295  65.136  1.00  0.00    -0.512 A  
HETATM   21  C   UNL     1     -12.102  14.537  64.768  1.00  0.00    -0.454 A  
HETATM   22  C   UNL     1     -10.809  14.895  65.147  1.00  0.00    -0.428 A  
HETATM   23  C   UNL     1     -10.030  14.012  65.896  1.00  0.00    -0.325 A  
ENDBRANCH  16  18
TORSDOF 1
ENDMDL
MODEL       89
REMARK 921   NORMALIZED FREE ENERGY PREDICTED BY IDOCK:   -4.70 KCAL/MOL
REMARK 922        TOTAL FREE ENERGY PREDICTED BY IDOCK:   -5.40 KCAL/MOL
REMARK 923 INTER-LIGAND FREE ENERGY PREDICTED BY IDOCK:   -5.07 KCAL/MOL
REMARK 924 INTRA-LIGAND FREE ENERGY PREDICTED BY IDOCK:   -0.33 KCAL/MOL
REMARK 927      BINDING AFFINITY PREDICTED BY RF-SCORE:    0.00 PKD
ROOT
HETATM    1  O   UNL     1      -7.895   9.774  70.639  1.00  0.00    -0.277 OA 
HETATM    2  N   UNL     1      -8.244  10.114  69.501  1.00  0.00    -0.161 N  
HETATM    3  O   UNL     1      -8.127  11.257  69.038  1.00  0.00    -0.127 OA 
HETATM    4  C   UNL     1      -8.854   9.092  68.642  1.00  0.00    -0.137 A  
HETATM    5  C   UNL     1      -8.976   7.777  69.107  1.00  0.00    -0.145 A  
HETATM    6  C   UNL     1      -9.623   6.808  68.317  1.00  0.00    -0.127 A  
HETATM    7  C   UNL     1     -10.071   7.147  67.028  1.00  0.00    -0.238 A  
HETATM    8  N   UNL     1     -10.650   6.244  66.124  1.00  0.00    -0.374 N  
HETATM    9  C   UNL     1      -9.959   8.474  66.587  1.00  0.00    -0.363 A  
HETATM   10  C   UNL     1      -9.353   9.448  67.385  1.00  0.00    -0.151 A  
HETATM   11  H   UNL     1     -11.307   6.637  65.450  1.00  0.00     0.000 HD 
HETATM   12  C   UNL     1     -10.431   4.892  66.045  1.00  0.00    -0.283 C  
HETATM   13  C   UNL     1      -9.382   4.291  66.961  1.00  0.00    -0.167 C  
HETATM   14  O   UNL     1     -11.003   4.243  65.167  1.00  0.00    -0.231 OA 
HETATM   15  N   UNL     1      -9.827   4.346  68.347  1.00  0.00    -0.106 NA 
HETATM   16  C   UNL     1      -9.934   5.485  68.944  1.00  0.00    -0.174 C  
HETATM   17  H   UNL     1     -10.053   3.485  68.845  1.00  0.00     0.000 HD 
ENDROOT
BRANCH  16  18
HETATM   18  C   UNL     1     -10.433   5.455  70.363  1.00  0.00    -0.345 A  
HETATM   19  C   UNL     1      -9.927   4.489  71.242  1.00  0.00    -0.258 A  
HETATM   20  C   UNL     1     -10.379   4.432  72.561  1.00  0.00    -0.252 A  
HETATM   21  C   UNL     1     -11.342   5.337  73.008  1.00  0.00    -0.376 A  
HETATM   22  C   UNL     1     -11.862   6.290  72.135  1.00  0.00    -0.365 A  
HETATM   23  C   UNL     1     -11.420   6.343  70.812  1.00  0.00    -0.415 A  
ENDBRANCH  16  18
TORSDOF 1
ENDMDL
MODEL       90
REMARK 921   NORMALIZED FREE ENERGY PREDICTED BY IDOCK:   -4.63 KCAL/MOL
REMARK 922        TOTAL FREE ENERGY PREDICTED BY IDOCK:   -5.33 KCAL/MOL
REMARK 923 INTER-LIGAND FREE ENERGY PREDICTED BY IDOCK:   -4.85 KCAL/MOL
REMARK 924 INTRA-LIGAND FREE ENERGY PREDICTED BY IDOCK:   -0.49 KCAL/MOL
REMARK 927      BINDING AFFINITY PREDICTED BY RF-SCORE:    0.00 PKD
ROOT
HETATM    1  O   UNL     1     -11.920   9.598  70.587  1.00  0.00    -0.272 OA 
HETATM    2  N   UNL     1     -11.097   8.768  70.183  1.00  0.00    -0.236 N  
HETATM    3  O   UNL     1     -10.801   7.720  70.774  1.00  0.00    -0.230 OA 
HETATM    4  C   UNL     1     -10.409   9.052  68.917  1.00  0.00    -0.215 A  
HETATM    5  C   UNL     1     -10.736  10.206  68.194  1.00  0.00    -0.285 A  
HETATM    6  C   UNL     1     -10.032  10.521  67.017  1.00  0.00    -0.244 A  
HETATM    7  C   UNL     1      -9.060   9.630  66.526  1.00  0.00    -0.154 A  
HETATM    8  N   UNL     1      -8.360   9.798  65.323  1.00  0.00    -0.135 N  
HETATM    9  C   UNL     1      -8.732   8.489  67.275  1.00  0.00    -0.133 A  
HETATM   10  C   UNL     1      -9.401   8.194  68.466  1.00  0.00    -0.138 A  
HETATM   11  H   UNL     1      -7.430   9.383  65.277  1.00  0.00     0.000 HD 
HETATM   12  C   UNL     1      -8.787  10.460  64.199  1.00  0.00    -0.214 C  
HETATM   13  C   UNL     1     -10.206  10.999  64.192  1.00  0.00    -0.357 C  
HETATM   14  O   UNL     1      -8.056  10.492  63.208  1.00  0.00    -0.151 OA 
HETATM   15  N   UNL     1     -10.335  12.098  65.139  1.00  0.00    -0.271 NA 
HETATM   16  C   UNL     1     -10.252  11.870  66.406  1.00  0.00    -0.209 C  
HETATM   17  H   UNL     1     -10.491  13.048  64.801  1.00  0.00     0.000 HD 
ENDROOT
BRANCH  16  18
HETATM   18  C   UNL     1     -10.361  13.066  67.313  1.00  0.00    -0.238 A  
HETATM   19  C   UNL     1     -11.610  13.676  67.486  1.00  0.00    -0.384 A  
HETATM   20  C   UNL     1     -11.739  14.792  68.314  1.00  0.00    -0.340 A  
HETATM   21  C   UNL     1     -10.621  15.306  68.970  1.00  0.00    -0.245 A  
HETATM   22  C   UNL     1      -9.372  14.714  68.790  1.00  0.00    -0.191 A  
HETATM   23  C   UNL     1      -9.238  13.605  67.955  1.00  0.00    -0.203 A  
ENDBRANCH  16  18
TORSDOF 1
ENDMDL
MODEL       91
REMARK 921   NORMALIZED FREE ENERGY PREDICTED BY IDOCK:   -4.59 KCAL/MOL
REMARK 922        TOTAL FREE ENERGY PREDICTED BY IDOCK:   -5.29 KCAL/MOL
REMARK 923 INTER-LIGAND FREE ENERGY PREDICTED BY IDOCK:   -4.86 KCAL/MOL
REMARK 924 INTRA-LIGAND FREE ENERGY PREDICTED BY IDOCK:   -0.43 KCAL/MOL
REMARK 927      BINDING AFFINITY PREDICTED BY RF-SCORE:    0.00 PKD
ROOT
HETATM    1  O   UNL     1     -11.216  19.514  67.801  1.00  0.00    -0.181 OA 
HETATM    2  N   UNL     1     -10.833  19.013  66.736  1.00  0.00    -0.345 N  
HETATM    3  O   UNL     1     -10.931  19.554  65.625  1.00  0.00    -0.394 OA 
HETATM    4  C   UNL     1     -10.231  17.675  66.790  1.00  0.00    -0.335 A  
HETATM    5  C   UNL     1     -10.067  17.038  68.026  1.00  0.00    -0.305 A  
HETATM    6  C   UNL     1      -9.556  15.728  68.080  1.00  0.00    -0.210 A  
HETATM    7  C   UNL     1      -9.136  15.095  66.896  1.00  0.00    -0.247 A  
HETATM    8  N   UNL     1      -8.535  13.829  66.840  1.00  0.00    -0.411 N  
HETATM    9  C   UNL     1      -9.327  15.740  65.665  1.00  0.00    -0.202 A  
HETATM   10  C   UNL     1      -9.872  17.026  65.605  1.00  0.00    -0.019 A  
HETATM   11  H   UNL     1      -8.671  13.300  65.979  1.00  0.00     0.000 HD 
HETATM   12  C   UNL     1      -7.783  13.222  67.815  1.00  0.00    -0.159 C  
HETATM   13  C   UNL     1      -7.470  14.022  69.066  1.00  0.00    -0.060 C  
HETATM   14  O   UNL     1      -7.300  12.111  67.594  1.00  0.00    -0.102 OA 
HETATM   15  N   UNL     1      -8.682  14.238  69.846  1.00  0.00     0.323 NA 
HETATM   16  C   UNL     1      -9.614  15.005  69.389  1.00  0.00    -0.139 C  
HETATM   17  H   UNL     1      -8.794  13.783  70.752  1.00  0.00     0.000 HD 
ENDROOT
BRANCH  16  18
HETATM   18  C   UNL     1     -10.845  15.145  70.241  1.00  0.00    -0.258 A  
HETATM   19  C   UNL     1     -11.962  14.348  69.959  1.00  0.00    -0.394 A  
HETATM   20  C   UNL     1     -13.122  14.464  70.727  1.00  0.00    -0.344 A  
HETATM   21  C   UNL     1     -13.173  15.378  71.778  1.00  0.00    -0.544 A  
HETATM   22  C   UNL     1     -12.072  16.186  72.055  1.00  0.00    -0.572 A  
HETATM   23  C   UNL     1     -10.914  16.081  71.283  1.00  0.00     0.040 A  
ENDBRANCH  16  18
TORSDOF 1
ENDMDL
MODEL       92
REMARK 921   NORMALIZED FREE ENERGY PREDICTED BY IDOCK:   -4.56 KCAL/MOL
REMARK 922        TOTAL FREE ENERGY PREDICTED BY IDOCK:   -5.25 KCAL/MOL
REMARK 923 INTER-LIGAND FREE ENERGY PREDICTED BY IDOCK:   -4.78 KCAL/MOL
REMARK 924 INTRA-LIGAND FREE ENERGY PREDICTED BY IDOCK:   -0.47 KCAL/MOL
REMARK 927      BINDING AFFINITY PREDICTED BY RF-SCORE:    0.00 PKD
ROOT
HETATM    1  O   UNL     1     -11.795   7.289  72.297  1.00  0.00    -0.282 OA 
HETATM    2  N   UNL     1     -11.302   6.155  72.340  1.00  0.00    -0.283 N  
HETATM    3  O   UNL     1     -11.222   5.457  73.360  1.00  0.00    -0.294 OA 
HETATM    4  C   UNL     1     -10.761   5.600  71.092  1.00  0.00    -0.241 A  
HETATM    5  C   UNL     1     -10.861   6.336  69.906  1.00  0.00    -0.399 A  
HETATM    6  C   UNL     1     -10.283   5.843  68.721  1.00  0.00    -0.243 A  
HETATM    7  C   UNL     1      -9.679   4.573  68.717  1.00  0.00    -0.143 A  
HETATM    8  N   UNL     1      -9.148   3.946  67.580  1.00  0.00    -0.139 N  
HETATM    9  C   UNL     1      -9.570   3.859  69.920  1.00  0.00    -0.270 A  
HETATM   10  C   UNL     1     -10.108   4.364  71.107  1.00  0.00    -0.196 A  
HETATM   11  H   UNL     1      -8.386   3.288  67.739  1.00  0.00     0.000 HD 
HETATM   12  C   UNL     1      -9.540   4.121  66.277  1.00  0.00    -0.199 C  
HETATM   13  C   UNL     1     -10.739   5.012  66.012  1.00  0.00    -0.183 C  
HETATM   14  O   UNL     1      -8.985   3.468  65.392  1.00  0.00    -0.127 OA 
HETATM   15  N   UNL     1     -10.418   6.400  66.317  1.00  0.00    -0.450 NA 
HETATM   16  C   UNL     1     -10.211   6.759  67.539  1.00  0.00    -0.190 C  
HETATM   17  H   UNL     1     -10.355   7.087  65.566  1.00  0.00     0.000 HD 
ENDROOT
BRANCH  16  18
HETATM   18  C   UNL     1      -9.850   8.202  67.763  1.00  0.00    -0.209 A  
HETATM   19  C   UNL     1     -10.755   9.198  67.372  1.00  0.00    -0.247 A  
HETATM   20  C   UNL     1     -10.441  10.546  67.559  1.00  0.00    -0.284 A  
HETATM   21  C   UNL     1      -9.223  10.905  68.134  1.00  0.00    -0.158 A  
HETATM   22  C   UNL     1      -8.312   9.921  68.511  1.00  0.00    -0.108 A  
HETATM   23  C   UNL     1      -8.617   8.573  68.316  1.00  0.00    -0.139 A  
ENDBRANCH  16  18
TORSDOF 1
ENDMDL
MODEL       93
REMARK 921   NORMALIZED FREE ENERGY PREDICTED BY IDOCK:   -4.55 KCAL/MOL
REMARK 922        TOTAL FREE ENERGY PREDICTED BY IDOCK:   -5.24 KCAL/MOL
REMARK 923 INTER-LIGAND FREE ENERGY PREDICTED BY IDOCK:   -4.85 KCAL/MOL
REMARK 924 INTRA-LIGAND FREE ENERGY PREDICTED BY IDOCK:   -0.39 KCAL/MOL
REMARK 927      BINDING AFFINITY PREDICTED BY RF-SCORE:    0.00 PKD
ROOT
HETATM    1  O   UNL     1      -8.687   7.697  73.032  1.00  0.00    -0.135 OA 
HETATM    2  N   UNL     1      -9.904   7.916  73.063  1.00  0.00    -0.274 N  
HETATM    3  O   UNL     1     -10.677   7.492  73.934  1.00  0.00    -0.285 OA 
HETATM    4  C   UNL     1     -10.478   8.727  71.981  1.00  0.00    -0.344 A  
HETATM    5  C   UNL     1      -9.640   9.258  70.994  1.00  0.00    -0.329 A  
HETATM    6  C   UNL     1     -10.191   9.977  69.916  1.00  0.00    -0.304 A  
HETATM    7  C   UNL     1     -11.574  10.229  69.881  1.00  0.00    -0.256 A  
HETATM    8  N   UNL     1     -12.218  11.003  68.905  1.00  0.00    -0.396 N  
HETATM    9  C   UNL     1     -12.401   9.671  70.868  1.00  0.00    -0.346 A  
HETATM   10  C   UNL     1     -11.861   8.922  71.918  1.00  0.00    -0.440 A  
HETATM   11  H   UNL     1     -13.192  10.771  68.713  1.00  0.00     0.000 HD 
HETATM   12  C   UNL     1     -11.683  12.037  68.179  1.00  0.00    -0.333 C  
HETATM   13  C   UNL     1     -10.270  12.479  68.513  1.00  0.00    -0.203 C  
HETATM   14  O   UNL     1     -12.398  12.637  67.375  1.00  0.00    -0.322 OA 
HETATM   15  N   UNL     1      -9.314  11.447  68.134  1.00  0.00    -0.175 NA 
HETATM   16  C   UNL     1      -9.291  10.325  68.771  1.00  0.00    -0.166 C  
HETATM   17  H   UNL     1      -8.663  11.611  67.366  1.00  0.00     0.000 HD 
ENDROOT
BRANCH  16  18
HETATM   18  C   UNL     1      -8.297   9.302  68.294  1.00  0.00    -0.120 A  
HETATM   19  C   UNL     1      -8.746   8.012  67.983  1.00  0.00    -0.125 A  
HETATM   20  C   UNL     1      -7.844   7.040  67.546  1.00  0.00    -0.112 A  
HETATM   21  C   UNL     1      -6.490   7.350  67.421  1.00  0.00    -0.060 A  
HETATM   22  C   UNL     1      -6.034   8.627  67.744  1.00  0.00    -0.047 A  
HETATM   23  C   UNL     1      -6.931   9.598  68.191  1.00  0.00    -0.077 A  
ENDBRANCH  16  18
TORSDOF 1
ENDMDL
MODEL       94
REMARK 921   NORMALIZED FREE ENERGY PREDICTED BY IDOCK:   -4.54 KCAL/MOL
REMARK 922        TOTAL FREE ENERGY PREDICTED BY IDOCK:   -5.24 KCAL/MOL
REMARK 923 INTER-LIGAND FREE ENERGY PREDICTED BY IDOCK:   -4.82 KCAL/MOL
REMARK 924 INTRA-LIGAND FREE ENERGY PREDICTED BY IDOCK:   -0.42 KCAL/MOL
REMARK 927      BINDING AFFINITY PREDICTED BY RF-SCORE:    0.00 PKD
ROOT
HETATM    1  O   UNL     1     -14.288   7.089  72.139  1.00  0.00    -0.247 OA 
HETATM    2  N   UNL     1     -13.768   8.077  71.607  1.00  0.00    -0.361 N  
HETATM    3  O   UNL     1     -14.377   8.919  70.932  1.00  0.00    -0.064 OA 
HETATM    4  C   UNL     1     -12.320   8.259  71.775  1.00  0.00    -0.328 A  
HETATM    5  C   UNL     1     -11.595   7.353  72.559  1.00  0.00    -0.319 A  
HETATM    6  C   UNL     1     -10.197   7.480  72.668  1.00  0.00    -0.297 A  
HETATM    7  C   UNL     1      -9.546   8.566  72.055  1.00  0.00    -0.301 A  
HETATM    8  N   UNL     1      -8.175   8.839  72.168  1.00  0.00    -0.045 N  
HETATM    9  C   UNL     1     -10.287   9.451  71.257  1.00  0.00    -0.363 A  
HETATM   10  C   UNL     1     -11.669   9.304  71.114  1.00  0.00    -0.394 A  
HETATM   11  H   UNL     1      -7.746   9.335  71.387  1.00  0.00     0.000 HD 
HETATM   12  C   UNL     1      -7.346   8.513  73.211  1.00  0.00     0.014 C  
HETATM   13  C   UNL     1      -7.970   7.869  74.435  1.00  0.00    -0.234 C  
HETATM   14  O   UNL     1      -6.163   8.853  73.165  1.00  0.00    -0.239 OA 
HETATM   15  N   UNL     1      -8.439   6.526  74.119  1.00  0.00    -0.124 NA 
HETATM   16  C   UNL     1      -9.440   6.365  73.320  1.00  0.00    -0.139 C  
HETATM   17  H   UNL     1      -7.978   5.714  74.529  1.00  0.00     0.000 HD 
ENDROOT
BRANCH  16  18
HETATM   18  C   UNL     1      -9.837   4.946  73.020  1.00  0.00    -0.174 A  
HETATM   19  C   UNL     1     -10.678   4.271  73.914  1.00  0.00    -0.335 A  
HETATM   20  C   UNL     1     -11.056   2.951  73.665  1.00  0.00    -0.326 A  
HETATM   21  C   UNL     1     -10.593   2.297  72.523  1.00  0.00    -0.135 A  
HETATM   22  C   UNL     1      -9.744   2.957  71.637  1.00  0.00    -0.226 A  
HETATM   23  C   UNL     1      -9.355   4.273  71.888  1.00  0.00    -0.186 A  
ENDBRANCH  16  18
TORSDOF 1
ENDMDL
MODEL       95
REMARK 921   NORMALIZED FREE ENERGY PREDICTED BY IDOCK:   -4.54 KCAL/MOL
REMARK 922        TOTAL FREE ENERGY PREDICTED BY IDOCK:   -5.23 KCAL/MOL
REMARK 923 INTER-LIGAND FREE ENERGY PREDICTED BY IDOCK:   -4.85 KCAL/MOL
REMARK 924 INTRA-LIGAND FREE ENERGY PREDICTED BY IDOCK:   -0.38 KCAL/MOL
REMARK 927      BINDING AFFINITY PREDICTED BY RF-SCORE:    0.00 PKD
ROOT
HETATM    1  O   UNL     1      -7.770  14.295  68.010  1.00  0.00    -0.116 OA 
HETATM    2  N   UNL     1      -6.749  13.637  67.768  1.00  0.00    -0.158 N  
HETATM    3  O   UNL     1      -5.591  14.032  67.964  1.00  0.00    -0.116 OA 
HETATM    4  C   UNL     1      -6.924  12.297  67.194  1.00  0.00    -0.102 A  
HETATM    5  C   UNL     1      -8.214  11.793  66.988  1.00  0.00    -0.172 A  
HETATM    6  C   UNL     1      -8.389  10.539  66.373  1.00  0.00    -0.145 A  
HETATM    7  C   UNL     1      -7.264   9.761  66.045  1.00  0.00    -0.101 A  
HETATM    8  N   UNL     1      -7.321   8.465  65.511  1.00  0.00    -0.082 N  
HETATM    9  C   UNL     1      -5.979  10.291  66.240  1.00  0.00    -0.072 A  
HETATM   10  C   UNL     1      -5.803  11.553  66.813  1.00  0.00    -0.143 A  
HETATM   11  H   UNL     1      -6.535   8.182  64.926  1.00  0.00     0.000 HD 
HETATM   12  C   UNL     1      -8.315   7.537  65.687  1.00  0.00    -0.140 C  
HETATM   13  C   UNL     1      -9.447   7.885  66.636  1.00  0.00    -0.211 C  
HETATM   14  O   UNL     1      -8.197   6.426  65.167  1.00  0.00    -0.136 OA 
HETATM   15  N   UNL     1     -10.263   8.956  66.080  1.00  0.00    -0.369 NA 
HETATM   16  C   UNL     1      -9.774  10.144  65.965  1.00  0.00    -0.226 C  
HETATM   17  H   UNL     1     -11.220   8.768  65.783  1.00  0.00     0.000 HD 
ENDROOT
BRANCH  16  18
HETATM   18  C   UNL     1     -10.671  11.183  65.350  1.00  0.00    -0.259 A  
HETATM   19  C   UNL     1     -10.619  11.393  63.965  1.00  0.00    -0.444 A  
HETATM   20  C   UNL     1     -11.434  12.357  63.369  1.00  0.00    -0.526 A  
HETATM   21  C   UNL     1     -12.301  13.118  64.151  1.00  0.00    -0.418 A  
HETATM   22  C   UNL     1     -12.347  12.926  65.531  1.00  0.00    -0.517 A  
HETATM   23  C   UNL     1     -11.527  11.970  66.132  1.00  0.00    -0.401 A  
ENDBRANCH  16  18
TORSDOF 1
ENDMDL
MODEL       96
REMARK 921   NORMALIZED FREE ENERGY PREDICTED BY IDOCK:   -4.53 KCAL/MOL
REMARK 922        TOTAL FREE ENERGY PREDICTED BY IDOCK:   -5.23 KCAL/MOL
REMARK 923 INTER-LIGAND FREE ENERGY PREDICTED BY IDOCK:   -4.87 KCAL/MOL
REMARK 924 INTRA-LIGAND FREE ENERGY PREDICTED BY IDOCK:   -0.36 KCAL/MOL
REMARK 927      BINDING AFFINITY PREDICTED BY RF-SCORE:    0.00 PKD
ROOT
HETATM    1  O   UNL     1      -9.508   7.761  69.139  1.00  0.00    -0.151 OA 
HETATM    2  N   UNL     1     -10.496   8.353  69.592  1.00  0.00    -0.220 N  
HETATM    3  O   UNL     1     -11.276   7.884  70.433  1.00  0.00    -0.269 OA 
HETATM    4  C   UNL     1     -10.772   9.704  69.088  1.00  0.00    -0.217 A  
HETATM    5  C   UNL     1      -9.898  10.290  68.164  1.00  0.00    -0.166 A  
HETATM    6  C   UNL     1     -10.194  11.555  67.622  1.00  0.00    -0.205 A  
HETATM    7  C   UNL     1     -11.323  12.261  68.075  1.00  0.00    -0.293 A  
HETATM    8  N   UNL     1     -11.666  13.559  67.671  1.00  0.00    -0.342 N  
HETATM    9  C   UNL     1     -12.197  11.649  68.987  1.00  0.00    -0.162 A  
HETATM   10  C   UNL     1     -11.928  10.375  69.496  1.00  0.00    -0.175 A  
HETATM   11  H   UNL     1     -12.658  13.794  67.695  1.00  0.00     0.000 HD 
HETATM   12  C   UNL     1     -10.816  14.549  67.248  1.00  0.00    -0.297 C  
HETATM   13  C   UNL     1      -9.325  14.271  67.301  1.00  0.00    -0.213 C  
HETATM   14  O   UNL     1     -11.279  15.652  66.953  1.00  0.00    -0.245 OA 
HETATM   15  N   UNL     1      -8.963  13.257  66.320  1.00  0.00    -0.454 NA 
HETATM   16  C   UNL     1      -9.363  12.040  66.475  1.00  0.00    -0.223 C  
HETATM   17  H   UNL     1      -8.394  13.507  65.512  1.00  0.00     0.000 HD 
ENDROOT
BRANCH  16  18
HETATM   18  C   UNL     1      -8.975  11.063  65.399  1.00  0.00    -0.192 A  
HETATM   19  C   UNL     1      -9.829  10.883  64.303  1.00  0.00    -0.365 A  
HETATM   20  C   UNL     1      -9.498   9.977  63.294  1.00  0.00    -0.230 A  
HETATM   21  C   UNL     1      -8.315   9.244  63.376  1.00  0.00    -0.193 A  
HETATM   22  C   UNL     1      -7.468   9.405  64.471  1.00  0.00    -0.105 A  
HETATM   23  C   UNL     1      -7.800  10.303  65.487  1.00  0.00    -0.152 A  
ENDBRANCH  16  18
TORSDOF 1
ENDMDL
MODEL       97
REMARK 921   NORMALIZED FREE ENERGY PREDICTED BY IDOCK:   -4.50 KCAL/MOL
REMARK 922        TOTAL FREE ENERGY PREDICTED BY IDOCK:   -5.19 KCAL/MOL
REMARK 923 INTER-LIGAND FREE ENERGY PREDICTED BY IDOCK:   -4.70 KCAL/MOL
REMARK 924 INTRA-LIGAND FREE ENERGY PREDICTED BY IDOCK:   -0.49 KCAL/MOL
REMARK 927      BINDING AFFINITY PREDICTED BY RF-SCORE:    0.00 PKD
ROOT
HETATM    1  O   UNL     1     -10.915  13.492  63.986  1.00  0.00    -0.320 OA 
HETATM    2  N   UNL     1     -10.990  12.285  64.246  1.00  0.00    -0.317 N  
HETATM    3  O   UNL     1     -11.561  11.444  63.538  1.00  0.00    -0.330 OA 
HETATM    4  C   UNL     1     -10.368  11.817  65.491  1.00  0.00    -0.262 A  
HETATM    5  C   UNL     1      -9.680  12.724  66.306  1.00  0.00    -0.262 A  
HETATM    6  C   UNL     1      -9.142  12.297  67.535  1.00  0.00    -0.182 A  
HETATM    7  C   UNL     1      -9.227  10.942  67.900  1.00  0.00    -0.152 A  
HETATM    8  N   UNL     1      -8.654  10.390  69.055  1.00  0.00    -0.148 N  
HETATM    9  C   UNL     1      -9.938  10.052  67.080  1.00  0.00    -0.251 A  
HETATM   10  C   UNL     1     -10.508  10.481  65.878  1.00  0.00    -0.224 A  
HETATM   11  H   UNL     1      -9.115   9.567  69.441  1.00  0.00     0.000 HD 
HETATM   12  C   UNL     1      -7.543  10.836  69.725  1.00  0.00     0.033 C  
HETATM   13  C   UNL     1      -6.770  11.994  69.121  1.00  0.00    -0.101 C  
HETATM   14  O   UNL     1      -7.152  10.216  70.715  1.00  0.00    -0.333 OA 
HETATM   15  N   UNL     1      -7.555  13.219  69.190  1.00  0.00    -0.320 NA 
HETATM   16  C   UNL     1      -8.622  13.341  68.474  1.00  0.00    -0.065 C  
HETATM   17  H   UNL     1      -7.263  13.979  69.803  1.00  0.00     0.000 HD 
ENDROOT
BRANCH  16  18
HETATM   18  C   UNL     1      -9.393  14.623  68.632  1.00  0.00    -0.206 A  
HETATM   19  C   UNL     1     -10.641  14.592  69.267  1.00  0.00    -0.236 A  
HETATM   20  C   UNL     1     -11.382  15.765  69.418  1.00  0.00    -0.348 A  
HETATM   21  C   UNL     1     -10.883  16.973  68.934  1.00  0.00    -0.228 A  
HETATM   22  C   UNL     1      -9.649  17.009  68.287  1.00  0.00    -0.273 A  
HETATM   23  C   UNL     1      -8.910  15.837  68.124  1.00  0.00    -0.178 A  
ENDBRANCH  16  18
TORSDOF 1
ENDMDL
MODEL       98
REMARK 921   NORMALIZED FREE ENERGY PREDICTED BY IDOCK:   -4.47 KCAL/MOL
REMARK 922        TOTAL FREE ENERGY PREDICTED BY IDOCK:   -5.16 KCAL/MOL
REMARK 923 INTER-LIGAND FREE ENERGY PREDICTED BY IDOCK:   -5.05 KCAL/MOL
REMARK 924 INTRA-LIGAND FREE ENERGY PREDICTED BY IDOCK:   -0.11 KCAL/MOL
REMARK 927      BINDING AFFINITY PREDICTED BY RF-SCORE:    0.00 PKD
ROOT
HETATM    1  O   UNL     1      -6.370  10.159  70.392  1.00  0.00    -0.094 OA 
HETATM    2  N   UNL     1      -6.507  11.322  69.991  1.00  0.00    -0.140 N  
HETATM    3  O   UNL     1      -5.994  12.317  70.520  1.00  0.00    -0.195 OA 
HETATM    4  C   UNL     1      -7.351  11.539  68.809  1.00  0.00    -0.115 A  
HETATM    5  C   UNL     1      -7.924  10.442  68.155  1.00  0.00    -0.110 A  
HETATM    6  C   UNL     1      -8.791  10.647  67.064  1.00  0.00    -0.141 A  
HETATM    7  C   UNL     1      -9.011  11.951  66.585  1.00  0.00    -0.198 A  
HETATM    8  N   UNL     1      -9.783  12.266  65.457  1.00  0.00    -0.373 N  
HETATM    9  C   UNL     1      -8.444  13.040  67.266  1.00  0.00    -0.199 A  
HETATM   10  C   UNL     1      -7.616  12.841  68.374  1.00  0.00    -0.133 A  
HETATM   11  H   UNL     1     -10.227  13.183  65.453  1.00  0.00     0.000 HD 
HETATM   12  C   UNL     1     -10.007  11.476  64.358  1.00  0.00    -0.269 C  
HETATM   13  C   UNL     1      -9.278  10.148  64.281  1.00  0.00    -0.266 C  
HETATM   14  O   UNL     1     -10.692  11.916  63.434  1.00  0.00    -0.401 OA 
HETATM   15  N   UNL     1      -9.780   9.233  65.297  1.00  0.00    -0.454 NA 
HETATM   16  C   UNL     1      -9.557   9.471  66.545  1.00  0.00    -0.201 C  
HETATM   17  H   UNL     1     -10.308   8.404  65.022  1.00  0.00     0.000 HD 
ENDROOT
BRANCH  16  18
HETATM   18  C   UNL     1     -10.141   8.495  67.530  1.00  0.00    -0.282 A  
HETATM   19  C   UNL     1     -10.371   7.174  67.124  1.00  0.00    -0.359 A  
HETATM   20  C   UNL     1     -10.921   6.250  68.014  1.00  0.00    -0.418 A  
HETATM   21  C   UNL     1     -11.246   6.641  69.312  1.00  0.00    -0.326 A  
HETATM   22  C   UNL     1     -11.035   7.957  69.719  1.00  0.00    -0.148 A  
HETATM   23  C   UNL     1     -10.495   8.887  68.828  1.00  0.00    -0.223 A  
ENDBRANCH  16  18
TORSDOF 1
ENDMDL
MODEL       99
REMARK 921   NORMALIZED FREE ENERGY PREDICTED BY IDOCK:   -4.42 KCAL/MOL
REMARK 922        TOTAL FREE ENERGY PREDICTED BY IDOCK:   -5.11 KCAL/MOL
REMARK 923 INTER-LIGAND FREE ENERGY PREDICTED BY IDOCK:   -4.66 KCAL/MOL
REMARK 924 INTRA-LIGAND FREE ENERGY PREDICTED BY IDOCK:   -0.45 KCAL/MOL
REMARK 927      BINDING AFFINITY PREDICTED BY RF-SCORE:    0.00 PKD
ROOT
HETATM    1  O   UNL     1      -7.719   8.169  73.264  1.00  0.00    -0.148 OA 
HETATM    2  N   UNL     1      -6.938   8.766  72.513  1.00  0.00     0.020 N  
HETATM    3  O   UNL     1      -5.794   9.126  72.824  1.00  0.00    -0.194 OA 
HETATM    4  C   UNL     1      -7.406   9.084  71.157  1.00  0.00    -0.096 A  
HETATM    5  C   UNL     1      -8.678   8.666  70.748  1.00  0.00    -0.202 A  
HETATM    6  C   UNL     1      -9.160   9.028  69.476  1.00  0.00    -0.151 A  
HETATM    7  C   UNL     1      -8.329   9.736  68.590  1.00  0.00    -0.111 A  
HETATM    8  N   UNL     1      -8.672  10.074  67.273  1.00  0.00    -0.125 N  
HETATM    9  C   UNL     1      -7.065  10.164  69.026  1.00  0.00    -0.072 A  
HETATM   10  C   UNL     1      -6.599   9.841  70.303  1.00  0.00    -0.102 A  
HETATM   11  H   UNL     1      -8.234  10.911  66.891  1.00  0.00     0.000 HD 
HETATM   12  C   UNL     1      -9.531   9.402  66.440  1.00  0.00    -0.201 C  
HETATM   13  C   UNL     1     -10.118   8.094  66.937  1.00  0.00    -0.297 C  
HETATM   14  O   UNL     1      -9.702   9.818  65.294  1.00  0.00    -0.294 OA 
HETATM   15  N   UNL     1     -11.045   8.338  68.034  1.00  0.00    -0.356 NA 
HETATM   16  C   UNL     1     -10.601   8.761  69.170  1.00  0.00    -0.184 C  
HETATM   17  H   UNL     1     -12.043   8.175  67.905  1.00  0.00     0.000 HD 
ENDROOT
BRANCH  16  18
HETATM   18  C   UNL     1     -11.629   9.021  70.237  1.00  0.00    -0.082 A  
HETATM   19  C   UNL     1     -12.146   7.939  70.962  1.00  0.00    -0.246 A  
HETATM   20  C   UNL     1     -13.107   8.150  71.952  1.00  0.00    -0.349 A  
HETATM   21  C   UNL     1     -13.559   9.442  72.220  1.00  0.00    -0.532 A  
HETATM   22  C   UNL     1     -13.061  10.521  71.493  1.00  0.00    -0.532 A  
HETATM   23  C   UNL     1     -12.108  10.313  70.495  1.00  0.00    -0.401 A  
ENDBRANCH  16  18
TORSDOF 1
ENDMDL
MODEL      100
REMARK 921   NORMALIZED FREE ENERGY PREDICTED BY IDOCK:   -4.41 KCAL/MOL
REMARK 922        TOTAL FREE ENERGY PREDICTED BY IDOCK:   -5.10 KCAL/MOL
REMARK 923 INTER-LIGAND FREE ENERGY PREDICTED BY IDOCK:   -5.13 KCAL/MOL
REMARK 924 INTRA-LIGAND FREE ENERGY PREDICTED BY IDOCK:    0.03 KCAL/MOL
REMARK 927      BINDING AFFINITY PREDICTED BY RF-SCORE:    0.00 PKD
ROOT
HETATM    1  O   UNL     1     -12.022  15.835  69.628  1.00  0.00    -0.356 OA 
HETATM    2  N   UNL     1     -12.445  14.908  70.332  1.00  0.00    -0.340 N  
HETATM    3  O   UNL     1     -13.242  15.042  71.271  1.00  0.00    -0.368 OA 
HETATM    4  C   UNL     1     -11.957  13.554  70.042  1.00  0.00    -0.340 A  
HETATM    5  C   UNL     1     -11.083  13.348  68.967  1.00  0.00    -0.293 A  
HETATM    6  C   UNL     1     -10.555  12.066  68.726  1.00  0.00    -0.237 A  
HETATM    7  C   UNL     1     -10.974  10.980  69.516  1.00  0.00    -0.243 A  
HETATM    8  N   UNL     1     -10.583   9.649  69.313  1.00  0.00    -0.213 N  
HETATM    9  C   UNL     1     -11.835  11.210  70.601  1.00  0.00    -0.403 A  
HETATM   10  C   UNL     1     -12.329  12.490  70.868  1.00  0.00    -0.349 A  
HETATM   11  H   UNL     1     -10.569   9.050  70.137  1.00  0.00     0.000 HD 
HETATM   12  C   UNL     1     -10.216   9.063  68.127  1.00  0.00    -0.204 C  
HETATM   13  C   UNL     1     -10.327   9.895  66.863  1.00  0.00    -0.235 C  
HETATM   14  O   UNL     1      -9.924   7.866  68.116  1.00  0.00    -0.167 OA 
HETATM   15  N   UNL     1      -9.342  10.968  66.874  1.00  0.00    -0.171 NA 
HETATM   16  C   UNL     1      -9.455  11.937  67.720  1.00  0.00    -0.184 C  
HETATM   17  H   UNL     1      -8.564  10.955  66.215  1.00  0.00     0.000 HD 
ENDROOT
BRANCH  16  18
HETATM   18  C   UNL     1      -8.376  12.985  67.687  1.00  0.00    -0.181 A  
HETATM   19  C   UNL     1      -7.052  12.606  67.942  1.00  0.00    -0.113 A  
HETATM   20  C   UNL     1      -6.032  13.559  67.927  1.00  0.00    -0.143 A  
HETATM   21  C   UNL     1      -6.330  14.895  67.662  1.00  0.00    -0.147 A  
HETATM   22  C   UNL     1      -7.648  15.283  67.424  1.00  0.00    -0.229 A  
HETATM   23  C   UNL     1      -8.671  14.334  67.448  1.00  0.00    -0.217 A  
ENDBRANCH  16  18
TORSDOF 1
ENDMDL
MODEL      101
REMARK 921   NORMALIZED FREE ENERGY PREDICTED BY IDOCK:   -4.35 KCAL/MOL
REMARK 922        TOTAL FREE ENERGY PREDICTED BY IDOCK:   -5.04 KCAL/MOL
REMARK 923 INTER-LIGAND FREE ENERGY PREDICTED BY IDOCK:   -5.03 KCAL/MOL
REMARK 924 INTRA-LIGAND FREE ENERGY PREDICTED BY IDOCK:   -0.01 KCAL/MOL
REMARK 927      BINDING AFFINITY PREDICTED BY RF-SCORE:    0.00 PKD
ROOT
HETATM    1  O   UNL     1      -6.882  12.289  69.228  1.00  0.00    -0.099 OA 
HETATM    2  N   UNL     1      -6.760  11.866  68.071  1.00  0.00    -0.066 N  
HETATM    3  O   UNL     1      -5.978  12.328  67.229  1.00  0.00    -0.137 OA 
HETATM    4  C   UNL     1      -7.615  10.745  67.663  1.00  0.00    -0.096 A  
HETATM    5  C   UNL     1      -8.490  10.166  68.590  1.00  0.00    -0.122 A  
HETATM    6  C   UNL     1      -9.362   9.137  68.187  1.00  0.00    -0.147 A  
HETATM    7  C   UNL     1      -9.292   8.639  66.874  1.00  0.00    -0.170 A  
HETATM    8  N   UNL     1     -10.050   7.563  66.388  1.00  0.00    -0.476 N  
HETATM    9  C   UNL     1      -8.424   9.246  65.953  1.00  0.00    -0.141 A  
HETATM   10  C   UNL     1      -7.585  10.294  66.340  1.00  0.00    -0.117 A  
HETATM   11  H   UNL     1     -10.254   7.567  65.389  1.00  0.00     0.000 HD 
HETATM   12  C   UNL     1     -10.548   6.507  67.108  1.00  0.00    -0.328 C  
HETATM   13  C   UNL     1     -10.175   6.413  68.576  1.00  0.00    -0.175 C  
HETATM   14  O   UNL     1     -11.174   5.624  66.520  1.00  0.00    -0.098 OA 
HETATM   15  N   UNL     1     -10.805   7.489  69.329  1.00  0.00    -0.386 NA 
HETATM   16  C   UNL     1     -10.433   8.710  69.142  1.00  0.00    -0.211 C  
HETATM   17  H   UNL     1     -11.541   7.278  70.004  1.00  0.00     0.000 HD 
ENDROOT
BRANCH  16  18
HETATM   18  C   UNL     1     -11.159   9.762  69.934  1.00  0.00    -0.293 A  
HETATM   19  C   UNL     1     -11.874   9.381  71.077  1.00  0.00    -0.396 A  
HETATM   20  C   UNL     1     -12.565  10.335  71.825  1.00  0.00    -0.488 A  
HETATM   21  C   UNL     1     -12.548  11.674  71.435  1.00  0.00    -0.391 A  
HETATM   22  C   UNL     1     -11.852  12.059  70.291  1.00  0.00    -0.356 A  
HETATM   23  C   UNL     1     -11.169  11.106  69.534  1.00  0.00    -0.341 A  
ENDBRANCH  16  18
TORSDOF 1
ENDMDL
MODEL      102
REMARK 921   NORMALIZED FREE ENERGY PREDICTED BY IDOCK:   -4.35 KCAL/MOL
REMARK 922        TOTAL FREE ENERGY PREDICTED BY IDOCK:   -5.04 KCAL/MOL
REMARK 923 INTER-LIGAND FREE ENERGY PREDICTED BY IDOCK:   -4.79 KCAL/MOL
REMARK 924 INTRA-LIGAND FREE ENERGY PREDICTED BY IDOCK:   -0.25 KCAL/MOL
REMARK 927      BINDING AFFINITY PREDICTED BY RF-SCORE:    0.00 PKD
ROOT
HETATM    1  O   UNL     1     -10.387  13.984  66.512  1.00  0.00    -0.276 OA 
HETATM    2  N   UNL     1     -11.013  14.493  67.451  1.00  0.00    -0.295 N  
HETATM    3  O   UNL     1     -11.280  15.699  67.551  1.00  0.00    -0.317 OA 
HETATM    4  C   UNL     1     -11.460  13.606  68.532  1.00  0.00    -0.312 A  
HETATM    5  C   UNL     1     -11.213  12.230  68.447  1.00  0.00    -0.311 A  
HETATM    6  C   UNL     1     -11.576  11.384  69.512  1.00  0.00    -0.399 A  
HETATM    7  C   UNL     1     -12.260  11.913  70.621  1.00  0.00    -0.331 A  
HETATM    8  N   UNL     1     -12.744  11.152  71.695  1.00  0.00    -0.388 N  
HETATM    9  C   UNL     1     -12.480  13.296  70.698  1.00  0.00    -0.373 A  
HETATM   10  C   UNL     1     -12.085  14.146  69.660  1.00  0.00    -0.400 A  
HETATM   11  H   UNL     1     -12.813  11.629  72.594  1.00  0.00     0.000 HD 
HETATM   12  C   UNL     1     -13.134   9.837  71.672  1.00  0.00    -0.419 C  
HETATM   13  C   UNL     1     -13.145   9.126  70.332  1.00  0.00     0.764 C  
HETATM   14  O   UNL     1     -13.565   9.322  72.705  1.00  0.00    -0.403 OA 
HETATM   15  N   UNL     1     -11.785   8.944  69.843  1.00  0.00    -0.379 NA 
HETATM   16  C   UNL     1     -11.089   9.968  69.480  1.00  0.00    -0.238 C  
HETATM   17  H   UNL     1     -11.383   8.009  69.787  1.00  0.00     0.000 HD 
ENDROOT
BRANCH  16  18
HETATM   18  C   UNL     1      -9.683   9.696  69.021  1.00  0.00    -0.169 A  
HETATM   19  C   UNL     1      -8.659  10.571  69.409  1.00  0.00    -0.100 A  
HETATM   20  C   UNL     1      -7.347  10.348  68.990  1.00  0.00    -0.097 A  
HETATM   21  C   UNL     1      -7.050   9.252  68.180  1.00  0.00    -0.077 A  
HETATM   22  C   UNL     1      -8.065   8.386  67.778  1.00  0.00    -0.122 A  
HETATM   23  C   UNL     1      -9.380   8.612  68.186  1.00  0.00    -0.145 A  
ENDBRANCH  16  18
TORSDOF 1
ENDMDL
MODEL      103
REMARK 921   NORMALIZED FREE ENERGY PREDICTED BY IDOCK:   -4.27 KCAL/MOL
REMARK 922        TOTAL FREE ENERGY PREDICTED BY IDOCK:   -4.95 KCAL/MOL
REMARK 923 INTER-LIGAND FREE ENERGY PREDICTED BY IDOCK:   -4.94 KCAL/MOL
REMARK 924 INTRA-LIGAND FREE ENERGY PREDICTED BY IDOCK:   -0.01 KCAL/MOL
REMARK 927      BINDING AFFINITY PREDICTED BY RF-SCORE:    0.00 PKD
ROOT
HETATM    1  O   UNL     1      -8.571   6.102  67.425  1.00  0.00    -0.108 OA 
HETATM    2  N   UNL     1      -8.807   7.142  66.797  1.00  0.00    -0.125 N  
HETATM    3  O   UNL     1      -8.548   7.317  65.598  1.00  0.00    -0.148 OA 
HETATM    4  C   UNL     1      -9.426   8.255  67.528  1.00  0.00    -0.149 A  
HETATM    5  C   UNL     1      -9.769   8.092  68.876  1.00  0.00    -0.156 A  
HETATM    6  C   UNL     1     -10.297   9.176  69.602  1.00  0.00    -0.226 A  
HETATM    7  C   UNL     1     -10.555  10.394  68.948  1.00  0.00    -0.216 A  
HETATM    8  N   UNL     1     -11.157  11.510  69.549  1.00  0.00    -0.407 N  
HETATM    9  C   UNL     1     -10.185  10.545  67.603  1.00  0.00    -0.234 A  
HETATM   10  C   UNL     1      -9.623   9.482  66.889  1.00  0.00    -0.217 A  
HETATM   11  H   UNL     1     -10.907  12.421  69.166  1.00  0.00     0.000 HD 
HETATM   12  C   UNL     1     -12.044  11.511  70.595  1.00  0.00    -0.353 C  
HETATM   13  C   UNL     1     -12.520  10.170  71.121  1.00  0.00    -0.387 C  
HETATM   14  O   UNL     1     -12.505  12.584  70.988  1.00  0.00    -0.369 OA 
HETATM   15  N   UNL     1     -11.428   9.467  71.780  1.00  0.00    -0.386 NA 
HETATM   16  C   UNL     1     -10.433   9.028  71.086  1.00  0.00    -0.293 C  
HETATM   17  H   UNL     1     -11.449   9.321  72.789  1.00  0.00     0.000 HD 
ENDROOT
BRANCH  16  18
HETATM   18  C   UNL     1      -9.331   8.345  71.849  1.00  0.00    -0.313 A  
HETATM   19  C   UNL     1      -9.597   7.853  73.133  1.00  0.00    -0.352 A  
HETATM   20  C   UNL     1      -8.591   7.222  73.868  1.00  0.00    -0.218 A  
HETATM   21  C   UNL     1      -7.314   7.084  73.325  1.00  0.00    -0.075 A  
HETATM   22  C   UNL     1      -7.038   7.585  72.054  1.00  0.00    -0.064 A  
HETATM   23  C   UNL     1      -8.038   8.225  71.321  1.00  0.00    -0.138 A  
ENDBRANCH  16  18
TORSDOF 1
ENDMDL
MODEL      104
REMARK 921   NORMALIZED FREE ENERGY PREDICTED BY IDOCK:   -4.26 KCAL/MOL
REMARK 922        TOTAL FREE ENERGY PREDICTED BY IDOCK:   -4.94 KCAL/MOL
REMARK 923 INTER-LIGAND FREE ENERGY PREDICTED BY IDOCK:   -4.46 KCAL/MOL
REMARK 924 INTRA-LIGAND FREE ENERGY PREDICTED BY IDOCK:   -0.48 KCAL/MOL
REMARK 927      BINDING AFFINITY PREDICTED BY RF-SCORE:    0.00 PKD
ROOT
HETATM    1  O   UNL     1     -12.276  11.297  68.809  1.00  0.00    -0.532 OA 
HETATM    2  N   UNL     1     -12.172  10.985  70.002  1.00  0.00    -0.337 N  
HETATM    3  O   UNL     1     -12.645  11.634  70.946  1.00  0.00    -0.358 OA 
HETATM    4  C   UNL     1     -11.423   9.764  70.325  1.00  0.00    -0.255 A  
HETATM    5  C   UNL     1     -10.900   8.978  69.291  1.00  0.00    -0.131 A  
HETATM    6  C   UNL     1     -10.121   7.846  69.594  1.00  0.00    -0.197 A  
HETATM    7  C   UNL     1      -9.941   7.462  70.935  1.00  0.00    -0.184 A  
HETATM    8  N   UNL     1      -9.259   6.309  71.349  1.00  0.00    -0.149 N  
HETATM    9  C   UNL     1     -10.455   8.274  71.958  1.00  0.00    -0.350 A  
HETATM   10  C   UNL     1     -11.195   9.422  71.661  1.00  0.00    -0.431 A  
HETATM   11  H   UNL     1      -8.818   6.348  72.267  1.00  0.00     0.000 HD 
HETATM   12  C   UNL     1      -9.118   5.133  70.655  1.00  0.00    -0.141 C  
HETATM   13  C   UNL     1      -9.850   5.001  69.333  1.00  0.00    -0.203 C  
HETATM   14  O   UNL     1      -8.508   4.199  71.177  1.00  0.00    -0.081 OA 
HETATM   15  N   UNL     1      -9.269   5.895  68.340  1.00  0.00    -0.117 NA 
HETATM   16  C   UNL     1      -9.395   7.172  68.471  1.00  0.00    -0.136 C  
HETATM   17  H   UNL     1      -8.762   5.512  67.542  1.00  0.00     0.000 HD 
ENDROOT
BRANCH  16  18
HETATM   18  C   UNL     1      -8.735   8.024  67.421  1.00  0.00    -0.124 A  
HETATM   19  C   UNL     1      -9.313   8.102  66.147  1.00  0.00    -0.232 A  
HETATM   20  C   UNL     1      -8.717   8.877  65.151  1.00  0.00    -0.213 A  
HETATM   21  C   UNL     1      -7.540   9.575  65.421  1.00  0.00    -0.106 A  
HETATM   22  C   UNL     1      -6.951   9.490  66.681  1.00  0.00    -0.085 A  
HETATM   23  C   UNL     1      -7.538   8.707  67.677  1.00  0.00    -0.098 A  
ENDBRANCH  16  18
TORSDOF 1
ENDMDL
MODEL      105
REMARK 921   NORMALIZED FREE ENERGY PREDICTED BY IDOCK:   -4.24 KCAL/MOL
REMARK 922        TOTAL FREE ENERGY PREDICTED BY IDOCK:   -4.92 KCAL/MOL
REMARK 923 INTER-LIGAND FREE ENERGY PREDICTED BY IDOCK:   -4.59 KCAL/MOL
REMARK 924 INTRA-LIGAND FREE ENERGY PREDICTED BY IDOCK:   -0.33 KCAL/MOL
REMARK 927      BINDING AFFINITY PREDICTED BY RF-SCORE:    0.00 PKD
ROOT
HETATM    1  O   UNL     1     -11.005  16.268  64.225  1.00  0.00    -0.707 OA 
HETATM    2  N   UNL     1     -10.879  16.869  65.299  1.00  0.00    -0.219 N  
HETATM    3  O   UNL     1     -10.642  18.081  65.407  1.00  0.00    -0.648 OA 
HETATM    4  C   UNL     1     -11.006  16.088  66.536  1.00  0.00    -0.080 A  
HETATM    5  C   UNL     1     -11.308  14.723  66.466  1.00  0.00    -0.344 A  
HETATM    6  C   UNL     1     -11.362  13.953  67.643  1.00  0.00    -0.335 A  
HETATM    7  C   UNL     1     -11.193  14.577  68.892  1.00  0.00    -0.262 A  
HETATM    8  N   UNL     1     -11.310  13.928  70.129  1.00  0.00    -0.484 N  
HETATM    9  C   UNL     1     -10.870  15.942  68.941  1.00  0.00    -0.274 A  
HETATM   10  C   UNL     1     -10.776  16.701  67.772  1.00  0.00    -0.327 A  
HETATM   11  H   UNL     1     -10.766  14.317  70.899  1.00  0.00     0.000 HD 
HETATM   12  C   UNL     1     -12.075  12.827  70.420  1.00  0.00    -0.302 C  
HETATM   13  C   UNL     1     -12.979  12.285  69.328  1.00  0.00     1.613 C  
HETATM   14  O   UNL     1     -12.088  12.394  71.573  1.00  0.00     0.223 OA 
HETATM   15  N   UNL     1     -12.184  11.704  68.254  1.00  0.00    -0.452 NA 
HETATM   16  C   UNL     1     -11.459  12.466  67.505  1.00  0.00    -0.346 C  
HETATM   17  H   UNL     1     -12.200  10.698  68.093  1.00  0.00     0.000 HD 
ENDROOT
BRANCH  16  18
HETATM   18  C   UNL     1     -10.642  11.782  66.443  1.00  0.00    -0.293 A  
HETATM   19  C   UNL     1     -11.192  11.613  65.166  1.00  0.00    -0.262 A  
HETATM   20  C   UNL     1     -10.460  10.974  64.164  1.00  0.00    -0.434 A  
HETATM   21  C   UNL     1      -9.178  10.498  64.433  1.00  0.00    -0.281 A  
HETATM   22  C   UNL     1      -8.630  10.648  65.705  1.00  0.00    -0.186 A  
HETATM   23  C   UNL     1      -9.363  11.277  66.713  1.00  0.00    -0.191 A  
ENDBRANCH  16  18
TORSDOF 1
ENDMDL
MODEL      106
REMARK 921   NORMALIZED FREE ENERGY PREDICTED BY IDOCK:   -4.21 KCAL/MOL
REMARK 922        TOTAL FREE ENERGY PREDICTED BY IDOCK:   -4.89 KCAL/MOL
REMARK 923 INTER-LIGAND FREE ENERGY PREDICTED BY IDOCK:   -5.07 KCAL/MOL
REMARK 924 INTRA-LIGAND FREE ENERGY PREDICTED BY IDOCK:    0.18 KCAL/MOL
REMARK 927      BINDING AFFINITY PREDICTED BY RF-SCORE:    0.00 PKD
ROOT
HETATM    1  O   UNL     1      -8.839   7.698  70.692  1.00  0.00    -0.143 OA 
HETATM    2  N   UNL     1      -9.791   7.583  71.475  1.00  0.00    -0.166 N  
HETATM    3  O   UNL     1     -10.002   6.593  72.189  1.00  0.00    -0.162 OA 
HETATM    4  C   UNL     1     -10.747   8.695  71.554  1.00  0.00    -0.282 A  
HETATM    5  C   UNL     1     -10.531   9.850  70.792  1.00  0.00    -0.253 A  
HETATM    6  C   UNL     1     -11.479  10.890  70.808  1.00  0.00    -0.115 A  
HETATM    7  C   UNL     1     -12.598  10.800  71.655  1.00  0.00    -0.351 A  
HETATM    8  N   UNL     1     -13.559  11.809  71.816  1.00  0.00    -0.060 N  
HETATM    9  C   UNL     1     -12.809   9.626  72.395  1.00  0.00    -0.315 A  
HETATM   10  C   UNL     1     -11.889   8.574  72.350  1.00  0.00    -0.437 A  
HETATM   11  H   UNL     1     -14.497  11.505  72.074  1.00  0.00     0.000 HD 
HETATM   12  C   UNL     1     -13.376  13.160  71.666  1.00  0.00    -0.308 C  
HETATM   13  C   UNL     1     -11.970  13.658  71.388  1.00  0.00     0.260 C  
HETATM   14  O   UNL     1     -14.324  13.919  71.874  1.00  0.00    -0.428 OA 
HETATM   15  N   UNL     1     -11.540  13.244  70.059  1.00  0.00    -0.513 NA 
HETATM   16  C   UNL     1     -11.325  11.996  69.811  1.00  0.00    -0.126 C  
HETATM   17  H   UNL     1     -11.407  13.940  69.326  1.00  0.00     0.000 HD 
ENDROOT
BRANCH  16  18
HETATM   18  C   UNL     1     -10.918  11.652  68.405  1.00  0.00    -0.265 A  
HETATM   19  C   UNL     1     -10.689  12.688  67.490  1.00  0.00    -0.247 A  
HETATM   20  C   UNL     1     -10.318  12.397  66.176  1.00  0.00    -0.271 A  
HETATM   21  C   UNL     1     -10.178  11.071  65.768  1.00  0.00    -0.316 A  
HETATM   22  C   UNL     1     -10.419  10.034  66.668  1.00  0.00    -0.244 A  
HETATM   23  C   UNL     1     -10.800  10.321  67.980  1.00  0.00    -0.325 A  
ENDBRANCH  16  18
TORSDOF 1
ENDMDL
MODEL      107
REMARK 921   NORMALIZED FREE ENERGY PREDICTED BY IDOCK:   -4.21 KCAL/MOL
REMARK 922        TOTAL FREE ENERGY PREDICTED BY IDOCK:   -4.89 KCAL/MOL
REMARK 923 INTER-LIGAND FREE ENERGY PREDICTED BY IDOCK:   -4.39 KCAL/MOL
REMARK 924 INTRA-LIGAND FREE ENERGY PREDICTED BY IDOCK:   -0.49 KCAL/MOL
REMARK 927      BINDING AFFINITY PREDICTED BY RF-SCORE:    0.00 PKD
ROOT
HETATM    1  O   UNL     1      -9.541   9.671  64.829  1.00  0.00    -0.265 OA 
HETATM    2  N   UNL     1      -9.838  10.567  65.629  1.00  0.00    -0.236 N  
HETATM    3  O   UNL     1      -9.917  11.770  65.346  1.00  0.00    -0.241 OA 
HETATM    4  C   UNL     1     -10.104  10.177  67.020  1.00  0.00    -0.223 A  
HETATM    5  C   UNL     1     -10.062   8.825  67.380  1.00  0.00    -0.289 A  
HETATM    6  C   UNL     1     -10.246   8.450  68.725  1.00  0.00    -0.223 A  
HETATM    7  C   UNL     1     -10.554   9.429  69.686  1.00  0.00    -0.225 A  
HETATM    8  N   UNL     1     -10.841   9.162  71.032  1.00  0.00    -0.264 N  
HETATM    9  C   UNL     1     -10.571  10.781  69.309  1.00  0.00    -0.261 A  
HETATM   10  C   UNL     1     -10.349  11.161  67.983  1.00  0.00    -0.208 A  
HETATM   11  H   UNL     1     -10.619   9.901  71.698  1.00  0.00     0.000 HD 
HETATM   12  C   UNL     1     -11.387   8.016  71.553  1.00  0.00    -0.259 C  
HETATM   13  C   UNL     1     -11.827   6.938  70.582  1.00  0.00    -0.368 C  
HETATM   14  O   UNL     1     -11.602   7.953  72.765  1.00  0.00    -0.383 OA 
HETATM   15  N   UNL     1     -10.670   6.336  69.933  1.00  0.00    -0.262 NA 
HETATM   16  C   UNL     1      -9.966   7.028  69.102  1.00  0.00    -0.165 C  
HETATM   17  H   UNL     1     -10.417   5.369  70.134  1.00  0.00     0.000 HD 
ENDROOT
BRANCH  16  18
HETATM   18  C   UNL     1      -8.768   6.343  68.503  1.00  0.00    -0.121 A  
HETATM   19  C   UNL     1      -8.967   5.307  67.581  1.00  0.00    -0.109 A  
HETATM   20  C   UNL     1      -7.874   4.648  67.017  1.00  0.00    -0.098 A  
HETATM   21  C   UNL     1      -6.577   5.017  67.373  1.00  0.00    -0.053 A  
HETATM   22  C   UNL     1      -6.371   6.035  68.301  1.00  0.00    -0.044 A  
HETATM   23  C   UNL     1      -7.462   6.690  68.876  1.00  0.00    -0.096 A  
ENDBRANCH  16  18
TORSDOF 1
ENDMDL
MODEL      108
REMARK 921   NORMALIZED FREE ENERGY PREDICTED BY IDOCK:   -4.14 KCAL/MOL
REMARK 922        TOTAL FREE ENERGY PREDICTED BY IDOCK:   -4.81 KCAL/MOL
REMARK 923 INTER-LIGAND FREE ENERGY PREDICTED BY IDOCK:   -4.96 KCAL/MOL
REMARK 924 INTRA-LIGAND FREE ENERGY PREDICTED BY IDOCK:    0.15 KCAL/MOL
REMARK 927      BINDING AFFINITY PREDICTED BY RF-SCORE:    0.00 PKD
ROOT
HETATM    1  O   UNL     1     -12.912   6.777  71.930  1.00  0.00    -0.325 OA 
HETATM    2  N   UNL     1     -11.867   6.123  72.039  1.00  0.00    -0.311 N  
HETATM    3  O   UNL     1     -11.637   5.304  72.939  1.00  0.00    -0.310 OA 
HETATM    4  C   UNL     1     -10.818   6.343  71.035  1.00  0.00    -0.262 A  
HETATM    5  C   UNL     1     -11.046   7.233  69.978  1.00  0.00    -0.262 A  
HETATM    6  C   UNL     1     -10.020   7.502  69.052  1.00  0.00    -0.175 A  
HETATM    7  C   UNL     1      -8.798   6.813  69.146  1.00  0.00    -0.134 A  
HETATM    8  N   UNL     1      -7.741   6.937  68.232  1.00  0.00    -0.110 N  
HETATM    9  C   UNL     1      -8.581   5.940  70.223  1.00  0.00    -0.134 A  
HETATM   10  C   UNL     1      -9.583   5.701  71.167  1.00  0.00    -0.208 A  
HETATM   11  H   UNL     1      -6.804   6.767  68.597  1.00  0.00     0.000 HD 
HETATM   12  C   UNL     1      -7.827   7.262  66.902  1.00  0.00    -0.111 C  
HETATM   13  C   UNL     1      -9.211   7.417  66.300  1.00  0.00    -0.135 C  
HETATM   14  O   UNL     1      -6.797   7.302  66.228  1.00  0.00    -0.055 OA 
HETATM   15  N   UNL     1      -9.870   8.598  66.842  1.00  0.00    -0.214 NA 
HETATM   16  C   UNL     1     -10.226   8.624  68.083  1.00  0.00    -0.205 C  
HETATM   17  H   UNL     1     -10.051   9.403  66.243  1.00  0.00     0.000 HD 
ENDROOT
BRANCH  16  18
HETATM   18  C   UNL     1     -10.868   9.894  68.570  1.00  0.00    -0.257 A  
HETATM   19  C   UNL     1     -11.182  10.897  67.643  1.00  0.00    -0.379 A  
HETATM   20  C   UNL     1     -11.770  12.089  68.069  1.00  0.00    -0.398 A  
HETATM   21  C   UNL     1     -12.045  12.287  69.421  1.00  0.00    -0.234 A  
HETATM   22  C   UNL     1     -11.722  11.301  70.351  1.00  0.00    -0.398 A  
HETATM   23  C   UNL     1     -11.124  10.112  69.931  1.00  0.00    -0.346 A  
ENDBRANCH  16  18
TORSDOF 1
ENDMDL
MODEL      109
REMARK 921   NORMALIZED FREE ENERGY PREDICTED BY IDOCK:   -4.06 KCAL/MOL
REMARK 922        TOTAL FREE ENERGY PREDICTED BY IDOCK:   -4.73 KCAL/MOL
REMARK 923 INTER-LIGAND FREE ENERGY PREDICTED BY IDOCK:   -4.63 KCAL/MOL
REMARK 924 INTRA-LIGAND FREE ENERGY PREDICTED BY IDOCK:   -0.09 KCAL/MOL
REMARK 927      BINDING AFFINITY PREDICTED BY RF-SCORE:    0.00 PKD
ROOT
HETATM    1  O   UNL     1      -8.792   7.515  66.204  1.00  0.00    -0.152 OA 
HETATM    2  N   UNL     1      -8.979   6.349  66.574  1.00  0.00    -0.141 N  
HETATM    3  O   UNL     1      -8.915   5.355  65.837  1.00  0.00    -0.143 OA 
HETATM    4  C   UNL     1      -9.315   6.128  67.986  1.00  0.00    -0.114 A  
HETATM    5  C   UNL     1      -9.364   7.217  68.865  1.00  0.00    -0.139 A  
HETATM    6  C   UNL     1      -9.754   7.022  70.204  1.00  0.00    -0.176 A  
HETATM    7  C   UNL     1     -10.012   5.722  70.673  1.00  0.00    -0.194 A  
HETATM    8  N   UNL     1     -10.323   5.401  72.002  1.00  0.00    -0.206 N  
HETATM    9  C   UNL     1      -9.978   4.646  69.772  1.00  0.00    -0.295 A  
HETATM   10  C   UNL     1      -9.630   4.841  68.433  1.00  0.00    -0.210 A  
HETATM   11  H   UNL     1     -10.897   4.570  72.146  1.00  0.00     0.000 HD 
HETATM   12  C   UNL     1      -9.943   6.082  73.131  1.00  0.00    -0.178 C  
HETATM   13  C   UNL     1      -9.003   7.261  72.963  1.00  0.00    -0.138 C  
HETATM   14  O   UNL     1     -10.280   5.648  74.234  1.00  0.00    -0.235 OA 
HETATM   15  N   UNL     1      -9.680   8.356  72.283  1.00  0.00    -0.291 NA 
HETATM   16  C   UNL     1     -10.016   8.235  71.043  1.00  0.00    -0.187 C  
HETATM   17  H   UNL     1      -9.889   9.219  72.785  1.00  0.00     0.000 HD 
ENDROOT
BRANCH  16  18
HETATM   18  C   UNL     1     -10.742   9.399  70.426  1.00  0.00    -0.317 A  
HETATM   19  C   UNL     1     -12.052   9.679  70.838  1.00  0.00    -0.383 A  
HETATM   20  C   UNL     1     -12.753  10.747  70.277  1.00  0.00    -0.286 A  
HETATM   21  C   UNL     1     -12.152  11.539  69.299  1.00  0.00    -0.344 A  
HETATM   22  C   UNL     1     -10.855  11.257  68.873  1.00  0.00    -0.253 A  
HETATM   23  C   UNL     1     -10.155  10.183  69.424  1.00  0.00    -0.250 A  
ENDBRANCH  16  18
TORSDOF 1
ENDMDL
MODEL      110
REMARK 921   NORMALIZED FREE ENERGY PREDICTED BY IDOCK:   -4.05 KCAL/MOL
REMARK 922        TOTAL FREE ENERGY PREDICTED BY IDOCK:   -4.72 KCAL/MOL
REMARK 923 INTER-LIGAND FREE ENERGY PREDICTED BY IDOCK:   -5.05 KCAL/MOL
REMARK 924 INTRA-LIGAND FREE ENERGY PREDICTED BY IDOCK:    0.33 KCAL/MOL
REMARK 927      BINDING AFFINITY PREDICTED BY RF-SCORE:    0.00 PKD
ROOT
HETATM    1  O   UNL     1      -8.930  19.318  66.010  1.00  0.00    -0.429 OA 
HETATM    2  N   UNL     1      -9.608  18.283  66.055  1.00  0.00    -0.154 N  
HETATM    3  O   UNL     1     -10.700  18.129  65.491  1.00  0.00    -0.599 OA 
HETATM    4  C   UNL     1      -9.087  17.161  66.846  1.00  0.00    -0.238 A  
HETATM    5  C   UNL     1      -7.840  17.275  67.473  1.00  0.00    -0.194 A  
HETATM    6  C   UNL     1      -7.366  16.232  68.291  1.00  0.00    -0.146 A  
HETATM    7  C   UNL     1      -8.111  15.044  68.406  1.00  0.00    -0.141 A  
HETATM    8  N   UNL     1      -7.696  13.911  69.121  1.00  0.00    -0.330 N  
HETATM    9  C   UNL     1      -9.367  14.957  67.788  1.00  0.00    -0.194 A  
HETATM   10  C   UNL     1      -9.859  16.007  67.008  1.00  0.00    -0.240 A  
HETATM   11  H   UNL     1      -8.435  13.320  69.501  1.00  0.00     0.000 HD 
HETATM   12  C   UNL     1      -6.408  13.509  69.366  1.00  0.00    -0.110 C  
HETATM   13  C   UNL     1      -5.285  14.305  68.727  1.00  0.00    -0.088 C  
HETATM   14  O   UNL     1      -6.214  12.465  69.992  1.00  0.00    -0.139 OA 
HETATM   15  N   UNL     1      -5.202  15.632  69.321  1.00  0.00    -0.100 NA 
HETATM   16  C   UNL     1      -6.146  16.488  69.120  1.00  0.00    -0.162 C  
HETATM   17  H   UNL     1      -4.398  15.885  69.896  1.00  0.00     0.000 HD 
ENDROOT
BRANCH  16  18
HETATM   18  C   UNL     1      -5.999  17.823  69.798  1.00  0.00    -0.234 A  
HETATM   19  C   UNL     1      -5.332  17.890  71.028  1.00  0.00    -0.184 A  
HETATM   20  C   UNL     1      -5.188  19.114  71.685  1.00  0.00    -0.348 A  
HETATM   21  C   UNL     1      -5.714  20.275  71.118  1.00  0.00    -0.325 A  
HETATM   22  C   UNL     1      -6.392  20.213  69.903  1.00  0.00    -0.360 A  
HETATM   23  C   UNL     1      -6.547  18.990  69.248  1.00  0.00    -0.333 A  
ENDBRANCH  16  18
TORSDOF 1
ENDMDL
MODEL      111
REMARK 921   NORMALIZED FREE ENERGY PREDICTED BY IDOCK:   -4.04 KCAL/MOL
REMARK 922        TOTAL FREE ENERGY PREDICTED BY IDOCK:   -4.71 KCAL/MOL
REMARK 923 INTER-LIGAND FREE ENERGY PREDICTED BY IDOCK:   -4.23 KCAL/MOL
REMARK 924 INTRA-LIGAND FREE ENERGY PREDICTED BY IDOCK:   -0.48 KCAL/MOL
REMARK 927      BINDING AFFINITY PREDICTED BY RF-SCORE:    0.00 PKD
ROOT
HETATM    1  O   UNL     1     -13.192   9.567  70.831  1.00  0.00    -0.233 OA 
HETATM    2  N   UNL     1     -12.815   8.879  71.788  1.00  0.00    -0.343 N  
HETATM    3  O   UNL     1     -13.209   9.016  72.955  1.00  0.00    -0.339 OA 
HETATM    4  C   UNL     1     -11.819   7.833  71.524  1.00  0.00    -0.293 A  
HETATM    5  C   UNL     1     -11.370   7.617  70.216  1.00  0.00    -0.197 A  
HETATM    6  C   UNL     1     -10.364   6.664  69.966  1.00  0.00    -0.232 A  
HETATM    7  C   UNL     1      -9.873   5.876  71.022  1.00  0.00    -0.182 A  
HETATM    8  N   UNL     1      -8.937   4.842  70.875  1.00  0.00    -0.129 N  
HETATM    9  C   UNL     1     -10.320   6.121  72.330  1.00  0.00    -0.221 A  
HETATM   10  C   UNL     1     -11.290   7.094  72.587  1.00  0.00    -0.306 A  
HETATM   11  H   UNL     1      -8.346   4.648  71.683  1.00  0.00     0.000 HD 
HETATM   12  C   UNL     1      -8.727   4.063  69.766  1.00  0.00    -0.075 C  
HETATM   13  C   UNL     1      -9.658   4.251  68.583  1.00  0.00    -0.142 C  
HETATM   14  O   UNL     1      -7.877   3.172  69.812  1.00  0.00    -0.044 OA 
HETATM   15  N   UNL     1      -9.436   5.551  67.965  1.00  0.00    -0.111 NA 
HETATM   16  C   UNL     1      -9.755   6.629  68.599  1.00  0.00    -0.129 C  
HETATM   17  H   UNL     1      -9.029   5.610  67.032  1.00  0.00     0.000 HD 
ENDROOT
BRANCH  16  18
HETATM   18  C   UNL     1      -9.460   7.930  67.903  1.00  0.00    -0.160 A  
HETATM   19  C   UNL     1      -8.363   8.692  68.324  1.00  0.00    -0.127 A  
HETATM   20  C   UNL     1      -8.071   9.908  67.703  1.00  0.00    -0.110 A  
HETATM   21  C   UNL     1      -8.874  10.369  66.661  1.00  0.00    -0.144 A  
HETATM   22  C   UNL     1      -9.977   9.624  66.247  1.00  0.00    -0.335 A  
HETATM   23  C   UNL     1     -10.278   8.413  66.873  1.00  0.00    -0.383 A  
ENDBRANCH  16  18
TORSDOF 1
ENDMDL
MODEL      112
REMARK 921   NORMALIZED FREE ENERGY PREDICTED BY IDOCK:   -4.04 KCAL/MOL
REMARK 922        TOTAL FREE ENERGY PREDICTED BY IDOCK:   -4.71 KCAL/MOL
REMARK 923 INTER-LIGAND FREE ENERGY PREDICTED BY IDOCK:   -4.22 KCAL/MOL
REMARK 924 INTRA-LIGAND FREE ENERGY PREDICTED BY IDOCK:   -0.49 KCAL/MOL
REMARK 927      BINDING AFFINITY PREDICTED BY RF-SCORE:    0.00 PKD
ROOT
HETATM    1  O   UNL     1      -7.454   7.334  70.906  1.00  0.00    -0.074 OA 
HETATM    2  N   UNL     1      -8.175   8.328  71.058  1.00  0.00    -0.103 N  
HETATM    3  O   UNL     1      -8.413   8.869  72.146  1.00  0.00    -0.382 OA 
HETATM    4  C   UNL     1      -8.805   8.901  69.861  1.00  0.00    -0.151 A  
HETATM    5  C   UNL     1      -8.538   8.346  68.604  1.00  0.00    -0.132 A  
HETATM    6  C   UNL     1      -9.192   8.845  67.462  1.00  0.00    -0.153 A  
HETATM    7  C   UNL     1     -10.050   9.954  67.578  1.00  0.00    -0.197 A  
HETATM    8  N   UNL     1     -10.686  10.585  66.500  1.00  0.00    -0.169 N  
HETATM    9  C   UNL     1     -10.321  10.483  68.849  1.00  0.00    -0.226 A  
HETATM   10  C   UNL     1      -9.704   9.964  69.991  1.00  0.00    -0.274 A  
HETATM   11  H   UNL     1     -11.571  11.048  66.703  1.00  0.00     0.000 HD 
HETATM   12  C   UNL     1     -10.249  10.650  65.200  1.00  0.00    -0.299 C  
HETATM   13  C   UNL     1      -8.886  10.065  64.882  1.00  0.00    -0.192 C  
HETATM   14  O   UNL     1     -10.918  11.273  64.374  1.00  0.00    -0.332 OA 
HETATM   15  N   UNL     1      -8.913   8.614  65.017  1.00  0.00    -0.414 NA 
HETATM   16  C   UNL     1      -9.054   8.079  66.183  1.00  0.00    -0.176 C  
HETATM   17  H   UNL     1      -8.820   8.022  64.192  1.00  0.00     0.000 HD 
ENDROOT
BRANCH  16  18
HETATM   18  C   UNL     1      -9.107   6.576  66.230  1.00  0.00    -0.168 A  
HETATM   19  C   UNL     1     -10.327   5.947  66.509  1.00  0.00    -0.237 A  
HETATM   20  C   UNL     1     -10.403   4.554  66.568  1.00  0.00    -0.159 A  
HETATM   21  C   UNL     1      -9.261   3.784  66.351  1.00  0.00    -0.178 A  
HETATM   22  C   UNL     1      -8.041   4.403  66.088  1.00  0.00    -0.102 A  
HETATM   23  C   UNL     1      -7.959   5.795  66.039  1.00  0.00    -0.103 A  
ENDBRANCH  16  18
TORSDOF 1
ENDMDL
MODEL      113
REMARK 921   NORMALIZED FREE ENERGY PREDICTED BY IDOCK:   -4.02 KCAL/MOL
REMARK 922        TOTAL FREE ENERGY PREDICTED BY IDOCK:   -4.68 KCAL/MOL
REMARK 923 INTER-LIGAND FREE ENERGY PREDICTED BY IDOCK:   -4.22 KCAL/MOL
REMARK 924 INTRA-LIGAND FREE ENERGY PREDICTED BY IDOCK:   -0.46 KCAL/MOL
REMARK 927      BINDING AFFINITY PREDICTED BY RF-SCORE:    0.00 PKD
ROOT
HETATM    1  O   UNL     1     -11.286  10.836  69.490  1.00  0.00    -0.239 OA 
HETATM    2  N   UNL     1     -11.317   9.916  70.317  1.00  0.00    -0.274 N  
HETATM    3  O   UNL     1     -11.657  10.043  71.502  1.00  0.00    -0.353 OA 
HETATM    4  C   UNL     1     -10.910   8.580  69.865  1.00  0.00    -0.205 A  
HETATM    5  C   UNL     1     -10.552   8.380  68.526  1.00  0.00    -0.149 A  
HETATM    6  C   UNL     1     -10.093   7.118  68.102  1.00  0.00    -0.195 A  
HETATM    7  C   UNL     1     -10.075   6.043  69.008  1.00  0.00    -0.176 A  
HETATM    8  N   UNL     1      -9.720   4.727  68.675  1.00  0.00    -0.159 N  
HETATM    9  C   UNL     1     -10.417   6.267  70.350  1.00  0.00    -0.277 A  
HETATM   10  C   UNL     1     -10.835   7.528  70.784  1.00  0.00    -0.253 A  
HETATM   11  H   UNL     1      -9.325   4.161  69.426  1.00  0.00     0.000 HD 
HETATM   12  C   UNL     1      -9.844   4.117  67.453  1.00  0.00    -0.101 C  
HETATM   13  C   UNL     1     -10.524   4.894  66.341  1.00  0.00    -0.280 C  
HETATM   14  O   UNL     1      -9.509   2.938  67.335  1.00  0.00    -0.189 OA 
HETATM   15  N   UNL     1      -9.695   6.018  65.926  1.00  0.00    -0.377 NA 
HETATM   16  C   UNL     1      -9.506   7.010  66.729  1.00  0.00    -0.163 C  
HETATM   17  H   UNL     1      -9.263   6.020  65.002  1.00  0.00     0.000 HD 
ENDROOT
BRANCH  16  18
HETATM   18  C   UNL     1      -8.608   8.111  66.236  1.00  0.00    -0.157 A  
HETATM   19  C   UNL     1      -9.115   9.046  65.324  1.00  0.00    -0.226 A  
HETATM   20  C   UNL     1      -8.302  10.073  64.843  1.00  0.00    -0.160 A  
HETATM   21  C   UNL     1      -6.977  10.170  65.268  1.00  0.00    -0.137 A  
HETATM   22  C   UNL     1      -6.461   9.235  66.163  1.00  0.00    -0.069 A  
HETATM   23  C   UNL     1      -7.268   8.201  66.638  1.00  0.00    -0.081 A  
ENDBRANCH  16  18
TORSDOF 1
ENDMDL
MODEL      114
REMARK 921   NORMALIZED FREE ENERGY PREDICTED BY IDOCK:   -3.99 KCAL/MOL
REMARK 922        TOTAL FREE ENERGY PREDICTED BY IDOCK:   -4.65 KCAL/MOL
REMARK 923 INTER-LIGAND FREE ENERGY PREDICTED BY IDOCK:   -4.31 KCAL/MOL
REMARK 924 INTRA-LIGAND FREE ENERGY PREDICTED BY IDOCK:   -0.35 KCAL/MOL
REMARK 927      BINDING AFFINITY PREDICTED BY RF-SCORE:    0.00 PKD
ROOT
HETATM    1  O   UNL     1      -6.488   5.149  68.109  1.00  0.00    -0.044 OA 
HETATM    2  N   UNL     1      -7.410   4.501  68.620  1.00  0.00    -0.060 N  
HETATM    3  O   UNL     1      -7.442   3.266  68.706  1.00  0.00    -0.049 OA 
HETATM    4  C   UNL     1      -8.556   5.250  69.151  1.00  0.00    -0.101 A  
HETATM    5  C   UNL     1      -8.549   6.649  69.109  1.00  0.00    -0.130 A  
HETATM    6  C   UNL     1      -9.674   7.371  69.551  1.00  0.00    -0.159 A  
HETATM    7  C   UNL     1     -10.767   6.685  70.111  1.00  0.00    -0.239 A  
HETATM    8  N   UNL     1     -11.899   7.304  70.660  1.00  0.00    -0.462 N  
HETATM    9  C   UNL     1     -10.764   5.282  70.126  1.00  0.00    -0.217 A  
HETATM   10  C   UNL     1      -9.665   4.560  69.650  1.00  0.00    -0.288 A  
HETATM   11  H   UNL     1     -12.768   6.771  70.626  1.00  0.00     0.000 HD 
HETATM   12  C   UNL     1     -11.969   8.546  71.237  1.00  0.00    -0.294 C  
HETATM   13  C   UNL     1     -10.677   9.324  71.400  1.00  0.00    -0.362 C  
HETATM   14  O   UNL     1     -13.044   8.932  71.699  1.00  0.00    -0.329 OA 
HETATM   15  N   UNL     1     -10.162   9.731  70.099  1.00  0.00    -0.261 NA 
HETATM   16  C   UNL     1      -9.717   8.842  69.275  1.00  0.00    -0.165 C  
HETATM   17  H   UNL     1     -10.153  10.717  69.838  1.00  0.00     0.000 HD 
ENDROOT
BRANCH  16  18
HETATM   18  C   UNL     1      -9.237   9.343  67.941  1.00  0.00    -0.139 A  
HETATM   19  C   UNL     1      -9.685   8.709  66.775  1.00  0.00    -0.298 A  
HETATM   20  C   UNL     1      -9.249   9.147  65.524  1.00  0.00    -0.287 A  
HETATM   21  C   UNL     1      -8.362  10.218  65.430  1.00  0.00    -0.164 A  
HETATM   22  C   UNL     1      -7.899  10.844  66.586  1.00  0.00    -0.145 A  
HETATM   23  C   UNL     1      -8.325  10.402  67.840  1.00  0.00    -0.114 A  
ENDBRANCH  16  18
TORSDOF 1
ENDMDL
MODEL      115
REMARK 921   NORMALIZED FREE ENERGY PREDICTED BY IDOCK:   -3.97 KCAL/MOL
REMARK 922        TOTAL FREE ENERGY PREDICTED BY IDOCK:   -4.64 KCAL/MOL
REMARK 923 INTER-LIGAND FREE ENERGY PREDICTED BY IDOCK:   -4.82 KCAL/MOL
REMARK 924 INTRA-LIGAND FREE ENERGY PREDICTED BY IDOCK:    0.18 KCAL/MOL
REMARK 927      BINDING AFFINITY PREDICTED BY RF-SCORE:    0.00 PKD
ROOT
HETATM    1  O   UNL     1     -11.308   6.464  68.861  1.00  0.00    -0.341 OA 
HETATM    2  N   UNL     1     -10.164   6.052  68.629  1.00  0.00    -0.170 N  
HETATM    3  O   UNL     1      -9.638   5.077  69.185  1.00  0.00    -0.129 OA 
HETATM    4  C   UNL     1      -9.367   6.779  67.633  1.00  0.00    -0.120 A  
HETATM    5  C   UNL     1      -9.931   7.865  66.953  1.00  0.00    -0.332 A  
HETATM    6  C   UNL     1      -9.150   8.610  66.049  1.00  0.00    -0.255 A  
HETATM    7  C   UNL     1      -7.831   8.208  65.771  1.00  0.00    -0.096 A  
HETATM    8  N   UNL     1      -6.994   8.822  64.828  1.00  0.00    -0.073 N  
HETATM    9  C   UNL     1      -7.277   7.130  66.478  1.00  0.00    -0.079 A  
HETATM   10  C   UNL     1      -8.037   6.413  67.406  1.00  0.00    -0.116 A  
HETATM   11  H   UNL     1      -5.991   8.763  65.006  1.00  0.00     0.000 HD 
HETATM   12  C   UNL     1      -7.372   9.492  63.693  1.00  0.00    -0.109 C  
HETATM   13  C   UNL     1      -8.848   9.509  63.340  1.00  0.00    -0.214 C  
HETATM   14  O   UNL     1      -6.503   9.952  62.951  1.00  0.00    -0.110 OA 
HETATM   15  N   UNL     1      -9.592  10.306  64.307  1.00  0.00    -0.301 NA 
HETATM   16  C   UNL     1      -9.717   9.892  65.522  1.00  0.00    -0.302 C  
HETATM   17  H   UNL     1     -10.013  11.190  64.023  1.00  0.00     0.000 HD 
ENDROOT
BRANCH  16  18
HETATM   18  C   UNL     1     -10.470  10.792  66.464  1.00  0.00    -0.299 A  
HETATM   19  C   UNL     1     -11.068  11.954  65.961  1.00  0.00    -0.369 A  
HETATM   20  C   UNL     1     -11.765  12.812  66.814  1.00  0.00    -0.459 A  
HETATM   21  C   UNL     1     -11.865  12.515  68.172  1.00  0.00    -0.371 A  
HETATM   22  C   UNL     1     -11.259  11.369  68.683  1.00  0.00    -0.303 A  
HETATM   23  C   UNL     1     -10.552  10.514  67.835  1.00  0.00    -0.271 A  
ENDBRANCH  16  18
TORSDOF 1
ENDMDL
MODEL      116
REMARK 921   NORMALIZED FREE ENERGY PREDICTED BY IDOCK:   -3.85 KCAL/MOL
REMARK 922        TOTAL FREE ENERGY PREDICTED BY IDOCK:   -4.50 KCAL/MOL
REMARK 923 INTER-LIGAND FREE ENERGY PREDICTED BY IDOCK:   -4.11 KCAL/MOL
REMARK 924 INTRA-LIGAND FREE ENERGY PREDICTED BY IDOCK:   -0.39 KCAL/MOL
REMARK 927      BINDING AFFINITY PREDICTED BY RF-SCORE:    0.00 PKD
ROOT
HETATM    1  O   UNL     1      -7.805  14.165  68.392  1.00  0.00    -0.128 OA 
HETATM    2  N   UNL     1      -7.054  13.355  68.951  1.00  0.00    -0.101 N  
HETATM    3  O   UNL     1      -6.041  13.659  69.596  1.00  0.00    -0.107 OA 
HETATM    4  C   UNL     1      -7.380  11.928  68.829  1.00  0.00    -0.105 A  
HETATM    5  C   UNL     1      -8.534  11.538  68.140  1.00  0.00    -0.154 A  
HETATM    6  C   UNL     1      -8.816  10.170  67.958  1.00  0.00    -0.125 A  
HETATM    7  C   UNL     1      -7.978   9.203  68.543  1.00  0.00    -0.102 A  
HETATM    8  N   UNL     1      -8.208   7.820  68.500  1.00  0.00    -0.127 N  
HETATM    9  C   UNL     1      -6.815   9.613  69.212  1.00  0.00    -0.050 A  
HETATM   10  C   UNL     1      -6.512  10.970  69.359  1.00  0.00    -0.095 A  
HETATM   11  H   UNL     1      -7.384   7.222  68.547  1.00  0.00     0.000 HD 
HETATM   12  C   UNL     1      -9.419   7.182  68.402  1.00  0.00    -0.138 C  
HETATM   13  C   UNL     1     -10.673   8.036  68.438  1.00  0.00    -0.016 C  
HETATM   14  O   UNL     1      -9.449   5.951  68.406  1.00  0.00    -0.118 OA 
HETATM   15  N   UNL     1     -10.770   8.845  67.230  1.00  0.00    -0.401 NA 
HETATM   16  C   UNL     1      -9.926   9.800  67.025  1.00  0.00    -0.203 C  
HETATM   17  H   UNL     1     -11.503   8.657  66.547  1.00  0.00     0.000 HD 
ENDROOT
BRANCH  16  18
HETATM   18  C   UNL     1     -10.075  10.563  65.738  1.00  0.00    -0.329 A  
HETATM   19  C   UNL     1      -9.340  10.156  64.617  1.00  0.00    -0.334 A  
HETATM   20  C   UNL     1      -9.452  10.851  63.412  1.00  0.00    -0.339 A  
HETATM   21  C   UNL     1     -10.296  11.957  63.321  1.00  0.00    -0.432 A  
HETATM   22  C   UNL     1     -11.019  12.378  64.436  1.00  0.00    -0.377 A  
HETATM   23  C   UNL     1     -10.901  11.692  65.645  1.00  0.00    -0.330 A  
ENDBRANCH  16  18
TORSDOF 1
ENDMDL
MODEL      117
REMARK 921   NORMALIZED FREE ENERGY PREDICTED BY IDOCK:   -3.83 KCAL/MOL
REMARK 922        TOTAL FREE ENERGY PREDICTED BY IDOCK:   -4.49 KCAL/MOL
REMARK 923 INTER-LIGAND FREE ENERGY PREDICTED BY IDOCK:   -4.00 KCAL/MOL
REMARK 924 INTRA-LIGAND FREE ENERGY PREDICTED BY IDOCK:   -0.49 KCAL/MOL
REMARK 927      BINDING AFFINITY PREDICTED BY RF-SCORE:    0.00 PKD
ROOT
HETATM    1  O   UNL     1      -9.948   8.294  72.963  1.00  0.00    -0.269 OA 
HETATM    2  N   UNL     1      -9.181   7.354  72.718  1.00  0.00    -0.141 N  
HETATM    3  O   UNL     1      -8.513   6.748  73.567  1.00  0.00    -0.119 OA 
HETATM    4  C   UNL     1      -9.044   6.934  71.318  1.00  0.00    -0.149 A  
HETATM    5  C   UNL     1      -9.806   7.565  70.327  1.00  0.00    -0.183 A  
HETATM    6  C   UNL     1      -9.629   7.217  68.975  1.00  0.00    -0.146 A  
HETATM    7  C   UNL     1      -8.745   6.177  68.634  1.00  0.00    -0.112 A  
HETATM    8  N   UNL     1      -8.554   5.689  67.333  1.00  0.00    -0.110 N  
HETATM    9  C   UNL     1      -7.975   5.570  69.638  1.00  0.00    -0.093 A  
HETATM   10  C   UNL     1      -8.120   5.942  70.977  1.00  0.00    -0.121 A  
HETATM   11  H   UNL     1      -7.640   5.286  67.130  1.00  0.00     0.000 HD 
HETATM   12  C   UNL     1      -9.460   5.695  66.302  1.00  0.00    -0.155 C  
HETATM   13  C   UNL     1     -10.864   6.190  66.597  1.00  0.00    -0.207 C  
HETATM   14  O   UNL     1      -9.140   5.198  65.221  1.00  0.00    -0.160 OA 
HETATM   15  N   UNL     1     -10.851   7.621  66.866  1.00  0.00    -0.518 NA 
HETATM   16  C   UNL     1     -10.289   8.070  67.938  1.00  0.00    -0.222 C  
HETATM   17  H   UNL     1     -11.285   8.269  66.208  1.00  0.00     0.000 HD 
ENDROOT
BRANCH  16  18
HETATM   18  C   UNL     1     -10.289   9.563  68.121  1.00  0.00    -0.251 A  
HETATM   19  C   UNL     1      -9.094  10.271  67.941  1.00  0.00    -0.133 A  
HETATM   20  C   UNL     1      -9.063  11.656  68.113  1.00  0.00    -0.183 A  
HETATM   21  C   UNL     1     -10.224  12.340  68.469  1.00  0.00    -0.213 A  
HETATM   22  C   UNL     1     -11.414  11.641  68.665  1.00  0.00    -0.349 A  
HETATM   23  C   UNL     1     -11.446  10.255  68.504  1.00  0.00    -0.169 A  
ENDBRANCH  16  18
TORSDOF 1
ENDMDL
MODEL      118
REMARK 921   NORMALIZED FREE ENERGY PREDICTED BY IDOCK:   -3.81 KCAL/MOL
REMARK 922        TOTAL FREE ENERGY PREDICTED BY IDOCK:   -4.46 KCAL/MOL
REMARK 923 INTER-LIGAND FREE ENERGY PREDICTED BY IDOCK:   -3.97 KCAL/MOL
REMARK 924 INTRA-LIGAND FREE ENERGY PREDICTED BY IDOCK:   -0.49 KCAL/MOL
REMARK 927      BINDING AFFINITY PREDICTED BY RF-SCORE:    0.00 PKD
ROOT
HETATM    1  O   UNL     1      -5.983   8.003  69.102  1.00  0.00    -0.036 OA 
HETATM    2  N   UNL     1      -6.039   8.205  67.882  1.00  0.00    -0.046 N  
HETATM    3  O   UNL     1      -5.420   9.097  67.284  1.00  0.00    -0.040 OA 
HETATM    4  C   UNL     1      -6.914   7.334  67.087  1.00  0.00    -0.078 A  
HETATM    5  C   UNL     1      -7.606   6.290  67.713  1.00  0.00    -0.101 A  
HETATM    6  C   UNL     1      -8.501   5.496  66.970  1.00  0.00    -0.110 A  
HETATM    7  C   UNL     1      -8.632   5.702  65.586  1.00  0.00    -0.150 A  
HETATM    8  N   UNL     1      -9.425   4.918  64.735  1.00  0.00    -0.350 N  
HETATM    9  C   UNL     1      -7.946   6.766  64.980  1.00  0.00    -0.125 A  
HETATM   10  C   UNL     1      -7.088   7.582  65.722  1.00  0.00    -0.065 A  
HETATM   11  H   UNL     1      -9.790   5.380  63.902  1.00  0.00     0.000 HD 
HETATM   12  C   UNL     1      -9.764   3.599  64.898  1.00  0.00    -0.172 C  
HETATM   13  C   UNL     1      -9.153   2.851  66.068  1.00  0.00    -0.130 C  
HETATM   14  O   UNL     1     -10.451   3.046  64.037  1.00  0.00    -0.174 OA 
HETATM   15  N   UNL     1      -9.685   3.356  67.327  1.00  0.00    -0.335 NA 
HETATM   16  C   UNL     1      -9.386   4.549  67.719  1.00  0.00    -0.147 C  
HETATM   17  H   UNL     1     -10.292   2.769  67.898  1.00  0.00     0.000 HD 
ENDROOT
BRANCH  16  18
HETATM   18  C   UNL     1     -10.005   5.005  69.012  1.00  0.00    -0.251 A  
HETATM   19  C   UNL     1     -10.976   6.014  68.982  1.00  0.00    -0.409 A  
HETATM   20  C   UNL     1     -11.561   6.463  70.168  1.00  0.00    -0.449 A  
HETATM   21  C   UNL     1     -11.177   5.909  71.388  1.00  0.00    -0.285 A  
HETATM   22  C   UNL     1     -10.200   4.916  71.427  1.00  0.00    -0.257 A  
HETATM   23  C   UNL     1      -9.606   4.471  70.245  1.00  0.00    -0.263 A  
ENDBRANCH  16  18
TORSDOF 1
ENDMDL
MODEL      119
REMARK 921   NORMALIZED FREE ENERGY PREDICTED BY IDOCK:   -3.78 KCAL/MOL
REMARK 922        TOTAL FREE ENERGY PREDICTED BY IDOCK:   -4.44 KCAL/MOL
REMARK 923 INTER-LIGAND FREE ENERGY PREDICTED BY IDOCK:   -3.95 KCAL/MOL
REMARK 924 INTRA-LIGAND FREE ENERGY PREDICTED BY IDOCK:   -0.49 KCAL/MOL
REMARK 927      BINDING AFFINITY PREDICTED BY RF-SCORE:    0.00 PKD
ROOT
HETATM    1  O   UNL     1      -6.500   5.865  71.847  1.00  0.00    -0.050 OA 
HETATM    2  N   UNL     1      -7.511   5.213  72.139  1.00  0.00    -0.091 N  
HETATM    3  O   UNL     1      -7.502   4.057  72.584  1.00  0.00    -0.068 OA 
HETATM    4  C   UNL     1      -8.817   5.852  71.930  1.00  0.00    -0.138 A  
HETATM    5  C   UNL     1      -8.876   7.170  71.463  1.00  0.00    -0.127 A  
HETATM    6  C   UNL     1     -10.123   7.765  71.193  1.00  0.00    -0.206 A  
HETATM    7  C   UNL     1     -11.307   7.059  71.473  1.00  0.00    -0.258 A  
HETATM    8  N   UNL     1     -12.600   7.581  71.326  1.00  0.00    -0.433 N  
HETATM    9  C   UNL     1     -11.227   5.731  71.922  1.00  0.00    -0.289 A  
HETATM   10  C   UNL     1      -9.990   5.124  72.152  1.00  0.00    -0.238 A  
HETATM   11  H   UNL     1     -13.341   6.909  71.128  1.00  0.00     0.000 HD 
HETATM   12  C   UNL     1     -12.980   8.897  71.416  1.00  0.00    -0.278 C  
HETATM   13  C   UNL     1     -11.924   9.912  71.813  1.00  0.00    -0.250 C  
HETATM   14  O   UNL     1     -14.170   9.187  71.288  1.00  0.00    -0.230 OA 
HETATM   15  N   UNL     1     -10.936  10.057  70.752  1.00  0.00    -0.324 NA 
HETATM   16  C   UNL     1     -10.134   9.082  70.482  1.00  0.00    -0.215 C  
HETATM   17  H   UNL     1     -10.877  10.927  70.224  1.00  0.00     0.000 HD 
ENDROOT
BRANCH  16  18
HETATM   18  C   UNL     1      -9.169   9.302  69.349  1.00  0.00    -0.159 A  
HETATM   19  C   UNL     1      -9.385   8.641  68.133  1.00  0.00    -0.145 A  
HETATM   20  C   UNL     1      -8.500   8.819  67.068  1.00  0.00    -0.109 A  
HETATM   21  C   UNL     1      -7.394   9.655  67.214  1.00  0.00    -0.087 A  
HETATM   22  C   UNL     1      -7.163  10.304  68.425  1.00  0.00    -0.080 A  
HETATM   23  C   UNL     1      -8.040  10.120  69.496  1.00  0.00    -0.176 A  
ENDBRANCH  16  18
TORSDOF 1
ENDMDL
MODEL      120
REMARK 921   NORMALIZED FREE ENERGY PREDICTED BY IDOCK:   -3.77 KCAL/MOL
REMARK 922        TOTAL FREE ENERGY PREDICTED BY IDOCK:   -4.42 KCAL/MOL
REMARK 923 INTER-LIGAND FREE ENERGY PREDICTED BY IDOCK:   -4.00 KCAL/MOL
REMARK 924 INTRA-LIGAND FREE ENERGY PREDICTED BY IDOCK:   -0.43 KCAL/MOL
REMARK 927      BINDING AFFINITY PREDICTED BY RF-SCORE:    0.00 PKD
ROOT
HETATM    1  O   UNL     1      -9.366   6.824  65.933  1.00  0.00    -0.056 OA 
HETATM    2  N   UNL     1     -10.065   6.122  66.675  1.00  0.00    -0.173 N  
HETATM    3  O   UNL     1     -10.782   5.187  66.294  1.00  0.00    -0.310 OA 
HETATM    4  C   UNL     1     -10.054   6.429  68.111  1.00  0.00    -0.149 A  
HETATM    5  C   UNL     1      -9.231   7.454  68.594  1.00  0.00    -0.143 A  
HETATM    6  C   UNL     1      -9.268   7.801  69.958  1.00  0.00    -0.153 A  
HETATM    7  C   UNL     1     -10.070   7.059  70.844  1.00  0.00    -0.193 A  
HETATM    8  N   UNL     1     -10.119   7.259  72.231  1.00  0.00    -0.186 N  
HETATM    9  C   UNL     1     -10.903   6.049  70.338  1.00  0.00    -0.386 A  
HETATM   10  C   UNL     1     -10.899   5.729  68.978  1.00  0.00    -0.330 A  
HETATM   11  H   UNL     1     -10.992   7.009  72.695  1.00  0.00     0.000 HD 
HETATM   12  C   UNL     1      -9.123   7.754  73.035  1.00  0.00    -0.211 C  
HETATM   13  C   UNL     1      -7.776   8.037  72.398  1.00  0.00    -0.114 C  
HETATM   14  O   UNL     1      -9.320   7.841  74.248  1.00  0.00    -0.082 OA 
HETATM   15  N   UNL     1      -7.875   9.162  71.478  1.00  0.00    -0.339 NA 
HETATM   16  C   UNL     1      -8.552   9.044  70.386  1.00  0.00    -0.193 C  
HETATM   17  H   UNL     1      -7.411  10.043  71.697  1.00  0.00     0.000 HD 
ENDROOT
BRANCH  16  18
HETATM   18  C   UNL     1      -8.634  10.264  69.511  1.00  0.00    -0.153 A  
HETATM   19  C   UNL     1      -9.893  10.776  69.173  1.00  0.00    -0.194 A  
HETATM   20  C   UNL     1      -9.999  11.902  68.355  1.00  0.00    -0.203 A  
HETATM   21  C   UNL     1      -8.848  12.521  67.868  1.00  0.00    -0.185 A  
HETATM   22  C   UNL     1      -7.592  12.008  68.186  1.00  0.00    -0.120 A  
HETATM   23  C   UNL     1      -7.483  10.876  68.995  1.00  0.00    -0.124 A  
ENDBRANCH  16  18
TORSDOF 1
ENDMDL
MODEL      121
REMARK 921   NORMALIZED FREE ENERGY PREDICTED BY IDOCK:   -3.75 KCAL/MOL
REMARK 922        TOTAL FREE ENERGY PREDICTED BY IDOCK:   -4.40 KCAL/MOL
REMARK 923 INTER-LIGAND FREE ENERGY PREDICTED BY IDOCK:   -3.91 KCAL/MOL
REMARK 924 INTRA-LIGAND FREE ENERGY PREDICTED BY IDOCK:   -0.49 KCAL/MOL
REMARK 927      BINDING AFFINITY PREDICTED BY RF-SCORE:    0.00 PKD
ROOT
HETATM    1  O   UNL     1     -11.134   7.894  73.247  1.00  0.00    -0.328 OA 
HETATM    2  N   UNL     1     -11.791   8.577  72.451  1.00  0.00    -0.384 N  
HETATM    3  O   UNL     1     -13.018   8.741  72.506  1.00  0.00    -0.397 OA 
HETATM    4  C   UNL     1     -11.066   9.232  71.355  1.00  0.00    -0.367 A  
HETATM    5  C   UNL     1      -9.675   9.106  71.272  1.00  0.00    -0.351 A  
HETATM    6  C   UNL     1      -8.981   9.670  70.184  1.00  0.00    -0.273 A  
HETATM    7  C   UNL     1      -9.681  10.430  69.230  1.00  0.00    -0.214 A  
HETATM    8  N   UNL     1      -9.084  11.108  68.157  1.00  0.00    -0.153 N  
HETATM    9  C   UNL     1     -11.079  10.528  69.319  1.00  0.00    -0.298 A  
HETATM   10  C   UNL     1     -11.775   9.934  70.375  1.00  0.00    -0.333 A  
HETATM   11  H   UNL     1      -9.661  11.239  67.327  1.00  0.00     0.000 HD 
HETATM   12  C   UNL     1      -7.810  11.614  68.101  1.00  0.00    -0.133 C  
HETATM   13  C   UNL     1      -6.960  11.531  69.355  1.00  0.00    -0.071 C  
HETATM   14  O   UNL     1      -7.447  12.211  67.086  1.00  0.00    -0.149 OA 
HETATM   15  N   UNL     1      -6.617  10.145  69.645  1.00  0.00    -0.058 NA 
HETATM   16  C   UNL     1      -7.536   9.318  70.014  1.00  0.00    -0.099 C  
HETATM   17  H   UNL     1      -5.652   9.828  69.556  1.00  0.00     0.000 HD 
ENDROOT
BRANCH  16  18
HETATM   18  C   UNL     1      -7.103   7.898  70.259  1.00  0.00    -0.049 A  
HETATM   19  C   UNL     1      -6.292   7.616  71.366  1.00  0.00    -0.035 A  
HETATM   20  C   UNL     1      -5.868   6.309  71.612  1.00  0.00    -0.032 A  
HETATM   21  C   UNL     1      -6.249   5.279  70.753  1.00  0.00    -0.023 A  
HETATM   22  C   UNL     1      -7.043   5.554  69.641  1.00  0.00    -0.064 A  
HETATM   23  C   UNL     1      -7.460   6.861  69.386  1.00  0.00    -0.094 A  
ENDBRANCH  16  18
TORSDOF 1
ENDMDL
MODEL      122
REMARK 921   NORMALIZED FREE ENERGY PREDICTED BY IDOCK:   -3.75 KCAL/MOL
REMARK 922        TOTAL FREE ENERGY PREDICTED BY IDOCK:   -4.40 KCAL/MOL
REMARK 923 INTER-LIGAND FREE ENERGY PREDICTED BY IDOCK:   -3.90 KCAL/MOL
REMARK 924 INTRA-LIGAND FREE ENERGY PREDICTED BY IDOCK:   -0.49 KCAL/MOL
REMARK 927      BINDING AFFINITY PREDICTED BY RF-SCORE:    0.00 PKD
ROOT
HETATM    1  O   UNL     1      -7.795   7.684  70.175  1.00  0.00    -0.093 OA 
HETATM    2  N   UNL     1      -8.838   8.056  69.622  1.00  0.00    -0.140 N  
HETATM    3  O   UNL     1      -9.457   9.091  69.905  1.00  0.00    -0.162 OA 
HETATM    4  C   UNL     1      -9.389   7.201  68.563  1.00  0.00    -0.136 A  
HETATM    5  C   UNL     1      -8.706   6.040  68.184  1.00  0.00    -0.113 A  
HETATM    6  C   UNL     1      -9.264   5.179  67.220  1.00  0.00    -0.119 A  
HETATM    7  C   UNL     1     -10.466   5.534  66.581  1.00  0.00    -0.294 A  
HETATM    8  N   UNL     1     -11.066   4.799  65.549  1.00  0.00    -0.943 N  
HETATM    9  C   UNL     1     -11.146   6.691  66.989  1.00  0.00    -0.395 A  
HETATM   10  C   UNL     1     -10.615   7.527  67.975  1.00  0.00    -0.217 A  
HETATM   11  H   UNL     1     -12.080   4.874  65.469  1.00  0.00     0.000 HD 
HETATM   12  C   UNL     1     -10.442   3.988  64.634  1.00  0.00    -0.190 C  
HETATM   13  C   UNL     1      -8.925   3.935  64.656  1.00  0.00    -0.131 C  
HETATM   14  O   UNL     1     -11.117   3.432  63.767  1.00  0.00    -0.300 OA 
HETATM   15  N   UNL     1      -8.459   3.274  65.867  1.00  0.00    -0.107 NA 
HETATM   16  C   UNL     1      -8.620   3.843  67.014  1.00  0.00    -0.106 C  
HETATM   17  H   UNL     1      -8.004   2.363  65.810  1.00  0.00     0.000 HD 
ENDROOT
BRANCH  16  18
HETATM   18  C   UNL     1      -8.141   3.077  68.217  1.00  0.00    -0.074 A  
HETATM   19  C   UNL     1      -6.764   2.932  68.427  1.00  0.00    -0.040 A  
HETATM   20  C   UNL     1      -6.291   2.219  69.530  1.00  0.00    -0.029 A  
HETATM   21  C   UNL     1      -7.192   1.644  70.426  1.00  0.00    -0.033 A  
HETATM   22  C   UNL     1      -8.564   1.771  70.216  1.00  0.00    -0.092 A  
HETATM   23  C   UNL     1      -9.040   2.475  69.108  1.00  0.00    -0.188 A  
ENDBRANCH  16  18
TORSDOF 1
ENDMDL
MODEL      123
REMARK 921   NORMALIZED FREE ENERGY PREDICTED BY IDOCK:   -3.71 KCAL/MOL
REMARK 922        TOTAL FREE ENERGY PREDICTED BY IDOCK:   -4.36 KCAL/MOL
REMARK 923 INTER-LIGAND FREE ENERGY PREDICTED BY IDOCK:   -3.86 KCAL/MOL
REMARK 924 INTRA-LIGAND FREE ENERGY PREDICTED BY IDOCK:   -0.49 KCAL/MOL
REMARK 927      BINDING AFFINITY PREDICTED BY RF-SCORE:    0.00 PKD
ROOT
HETATM    1  O   UNL     1     -10.360   7.566  71.706  1.00  0.00    -0.191 OA 
HETATM    2  N   UNL     1     -10.819   6.912  70.761  1.00  0.00    -0.236 N  
HETATM    3  O   UNL     1     -11.463   5.860  70.877  1.00  0.00    -0.234 OA 
HETATM    4  C   UNL     1     -10.570   7.412  69.403  1.00  0.00    -0.226 A  
HETATM    5  C   UNL     1      -9.878   8.616  69.223  1.00  0.00    -0.188 A  
HETATM    6  C   UNL     1      -9.574   9.065  67.924  1.00  0.00    -0.170 A  
HETATM    7  C   UNL     1     -10.041   8.344  66.811  1.00  0.00    -0.303 A  
HETATM    8  N   UNL     1      -9.873   8.742  65.476  1.00  0.00    -0.375 N  
HETATM    9  C   UNL     1     -10.716   7.129  67.010  1.00  0.00    -0.420 A  
HETATM   10  C   UNL     1     -10.984   6.660  68.299  1.00  0.00    -0.321 A  
HETATM   11  H   UNL     1      -9.841   7.996  64.782  1.00  0.00     0.000 HD 
HETATM   12  C   UNL     1      -9.747  10.023  65.001  1.00  0.00    -0.317 C  
HETATM   13  C   UNL     1      -9.897  11.162  65.992  1.00  0.00    -0.228 C  
HETATM   14  O   UNL     1      -9.634  10.203  63.788  1.00  0.00    -0.293 OA 
HETATM   15  N   UNL     1      -8.775  11.177  66.922  1.00  0.00    -0.148 NA 
HETATM   16  C   UNL     1      -8.640  10.226  67.783  1.00  0.00    -0.118 C  
HETATM   17  H   UNL     1      -8.096  11.938  66.892  1.00  0.00     0.000 HD 
ENDROOT
BRANCH  16  18
HETATM   18  C   UNL     1      -7.435  10.299  68.681  1.00  0.00    -0.086 A  
HETATM   19  C   UNL     1      -7.365  11.315  69.643  1.00  0.00     0.096 A  
HETATM   20  C   UNL     1      -6.254  11.413  70.483  1.00  0.00     0.042 A  
HETATM   21  C   UNL     1      -5.209  10.498  70.366  1.00  0.00    -0.057 A  
HETATM   22  C   UNL     1      -5.264   9.494  69.401  1.00  0.00    -0.035 A  
HETATM   23  C   UNL     1      -6.368   9.400  68.552  1.00  0.00    -0.052 A  
ENDBRANCH  16  18
TORSDOF 1
ENDMDL
MODEL      124
REMARK 921   NORMALIZED FREE ENERGY PREDICTED BY IDOCK:   -3.66 KCAL/MOL
REMARK 922        TOTAL FREE ENERGY PREDICTED BY IDOCK:   -4.30 KCAL/MOL
REMARK 923 INTER-LIGAND FREE ENERGY PREDICTED BY IDOCK:   -4.44 KCAL/MOL
REMARK 924 INTRA-LIGAND FREE ENERGY PREDICTED BY IDOCK:    0.13 KCAL/MOL
REMARK 927      BINDING AFFINITY PREDICTED BY RF-SCORE:    0.00 PKD
ROOT
HETATM    1  O   UNL     1      -5.761  19.227  66.185  1.00  0.00    -0.156 OA 
HETATM    2  N   UNL     1      -6.908  19.682  66.089  1.00  0.00    -0.225 N  
HETATM    3  O   UNL     1      -7.183  20.882  65.952  1.00  0.00     0.000 OA 
HETATM    4  C   UNL     1      -8.025  18.731  66.156  1.00  0.00    -0.217 A  
HETATM    5  C   UNL     1      -7.763  17.361  66.274  1.00  0.00    -0.340 A  
HETATM    6  C   UNL     1      -8.828  16.451  66.410  1.00  0.00    -0.346 A  
HETATM    7  C   UNL     1     -10.154  16.915  66.343  1.00  0.00    -0.322 A  
HETATM    8  N   UNL     1     -11.289  16.091  66.380  1.00  0.00     0.171 N  
HETATM    9  C   UNL     1     -10.397  18.293  66.245  1.00  0.00    -0.422 A  
HETATM   10  C   UNL     1      -9.341  19.204  66.150  1.00  0.00    -0.266 A  
HETATM   11  H   UNL     1     -12.140  16.508  66.757  1.00  0.00     0.000 HD 
HETATM   12  C   UNL     1     -11.382  14.787  65.966  1.00  0.00    -0.332 C  
HETATM   13  C   UNL     1     -10.167  14.167  65.303  1.00  0.00    -0.375 C  
HETATM   14  O   UNL     1     -12.469  14.210  66.041  1.00  0.00    -0.467 OA 
HETATM   15  N   UNL     1      -9.091  13.998  66.271  1.00  0.00    -0.490 NA 
HETATM   16  C   UNL     1      -8.500  15.033  66.764  1.00  0.00    -0.204 C  
HETATM   17  H   UNL     1      -8.806  13.062  66.560  1.00  0.00     0.000 HD 
ENDROOT
BRANCH  16  18
HETATM   18  C   UNL     1      -7.425  14.771  67.783  1.00  0.00    -0.178 A  
HETATM   19  C   UNL     1      -7.720  13.967  68.891  1.00  0.00    -0.041 A  
HETATM   20  C   UNL     1      -6.745  13.714  69.857  1.00  0.00     0.113 A  
HETATM   21  C   UNL     1      -5.472  14.267  69.723  1.00  0.00    -0.096 A  
HETATM   22  C   UNL     1      -5.175  15.081  68.632  1.00  0.00    -0.094 A  
HETATM   23  C   UNL     1      -6.151  15.344  67.670  1.00  0.00    -0.151 A  
ENDBRANCH  16  18
TORSDOF 1
ENDMDL
MODEL      125
REMARK 921   NORMALIZED FREE ENERGY PREDICTED BY IDOCK:   -3.60 KCAL/MOL
REMARK 922        TOTAL FREE ENERGY PREDICTED BY IDOCK:   -4.24 KCAL/MOL
REMARK 923 INTER-LIGAND FREE ENERGY PREDICTED BY IDOCK:   -3.75 KCAL/MOL
REMARK 924 INTRA-LIGAND FREE ENERGY PREDICTED BY IDOCK:   -0.49 KCAL/MOL
REMARK 927      BINDING AFFINITY PREDICTED BY RF-SCORE:    0.00 PKD
ROOT
HETATM    1  O   UNL     1      -8.272   8.327  64.388  1.00  0.00    -0.165 OA 
HETATM    2  N   UNL     1      -8.306   7.307  65.089  1.00  0.00    -0.113 N  
HETATM    3  O   UNL     1      -8.353   6.150  64.649  1.00  0.00    -0.123 OA 
HETATM    4  C   UNL     1      -8.303   7.482  66.547  1.00  0.00    -0.126 A  
HETATM    5  C   UNL     1      -8.215   8.769  67.090  1.00  0.00    -0.104 A  
HETATM    6  C   UNL     1      -8.284   8.949  68.485  1.00  0.00    -0.116 A  
HETATM    7  C   UNL     1      -8.356   7.827  69.330  1.00  0.00    -0.136 A  
HETATM    8  N   UNL     1      -8.343   7.882  70.731  1.00  0.00    -0.113 N  
HETATM    9  C   UNL     1      -8.465   6.546  68.766  1.00  0.00    -0.122 A  
HETATM   10  C   UNL     1      -8.438   6.367  67.380  1.00  0.00    -0.108 A  
HETATM   11  H   UNL     1      -8.822   7.126  71.219  1.00  0.00     0.000 HD 
HETATM   12  C   UNL     1      -7.758   8.842  71.518  1.00  0.00    -0.101 C  
HETATM   13  C   UNL     1      -6.947   9.924  70.830  1.00  0.00     0.004 C  
HETATM   14  O   UNL     1      -7.814   8.727  72.744  1.00  0.00    -0.377 OA 
HETATM   15  N   UNL     1      -7.820  10.798  70.057  1.00  0.00    -0.359 NA 
HETATM   16  C   UNL     1      -8.418  10.346  69.007  1.00  0.00    -0.155 C  
HETATM   17  H   UNL     1      -7.959  11.766  70.346  1.00  0.00     0.000 HD 
ENDROOT
BRANCH  16  18
HETATM   18  C   UNL     1      -9.328  11.303  68.288  1.00  0.00    -0.180 A  
HETATM   19  C   UNL     1      -8.777  12.434  67.672  1.00  0.00    -0.178 A  
HETATM   20  C   UNL     1      -9.599  13.344  67.006  1.00  0.00    -0.244 A  
HETATM   21  C   UNL     1     -10.976  13.131  66.954  1.00  0.00    -0.295 A  
HETATM   22  C   UNL     1     -11.534  12.017  67.578  1.00  0.00    -0.403 A  
HETATM   23  C   UNL     1     -10.716  11.110  68.254  1.00  0.00    -0.234 A  
ENDBRANCH  16  18
TORSDOF 1
ENDMDL
MODEL      126
REMARK 921   NORMALIZED FREE ENERGY PREDICTED BY IDOCK:   -3.59 KCAL/MOL
REMARK 922        TOTAL FREE ENERGY PREDICTED BY IDOCK:   -4.23 KCAL/MOL
REMARK 923 INTER-LIGAND FREE ENERGY PREDICTED BY IDOCK:   -4.57 KCAL/MOL
REMARK 924 INTRA-LIGAND FREE ENERGY PREDICTED BY IDOCK:    0.34 KCAL/MOL
REMARK 927      BINDING AFFINITY PREDICTED BY RF-SCORE:    0.00 PKD
ROOT
HETATM    1  O   UNL     1      -8.859  18.533  65.765  1.00  0.00    -0.419 OA 
HETATM    2  N   UNL     1      -9.823  17.764  65.670  1.00  0.00     0.114 N  
HETATM    3  O   UNL     1     -10.925  18.068  65.190  1.00  0.00    -0.645 OA 
HETATM    4  C   UNL     1      -9.655  16.395  66.173  1.00  0.00    -0.325 A  
HETATM    5  C   UNL     1      -8.418  15.994  66.691  1.00  0.00    -0.323 A  
HETATM    6  C   UNL     1      -8.270  14.706  67.240  1.00  0.00    -0.235 A  
HETATM    7  C   UNL     1      -9.343  13.799  67.190  1.00  0.00    -0.240 A  
HETATM    8  N   UNL     1      -9.283  12.468  67.627  1.00  0.00    -0.183 N  
HETATM    9  C   UNL     1     -10.582  14.226  66.686  1.00  0.00    -0.278 A  
HETATM   10  C   UNL     1     -10.744  15.517  66.177  1.00  0.00    -0.315 A  
HETATM   11  H   UNL     1     -10.158  12.057  67.951  1.00  0.00     0.000 HD 
HETATM   12  C   UNL     1      -8.177  11.656  67.667  1.00  0.00    -0.141 C  
HETATM   13  C   UNL     1      -6.881  12.199  67.095  1.00  0.00    -0.119 C  
HETATM   14  O   UNL     1      -8.301  10.494  68.055  1.00  0.00    -0.113 OA 
HETATM   15  N   UNL     1      -6.372  13.281  67.927  1.00  0.00    -0.128 NA 
HETATM   16  C   UNL     1      -7.008  14.402  67.986  1.00  0.00    -0.143 C  
HETATM   17  H   UNL     1      -5.513  13.152  68.463  1.00  0.00     0.000 HD 
ENDROOT
BRANCH  16  18
HETATM   18  C   UNL     1      -6.433  15.452  68.897  1.00  0.00    -0.108 A  
HETATM   19  C   UNL     1      -5.679  15.052  70.007  1.00  0.00    -0.128 A  
HETATM   20  C   UNL     1      -5.142  16.005  70.874  1.00  0.00    -0.178 A  
HETATM   21  C   UNL     1      -5.357  17.362  70.638  1.00  0.00    -0.243 A  
HETATM   22  C   UNL     1      -6.119  17.768  69.544  1.00  0.00    -0.248 A  
HETATM   23  C   UNL     1      -6.667  16.818  68.681  1.00  0.00    -0.174 A  
ENDBRANCH  16  18
TORSDOF 1
ENDMDL
MODEL      127
REMARK 921   NORMALIZED FREE ENERGY PREDICTED BY IDOCK:   -3.57 KCAL/MOL
REMARK 922        TOTAL FREE ENERGY PREDICTED BY IDOCK:   -4.21 KCAL/MOL
REMARK 923 INTER-LIGAND FREE ENERGY PREDICTED BY IDOCK:   -3.72 KCAL/MOL
REMARK 924 INTRA-LIGAND FREE ENERGY PREDICTED BY IDOCK:   -0.49 KCAL/MOL
REMARK 927      BINDING AFFINITY PREDICTED BY RF-SCORE:    0.00 PKD
ROOT
HETATM    1  O   UNL     1      -9.894   8.205  65.872  1.00  0.00    -0.015 OA 
HETATM    2  N   UNL     1      -9.981   9.148  66.668  1.00  0.00    -0.251 N  
HETATM    3  O   UNL     1     -10.039  10.343  66.344  1.00  0.00    -0.212 OA 
HETATM    4  C   UNL     1     -10.006   8.831  68.101  1.00  0.00    -0.173 A  
HETATM    5  C   UNL     1      -9.979   7.493  68.515  1.00  0.00    -0.177 A  
HETATM    6  C   UNL     1      -9.930   7.183  69.888  1.00  0.00    -0.184 A  
HETATM    7  C   UNL     1      -9.993   8.218  70.838  1.00  0.00    -0.190 A  
HETATM    8  N   UNL     1     -10.038   8.022  72.226  1.00  0.00    -0.223 N  
HETATM    9  C   UNL     1      -9.999   9.552  70.404  1.00  0.00    -0.325 A  
HETATM   10  C   UNL     1     -10.006   9.865  69.042  1.00  0.00    -0.193 A  
HETATM   11  H   UNL     1      -9.651   8.769  72.802  1.00  0.00     0.000 HD 
HETATM   12  C   UNL     1     -10.545   6.937  72.896  1.00  0.00    -0.261 C  
HETATM   13  C   UNL     1     -11.224   5.855  72.077  1.00  0.00    -0.273 C  
HETATM   14  O   UNL     1     -10.533   6.934  74.128  1.00  0.00    -0.357 OA 
HETATM   15  N   UNL     1     -10.247   5.151  71.257  1.00  0.00    -0.219 NA 
HETATM   16  C   UNL     1      -9.670   5.761  70.277  1.00  0.00    -0.175 C  
HETATM   17  H   UNL     1     -10.019   4.177  71.456  1.00  0.00     0.000 HD 
ENDROOT
BRANCH  16  18
HETATM   18  C   UNL     1      -8.649   4.973  69.503  1.00  0.00    -0.102 A  
HETATM   19  C   UNL     1      -7.293   5.295  69.642  1.00  0.00    -0.064 A  
HETATM   20  C   UNL     1      -6.325   4.587  68.929  1.00  0.00    -0.032 A  
HETATM   21  C   UNL     1      -6.706   3.555  68.072  1.00  0.00    -0.046 A  
HETATM   22  C   UNL     1      -8.054   3.239  67.916  1.00  0.00    -0.082 A  
HETATM   23  C   UNL     1      -9.026   3.952  68.619  1.00  0.00    -0.170 A  
ENDBRANCH  16  18
TORSDOF 1
ENDMDL
MODEL      128
REMARK 921   NORMALIZED FREE ENERGY PREDICTED BY IDOCK:   -3.54 KCAL/MOL
REMARK 922        TOTAL FREE ENERGY PREDICTED BY IDOCK:   -4.18 KCAL/MOL
REMARK 923 INTER-LIGAND FREE ENERGY PREDICTED BY IDOCK:   -4.06 KCAL/MOL
REMARK 924 INTRA-LIGAND FREE ENERGY PREDICTED BY IDOCK:   -0.12 KCAL/MOL
REMARK 927      BINDING AFFINITY PREDICTED BY RF-SCORE:    0.00 PKD
ROOT
HETATM    1  O   UNL     1     -11.068   5.484  66.985  1.00  0.00    -0.081 OA 
HETATM    2  N   UNL     1      -9.884   5.181  67.183  1.00  0.00    -0.156 N  
HETATM    3  O   UNL     1      -9.343   4.144  66.775  1.00  0.00    -0.149 OA 
HETATM    4  C   UNL     1      -9.064   6.113  67.967  1.00  0.00    -0.114 A  
HETATM    5  C   UNL     1      -9.621   7.315  68.419  1.00  0.00    -0.139 A  
HETATM    6  C   UNL     1      -8.864   8.180  69.231  1.00  0.00    -0.144 A  
HETATM    7  C   UNL     1      -7.522   7.871  69.516  1.00  0.00    -0.093 A  
HETATM    8  N   UNL     1      -6.650   8.697  70.240  1.00  0.00    -0.038 N  
HETATM    9  C   UNL     1      -6.987   6.651  69.072  1.00  0.00    -0.086 A  
HETATM   10  C   UNL     1      -7.750   5.771  68.300  1.00  0.00    -0.093 A  
HETATM   11  H   UNL     1      -5.900   8.230  70.749  1.00  0.00     0.000 HD 
HETATM   12  C   UNL     1      -6.694  10.065  70.340  1.00  0.00    -0.138 C  
HETATM   13  C   UNL     1      -7.730  10.802  69.512  1.00  0.00    -0.066 C  
HETATM   14  O   UNL     1      -5.830  10.645  70.999  1.00  0.00    -0.254 OA 
HETATM   15  N   UNL     1      -9.071  10.517  70.007  1.00  0.00    -0.269 NA 
HETATM   16  C   UNL     1      -9.567   9.333  69.877  1.00  0.00    -0.199 C  
HETATM   17  H   UNL     1      -9.617  11.252  70.456  1.00  0.00     0.000 HD 
ENDROOT
BRANCH  16  18
HETATM   18  C   UNL     1     -10.942   9.115  70.446  1.00  0.00    -0.290 A  
HETATM   19  C   UNL     1     -11.275   7.854  70.957  1.00  0.00    -0.288 A  
HETATM   20  C   UNL     1     -12.547   7.621  71.483  1.00  0.00    -0.369 A  
HETATM   21  C   UNL     1     -13.493   8.644  71.499  1.00  0.00    -0.344 A  
HETATM   22  C   UNL     1     -13.175   9.897  70.979  1.00  0.00    -0.375 A  
HETATM   23  C   UNL     1     -11.908  10.131  70.442  1.00  0.00    -0.373 A  
ENDBRANCH  16  18
TORSDOF 1
ENDMDL
MODEL      129
REMARK 921   NORMALIZED FREE ENERGY PREDICTED BY IDOCK:   -3.52 KCAL/MOL
REMARK 922        TOTAL FREE ENERGY PREDICTED BY IDOCK:   -4.16 KCAL/MOL
REMARK 923 INTER-LIGAND FREE ENERGY PREDICTED BY IDOCK:   -3.74 KCAL/MOL
REMARK 924 INTRA-LIGAND FREE ENERGY PREDICTED BY IDOCK:   -0.42 KCAL/MOL
REMARK 927      BINDING AFFINITY PREDICTED BY RF-SCORE:    0.00 PKD
ROOT
HETATM    1  O   UNL     1     -10.466  10.444  69.880  1.00  0.00    -0.255 OA 
HETATM    2  N   UNL     1     -10.769  11.061  68.852  1.00  0.00    -0.199 N  
HETATM    3  O   UNL     1     -11.485  12.072  68.819  1.00  0.00    -0.249 OA 
HETATM    4  C   UNL     1     -10.253  10.552  67.575  1.00  0.00    -0.206 A  
HETATM    5  C   UNL     1      -9.410   9.434  67.564  1.00  0.00    -0.147 A  
HETATM    6  C   UNL     1      -8.969   8.898  66.339  1.00  0.00    -0.193 A  
HETATM    7  C   UNL     1      -9.310   9.539  65.135  1.00  0.00    -0.252 A  
HETATM    8  N   UNL     1      -8.857   9.145  63.867  1.00  0.00    -0.412 N  
HETATM    9  C   UNL     1     -10.172  10.646  65.164  1.00  0.00    -0.368 A  
HETATM   10  C   UNL     1     -10.644  11.156  66.376  1.00  0.00    -0.315 A  
HETATM   11  H   UNL     1      -9.468   9.363  63.080  1.00  0.00     0.000 HD 
HETATM   12  C   UNL     1      -7.685   8.498  63.568  1.00  0.00    -0.142 C  
HETATM   13  C   UNL     1      -6.705   8.251  64.699  1.00  0.00    -0.068 C  
HETATM   14  O   UNL     1      -7.423   8.247  62.391  1.00  0.00    -0.095 OA 
HETATM   15  N   UNL     1      -7.245   7.274  65.635  1.00  0.00    -0.068 NA 
HETATM   16  C   UNL     1      -8.265   7.576  66.364  1.00  0.00    -0.122 C  
HETATM   17  H   UNL     1      -6.817   6.351  65.714  1.00  0.00     0.000 HD 
ENDROOT
BRANCH  16  18
HETATM   18  C   UNL     1      -8.781   6.498  67.277  1.00  0.00    -0.110 A  
HETATM   19  C   UNL     1      -7.892   5.870  68.159  1.00  0.00    -0.105 A  
HETATM   20  C   UNL     1      -8.341   4.861  69.012  1.00  0.00    -0.082 A  
HETATM   21  C   UNL     1      -9.680   4.471  68.985  1.00  0.00    -0.235 A  
HETATM   22  C   UNL     1     -10.567   5.079  68.100  1.00  0.00     0.089 A  
HETATM   23  C   UNL     1     -10.119   6.082  67.239  1.00  0.00    -0.205 A  
ENDBRANCH  16  18
TORSDOF 1
ENDMDL
MODEL      130
REMARK 921   NORMALIZED FREE ENERGY PREDICTED BY IDOCK:   -3.52 KCAL/MOL
REMARK 922        TOTAL FREE ENERGY PREDICTED BY IDOCK:   -4.16 KCAL/MOL
REMARK 923 INTER-LIGAND FREE ENERGY PREDICTED BY IDOCK:   -3.97 KCAL/MOL
REMARK 924 INTRA-LIGAND FREE ENERGY PREDICTED BY IDOCK:   -0.19 KCAL/MOL
REMARK 927      BINDING AFFINITY PREDICTED BY RF-SCORE:    0.00 PKD
ROOT
HETATM    1  O   UNL     1     -11.076   6.752  67.084  1.00  0.00    -0.384 OA 
HETATM    2  N   UNL     1     -10.558   7.853  67.310  1.00  0.00    -0.310 N  
HETATM    3  O   UNL     1     -10.518   8.793  66.504  1.00  0.00    -0.242 OA 
HETATM    4  C   UNL     1      -9.933   8.056  68.623  1.00  0.00    -0.189 A  
HETATM    5  C   UNL     1      -9.985   7.035  69.580  1.00  0.00    -0.177 A  
HETATM    6  C   UNL     1      -9.328   7.195  70.815  1.00  0.00    -0.160 A  
HETATM    7  C   UNL     1      -8.693   8.414  71.113  1.00  0.00    -0.159 A  
HETATM    8  N   UNL     1      -8.084   8.715  72.340  1.00  0.00    -0.060 N  
HETATM    9  C   UNL     1      -8.634   9.418  70.134  1.00  0.00    -0.233 A  
HETATM   10  C   UNL     1      -9.251   9.246  68.892  1.00  0.00    -0.143 A  
HETATM   11  H   UNL     1      -7.316   9.386  72.312  1.00  0.00     0.000 HD 
HETATM   12  C   UNL     1      -8.406   8.209  73.574  1.00  0.00    -0.236 C  
HETATM   13  C   UNL     1      -9.610   7.291  73.669  1.00  0.00    -0.269 C  
HETATM   14  O   UNL     1      -7.785   8.601  74.563  1.00  0.00    -0.368 OA 
HETATM   15  N   UNL     1      -9.341   6.029  72.993  1.00  0.00    -0.140 NA 
HETATM   16  C   UNL     1      -9.213   6.000  71.709  1.00  0.00    -0.145 C  
HETATM   17  H   UNL     1      -9.254   5.168  73.533  1.00  0.00     0.000 HD 
ENDROOT
BRANCH  16  18
HETATM   18  C   UNL     1      -8.901   4.663  71.095  1.00  0.00    -0.149 A  
HETATM   19  C   UNL     1      -8.040   4.606  69.991  1.00  0.00    -0.068 A  
HETATM   20  C   UNL     1      -7.741   3.380  69.395  1.00  0.00    -0.051 A  
HETATM   21  C   UNL     1      -8.301   2.206  69.897  1.00  0.00    -0.075 A  
HETATM   22  C   UNL     1      -9.171   2.256  70.985  1.00  0.00    -0.190 A  
HETATM   23  C   UNL     1      -9.481   3.481  71.576  1.00  0.00    -0.222 A  
ENDBRANCH  16  18
TORSDOF 1
ENDMDL
MODEL      131
REMARK 921   NORMALIZED FREE ENERGY PREDICTED BY IDOCK:   -3.48 KCAL/MOL
REMARK 922        TOTAL FREE ENERGY PREDICTED BY IDOCK:   -4.11 KCAL/MOL
REMARK 923 INTER-LIGAND FREE ENERGY PREDICTED BY IDOCK:   -3.62 KCAL/MOL
REMARK 924 INTRA-LIGAND FREE ENERGY PREDICTED BY IDOCK:   -0.49 KCAL/MOL
REMARK 927      BINDING AFFINITY PREDICTED BY RF-SCORE:    0.00 PKD
ROOT
HETATM    1  O   UNL     1      -9.962   4.404  69.932  1.00  0.00    -0.222 OA 
HETATM    2  N   UNL     1     -10.450   5.541  69.951  1.00  0.00    -0.296 N  
HETATM    3  O   UNL     1     -11.162   5.989  70.861  1.00  0.00    -0.299 OA 
HETATM    4  C   UNL     1     -10.175   6.420  68.808  1.00  0.00    -0.177 A  
HETATM    5  C   UNL     1      -9.345   5.972  67.773  1.00  0.00    -0.106 A  
HETATM    6  C   UNL     1      -9.134   6.781  66.640  1.00  0.00    -0.164 A  
HETATM    7  C   UNL     1      -9.691   8.071  66.593  1.00  0.00    -0.243 A  
HETATM    8  N   UNL     1      -9.477   8.994  65.558  1.00  0.00    -0.424 N  
HETATM    9  C   UNL     1     -10.536   8.496  67.630  1.00  0.00    -0.308 A  
HETATM   10  C   UNL     1     -10.780   7.678  68.737  1.00  0.00    -0.106 A  
HETATM   11  H   UNL     1     -10.221   9.671  65.393  1.00  0.00     0.000 HD 
HETATM   12  C   UNL     1      -8.378   9.086  64.742  1.00  0.00    -0.173 C  
HETATM   13  C   UNL     1      -7.206   8.165  65.027  1.00  0.00    -0.076 C  
HETATM   14  O   UNL     1      -8.335   9.978  63.893  1.00  0.00    -0.147 OA 
HETATM   15  N   UNL     1      -7.564   6.783  64.732  1.00  0.00    -0.096 NA 
HETATM   16  C   UNL     1      -8.435   6.174  65.464  1.00  0.00    -0.149 C  
HETATM   17  H   UNL     1      -7.127   6.298  63.949  1.00  0.00     0.000 HD 
ENDROOT
BRANCH  16  18
HETATM   18  C   UNL     1      -8.773   4.762  65.070  1.00  0.00    -0.147 A  
HETATM   19  C   UNL     1      -7.828   3.751  65.287  1.00  0.00    -0.086 A  
HETATM   20  C   UNL     1      -8.111   2.433  64.923  1.00  0.00    -0.082 A  
HETATM   21  C   UNL     1      -9.337   2.120  64.338  1.00  0.00    -0.132 A  
HETATM   22  C   UNL     1     -10.276   3.123  64.104  1.00  0.00    -0.142 A  
HETATM   23  C   UNL     1      -9.992   4.443  64.457  1.00  0.00    -0.046 A  
ENDBRANCH  16  18
TORSDOF 1
ENDMDL
MODEL      132
REMARK 921   NORMALIZED FREE ENERGY PREDICTED BY IDOCK:   -3.47 KCAL/MOL
REMARK 922        TOTAL FREE ENERGY PREDICTED BY IDOCK:   -4.10 KCAL/MOL
REMARK 923 INTER-LIGAND FREE ENERGY PREDICTED BY IDOCK:   -3.62 KCAL/MOL
REMARK 924 INTRA-LIGAND FREE ENERGY PREDICTED BY IDOCK:   -0.48 KCAL/MOL
REMARK 927      BINDING AFFINITY PREDICTED BY RF-SCORE:    0.00 PKD
ROOT
HETATM    1  O   UNL     1      -7.314   4.702  66.109  1.00  0.00    -0.075 OA 
HETATM    2  N   UNL     1      -8.043   4.079  66.892  1.00  0.00    -0.096 N  
HETATM    3  O   UNL     1      -8.332   2.879  66.785  1.00  0.00    -0.088 OA 
HETATM    4  C   UNL     1      -8.618   4.819  68.022  1.00  0.00    -0.102 A  
HETATM    5  C   UNL     1      -8.291   6.168  68.205  1.00  0.00    -0.114 A  
HETATM    6  C   UNL     1      -8.893   6.902  69.245  1.00  0.00    -0.138 A  
HETATM    7  C   UNL     1      -9.756   6.254  70.146  1.00  0.00    -0.163 A  
HETATM    8  N   UNL     1     -10.342   6.863  71.266  1.00  0.00    -0.203 N  
HETATM    9  C   UNL     1     -10.087   4.907  69.935  1.00  0.00    -0.332 A  
HETATM   10  C   UNL     1      -9.523   4.186  68.879  1.00  0.00    -0.238 A  
HETATM   11  H   UNL     1     -11.237   6.482  71.573  1.00  0.00     0.000 HD 
HETATM   12  C   UNL     1      -9.847   7.915  71.994  1.00  0.00    -0.192 C  
HETATM   13  C   UNL     1      -8.469   8.438  71.631  1.00  0.00    -0.163 C  
HETATM   14  O   UNL     1     -10.477   8.315  72.973  1.00  0.00    -0.271 OA 
HETATM   15  N   UNL     1      -8.500   9.088  70.328  1.00  0.00    -0.149 NA 
HETATM   16  C   UNL     1      -8.695   8.386  69.263  1.00  0.00    -0.138 C  
HETATM   17  H   UNL     1      -8.368  10.097  70.256  1.00  0.00     0.000 HD 
ENDROOT
BRANCH  16  18
HETATM   18  C   UNL     1      -8.747   9.139  67.962  1.00  0.00    -0.129 A  
HETATM   19  C   UNL     1      -9.952   9.181  67.249  1.00  0.00    -0.270 A  
HETATM   20  C   UNL     1     -10.027   9.865  66.034  1.00  0.00    -0.338 A  
HETATM   21  C   UNL     1      -8.899  10.507  65.525  1.00  0.00    -0.200 A  
HETATM   22  C   UNL     1      -7.693  10.457  66.221  1.00  0.00    -0.129 A  
HETATM   23  C   UNL     1      -7.611   9.765  67.430  1.00  0.00    -0.091 A  
ENDBRANCH  16  18
TORSDOF 1
ENDMDL
MODEL      133
REMARK 921   NORMALIZED FREE ENERGY PREDICTED BY IDOCK:   -3.42 KCAL/MOL
REMARK 922        TOTAL FREE ENERGY PREDICTED BY IDOCK:   -4.05 KCAL/MOL
REMARK 923 INTER-LIGAND FREE ENERGY PREDICTED BY IDOCK:   -4.38 KCAL/MOL
REMARK 924 INTRA-LIGAND FREE ENERGY PREDICTED BY IDOCK:    0.33 KCAL/MOL
REMARK 927      BINDING AFFINITY PREDICTED BY RF-SCORE:    0.00 PKD
ROOT
HETATM    1  O   UNL     1     -10.465   6.803  73.841  1.00  0.00    -0.347 OA 
HETATM    2  N   UNL     1     -11.057   6.229  72.918  1.00  0.00    -0.253 N  
HETATM    3  O   UNL     1     -11.766   5.222  73.051  1.00  0.00    -0.294 OA 
HETATM    4  C   UNL     1     -10.896   6.773  71.563  1.00  0.00    -0.234 A  
HETATM    5  C   UNL     1     -10.134   7.930  71.368  1.00  0.00    -0.212 A  
HETATM    6  C   UNL     1      -9.917   8.417  70.064  1.00  0.00    -0.188 A  
HETATM    7  C   UNL     1     -10.537   7.785  68.972  1.00  0.00    -0.166 A  
HETATM    8  N   UNL     1     -10.462   8.232  67.645  1.00  0.00    -0.335 N  
HETATM    9  C   UNL     1     -11.281   6.614  69.186  1.00  0.00    -0.305 A  
HETATM   10  C   UNL     1     -11.464   6.105  70.474  1.00  0.00    -0.330 A  
HETATM   11  H   UNL     1     -10.550   7.520  66.921  1.00  0.00     0.000 HD 
HETATM   12  C   UNL     1     -10.283   9.522  67.212  1.00  0.00    -0.234 C  
HETATM   13  C   UNL     1     -10.254  10.621  68.258  1.00  0.00    -0.166 C  
HETATM   14  O   UNL     1     -10.267   9.750  66.002  1.00  0.00    -0.259 OA 
HETATM   15  N   UNL     1      -9.054  10.511  69.076  1.00  0.00    -0.179 NA 
HETATM   16  C   UNL     1      -8.913   9.513  69.882  1.00  0.00    -0.212 C  
HETATM   17  H   UNL     1      -8.325  11.222  69.013  1.00  0.00     0.000 HD 
ENDROOT
BRANCH  16  18
HETATM   18  C   UNL     1      -7.630   9.458  70.664  1.00  0.00    -0.163 A  
HETATM   19  C   UNL     1      -6.570  10.295  70.293  1.00  0.00    -0.142 A  
HETATM   20  C   UNL     1      -5.364  10.258  70.996  1.00  0.00    -0.082 A  
HETATM   21  C   UNL     1      -5.210   9.382  72.069  1.00  0.00    -0.075 A  
HETATM   22  C   UNL     1      -6.254   8.535  72.435  1.00  0.00    -0.072 A  
HETATM   23  C   UNL     1      -7.457   8.561  71.728  1.00  0.00    -0.127 A  
ENDBRANCH  16  18
TORSDOF 1
ENDMDL
MODEL      134
REMARK 921   NORMALIZED FREE ENERGY PREDICTED BY IDOCK:   -3.39 KCAL/MOL
REMARK 922        TOTAL FREE ENERGY PREDICTED BY IDOCK:   -4.02 KCAL/MOL
REMARK 923 INTER-LIGAND FREE ENERGY PREDICTED BY IDOCK:   -3.93 KCAL/MOL
REMARK 924 INTRA-LIGAND FREE ENERGY PREDICTED BY IDOCK:   -0.08 KCAL/MOL
REMARK 927      BINDING AFFINITY PREDICTED BY RF-SCORE:    0.00 PKD
ROOT
HETATM    1  O   UNL     1     -11.263  13.464  65.002  1.00  0.00    -0.303 OA 
HETATM    2  N   UNL     1     -11.143  12.460  65.716  1.00  0.00    -0.303 N  
HETATM    3  O   UNL     1     -11.853  11.448  65.636  1.00  0.00    -0.073 OA 
HETATM    4  C   UNL     1     -10.091  12.474  66.740  1.00  0.00    -0.223 A  
HETATM    5  C   UNL     1      -9.240  13.581  66.844  1.00  0.00    -0.254 A  
HETATM    6  C   UNL     1      -8.275  13.632  67.868  1.00  0.00    -0.171 A  
HETATM    7  C   UNL     1      -8.115  12.533  68.730  1.00  0.00     0.087 A  
HETATM    8  N   UNL     1      -7.133  12.439  69.727  1.00  0.00    -0.242 N  
HETATM    9  C   UNL     1      -8.991  11.441  68.624  1.00  0.00    -0.133 A  
HETATM   10  C   UNL     1      -9.976  11.405  67.633  1.00  0.00    -0.196 A  
HETATM   11  H   UNL     1      -7.362  11.861  70.536  1.00  0.00     0.000 HD 
HETATM   12  C   UNL     1      -5.899  13.038  69.736  1.00  0.00    -0.123 C  
HETATM   13  C   UNL     1      -5.483  13.818  68.504  1.00  0.00    -0.093 C  
HETATM   14  O   UNL     1      -5.139  12.828  70.683  1.00  0.00    -0.096 OA 
HETATM   15  N   UNL     1      -6.294  15.021  68.367  1.00  0.00    -0.099 NA 
HETATM   16  C   UNL     1      -7.549  14.923  68.084  1.00  0.00    -0.113 C  
HETATM   17  H   UNL     1      -5.870  15.940  68.495  1.00  0.00     0.000 HD 
ENDROOT
BRANCH  16  18
HETATM   18  C   UNL     1      -8.320  16.212  67.996  1.00  0.00    -0.163 A  
HETATM   19  C   UNL     1      -9.685  16.210  68.312  1.00  0.00    -0.220 A  
HETATM   20  C   UNL     1     -10.427  17.390  68.230  1.00  0.00    -0.385 A  
HETATM   21  C   UNL     1      -9.811  18.575  67.830  1.00  0.00    -0.352 A  
HETATM   22  C   UNL     1      -8.457  18.581  67.499  1.00  0.00    -0.272 A  
HETATM   23  C   UNL     1      -7.714  17.402  67.569  1.00  0.00    -0.205 A  
ENDBRANCH  16  18
TORSDOF 1
ENDMDL
MODEL      135
REMARK 921   NORMALIZED FREE ENERGY PREDICTED BY IDOCK:   -3.36 KCAL/MOL
REMARK 922        TOTAL FREE ENERGY PREDICTED BY IDOCK:   -3.98 KCAL/MOL
REMARK 923 INTER-LIGAND FREE ENERGY PREDICTED BY IDOCK:   -3.51 KCAL/MOL
REMARK 924 INTRA-LIGAND FREE ENERGY PREDICTED BY IDOCK:   -0.47 KCAL/MOL
REMARK 927      BINDING AFFINITY PREDICTED BY RF-SCORE:    0.00 PKD
ROOT
HETATM    1  O   UNL     1      -6.785  10.792  70.502  1.00  0.00    -0.312 OA 
HETATM    2  N   UNL     1      -6.581  10.573  69.301  1.00  0.00    -0.053 N  
HETATM    3  O   UNL     1      -5.962  11.330  68.540  1.00  0.00    -0.043 OA 
HETATM    4  C   UNL     1      -7.123   9.332  68.734  1.00  0.00    -0.073 A  
HETATM    5  C   UNL     1      -7.798   8.428  69.563  1.00  0.00    -0.102 A  
HETATM    6  C   UNL     1      -8.381   7.270  69.013  1.00  0.00    -0.126 A  
HETATM    7  C   UNL     1      -8.210   6.986  67.646  1.00  0.00    -0.117 A  
HETATM    8  N   UNL     1      -8.672   5.824  67.011  1.00  0.00    -0.110 N  
HETATM    9  C   UNL     1      -7.548   7.914  66.827  1.00  0.00    -0.098 A  
HETATM   10  C   UNL     1      -7.003   9.084  67.363  1.00  0.00    -0.078 A  
HETATM   11  H   UNL     1      -8.890   5.907  66.018  1.00  0.00     0.000 HD 
HETATM   12  C   UNL     1      -8.863   4.589  67.575  1.00  0.00    -0.107 C  
HETATM   13  C   UNL     1      -8.449   4.402  69.023  1.00  0.00    -0.082 C  
HETATM   14  O   UNL     1      -9.250   3.659  66.866  1.00  0.00    -0.157 OA 
HETATM   15  N   UNL     1      -9.322   5.166  69.903  1.00  0.00    -0.135 NA 
HETATM   16  C   UNL     1      -9.284   6.456  69.887  1.00  0.00    -0.152 C  
HETATM   17  H   UNL     1      -9.963   4.684  70.533  1.00  0.00     0.000 HD 
ENDROOT
BRANCH  16  18
HETATM   18  C   UNL     1     -10.243   7.169  70.801  1.00  0.00    -0.208 A  
HETATM   19  C   UNL     1     -10.153   6.953  72.182  1.00  0.00    -0.198 A  
HETATM   20  C   UNL     1     -11.036   7.594  73.053  1.00  0.00    -0.457 A  
HETATM   21  C   UNL     1     -12.014   8.450  72.549  1.00  0.00    -0.418 A  
HETATM   22  C   UNL     1     -12.120   8.657  71.175  1.00  0.00    -0.297 A  
HETATM   23  C   UNL     1     -11.246   8.010  70.300  1.00  0.00    -0.192 A  
ENDBRANCH  16  18
TORSDOF 1
ENDMDL
MODEL      136
REMARK 921   NORMALIZED FREE ENERGY PREDICTED BY IDOCK:   -3.23 KCAL/MOL
REMARK 922        TOTAL FREE ENERGY PREDICTED BY IDOCK:   -3.85 KCAL/MOL
REMARK 923 INTER-LIGAND FREE ENERGY PREDICTED BY IDOCK:   -4.02 KCAL/MOL
REMARK 924 INTRA-LIGAND FREE ENERGY PREDICTED BY IDOCK:    0.17 KCAL/MOL
REMARK 927      BINDING AFFINITY PREDICTED BY RF-SCORE:    0.00 PKD
ROOT
HETATM    1  O   UNL     1      -9.125   8.139  65.317  1.00  0.00     0.002 OA 
HETATM    2  N   UNL     1      -9.008   9.250  65.851  1.00  0.00    -0.171 N  
HETATM    3  O   UNL     1      -8.417  10.216  65.349  1.00  0.00    -0.142 OA 
HETATM    4  C   UNL     1      -9.602   9.432  67.181  1.00  0.00    -0.154 A  
HETATM    5  C   UNL     1     -10.311   8.379  67.773  1.00  0.00    -0.297 A  
HETATM    6  C   UNL     1     -10.822   8.522  69.077  1.00  0.00    -0.026 A  
HETATM    7  C   UNL     1     -10.690   9.752  69.747  1.00  0.00    -0.256 A  
HETATM    8  N   UNL     1     -11.233  10.034  71.009  1.00  0.00    -0.346 N  
HETATM    9  C   UNL     1      -9.958  10.788  69.146  1.00  0.00    -0.206 A  
HETATM   10  C   UNL     1      -9.414  10.635  67.867  1.00  0.00    -0.168 A  
HETATM   11  H   UNL     1     -10.741  10.731  71.568  1.00  0.00     0.000 HD 
HETATM   12  C   UNL     1     -12.351   9.477  71.575  1.00  0.00    -0.380 C  
HETATM   13  C   UNL     1     -13.167   8.516  70.731  1.00  0.00     0.450 C  
HETATM   14  O   UNL     1     -12.712   9.859  72.689  1.00  0.00    -0.060 OA 
HETATM   15  N   UNL     1     -12.422   7.286  70.498  1.00  0.00    -0.589 NA 
HETATM   16  C   UNL     1     -11.367   7.304  69.755  1.00  0.00    -0.071 C  
HETATM   17  H   UNL     1     -12.733   6.413  70.922  1.00  0.00     0.000 HD 
ENDROOT
BRANCH  16  18
HETATM   18  C   UNL     1     -10.637   5.998  69.595  1.00  0.00    -0.367 A  
HETATM   19  C   UNL     1     -10.313   5.256  70.739  1.00  0.00    -0.309 A  
HETATM   20  C   UNL     1      -9.628   4.046  70.621  1.00  0.00    -0.260 A  
HETATM   21  C   UNL     1      -9.259   3.573  69.362  1.00  0.00    -0.227 A  
HETATM   22  C   UNL     1      -9.564   4.313  68.221  1.00  0.00    -0.197 A  
HETATM   23  C   UNL     1     -10.240   5.529  68.336  1.00  0.00    -0.242 A  
ENDBRANCH  16  18
TORSDOF 1
ENDMDL
MODEL      137
REMARK 921   NORMALIZED FREE ENERGY PREDICTED BY IDOCK:   -3.23 KCAL/MOL
REMARK 922        TOTAL FREE ENERGY PREDICTED BY IDOCK:   -3.85 KCAL/MOL
REMARK 923 INTER-LIGAND FREE ENERGY PREDICTED BY IDOCK:   -3.50 KCAL/MOL
REMARK 924 INTRA-LIGAND FREE ENERGY PREDICTED BY IDOCK:   -0.34 KCAL/MOL
REMARK 927      BINDING AFFINITY PREDICTED BY RF-SCORE:    0.00 PKD
ROOT
HETATM    1  O   UNL     1      -9.815   5.450  72.968  1.00  0.00    -0.159 OA 
HETATM    2  N   UNL     1     -10.305   6.586  73.018  1.00  0.00    -0.204 N  
HETATM    3  O   UNL     1     -10.992   7.018  73.954  1.00  0.00    -0.141 OA 
HETATM    4  C   UNL     1     -10.065   7.482  71.880  1.00  0.00    -0.172 A  
HETATM    5  C   UNL     1      -9.265   7.051  70.815  1.00  0.00    -0.157 A  
HETATM    6  C   UNL     1      -9.089   7.877  69.689  1.00  0.00    -0.153 A  
HETATM    7  C   UNL     1      -9.650   9.166  69.676  1.00  0.00    -0.176 A  
HETATM    8  N   UNL     1      -9.469  10.104  68.648  1.00  0.00    -0.157 N  
HETATM    9  C   UNL     1     -10.466   9.573  70.743  1.00  0.00    -0.384 A  
HETATM   10  C   UNL     1     -10.676   8.739  71.845  1.00  0.00    -0.429 A  
HETATM   11  H   UNL     1     -10.220  10.780  68.515  1.00  0.00     0.000 HD 
HETATM   12  C   UNL     1      -8.394  10.211  67.803  1.00  0.00    -0.114 C  
HETATM   13  C   UNL     1      -7.212   9.290  68.040  1.00  0.00    -0.079 C  
HETATM   14  O   UNL     1      -8.378  11.115  66.966  1.00  0.00    -0.134 OA 
HETATM   15  N   UNL     1      -7.575   7.912  67.737  1.00  0.00    -0.107 NA 
HETATM   16  C   UNL     1      -8.422   7.289  68.484  1.00  0.00    -0.125 C  
HETATM   17  H   UNL     1      -7.159   7.439  66.934  1.00  0.00     0.000 HD 
ENDROOT
BRANCH  16  18
HETATM   18  C   UNL     1      -8.767   5.882  68.080  1.00  0.00    -0.111 A  
HETATM   19  C   UNL     1      -8.012   4.821  68.596  1.00  0.00    -0.080 A  
HETATM   20  C   UNL     1      -8.304   3.506  68.231  1.00  0.00    -0.096 A  
HETATM   21  C   UNL     1      -9.349   3.244  67.347  1.00  0.00    -0.242 A  
HETATM   22  C   UNL     1     -10.095   4.295  66.816  1.00  0.00    -0.116 A  
HETATM   23  C   UNL     1      -9.799   5.612  67.171  1.00  0.00    -0.167 A  
ENDBRANCH  16  18
TORSDOF 1
ENDMDL
MODEL      138
REMARK 921   NORMALIZED FREE ENERGY PREDICTED BY IDOCK:   -3.10 KCAL/MOL
REMARK 922        TOTAL FREE ENERGY PREDICTED BY IDOCK:   -3.71 KCAL/MOL
REMARK 923 INTER-LIGAND FREE ENERGY PREDICTED BY IDOCK:   -4.04 KCAL/MOL
REMARK 924 INTRA-LIGAND FREE ENERGY PREDICTED BY IDOCK:    0.33 KCAL/MOL
REMARK 927      BINDING AFFINITY PREDICTED BY RF-SCORE:    0.00 PKD
ROOT
HETATM    1  O   UNL     1      -8.295   6.804  73.106  1.00  0.00    -0.114 OA 
HETATM    2  N   UNL     1      -7.230   7.417  72.955  1.00  0.00    -0.072 N  
HETATM    3  O   UNL     1      -6.218   7.258  73.652  1.00  0.00    -0.063 OA 
HETATM    4  C   UNL     1      -7.164   8.413  71.878  1.00  0.00    -0.095 A  
HETATM    5  C   UNL     1      -8.270   8.602  71.040  1.00  0.00    -0.179 A  
HETATM    6  C   UNL     1      -8.240   9.604  70.051  1.00  0.00    -0.197 A  
HETATM    7  C   UNL     1      -7.067  10.354  69.856  1.00  0.00    -0.159 A  
HETATM    8  N   UNL     1      -6.895  11.315  68.849  1.00  0.00    -0.078 N  
HETATM    9  C   UNL     1      -5.976  10.165  70.719  1.00  0.00    -0.093 A  
HETATM   10  C   UNL     1      -6.018   9.199  71.727  1.00  0.00    -0.067 A  
HETATM   11  H   UNL     1      -6.240  12.070  69.050  1.00  0.00     0.000 HD 
HETATM   12  C   UNL     1      -7.510  11.353  67.623  1.00  0.00    -0.103 C  
HETATM   13  C   UNL     1      -8.410  10.190  67.248  1.00  0.00    -0.121 C  
HETATM   14  O   UNL     1      -7.224  12.257  66.837  1.00  0.00    -0.082 OA 
HETATM   15  N   UNL     1      -9.607  10.186  68.078  1.00  0.00    -0.144 NA 
HETATM   16  C   UNL     1      -9.516   9.924  69.338  1.00  0.00    -0.213 C  
HETATM   17  H   UNL     1     -10.516  10.391  67.664  1.00  0.00     0.000 HD 
ENDROOT
BRANCH  16  18
HETATM   18  C   UNL     1     -10.795   9.976  70.128  1.00  0.00    -0.365 A  
HETATM   19  C   UNL     1     -11.816  10.841  69.714  1.00  0.00    -0.409 A  
HETATM   20  C   UNL     1     -13.009  10.916  70.434  1.00  0.00    -0.172 A  
HETATM   21  C   UNL     1     -13.188  10.131  71.573  1.00  0.00    -0.496 A  
HETATM   22  C   UNL     1     -12.170   9.281  72.000  1.00  0.00    -0.418 A  
HETATM   23  C   UNL     1     -10.971   9.211  71.289  1.00  0.00    -0.400 A  
ENDBRANCH  16  18
TORSDOF 1
ENDMDL
MODEL      139
REMARK 921   NORMALIZED FREE ENERGY PREDICTED BY IDOCK:   -3.06 KCAL/MOL
REMARK 922        TOTAL FREE ENERGY PREDICTED BY IDOCK:   -3.67 KCAL/MOL
REMARK 923 INTER-LIGAND FREE ENERGY PREDICTED BY IDOCK:   -4.10 KCAL/MOL
REMARK 924 INTRA-LIGAND FREE ENERGY PREDICTED BY IDOCK:    0.43 KCAL/MOL
REMARK 927      BINDING AFFINITY PREDICTED BY RF-SCORE:    0.00 PKD
ROOT
HETATM    1  O   UNL     1     -12.691  11.711  70.164  1.00  0.00    -0.067 OA 
HETATM    2  N   UNL     1     -12.623  10.816  71.016  1.00  0.00    -0.385 N  
HETATM    3  O   UNL     1     -13.292  10.781  72.059  1.00  0.00    -0.447 OA 
HETATM    4  C   UNL     1     -11.671   9.723  70.782  1.00  0.00    -0.328 A  
HETATM    5  C   UNL     1     -10.919   9.700  69.601  1.00  0.00    -0.253 A  
HETATM    6  C   UNL     1      -9.954   8.695  69.401  1.00  0.00    -0.197 A  
HETATM    7  C   UNL     1      -9.809   7.670  70.353  1.00  0.00    -0.183 A  
HETATM    8  N   UNL     1      -8.943   6.574  70.218  1.00  0.00    -0.154 N  
HETATM    9  C   UNL     1     -10.557   7.720  71.539  1.00  0.00    -0.247 A  
HETATM   10  C   UNL     1     -11.487   8.740  71.759  1.00  0.00    -0.413 A  
HETATM   11  H   UNL     1      -8.595   6.162  71.083  1.00  0.00     0.000 HD 
HETATM   12  C   UNL     1      -8.513   5.995  69.051  1.00  0.00    -0.117 C  
HETATM   13  C   UNL     1      -9.094   6.513  67.748  1.00  0.00    -0.112 C  
HETATM   14  O   UNL     1      -7.770   5.014  69.108  1.00  0.00    -0.074 OA 
HETATM   15  N   UNL     1      -8.627   7.868  67.488  1.00  0.00    -0.122 NA 
HETATM   16  C   UNL     1      -9.019   8.840  68.241  1.00  0.00    -0.141 C  
HETATM   17  H   UNL     1      -7.991   8.049  66.712  1.00  0.00     0.000 HD 
ENDROOT
BRANCH  16  18
HETATM   18  C   UNL     1      -8.462  10.201  67.926  1.00  0.00    -0.118 A  
HETATM   19  C   UNL     1      -9.198  11.337  68.284  1.00  0.00    -0.176 A  
HETATM   20  C   UNL     1      -8.710  12.613  67.996  1.00  0.00    -0.190 A  
HETATM   21  C   UNL     1      -7.486  12.759  67.345  1.00  0.00    -0.145 A  
HETATM   22  C   UNL     1      -6.754  11.634  66.970  1.00  0.00    -0.145 A  
HETATM   23  C   UNL     1      -7.245  10.357  67.248  1.00  0.00    -0.089 A  
ENDBRANCH  16  18
TORSDOF 1
ENDMDL
MODEL      140
REMARK 921   NORMALIZED FREE ENERGY PREDICTED BY IDOCK:   -3.04 KCAL/MOL
REMARK 922        TOTAL FREE ENERGY PREDICTED BY IDOCK:   -3.65 KCAL/MOL
REMARK 923 INTER-LIGAND FREE ENERGY PREDICTED BY IDOCK:   -3.31 KCAL/MOL
REMARK 924 INTRA-LIGAND FREE ENERGY PREDICTED BY IDOCK:   -0.34 KCAL/MOL
REMARK 927      BINDING AFFINITY PREDICTED BY RF-SCORE:    0.00 PKD
ROOT
HETATM    1  O   UNL     1     -12.073   9.381  70.351  1.00  0.00    -0.129 OA 
HETATM    2  N   UNL     1     -12.106   8.925  71.501  1.00  0.00    -0.312 N  
HETATM    3  O   UNL     1     -12.754   9.415  72.436  1.00  0.00    -0.352 OA 
HETATM    4  C   UNL     1     -11.309   7.724  71.781  1.00  0.00    -0.261 A  
HETATM    5  C   UNL     1     -10.589   7.114  70.747  1.00  0.00    -0.240 A  
HETATM    6  C   UNL     1      -9.767   6.005  71.023  1.00  0.00    -0.208 A  
HETATM    7  C   UNL     1      -9.738   5.464  72.321  1.00  0.00    -0.157 A  
HETATM    8  N   UNL     1      -9.025   4.313  72.689  1.00  0.00    -0.110 N  
HETATM    9  C   UNL     1     -10.450   6.102  73.348  1.00  0.00    -0.269 A  
HETATM   10  C   UNL     1     -11.236   7.228  73.086  1.00  0.00    -0.263 A  
HETATM   11  H   UNL     1      -8.717   4.263  73.659  1.00  0.00     0.000 HD 
HETATM   12  C   UNL     1      -8.696   3.249  71.889  1.00  0.00    -0.081 C  
HETATM   13  C   UNL     1      -9.229   3.241  70.468  1.00  0.00    -0.143 C  
HETATM   14  O   UNL     1      -8.087   2.297  72.378  1.00  0.00    -0.053 OA 
HETATM   15  N   UNL     1      -8.595   4.291  69.682  1.00  0.00    -0.071 NA 
HETATM   16  C   UNL     1      -8.843   5.530  69.944  1.00  0.00    -0.127 C  
HETATM   17  H   UNL     1      -7.956   4.048  68.926  1.00  0.00     0.000 HD 
ENDROOT
BRANCH  16  18
HETATM   18  C   UNL     1      -8.120   6.551  69.109  1.00  0.00    -0.112 A  
HETATM   19  C   UNL     1      -8.043   6.365  67.723  1.00  0.00    -0.115 A  
HETATM   20  C   UNL     1      -7.371   7.291  66.925  1.00  0.00    -0.092 A  
HETATM   21  C   UNL     1      -6.769   8.406  67.507  1.00  0.00    -0.063 A  
HETATM   22  C   UNL     1      -6.826   8.590  68.887  1.00  0.00    -0.061 A  
HETATM   23  C   UNL     1      -7.489   7.660  69.690  1.00  0.00    -0.091 A  
ENDBRANCH  16  18
TORSDOF 1
ENDMDL
MODEL      141
REMARK 921   NORMALIZED FREE ENERGY PREDICTED BY IDOCK:   -3.01 KCAL/MOL
REMARK 922        TOTAL FREE ENERGY PREDICTED BY IDOCK:   -3.62 KCAL/MOL
REMARK 923 INTER-LIGAND FREE ENERGY PREDICTED BY IDOCK:   -3.13 KCAL/MOL
REMARK 924 INTRA-LIGAND FREE ENERGY PREDICTED BY IDOCK:   -0.49 KCAL/MOL
REMARK 927      BINDING AFFINITY PREDICTED BY RF-SCORE:    0.00 PKD
ROOT
HETATM    1  O   UNL     1      -8.078   7.105  64.465  1.00  0.00    -0.128 OA 
HETATM    2  N   UNL     1      -7.978   8.234  64.963  1.00  0.00    -0.133 N  
HETATM    3  O   UNL     1      -7.495   9.219  64.388  1.00  0.00    -0.101 OA 
HETATM    4  C   UNL     1      -8.453   8.415  66.341  1.00  0.00    -0.123 A  
HETATM    5  C   UNL     1      -9.039   7.340  67.019  1.00  0.00    -0.152 A  
HETATM    6  C   UNL     1      -9.431   7.487  68.363  1.00  0.00    -0.148 A  
HETATM    7  C   UNL     1      -9.309   8.739  68.992  1.00  0.00    -0.145 A  
HETATM    8  N   UNL     1      -9.746   9.022  70.294  1.00  0.00    -0.184 N  
HETATM    9  C   UNL     1      -8.701   9.799  68.303  1.00  0.00    -0.119 A  
HETATM   10  C   UNL     1      -8.273   9.645  66.981  1.00  0.00    -0.117 A  
HETATM   11  H   UNL     1      -9.246   9.759  70.790  1.00  0.00     0.000 HD 
HETATM   12  C   UNL     1     -10.771   8.416  70.977  1.00  0.00    -0.223 C  
HETATM   13  C   UNL     1     -11.605   7.389  70.234  1.00  0.00    -0.128 C  
HETATM   14  O   UNL     1     -11.047   8.806  72.113  1.00  0.00    -0.355 OA 
HETATM   15  N   UNL     1     -10.813   6.198  69.956  1.00  0.00    -0.307 NA 
HETATM   16  C   UNL     1      -9.836   6.257  69.115  1.00  0.00    -0.144 C  
HETATM   17  H   UNL     1     -11.030   5.319  70.425  1.00  0.00     0.000 HD 
ENDROOT
BRANCH  16  18
HETATM   18  C   UNL     1      -9.048   4.992  68.912  1.00  0.00    -0.142 A  
HETATM   19  C   UNL     1      -9.668   3.896  68.297  1.00  0.00    -0.119 A  
HETATM   20  C   UNL     1      -8.963   2.706  68.104  1.00  0.00    -0.199 A  
HETATM   21  C   UNL     1      -7.638   2.605  68.527  1.00  0.00    -0.047 A  
HETATM   22  C   UNL     1      -7.020   3.685  69.153  1.00  0.00    -0.046 A  
HETATM   23  C   UNL     1      -7.725   4.872  69.357  1.00  0.00    -0.067 A  
ENDBRANCH  16  18
TORSDOF 1
ENDMDL
MODEL      142
REMARK 921   NORMALIZED FREE ENERGY PREDICTED BY IDOCK:   -2.91 KCAL/MOL
REMARK 922        TOTAL FREE ENERGY PREDICTED BY IDOCK:   -3.51 KCAL/MOL
REMARK 923 INTER-LIGAND FREE ENERGY PREDICTED BY IDOCK:   -3.22 KCAL/MOL
REMARK 924 INTRA-LIGAND FREE ENERGY PREDICTED BY IDOCK:   -0.29 KCAL/MOL
REMARK 927      BINDING AFFINITY PREDICTED BY RF-SCORE:    0.00 PKD
ROOT
HETATM    1  O   UNL     1      -7.837   9.739  71.175  1.00  0.00    -0.218 OA 
HETATM    2  N   UNL     1      -6.720   9.561  70.673  1.00  0.00    -0.099 N  
HETATM    3  O   UNL     1      -5.710   9.217  71.302  1.00  0.00    -0.052 OA 
HETATM    4  C   UNL     1      -6.578   9.787  69.229  1.00  0.00    -0.052 A  
HETATM    5  C   UNL     1      -7.699  10.142  68.469  1.00  0.00    -0.090 A  
HETATM    6  C   UNL     1      -7.557  10.429  67.098  1.00  0.00    -0.096 A  
HETATM    7  C   UNL     1      -6.303  10.276  66.481  1.00  0.00    -0.078 A  
HETATM    8  N   UNL     1      -6.064  10.450  65.110  1.00  0.00    -0.158 N  
HETATM    9  C   UNL     1      -5.187   9.939  67.262  1.00  0.00    -0.038 A  
HETATM   10  C   UNL     1      -5.317   9.693  68.632  1.00  0.00    -0.036 A  
HETATM   11  H   UNL     1      -5.124  10.745  64.847  1.00  0.00     0.000 HD 
HETATM   12  C   UNL     1      -6.954  10.268  64.082  1.00  0.00    -0.049 C  
HETATM   13  C   UNL     1      -8.330   9.727  64.425  1.00  0.00    -0.168 C  
HETATM   14  O   UNL     1      -6.574  10.437  62.922  1.00  0.00    -0.139 OA 
HETATM   15  N   UNL     1      -9.089  10.715  65.181  1.00  0.00    -0.193 NA 
HETATM   16  C   UNL     1      -8.729  11.024  66.381  1.00  0.00    -0.173 C  
HETATM   17  H   UNL     1      -9.904  11.163  64.762  1.00  0.00     0.000 HD 
ENDROOT
BRANCH  16  18
HETATM   18  C   UNL     1      -9.545  12.078  67.077  1.00  0.00    -0.200 A  
HETATM   19  C   UNL     1      -8.887  13.080  67.802  1.00  0.00    -0.188 A  
HETATM   20  C   UNL     1      -9.620  14.065  68.465  1.00  0.00    -0.201 A  
HETATM   21  C   UNL     1     -11.013  14.053  68.411  1.00  0.00    -0.269 A  
HETATM   22  C   UNL     1     -11.676  13.051  67.705  1.00  0.00    -0.405 A  
HETATM   23  C   UNL     1     -10.947  12.057  67.049  1.00  0.00    -0.323 A  
ENDBRANCH  16  18
TORSDOF 1
ENDMDL
MODEL      143
REMARK 921   NORMALIZED FREE ENERGY PREDICTED BY IDOCK:   -2.64 KCAL/MOL
REMARK 922        TOTAL FREE ENERGY PREDICTED BY IDOCK:   -3.22 KCAL/MOL
REMARK 923 INTER-LIGAND FREE ENERGY PREDICTED BY IDOCK:   -2.74 KCAL/MOL
REMARK 924 INTRA-LIGAND FREE ENERGY PREDICTED BY IDOCK:   -0.48 KCAL/MOL
REMARK 927      BINDING AFFINITY PREDICTED BY RF-SCORE:    0.00 PKD
ROOT
HETATM    1  O   UNL     1      -7.305  15.113  70.259  1.00  0.00     0.018 OA 
HETATM    2  N   UNL     1      -8.258  15.410  69.527  1.00  0.00    -0.242 N  
HETATM    3  O   UNL     1      -8.878  16.482  69.574  1.00  0.00    -0.045 OA 
HETATM    4  C   UNL     1      -8.694  14.415  68.539  1.00  0.00    -0.180 A  
HETATM    5  C   UNL     1      -8.002  13.203  68.424  1.00  0.00    -0.130 A  
HETATM    6  C   UNL     1      -8.458  12.216  67.529  1.00  0.00    -0.169 A  
HETATM    7  C   UNL     1      -9.557  12.486  66.695  1.00  0.00    -0.239 A  
HETATM    8  N   UNL     1     -10.042  11.613  65.710  1.00  0.00    -0.231 N  
HETATM    9  C   UNL     1     -10.250  13.697  66.839  1.00  0.00    -0.261 A  
HETATM   10  C   UNL     1      -9.825  14.663  67.755  1.00  0.00    -0.216 A  
HETATM   11  H   UNL     1     -11.035  11.686  65.488  1.00  0.00     0.000 HD 
HETATM   12  C   UNL     1      -9.330  10.671  65.011  1.00  0.00    -0.217 C  
HETATM   13  C   UNL     1      -7.831  10.606  65.237  1.00  0.00    -0.041 C  
HETATM   14  O   UNL     1      -9.906  10.001  64.153  1.00  0.00    -0.257 OA 
HETATM   15  N   UNL     1      -7.542  10.126  66.582  1.00  0.00    -0.104 NA 
HETATM   16  C   UNL     1      -7.832  10.858  67.604  1.00  0.00    -0.113 C  
HETATM   17  H   UNL     1      -7.111   9.211  66.716  1.00  0.00     0.000 HD 
ENDROOT
BRANCH  16  18
HETATM   18  C   UNL     1      -7.533  10.272  68.956  1.00  0.00    -0.097 A  
HETATM   19  C   UNL     1      -8.595   9.984  69.823  1.00  0.00    -0.192 A  
HETATM   20  C   UNL     1      -8.346   9.448  71.087  1.00  0.00     0.076 A  
HETATM   21  C   UNL     1      -7.036   9.201  71.494  1.00  0.00     0.006 A  
HETATM   22  C   UNL     1      -5.972   9.500  70.644  1.00  0.00    -0.066 A  
HETATM   23  C   UNL     1      -6.217  10.046  69.383  1.00  0.00    -0.045 A  
ENDBRANCH  16  18
TORSDOF 1
ENDMDL
MODEL      144
REMARK 921   NORMALIZED FREE ENERGY PREDICTED BY IDOCK:   -2.50 KCAL/MOL
REMARK 922        TOTAL FREE ENERGY PREDICTED BY IDOCK:   -3.08 KCAL/MOL
REMARK 923 INTER-LIGAND FREE ENERGY PREDICTED BY IDOCK:   -2.65 KCAL/MOL
REMARK 924 INTRA-LIGAND FREE ENERGY PREDICTED BY IDOCK:   -0.43 KCAL/MOL
REMARK 927      BINDING AFFINITY PREDICTED BY RF-SCORE:    0.00 PKD
ROOT
HETATM    1  O   UNL     1     -10.838   7.103  66.941  1.00  0.00    -0.352 OA 
HETATM    2  N   UNL     1     -10.446   8.098  67.563  1.00  0.00    -0.258 N  
HETATM    3  O   UNL     1     -10.650   9.271  67.220  1.00  0.00    -0.264 OA 
HETATM    4  C   UNL     1      -9.672   7.874  68.790  1.00  0.00    -0.158 A  
HETATM    5  C   UNL     1      -9.447   6.566  69.238  1.00  0.00    -0.141 A  
HETATM    6  C   UNL     1      -8.646   6.341  70.374  1.00  0.00    -0.142 A  
HETATM    7  C   UNL     1      -8.145   7.435  71.102  1.00  0.00    -0.101 A  
HETATM    8  N   UNL     1      -7.412   7.330  72.293  1.00  0.00    -0.082 N  
HETATM    9  C   UNL     1      -8.364   8.737  70.626  1.00  0.00    -0.173 A  
HETATM   10  C   UNL     1      -9.125   8.962  69.476  1.00  0.00    -0.146 A  
HETATM   11  H   UNL     1      -6.753   8.084  72.487  1.00  0.00     0.000 HD 
HETATM   12  C   UNL     1      -7.481   6.326  73.226  1.00  0.00    -0.091 C  
HETATM   13  C   UNL     1      -8.524   5.243  73.023  1.00  0.00    -0.111 C  
HETATM   14  O   UNL     1      -6.783   6.400  74.238  1.00  0.00    -0.077 OA 
HETATM   15  N   UNL     1      -8.187   4.425  71.866  1.00  0.00    -0.100 NA 
HETATM   16  C   UNL     1      -8.243   4.932  70.680  1.00  0.00    -0.096 C  
HETATM   17  H   UNL     1      -7.908   3.452  71.992  1.00  0.00     0.000 HD 
ENDROOT
BRANCH  16  18
HETATM   18  C   UNL     1      -7.846   4.029  69.545  1.00  0.00    -0.052 A  
HETATM   19  C   UNL     1      -8.473   2.783  69.415  1.00  0.00    -0.100 A  
HETATM   20  C   UNL     1      -8.117   1.921  68.376  1.00  0.00    -0.068 A  
HETATM   21  C   UNL     1      -7.132   2.298  67.464  1.00  0.00    -0.048 A  
HETATM   22  C   UNL     1      -6.493   3.529  67.595  1.00  0.00    -0.037 A  
HETATM   23  C   UNL     1      -6.838   4.389  68.639  1.00  0.00    -0.051 A  
ENDBRANCH  16  18
TORSDOF 1
ENDMDL
MODEL      145
REMARK 921   NORMALIZED FREE ENERGY PREDICTED BY IDOCK:   -2.35 KCAL/MOL
REMARK 922        TOTAL FREE ENERGY PREDICTED BY IDOCK:   -2.92 KCAL/MOL
REMARK 923 INTER-LIGAND FREE ENERGY PREDICTED BY IDOCK:   -2.56 KCAL/MOL
REMARK 924 INTRA-LIGAND FREE ENERGY PREDICTED BY IDOCK:   -0.36 KCAL/MOL
REMARK 927      BINDING AFFINITY PREDICTED BY RF-SCORE:    0.00 PKD
ROOT
HETATM    1  O   UNL     1     -10.710  17.946  64.833  1.00  0.00    -0.574 OA 
HETATM    2  N   UNL     1     -11.124  16.821  65.142  1.00  0.00    -0.157 N  
HETATM    3  O   UNL     1     -12.256  16.390  64.885  1.00  0.00     0.621 OA 
HETATM    4  C   UNL     1     -10.211  15.938  65.879  1.00  0.00    -0.352 A  
HETATM    5  C   UNL     1      -8.909  16.368  66.162  1.00  0.00    -0.349 A  
HETATM    6  C   UNL     1      -8.051  15.557  66.929  1.00  0.00    -0.284 A  
HETATM    7  C   UNL     1      -8.480  14.281  67.337  1.00  0.00    -0.203 A  
HETATM    8  N   UNL     1      -7.683  13.357  68.028  1.00  0.00    -0.131 N  
HETATM    9  C   UNL     1      -9.795  13.876  67.062  1.00  0.00    -0.257 A  
HETATM   10  C   UNL     1     -10.662  14.696  66.336  1.00  0.00    -0.309 A  
HETATM   11  H   UNL     1      -8.173  12.700  68.634  1.00  0.00     0.000 HD 
HETATM   12  C   UNL     1      -6.317  13.238  67.981  1.00  0.00    -0.128 C  
HETATM   13  C   UNL     1      -5.564  14.129  67.010  1.00  0.00     1.296 C  
HETATM   14  O   UNL     1      -5.770  12.348  68.633  1.00  0.00    -0.053 OA 
HETATM   15  N   UNL     1      -5.634  15.519  67.439  1.00  0.00    -0.341 NA 
HETATM   16  C   UNL     1      -6.759  16.149  67.400  1.00  0.00    -0.184 C  
HETATM   17  H   UNL     1      -4.794  15.995  67.768  1.00  0.00     0.000 HD 
ENDROOT
BRANCH  16  18
HETATM   18  C   UNL     1      -6.751  17.570  67.893  1.00  0.00    -0.183 A  
HETATM   19  C   UNL     1      -6.471  18.602  66.988  1.00  0.00    -0.199 A  
HETATM   20  C   UNL     1      -6.447  19.930  67.420  1.00  0.00    -0.227 A  
HETATM   21  C   UNL     1      -6.701  20.232  68.757  1.00  0.00    -0.275 A  
HETATM   22  C   UNL     1      -6.965  19.210  69.667  1.00  0.00    -0.125 A  
HETATM   23  C   UNL     1      -6.978  17.881  69.241  1.00  0.00    -0.146 A  
ENDBRANCH  16  18
TORSDOF 1
ENDMDL
MODEL      146
REMARK 921   NORMALIZED FREE ENERGY PREDICTED BY IDOCK:   -2.31 KCAL/MOL
REMARK 922        TOTAL FREE ENERGY PREDICTED BY IDOCK:   -2.87 KCAL/MOL
REMARK 923 INTER-LIGAND FREE ENERGY PREDICTED BY IDOCK:   -2.40 KCAL/MOL
REMARK 924 INTRA-LIGAND FREE ENERGY PREDICTED BY IDOCK:   -0.48 KCAL/MOL
REMARK 927      BINDING AFFINITY PREDICTED BY RF-SCORE:    0.00 PKD
ROOT
HETATM    1  O   UNL     1     -11.303  10.677  71.021  1.00  0.00    -0.186 OA 
HETATM    2  N   UNL     1     -12.030  11.398  70.326  1.00  0.00    -0.352 N  
HETATM    3  O   UNL     1     -13.268  11.392  70.357  1.00  0.00     0.168 OA 
HETATM    4  C   UNL     1     -11.377  12.320  69.386  1.00  0.00    -0.228 A  
HETATM    5  C   UNL     1      -9.980  12.389  69.341  1.00  0.00     0.739 A  
HETATM    6  C   UNL     1      -9.347  13.217  68.395  1.00  0.00    -0.154 A  
HETATM    7  C   UNL     1     -10.124  14.035  67.555  1.00  0.00    -0.237 A  
HETATM    8  N   UNL     1      -9.602  14.958  66.638  1.00  0.00    -0.252 N  
HETATM    9  C   UNL     1     -11.523  13.936  67.600  1.00  0.00    -0.354 A  
HETATM   10  C   UNL     1     -12.154  13.085  68.511  1.00  0.00    -0.185 A  
HETATM   11  H   UNL     1     -10.175  15.157  65.818  1.00  0.00     0.000 HD 
HETATM   12  C   UNL     1      -8.406  15.625  66.720  1.00  0.00    -0.278 C  
HETATM   13  C   UNL     1      -7.576  15.435  67.976  1.00  0.00    -0.127 C  
HETATM   14  O   UNL     1      -8.107  16.430  65.837  1.00  0.00    -0.201 OA 
HETATM   15  N   UNL     1      -7.057  14.075  68.041  1.00  0.00    -0.126 NA 
HETATM   16  C   UNL     1      -7.865  13.086  68.227  1.00  0.00    -0.143 C  
HETATM   17  H   UNL     1      -6.057  13.905  67.940  1.00  0.00     0.000 HD 
ENDROOT
BRANCH  16  18
HETATM   18  C   UNL     1      -7.252  11.713  68.246  1.00  0.00    -0.085 A  
HETATM   19  C   UNL     1      -7.393  10.890  67.121  1.00  0.00    -0.105 A  
HETATM   20  C   UNL     1      -6.843   9.607  67.115  1.00  0.00    -0.084 A  
HETATM   21  C   UNL     1      -6.151   9.139  68.232  1.00  0.00    -0.053 A  
HETATM   22  C   UNL     1      -6.020   9.947  69.360  1.00  0.00    -0.037 A  
HETATM   23  C   UNL     1      -6.579  11.226  69.374  1.00  0.00    -0.116 A  
ENDBRANCH  16  18
TORSDOF 1
ENDMDL
MODEL      147
REMARK 921   NORMALIZED FREE ENERGY PREDICTED BY IDOCK:   -2.11 KCAL/MOL
REMARK 922        TOTAL FREE ENERGY PREDICTED BY IDOCK:   -2.67 KCAL/MOL
REMARK 923 INTER-LIGAND FREE ENERGY PREDICTED BY IDOCK:   -3.09 KCAL/MOL
REMARK 924 INTRA-LIGAND FREE ENERGY PREDICTED BY IDOCK:    0.43 KCAL/MOL
REMARK 927      BINDING AFFINITY PREDICTED BY RF-SCORE:    0.00 PKD
ROOT
HETATM    1  O   UNL     1      -9.667   4.493  65.090  1.00  0.00    -0.171 OA 
HETATM    2  N   UNL     1      -8.489   4.394  64.724  1.00  0.00    -0.118 N  
HETATM    3  O   UNL     1      -7.867   3.327  64.624  1.00  0.00    -0.077 OA 
HETATM    4  C   UNL     1      -7.773   5.633  64.395  1.00  0.00    -0.097 A  
HETATM    5  C   UNL     1      -8.444   6.860  64.458  1.00  0.00     0.187 A  
HETATM    6  C   UNL     1      -7.745   8.057  64.213  1.00  0.00    -0.128 A  
HETATM    7  C   UNL     1      -6.394   8.009  63.824  1.00  0.00    -0.067 A  
HETATM    8  N   UNL     1      -5.626   9.128  63.473  1.00  0.00    -0.071 N  
HETATM    9  C   UNL     1      -5.733   6.771  63.787  1.00  0.00    -0.031 A  
HETATM   10  C   UNL     1      -6.414   5.584  64.069  1.00  0.00    -0.033 A  
HETATM   11  H   UNL     1      -4.622   9.058  63.637  1.00  0.00     0.000 HD 
HETATM   12  C   UNL     1      -6.074  10.307  62.935  1.00  0.00    -0.142 C  
HETATM   13  C   UNL     1      -7.546  10.408  62.579  1.00  0.00    -0.142 C  
HETATM   14  O   UNL     1      -5.258  11.187  62.656  1.00  0.00    -0.178 OA 
HETATM   15  N   UNL     1      -8.360  10.412  63.788  1.00  0.00    -0.221 NA 
HETATM   16  C   UNL     1      -8.439   9.349  64.515  1.00  0.00    -0.177 C  
HETATM   17  H   UNL     1      -8.868  11.254  64.059  1.00  0.00     0.000 HD 
ENDROOT
BRANCH  16  18
HETATM   18  C   UNL     1      -9.272   9.449  65.763  1.00  0.00    -0.276 A  
HETATM   19  C   UNL     1      -9.617   8.276  66.446  1.00  0.00    -0.300 A  
HETATM   20  C   UNL     1     -10.397   8.339  67.602  1.00  0.00    -0.313 A  
HETATM   21  C   UNL     1     -10.838   9.573  68.079  1.00  0.00    -0.225 A  
HETATM   22  C   UNL     1     -10.512  10.743  67.397  1.00  0.00    -0.268 A  
HETATM   23  C   UNL     1      -9.741  10.683  66.234  1.00  0.00    -0.245 A  
ENDBRANCH  16  18
TORSDOF 1
ENDMDL
MODEL      148
REMARK 921   NORMALIZED FREE ENERGY PREDICTED BY IDOCK:   -1.87 KCAL/MOL
REMARK 922        TOTAL FREE ENERGY PREDICTED BY IDOCK:   -2.41 KCAL/MOL
REMARK 923 INTER-LIGAND FREE ENERGY PREDICTED BY IDOCK:   -1.92 KCAL/MOL
REMARK 924 INTRA-LIGAND FREE ENERGY PREDICTED BY IDOCK:   -0.49 KCAL/MOL
REMARK 927      BINDING AFFINITY PREDICTED BY RF-SCORE:    0.00 PKD
ROOT
HETATM    1  O   UNL     1      -6.609  15.957  68.260  1.00  0.00    -0.111 OA 
HETATM    2  N   UNL     1      -7.659  16.298  68.818  1.00  0.00    -0.186 N  
HETATM    3  O   UNL     1      -7.890  17.435  69.254  1.00  0.00    -0.094 OA 
HETATM    4  C   UNL     1      -8.703  15.279  68.988  1.00  0.00    -0.226 A  
HETATM    5  C   UNL     1      -8.502  13.990  68.479  1.00  0.00    -0.143 A  
HETATM    6  C   UNL     1      -9.467  12.989  68.700  1.00  0.00    -0.007 A  
HETATM    7  C   UNL     1     -10.667  13.311  69.358  1.00  0.00     0.152 A  
HETATM    8  N   UNL     1     -11.731  12.419  69.557  1.00  0.00    -0.315 N  
HETATM    9  C   UNL     1     -10.841  14.603  69.879  1.00  0.00    -0.144 A  
HETATM   10  C   UNL     1      -9.867  15.588  69.697  1.00  0.00    -0.281 A  
HETATM   11  H   UNL     1     -12.317  12.588  70.374  1.00  0.00     0.000 HD 
HETATM   12  C   UNL     1     -12.071  11.345  68.774  1.00  0.00    -0.189 C  
HETATM   13  C   UNL     1     -11.287  11.127  67.493  1.00  0.00    -0.278 C  
HETATM   14  O   UNL     1     -13.059  10.674  69.074  1.00  0.00     0.526 OA 
HETATM   15  N   UNL     1      -9.917  10.733  67.798  1.00  0.00    -0.169 NA 
HETATM   16  C   UNL     1      -9.110  11.580  68.343  1.00  0.00    -0.185 C  
HETATM   17  H   UNL     1      -9.597   9.790  67.580  1.00  0.00     0.000 HD 
ENDROOT
BRANCH  16  18
HETATM   18  C   UNL     1      -7.726  11.081  68.657  1.00  0.00    -0.132 A  
HETATM   19  C   UNL     1      -6.842  10.820  67.602  1.00  0.00    -0.073 A  
HETATM   20  C   UNL     1      -5.555  10.348  67.863  1.00  0.00    -0.040 A  
HETATM   21  C   UNL     1      -5.145  10.132  69.178  1.00  0.00    -0.035 A  
HETATM   22  C   UNL     1      -6.024  10.374  70.232  1.00  0.00    -0.096 A  
HETATM   23  C   UNL     1      -7.315  10.836  69.974  1.00  0.00     0.110 A  
ENDBRANCH  16  18
TORSDOF 1
ENDMDL
MODEL      149
REMARK 921   NORMALIZED FREE ENERGY PREDICTED BY IDOCK:    2.61 KCAL/MOL
REMARK 922        TOTAL FREE ENERGY PREDICTED BY IDOCK:    2.33 KCAL/MOL
REMARK 923 INTER-LIGAND FREE ENERGY PREDICTED BY IDOCK:    2.54 KCAL/MOL
REMARK 924 INTRA-LIGAND FREE ENERGY PREDICTED BY IDOCK:   -0.21 KCAL/MOL
REMARK 927      BINDING AFFINITY PREDICTED BY RF-SCORE:    0.00 PKD
ROOT
HETATM    1  O   UNL     1     -11.459  17.503  70.144  1.00  0.00     1.415 OA 
HETATM    2  N   UNL     1     -10.697  18.047  69.335  1.00  0.00     0.409 N  
HETATM    3  O   UNL     1     -10.737  19.245  69.021  1.00  0.00     0.272 OA 
HETATM    4  C   UNL     1      -9.678  17.209  68.690  1.00  0.00    -0.293 A  
HETATM    5  C   UNL     1      -9.569  15.858  69.039  1.00  0.00    -0.247 A  
HETATM    6  C   UNL     1      -8.643  15.032  68.374  1.00  0.00    -0.162 A  
HETATM    7  C   UNL     1      -7.772  15.589  67.420  1.00  0.00    -0.194 A  
HETATM    8  N   UNL     1      -6.756  14.882  66.761  1.00  0.00     0.558 N  
HETATM    9  C   UNL     1      -7.909  16.941  67.069  1.00  0.00    -0.232 A  
HETATM   10  C   UNL     1      -8.856  17.754  67.698  1.00  0.00    -0.248 A  
HETATM   11  H   UNL     1      -6.498  15.218  65.834  1.00  0.00     0.000 HD 
HETATM   12  C   UNL     1      -6.070  13.788  67.225  1.00  0.00     0.424 C  
HETATM   13  C   UNL     1      -6.352  13.325  68.642  1.00  0.00    -0.087 C  
HETATM   14  O   UNL     1      -5.180  13.299  66.527  1.00  0.00     0.902 OA 
HETATM   15  N   UNL     1      -7.698  12.778  68.738  1.00  0.00    -0.297 NA 
HETATM   16  C   UNL     1      -8.720  13.556  68.613  1.00  0.00    -0.001 C  
HETATM   17  H   UNL     1      -7.834  11.781  68.905  1.00  0.00     0.000 HD 
ENDROOT
BRANCH  16  18
HETATM   18  C   UNL     1     -10.074  12.905  68.690  1.00  0.00    -0.136 A  
HETATM   19  C   UNL     1     -10.802  12.991  69.884  1.00  0.00     0.586 A  
HETATM   20  C   UNL     1     -12.057  12.388  69.987  1.00  0.00    -0.335 A  
HETATM   21  C   UNL     1     -12.589  11.694  68.900  1.00  0.00     0.675 A  
HETATM   22  C   UNL     1     -11.863  11.591  67.715  1.00  0.00    -0.228 A  
HETATM   23  C   UNL     1     -10.604  12.183  67.612  1.00  0.00    -0.236 A  
ENDBRANCH  16  18
TORSDOF 1
ENDMDL
MODEL      150
REMARK 921   NORMALIZED FREE ENERGY PREDICTED BY IDOCK:    7.25 KCAL/MOL
REMARK 922        TOTAL FREE ENERGY PREDICTED BY IDOCK:    7.25 KCAL/MOL
REMARK 923 INTER-LIGAND FREE ENERGY PREDICTED BY IDOCK:    7.22 KCAL/MOL
REMARK 924 INTRA-LIGAND FREE ENERGY PREDICTED BY IDOCK:    0.02 KCAL/MOL
REMARK 927      BINDING AFFINITY PREDICTED BY RF-SCORE:    0.00 PKD
ROOT
HETATM    1  O   UNL     1     -10.246  17.466  66.291  1.00  0.00    -0.327 OA 
HETATM    2  N   UNL     1      -9.408  16.721  65.767  1.00  0.00    -0.107 N  
HETATM    3  O   UNL     1      -9.173  16.666  64.552  1.00  0.00     2.765 OA 
HETATM    4  C   UNL     1      -8.646  15.827  66.649  1.00  0.00    -0.287 A  
HETATM    5  C   UNL     1      -8.851  15.879  68.033  1.00  0.00    -0.178 A  
HETATM    6  C   UNL     1      -8.176  14.977  68.877  1.00  0.00    -0.178 A  
HETATM    7  C   UNL     1      -7.236  14.083  68.333  1.00  0.00    -0.108 A  
HETATM    8  N   UNL     1      -6.445  13.203  69.086  1.00  0.00    -0.103 N  
HETATM    9  C   UNL     1      -7.059  14.032  66.942  1.00  0.00     0.903 A  
HETATM   10  C   UNL     1      -7.757  14.899  66.097  1.00  0.00     2.039 A  
HETATM   11  H   UNL     1      -6.152  12.345  68.620  1.00  0.00     0.000 HD 
HETATM   12  C   UNL     1      -6.023  13.367  70.381  1.00  0.00    -0.132 C  
HETATM   13  C   UNL     1      -6.351  14.677  71.072  1.00  0.00     0.161 C  
HETATM   14  O   UNL     1      -5.305  12.505  70.891  1.00  0.00    -0.147 OA 
HETATM   15  N   UNL     1      -7.785  14.781  71.309  1.00  0.00     1.693 NA 
HETATM   16  C   UNL     1      -8.595  14.912  70.313  1.00  0.00     0.983 C  
HETATM   17  H   UNL     1      -8.149  14.750  72.261  1.00  0.00     0.000 HD 
ENDROOT
BRANCH  16  18
HETATM   18  C   UNL     1     -10.061  14.976  70.643  1.00  0.00     0.505 A  
HETATM   19  C   UNL     1     -10.450  15.253  71.960  1.00  0.00     1.352 A  
HETATM   20  C   UNL     1     -11.803  15.310  72.297  1.00  0.00    -0.529 A  
HETATM   21  C   UNL     1     -12.774  15.086  71.322  1.00  0.00    -0.419 A  
HETATM   22  C   UNL     1     -12.395  14.794  70.013  1.00  0.00    -0.365 A  
HETATM   23  C   UNL     1     -11.043  14.726  69.675  1.00  0.00    -0.299 A  
ENDBRANCH  16  18
TORSDOF 1
ENDMDL
MODEL      151
REMARK 921   NORMALIZED FREE ENERGY PREDICTED BY IDOCK:    7.44 KCAL/MOL
REMARK 922        TOTAL FREE ENERGY PREDICTED BY IDOCK:    7.44 KCAL/MOL
REMARK 923 INTER-LIGAND FREE ENERGY PREDICTED BY IDOCK:    7.65 KCAL/MOL
REMARK 924 INTRA-LIGAND FREE ENERGY PREDICTED BY IDOCK:   -0.21 KCAL/MOL
REMARK 927      BINDING AFFINITY PREDICTED BY RF-SCORE:    0.00 PKD
ROOT
HETATM    1  O   UNL     1     -11.763  19.075  70.789  1.00  0.00     6.123 OA 
HETATM    2  N   UNL     1     -11.015  19.854  70.184  1.00  0.00     1.761 N  
HETATM    3  O   UNL     1     -11.115  21.088  70.205  1.00  0.00     1.213 OA 
HETATM    4  C   UNL     1      -9.939  19.271  69.373  1.00  0.00    -0.087 A  
HETATM    5  C   UNL     1      -9.764  17.883  69.347  1.00  0.00     0.146 A  
HETATM    6  C   UNL     1      -8.780  17.313  68.517  1.00  0.00    -0.273 A  
HETATM    7  C   UNL     1      -7.922  18.148  67.780  1.00  0.00    -0.237 A  
HETATM    8  N   UNL     1      -6.855  17.696  66.989  1.00  0.00    -0.163 N  
HETATM    9  C   UNL     1      -8.126  19.537  67.802  1.00  0.00    -0.331 A  
HETATM   10  C   UNL     1      -9.128  20.103  68.594  1.00  0.00     0.042 A  
HETATM   11  H   UNL     1      -6.597  18.283  66.197  1.00  0.00     0.000 HD 
HETATM   12  C   UNL     1      -6.119  16.551  67.164  1.00  0.00    -0.161 C  
HETATM   13  C   UNL     1      -6.404  15.708  68.393  1.00  0.00    -0.111 C  
HETATM   14  O   UNL     1      -5.190  16.313  66.391  1.00  0.00    -0.063 OA 
HETATM   15  N   UNL     1      -7.721  15.092  68.291  1.00  0.00    -0.113 NA 
HETATM   16  C   UNL     1      -8.781  15.826  68.345  1.00  0.00    -0.177 C  
HETATM   17  H   UNL     1      -7.805  14.082  68.178  1.00  0.00     0.000 HD 
ENDROOT
BRANCH  16  18
HETATM   18  C   UNL     1     -10.098  15.115  68.197  1.00  0.00    -0.222 A  
HETATM   19  C   UNL     1     -11.130  15.736  67.482  1.00  0.00    -0.258 A  
HETATM   20  C   UNL     1     -12.365  15.103  67.336  1.00  0.00     0.608 A  
HETATM   21  C   UNL     1     -12.577  13.849  67.907  1.00  0.00     0.524 A  
HETATM   22  C   UNL     1     -11.561  13.231  68.633  1.00  0.00    -0.362 A  
HETATM   23  C   UNL     1     -10.328  13.865  68.790  1.00  0.00    -0.210 A  
ENDBRANCH  16  18
TORSDOF 1
ENDMDL
MODEL      152
REMARK 921   NORMALIZED FREE ENERGY PREDICTED BY IDOCK:   10.24 KCAL/MOL
REMARK 922        TOTAL FREE ENERGY PREDICTED BY IDOCK:   10.41 KCAL/MOL
REMARK 923 INTER-LIGAND FREE ENERGY PREDICTED BY IDOCK:   10.27 KCAL/MOL
REMARK 924 INTRA-LIGAND FREE ENERGY PREDICTED BY IDOCK:    0.14 KCAL/MOL
REMARK 927      BINDING AFFINITY PREDICTED BY RF-SCORE:    0.00 PKD
ROOT
HETATM    1  O   UNL     1     -12.780   7.034  66.673  1.00  0.00     5.705 OA 
HETATM    2  N   UNL     1     -11.782   6.365  66.376  1.00  0.00     1.267 N  
HETATM    3  O   UNL     1     -11.627   5.765  65.303  1.00  0.00     2.165 OA 
HETATM    4  C   UNL     1     -10.710   6.262  67.374  1.00  0.00    -0.331 A  
HETATM    5  C   UNL     1     -10.823   6.951  68.587  1.00  0.00    -0.236 A  
HETATM    6  C   UNL     1      -9.833   6.801  69.576  1.00  0.00    -0.164 A  
HETATM    7  C   UNL     1      -8.692   6.024  69.307  1.00  0.00    -0.117 A  
HETATM    8  N   UNL     1      -7.606   5.875  70.182  1.00  0.00    -0.088 N  
HETATM    9  C   UNL     1      -8.605   5.325  68.094  1.00  0.00    -0.099 A  
HETATM   10  C   UNL     1      -9.606   5.440  67.126  1.00  0.00    -0.144 A  
HETATM   11  H   UNL     1      -7.080   5.005  70.108  1.00  0.00     0.000 HD 
HETATM   12  C   UNL     1      -7.172   6.770  71.128  1.00  0.00    -0.077 C  
HETATM   13  C   UNL     1      -7.863   8.119  71.195  1.00  0.00    -0.093 C  
HETATM   14  O   UNL     1      -6.177   6.495  71.800  1.00  0.00    -0.041 OA 
HETATM   15  N   UNL     1      -9.231   7.964  71.672  1.00  0.00    -0.136 NA 
HETATM   16  C   UNL     1     -10.106   7.367  70.935  1.00  0.00    -0.188 C  
HETATM   17  H   UNL     1      -9.497   8.328  72.587  1.00  0.00     0.000 HD 
ENDROOT
BRANCH  16  18
HETATM   18  C   UNL     1     -11.485   7.219  71.517  1.00  0.00    -0.292 A  
HETATM   19  C   UNL     1     -11.791   7.873  72.718  1.00  0.00    -0.287 A  
HETATM   20  C   UNL     1     -13.059   7.746  73.285  1.00  0.00     1.875 A  
HETATM   21  C   UNL     1     -14.028   6.963  72.659  1.00  0.00     0.673 A  
HETATM   22  C   UNL     1     -13.727   6.296  71.473  1.00  0.00     0.732 A  
HETATM   23  C   UNL     1     -12.456   6.412  70.908  1.00  0.00     0.144 A  
ENDBRANCH  16  18
TORSDOF 1
ENDMDL
MODEL      153
REMARK 921   NORMALIZED FREE ENERGY PREDICTED BY IDOCK:   10.56 KCAL/MOL
REMARK 922        TOTAL FREE ENERGY PREDICTED BY IDOCK:   10.74 KCAL/MOL
REMARK 923 INTER-LIGAND FREE ENERGY PREDICTED BY IDOCK:   10.76 KCAL/MOL
REMARK 924 INTRA-LIGAND FREE ENERGY PREDICTED BY IDOCK:   -0.02 KCAL/MOL
REMARK 927      BINDING AFFINITY PREDICTED BY RF-SCORE:    0.00 PKD
ROOT
HETATM    1  O   UNL     1      -8.701  15.022  72.181  1.00  0.00     4.452 OA 
HETATM    2  N   UNL     1      -7.541  14.650  71.964  1.00  0.00     3.541 N  
HETATM    3  O   UNL     1      -6.611  14.724  72.779  1.00  0.00     1.021 OA 
HETATM    4  C   UNL     1      -7.241  14.093  70.639  1.00  0.00     1.140 A  
HETATM    5  C   UNL     1      -8.267  13.957  69.696  1.00  0.00     0.918 A  
HETATM    6  C   UNL     1      -7.974  13.490  68.400  1.00  0.00    -0.142 A  
HETATM    7  C   UNL     1      -6.665  13.084  68.086  1.00  0.00    -0.103 A  
HETATM    8  N   UNL     1      -6.277  12.524  66.859  1.00  0.00    -0.221 N  
HETATM    9  C   UNL     1      -5.646  13.247  69.037  1.00  0.00    -0.074 A  
HETATM   10  C   UNL     1      -5.926  13.748  70.311  1.00  0.00    -0.152 A  
HETATM   11  H   UNL     1      -5.308  12.674  66.579  1.00  0.00     0.000 HD 
HETATM   12  C   UNL     1      -7.057  11.799  65.994  1.00  0.00     0.696 C  
HETATM   13  C   UNL     1      -8.473  11.467  66.427  1.00  0.00    -0.160 C  
HETATM   14  O   UNL     1      -6.551  11.351  64.964  1.00  0.00     0.740 OA 
HETATM   15  N   UNL     1      -9.286  12.674  66.472  1.00  0.00    -0.317 NA 
HETATM   16  C   UNL     1      -9.049  13.578  67.362  1.00  0.00    -0.219 C  
HETATM   17  H   UNL     1     -10.042  12.806  65.800  1.00  0.00     0.000 HD 
ENDROOT
BRANCH  16  18
HETATM   18  C   UNL     1      -9.912  14.809  67.316  1.00  0.00    -0.231 A  
HETATM   19  C   UNL     1      -9.835  15.652  66.200  1.00  0.00    -0.340 A  
HETATM   20  C   UNL     1     -10.618  16.806  66.135  1.00  0.00    -0.212 A  
HETATM   21  C   UNL     1     -11.478  17.125  67.184  1.00  0.00     0.795 A  
HETATM   22  C   UNL     1     -11.549  16.300  68.305  1.00  0.00    -0.118 A  
HETATM   23  C   UNL     1     -10.760  15.151  68.379  1.00  0.00    -0.248 A  
ENDBRANCH  16  18
TORSDOF 1
ENDMDL
MODEL      154
REMARK 921   NORMALIZED FREE ENERGY PREDICTED BY IDOCK:   12.37 KCAL/MOL
REMARK 922        TOTAL FREE ENERGY PREDICTED BY IDOCK:   12.66 KCAL/MOL
REMARK 923 INTER-LIGAND FREE ENERGY PREDICTED BY IDOCK:   12.98 KCAL/MOL
REMARK 924 INTRA-LIGAND FREE ENERGY PREDICTED BY IDOCK:   -0.33 KCAL/MOL
REMARK 927      BINDING AFFINITY PREDICTED BY RF-SCORE:    0.00 PKD
ROOT
HETATM    1  O   UNL     1     -12.487   7.687  68.654  1.00  0.00     3.230 OA 
HETATM    2  N   UNL     1     -12.387   6.476  68.892  1.00  0.00     2.095 N  
HETATM    3  O   UNL     1     -13.253   5.794  69.458  1.00  0.00     6.526 OA 
HETATM    4  C   UNL     1     -11.147   5.802  68.488  1.00  0.00     0.042 A  
HETATM    5  C   UNL     1     -10.155   6.524  67.814  1.00  0.00    -0.176 A  
HETATM    6  C   UNL     1      -8.934   5.903  67.486  1.00  0.00    -0.107 A  
HETATM    7  C   UNL     1      -8.751   4.536  67.763  1.00  0.00    -0.104 A  
HETATM    8  N   UNL     1      -7.615   3.796  67.405  1.00  0.00    -0.074 N  
HETATM    9  C   UNL     1      -9.749   3.835  68.458  1.00  0.00    -0.089 A  
HETATM   10  C   UNL     1     -10.945   4.460  68.821  1.00  0.00     2.461 A  
HETATM   11  H   UNL     1      -7.388   2.998  67.998  1.00  0.00     0.000 HD 
HETATM   12  C   UNL     1      -6.775   4.025  66.345  1.00  0.00    -0.053 C  
HETATM   13  C   UNL     1      -7.141   5.138  65.380  1.00  0.00    -0.067 C  
HETATM   14  O   UNL     1      -5.830   3.258  66.153  1.00  0.00    -0.021 OA 
HETATM   15  N   UNL     1      -7.010   6.436  66.030  1.00  0.00    -0.060 NA 
HETATM   16  C   UNL     1      -7.822   6.766  66.977  1.00  0.00    -0.104 C  
HETATM   17  H   UNL     1      -6.279   7.083  65.736  1.00  0.00     0.000 HD 
ENDROOT
BRANCH  16  18
HETATM   18  C   UNL     1      -7.596   8.108  67.617  1.00  0.00    -0.098 A  
HETATM   19  C   UNL     1      -8.277   9.224  67.115  1.00  0.00    -0.117 A  
HETATM   20  C   UNL     1      -8.080  10.484  67.684  1.00  0.00    -0.107 A  
HETATM   21  C   UNL     1      -7.199  10.635  68.754  1.00  0.00    -0.087 A  
HETATM   22  C   UNL     1      -6.506   9.532  69.249  1.00  0.00    -0.044 A  
HETATM   23  C   UNL     1      -6.693   8.273  68.676  1.00  0.00    -0.059 A  
ENDBRANCH  16  18
TORSDOF 1
ENDMDL
MODEL      155
REMARK 921   NORMALIZED FREE ENERGY PREDICTED BY IDOCK:   12.88 KCAL/MOL
REMARK 922        TOTAL FREE ENERGY PREDICTED BY IDOCK:   13.20 KCAL/MOL
REMARK 923 INTER-LIGAND FREE ENERGY PREDICTED BY IDOCK:   13.08 KCAL/MOL
REMARK 924 INTRA-LIGAND FREE ENERGY PREDICTED BY IDOCK:    0.12 KCAL/MOL
REMARK 927      BINDING AFFINITY PREDICTED BY RF-SCORE:    0.00 PKD
ROOT
HETATM    1  O   UNL     1      -8.042  15.362  64.478  1.00  0.00     6.531 OA 
HETATM    2  N   UNL     1      -8.934  14.521  64.311  1.00  0.00     4.955 N  
HETATM    3  O   UNL     1      -9.054  13.808  63.305  1.00  0.00     5.375 OA 
HETATM    4  C   UNL     1      -9.932  14.366  65.378  1.00  0.00    -0.311 A  
HETATM    5  C   UNL     1      -9.818  15.124  66.549  1.00  0.00    -0.278 A  
HETATM    6  C   UNL     1     -10.809  15.033  67.545  1.00  0.00    -0.297 A  
HETATM    7  C   UNL     1     -11.866  14.117  67.394  1.00  0.00    -0.413 A  
HETATM    8  N   UNL     1     -12.859  13.881  68.356  1.00  0.00     0.407 N  
HETATM    9  C   UNL     1     -11.975  13.381  66.204  1.00  0.00    -0.460 A  
HETATM   10  C   UNL     1     -11.014  13.499  65.196  1.00  0.00    -0.328 A  
HETATM   11  H   UNL     1     -13.764  13.568  68.006  1.00  0.00     0.000 HD 
HETATM   12  C   UNL     1     -12.747  14.024  69.716  1.00  0.00     0.077 C  
HETATM   13  C   UNL     1     -11.386  14.386  70.280  1.00  0.00    -0.132 C  
HETATM   14  O   UNL     1     -13.713  13.746  70.429  1.00  0.00     0.532 OA 
HETATM   15  N   UNL     1     -11.024  15.745  69.901  1.00  0.00    -0.301 NA 
HETATM   16  C   UNL     1     -10.771  16.023  68.667  1.00  0.00    -0.281 C  
HETATM   17  H   UNL     1     -10.972  16.476  70.610  1.00  0.00     0.000 HD 
ENDROOT
BRANCH  16  18
HETATM   18  C   UNL     1     -10.440  17.457  68.356  1.00  0.00    -0.384 A  
HETATM   19  C   UNL     1     -10.224  18.350  69.413  1.00  0.00     0.172 A  
HETATM   20  C   UNL     1      -9.925  19.689  69.154  1.00  0.00    -0.416 A  
HETATM   21  C   UNL     1      -9.843  20.143  67.838  1.00  0.00    -0.525 A  
HETATM   22  C   UNL     1     -10.073  19.264  66.781  1.00  0.00    -0.480 A  
HETATM   23  C   UNL     1     -10.383  17.928  67.037  1.00  0.00    -0.366 A  
ENDBRANCH  16  18
TORSDOF 1
ENDMDL
MODEL      156
REMARK 921   NORMALIZED FREE ENERGY PREDICTED BY IDOCK:   16.97 KCAL/MOL
REMARK 922        TOTAL FREE ENERGY PREDICTED BY IDOCK:   17.54 KCAL/MOL
REMARK 923 INTER-LIGAND FREE ENERGY PREDICTED BY IDOCK:   17.65 KCAL/MOL
REMARK 924 INTRA-LIGAND FREE ENERGY PREDICTED BY IDOCK:   -0.11 KCAL/MOL
REMARK 927      BINDING AFFINITY PREDICTED BY RF-SCORE:    0.00 PKD
ROOT
HETATM    1  O   UNL     1     -11.474  16.246  65.976  1.00  0.00     0.311 OA 
HETATM    2  N   UNL     1     -10.381  16.415  65.421  1.00  0.00    -0.313 N  
HETATM    3  O   UNL     1     -10.113  16.059  64.265  1.00  0.00     0.721 OA 
HETATM    4  C   UNL     1      -9.320  17.074  66.193  1.00  0.00    -0.214 A  
HETATM    5  C   UNL     1      -9.586  17.526  67.491  1.00  0.00    -0.265 A  
HETATM    6  C   UNL     1      -8.555  18.095  68.263  1.00  0.00    -0.298 A  
HETATM    7  C   UNL     1      -7.282  18.282  67.695  1.00  0.00    -0.210 A  
HETATM    8  N   UNL     1      -6.208  18.914  68.339  1.00  0.00    -0.218 N  
HETATM    9  C   UNL     1      -7.028  17.804  66.400  1.00  0.00    -0.288 A  
HETATM   10  C   UNL     1      -8.040  17.202  65.646  1.00  0.00     0.584 A  
HETATM   11  H   UNL     1      -5.273  18.621  68.054  1.00  0.00     0.000 HD 
HETATM   12  C   UNL     1      -6.274  19.882  69.309  1.00  0.00    -0.317 C  
HETATM   13  C   UNL     1      -7.644  20.418  69.681  1.00  0.00     0.718 C  
HETATM   14  O   UNL     1      -5.228  20.356  69.754  1.00  0.00    -0.222 OA 
HETATM   15  N   UNL     1      -8.422  19.391  70.362  1.00  0.00     1.482 NA 
HETATM   16  C   UNL     1      -8.823  18.350  69.714  1.00  0.00     1.163 C  
HETATM   17  H   UNL     1      -8.650  19.495  71.351  1.00  0.00     0.000 HD 
ENDROOT
BRANCH  16  18
HETATM   18  C   UNL     1      -9.590  17.323  70.500  1.00  0.00     2.876 A  
HETATM   19  C   UNL     1     -10.968  17.194  70.288  1.00  0.00     0.624 A  
HETATM   20  C   UNL     1     -11.707  16.256  71.011  1.00  0.00    -0.317 A  
HETATM   21  C   UNL     1     -11.073  15.444  71.951  1.00  0.00    -0.241 A  
HETATM   22  C   UNL     1      -9.704  15.577  72.178  1.00  0.00     4.530 A  
HETATM   23  C   UNL     1      -8.965  16.521  71.465  1.00  0.00     7.542 A  
ENDBRANCH  16  18
TORSDOF 1
ENDMDL
MODEL      157
REMARK 921   NORMALIZED FREE ENERGY PREDICTED BY IDOCK:   19.79 KCAL/MOL
REMARK 922        TOTAL FREE ENERGY PREDICTED BY IDOCK:   20.52 KCAL/MOL
REMARK 923 INTER-LIGAND FREE ENERGY PREDICTED BY IDOCK:   21.01 KCAL/MOL
REMARK 924 INTRA-LIGAND FREE ENERGY PREDICTED BY IDOCK:   -0.49 KCAL/MOL
REMARK 927      BINDING AFFINITY PREDICTED BY RF-SCORE:    0.00 PKD
ROOT
HETATM    1  O   UNL     1      -7.823  13.197  73.491  1.00  0.00     8.512 OA 
HETATM    2  N   UNL     1      -6.698  12.870  73.093  1.00  0.00     4.913 N  
HETATM    3  O   UNL     1      -5.689  12.797  73.808  1.00  0.00     0.163 OA 
HETATM    4  C   UNL     1      -6.544  12.560  71.666  1.00  0.00     3.753 A  
HETATM    5  C   UNL     1      -7.662  12.594  70.824  1.00  0.00     5.491 A  
HETATM    6  C   UNL     1      -7.510  12.367  69.443  1.00  0.00     0.400 A  
HETATM    7  C   UNL     1      -6.247  12.024  68.928  1.00  0.00    -0.072 A  
HETATM    8  N   UNL     1      -5.996  11.694  67.589  1.00  0.00    -0.056 N  
HETATM    9  C   UNL     1      -5.135  12.015  69.784  1.00  0.00    -0.073 A  
HETATM   10  C   UNL     1      -5.276  12.280  71.149  1.00  0.00    -0.130 A  
HETATM   11  H   UNL     1      -5.058  11.892  67.241  1.00  0.00     0.000 HD 
HETATM   12  C   UNL     1      -6.872  11.135  66.693  1.00  0.00    -0.137 C  
HETATM   13  C   UNL     1      -8.243  10.730  67.203  1.00  0.00    -0.123 C  
HETATM   14  O   UNL     1      -6.481  10.880  65.553  1.00  0.00    -0.058 OA 
HETATM   15  N   UNL     1      -9.025  11.910  67.546  1.00  0.00    -0.166 NA 
HETATM   16  C   UNL     1      -8.683  12.639  68.554  1.00  0.00    -0.048 C  
HETATM   17  H   UNL     1      -9.843  12.160  66.990  1.00  0.00     0.000 HD 
ENDROOT
BRANCH  16  18
HETATM   18  C   UNL     1      -9.524  13.859  68.817  1.00  0.00    -0.045 A  
HETATM   19  C   UNL     1     -10.860  13.693  69.205  1.00  0.00    -0.189 A  
HETATM   20  C   UNL     1     -11.666  14.806  69.446  1.00  0.00    -0.358 A  
HETATM   21  C   UNL     1     -11.143  16.091  69.299  1.00  0.00    -0.331 A  
HETATM   22  C   UNL     1      -9.820  16.264  68.898  1.00  0.00    -0.246 A  
HETATM   23  C   UNL     1      -9.014  15.153  68.645  1.00  0.00    -0.191 A  
ENDBRANCH  16  18
TORSDOF 1
ENDMDL
MODEL      158
REMARK 921   NORMALIZED FREE ENERGY PREDICTED BY IDOCK:   21.26 KCAL/MOL
REMARK 922        TOTAL FREE ENERGY PREDICTED BY IDOCK:   22.08 KCAL/MOL
REMARK 923 INTER-LIGAND FREE ENERGY PREDICTED BY IDOCK:   22.23 KCAL/MOL
REMARK 924 INTRA-LIGAND FREE ENERGY PREDICTED BY IDOCK:   -0.15 KCAL/MOL
REMARK 927      BINDING AFFINITY PREDICTED BY RF-SCORE:    0.00 PKD
ROOT
HETATM    1  O   UNL     1      -8.291  15.584  66.107  1.00  0.00    -0.134 OA 
HETATM    2  N   UNL     1      -7.386  14.745  66.209  1.00  0.00     2.014 N  
HETATM    3  O   UNL     1      -6.780  14.241  65.253  1.00  0.00     9.603 OA 
HETATM    4  C   UNL     1      -7.014  14.305  67.559  1.00  0.00    -0.155 A  
HETATM    5  C   UNL     1      -7.646  14.873  68.672  1.00  0.00    -0.124 A  
HETATM    6  C   UNL     1      -7.345  14.406  69.966  1.00  0.00     0.271 A  
HETATM    7  C   UNL     1      -6.349  13.429  70.140  1.00  0.00     0.011 A  
HETATM    8  N   UNL     1      -5.907  12.954  71.383  1.00  0.00    -0.084 N  
HETATM    9  C   UNL     1      -5.741  12.858  69.011  1.00  0.00    -0.072 A  
HETATM   10  C   UNL     1      -6.067  13.290  67.723  1.00  0.00    -0.154 A  
HETATM   11  H   UNL     1      -5.544  12.002  71.402  1.00  0.00     0.000 HD 
HETATM   12  C   UNL     1      -5.910  13.628  72.578  1.00  0.00     0.465 C  
HETATM   13  C   UNL     1      -6.345  15.082  72.569  1.00  0.00     1.462 C  
HETATM   14  O   UNL     1      -5.458  13.072  73.581  1.00  0.00    -0.320 OA 
HETATM   15  N   UNL     1      -7.767  15.184  72.273  1.00  0.00     4.252 NA 
HETATM   16  C   UNL     1      -8.204  14.875  71.099  1.00  0.00     3.118 C  
HETATM   17  H   UNL     1      -8.418  15.501  72.992  1.00  0.00     0.000 HD 
ENDROOT
BRANCH  16  18
HETATM   18  C   UNL     1      -9.690  14.975  70.887  1.00  0.00     1.439 A  
HETATM   19  C   UNL     1     -10.421  15.913  71.627  1.00  0.00     1.322 A  
HETATM   20  C   UNL     1     -11.802  16.022  71.458  1.00  0.00    -0.554 A  
HETATM   21  C   UNL     1     -12.461  15.192  70.551  1.00  0.00    -0.429 A  
HETATM   22  C   UNL     1     -11.743  14.245  69.823  1.00  0.00    -0.367 A  
HETATM   23  C   UNL     1     -10.364  14.127  69.997  1.00  0.00     0.664 A  
ENDBRANCH  16  18
TORSDOF 1
ENDMDL
MODEL      159
REMARK 921   NORMALIZED FREE ENERGY PREDICTED BY IDOCK:   29.70 KCAL/MOL
REMARK 922        TOTAL FREE ENERGY PREDICTED BY IDOCK:   31.01 KCAL/MOL
REMARK 923 INTER-LIGAND FREE ENERGY PREDICTED BY IDOCK:   30.87 KCAL/MOL
REMARK 924 INTRA-LIGAND FREE ENERGY PREDICTED BY IDOCK:    0.14 KCAL/MOL
REMARK 927      BINDING AFFINITY PREDICTED BY RF-SCORE:    0.00 PKD
ROOT
HETATM    1  O   UNL     1      -7.505  15.559  64.142  1.00  0.00    11.999 OA 
HETATM    2  N   UNL     1      -8.318  14.723  64.556  1.00  0.00     7.551 N  
HETATM    3  O   UNL     1      -8.686  13.723  63.924  1.00  0.00     4.814 OA 
HETATM    4  C   UNL     1      -8.897  14.937  65.888  1.00  0.00     0.415 A  
HETATM    5  C   UNL     1      -8.485  16.033  66.656  1.00  0.00    -0.323 A  
HETATM    6  C   UNL     1      -9.087  16.284  67.903  1.00  0.00    -0.196 A  
HETATM    7  C   UNL     1     -10.041  15.384  68.410  1.00  0.00    -0.215 A  
HETATM    8  N   UNL     1     -10.641  15.487  69.674  1.00  0.00    -0.261 N  
HETATM    9  C   UNL     1     -10.457  14.303  67.618  1.00  0.00    -0.248 A  
HETATM   10  C   UNL     1      -9.890  14.073  66.361  1.00  0.00    -0.306 A  
HETATM   11  H   UNL     1     -11.576  15.090  69.765  1.00  0.00     0.000 HD 
HETATM   12  C   UNL     1     -10.110  16.063  70.800  1.00  0.00     1.008 C  
HETATM   13  C   UNL     1      -8.681  16.569  70.730  1.00  0.00     4.113 C  
HETATM   14  O   UNL     1     -10.762  16.045  71.846  1.00  0.00     0.601 OA 
HETATM   15  N   UNL     1      -8.596  17.726  69.849  1.00  0.00     1.418 NA 
HETATM   16  C   UNL     1      -8.783  17.584  68.580  1.00  0.00    -0.282 C  
HETATM   17  H   UNL     1      -8.388  18.647  70.234  1.00  0.00     0.000 HD 
ENDROOT
BRANCH  16  18
HETATM   18  C   UNL     1      -8.712  18.835  67.747  1.00  0.00    -0.309 A  
HETATM   19  C   UNL     1      -9.214  18.811  66.439  1.00  0.00    -0.312 A  
HETATM   20  C   UNL     1      -9.152  19.954  65.641  1.00  0.00     0.171 A  
HETATM   21  C   UNL     1      -8.587  21.125  66.143  1.00  0.00     1.329 A  
HETATM   22  C   UNL     1      -8.071  21.153  67.437  1.00  0.00     0.098 A  
HETATM   23  C   UNL     1      -8.121  20.009  68.235  1.00  0.00    -0.194 A  
ENDBRANCH  16  18
TORSDOF 1
ENDMDL
MODEL      160
REMARK 921   NORMALIZED FREE ENERGY PREDICTED BY IDOCK:   63.31 KCAL/MOL
REMARK 922        TOTAL FREE ENERGY PREDICTED BY IDOCK:   66.58 KCAL/MOL
REMARK 923 INTER-LIGAND FREE ENERGY PREDICTED BY IDOCK:   66.67 KCAL/MOL
REMARK 924 INTRA-LIGAND FREE ENERGY PREDICTED BY IDOCK:   -0.09 KCAL/MOL
REMARK 927      BINDING AFFINITY PREDICTED BY RF-SCORE:    0.00 PKD
ROOT
HETATM    1  O   UNL     1     -13.269  19.458  71.928  1.00  0.00    19.957 OA 
HETATM    2  N   UNL     1     -12.935  20.363  71.152  1.00  0.00    17.724 N  
HETATM    3  O   UNL     1     -13.621  21.362  70.894  1.00  0.00     8.205 OA 
HETATM    4  C   UNL     1     -11.637  20.237  70.477  1.00  0.00     6.446 A  
HETATM    5  C   UNL     1     -10.810  19.144  70.763  1.00  0.00     3.069 A  
HETATM    6  C   UNL     1      -9.597  18.979  70.069  1.00  0.00     0.873 A  
HETATM    7  C   UNL     1      -9.181  19.959  69.150  1.00  0.00     0.065 A  
HETATM    8  N   UNL     1      -7.956  19.943  68.467  1.00  0.00    -0.243 N  
HETATM    9  C   UNL     1     -10.032  21.037  68.862  1.00  0.00     0.933 A  
HETATM   10  C   UNL     1     -11.256  21.182  69.520  1.00  0.00     1.947 A  
HETATM   11  H   UNL     1      -7.937  20.406  67.559  1.00  0.00     0.000 HD 
HETATM   12  C   UNL     1      -6.780  19.373  68.885  1.00  0.00    -0.313 C  
HETATM   13  C   UNL     1      -6.742  18.769  70.276  1.00  0.00     0.492 C  
HETATM   14  O   UNL     1      -5.780  19.473  68.173  1.00  0.00    -0.199 OA 
HETATM   15  N   UNL     1      -7.579  17.578  70.335  1.00  0.00     2.434 NA 
HETATM   16  C   UNL     1      -8.861  17.686  70.237  1.00  0.00     3.081 C  
HETATM   17  H   UNL     1      -7.152  16.659  70.453  1.00  0.00     0.000 HD 
ENDROOT
BRANCH  16  18
HETATM   18  C   UNL     1      -9.648  16.405  70.272  1.00  0.00     1.190 A  
HETATM   19  C   UNL     1      -9.550  15.517  69.192  1.00  0.00    -0.253 A  
HETATM   20  C   UNL     1     -10.276  14.325  69.194  1.00  0.00    -0.100 A  
HETATM   21  C   UNL     1     -11.105  14.014  70.271  1.00  0.00     0.191 A  
HETATM   22  C   UNL     1     -11.219  14.899  71.342  1.00  0.00    -0.160 A  
HETATM   23  C   UNL     1     -10.503  16.097  71.339  1.00  0.00     1.333 A  
ENDBRANCH  16  18
TORSDOF 1
ENDMDL
