MODEL        1
REMARK 921   NORMALIZED FREE ENERGY PREDICTED BY IDOCK:   -6.78 KCAL/MOL
REMARK 922        TOTAL FREE ENERGY PREDICTED BY IDOCK:  -10.30 KCAL/MOL
REMARK 923 INTER-LIGAND FREE ENERGY PREDICTED BY IDOCK:   -9.15 KCAL/MOL
REMARK 924 INTRA-LIGAND FREE ENERGY PREDICTED BY IDOCK:   -1.15 KCAL/MOL
REMARK 927      BINDING AFFINITY PREDICTED BY RF-SCORE:    0.00 PKD
ROOT
HETATM    1  C   UNL     1     -12.282  15.425  74.220  1.00  0.00    -0.751 C  
HETATM    2  C   UNL     1     -11.970  16.202  72.954  1.00  0.00    -0.520 C  
ENDROOT
BRANCH   2   3
HETATM    3  O   UNL     1     -11.699  15.232  71.932  1.00  0.00    -0.370 OA 
BRANCH   3   4
HETATM    4  C   UNL     1     -12.643  15.113  70.966  1.00  0.00    -0.377 C  
HETATM    5  O   UNL     1     -13.619  15.838  70.836  1.00  0.00    -0.538 OA 
BRANCH   4   6
HETATM    6  C   UNL     1     -12.263  14.022  70.033  1.00  0.00    -0.414 C  
HETATM    7  C   UNL     1     -12.401  12.726  70.396  1.00  0.00    -0.247 C  
HETATM    8  N   UNL     1     -12.054  11.728  69.501  1.00  0.00    -0.280 NA 
HETATM    9  C   UNL     1     -12.931  12.189  71.707  1.00  0.00    -0.437 C  
HETATM   10  C   UNL     1     -11.465  11.932  68.271  1.00  0.00    -0.311 C  
HETATM   11  C   UNL     1     -11.089  10.669  67.528  1.00  0.00    -0.367 C  
HETATM   12  C   UNL     1     -11.269  13.190  67.810  1.00  0.00    -0.308 C  
HETATM   13  C   UNL     1     -11.727  14.405  68.637  1.00  0.00    -0.367 C  
BRANCH  12  14
HETATM   14  C   UNL     1     -10.558  13.369  66.515  1.00  0.00    -0.287 C  
HETATM   15  O   UNL     1      -9.363  13.164  66.355  1.00  0.00    -0.246 OA 
BRANCH  14  16
HETATM   16  O   UNL     1     -11.391  13.799  65.530  1.00  0.00    -0.303 OA 
HETATM   17  C   UNL     1     -10.998  15.050  64.960  1.00  0.00    -0.423 C  
ENDBRANCH  14  16
ENDBRANCH  12  14
BRANCH  13  18
HETATM   18  C   UNL     1     -10.632  15.475  68.730  1.00  0.00    -0.242 A  
HETATM   19  C   UNL     1      -9.347  15.160  69.198  1.00  0.00    -0.215 A  
HETATM   20  C   UNL     1     -10.901  16.795  68.316  1.00  0.00    -0.366 A  
HETATM   21  C   UNL     1      -8.345  16.133  69.237  1.00  0.00    -0.178 A  
HETATM   22  C   UNL     1      -9.884  17.758  68.333  1.00  0.00    -0.347 A  
HETATM   23  N   UNL     1     -10.152  19.108  67.824  1.00  0.00    -0.360 N  
HETATM   24  C   UNL     1      -8.606  17.431  68.799  1.00  0.00    -0.221 A  
HETATM   25  O   UNL     1     -11.285  19.347  67.383  1.00  0.00    -0.348 OA 
HETATM   26  O   UNL     1      -9.222  19.930  67.850  1.00  0.00    -0.328 OA 
ENDBRANCH  13  18
ENDBRANCH   4   6
ENDBRANCH   3   4
ENDBRANCH   2   3
TORSDOF 6
ENDMDL
MODEL        2
REMARK 921   NORMALIZED FREE ENERGY PREDICTED BY IDOCK:   -6.62 KCAL/MOL
REMARK 922        TOTAL FREE ENERGY PREDICTED BY IDOCK:  -10.10 KCAL/MOL
REMARK 923 INTER-LIGAND FREE ENERGY PREDICTED BY IDOCK:   -8.88 KCAL/MOL
REMARK 924 INTRA-LIGAND FREE ENERGY PREDICTED BY IDOCK:   -1.21 KCAL/MOL
REMARK 927      BINDING AFFINITY PREDICTED BY RF-SCORE:    0.00 PKD
ROOT
HETATM    1  C   UNL     1     -12.898  10.813  71.297  1.00  0.00    -0.540 C  
HETATM    2  C   UNL     1     -11.581  10.127  70.981  1.00  0.00    -0.376 C  
ENDROOT
BRANCH   2   3
HETATM    3  O   UNL     1     -11.514  10.002  69.554  1.00  0.00    -0.208 OA 
BRANCH   3   4
HETATM    4  C   UNL     1     -10.364  10.431  68.977  1.00  0.00    -0.214 C  
HETATM    5  O   UNL     1      -9.253  10.368  69.480  1.00  0.00    -0.194 OA 
BRANCH   4   6
HETATM    6  C   UNL     1     -10.649  10.909  67.600  1.00  0.00    -0.263 C  
HETATM    7  C   UNL     1     -10.154  10.251  66.526  1.00  0.00    -0.231 C  
HETATM    8  N   UNL     1     -10.448  10.708  65.253  1.00  0.00    -0.240 NA 
HETATM    9  C   UNL     1      -9.295   9.005  66.526  1.00  0.00    -0.246 C  
HETATM   10  C   UNL     1     -11.135  11.867  64.962  1.00  0.00    -0.305 C  
HETATM   11  C   UNL     1     -11.233  12.198  63.490  1.00  0.00    -0.536 C  
HETATM   12  C   UNL     1     -11.667  12.613  65.961  1.00  0.00    -0.470 C  
HETATM   13  C   UNL     1     -11.538  12.160  67.427  1.00  0.00    -0.410 C  
BRANCH  12  14
HETATM   14  C   UNL     1     -12.330  13.897  65.611  1.00  0.00    -0.482 C  
HETATM   15  O   UNL     1     -13.527  14.013  65.388  1.00  0.00    -0.679 OA 
BRANCH  14  16
HETATM   16  O   UNL     1     -11.447  14.930  65.557  1.00  0.00    -0.347 OA 
HETATM   17  C   UNL     1     -11.680  15.820  64.462  1.00  0.00    -0.191 C  
ENDBRANCH  14  16
ENDBRANCH  12  14
BRANCH  13  18
HETATM   18  C   UNL     1     -11.077  13.305  68.337  1.00  0.00    -0.299 A  
HETATM   19  C   UNL     1      -9.809  13.887  68.189  1.00  0.00    -0.240 A  
HETATM   20  C   UNL     1     -11.946  13.810  69.325  1.00  0.00    -0.399 A  
HETATM   21  C   UNL     1      -9.418  14.958  68.995  1.00  0.00    -0.196 A  
HETATM   22  C   UNL     1     -11.557  14.902  70.112  1.00  0.00    -0.289 A  
HETATM   23  N   UNL     1     -12.499  15.472  71.083  1.00  0.00    -0.399 N  
HETATM   24  C   UNL     1     -10.291  15.474  69.952  1.00  0.00    -0.322 A  
HETATM   25  O   UNL     1     -13.625  14.962  71.166  1.00  0.00    -0.399 OA 
HETATM   26  O   UNL     1     -12.118  16.443  71.754  1.00  0.00    -0.407 OA 
ENDBRANCH  13  18
ENDBRANCH   4   6
ENDBRANCH   3   4
ENDBRANCH   2   3
TORSDOF 6
ENDMDL
MODEL        3
REMARK 921   NORMALIZED FREE ENERGY PREDICTED BY IDOCK:   -6.49 KCAL/MOL
REMARK 922        TOTAL FREE ENERGY PREDICTED BY IDOCK:   -9.92 KCAL/MOL
REMARK 923 INTER-LIGAND FREE ENERGY PREDICTED BY IDOCK:   -8.73 KCAL/MOL
REMARK 924 INTRA-LIGAND FREE ENERGY PREDICTED BY IDOCK:   -1.19 KCAL/MOL
REMARK 927      BINDING AFFINITY PREDICTED BY RF-SCORE:    0.00 PKD
ROOT
HETATM    1  C   UNL     1     -12.286  15.362  74.173  1.00  0.00    -0.800 C  
HETATM    2  C   UNL     1     -12.103  16.202  72.923  1.00  0.00    -0.541 C  
ENDROOT
BRANCH   2   3
HETATM    3  O   UNL     1     -11.776  15.294  71.861  1.00  0.00    -0.370 OA 
BRANCH   3   4
HETATM    4  C   UNL     1     -12.768  15.045  70.970  1.00  0.00    -0.366 C  
HETATM    5  O   UNL     1     -13.796  15.695  70.856  1.00  0.00    -0.516 OA 
BRANCH   4   6
HETATM    6  C   UNL     1     -12.373  13.916  70.091  1.00  0.00    -0.400 C  
HETATM    7  C   UNL     1     -12.390  12.644  70.553  1.00  0.00    -0.268 C  
HETATM    8  N   UNL     1     -12.032  11.608  69.708  1.00  0.00    -0.327 NA 
HETATM    9  C   UNL     1     -12.788  12.173  71.934  1.00  0.00    -0.327 C  
HETATM   10  C   UNL     1     -11.545  11.758  68.427  1.00  0.00    -0.318 C  
HETATM   11  C   UNL     1     -11.128  10.472  67.749  1.00  0.00    -0.382 C  
HETATM   12  C   UNL     1     -11.474  12.988  67.865  1.00  0.00    -0.352 C  
HETATM   13  C   UNL     1     -11.963  14.228  68.636  1.00  0.00    -0.348 C  
BRANCH  12  14
HETATM   14  C   UNL     1     -10.868  13.117  66.512  1.00  0.00    -0.280 C  
HETATM   15  O   UNL     1      -9.664  13.107  66.296  1.00  0.00    -0.271 OA 
BRANCH  14  16
HETATM   16  O   UNL     1     -11.810  13.259  65.542  1.00  0.00    -0.335 OA 
HETATM   17  C   UNL     1     -11.758  14.526  64.880  1.00  0.00    -0.402 C  
ENDBRANCH  14  16
ENDBRANCH  12  14
BRANCH  13  18
HETATM   18  C   UNL     1     -10.946  15.374  68.573  1.00  0.00    -0.278 A  
HETATM   19  C   UNL     1     -11.315  16.650  68.118  1.00  0.00    -0.095 A  
HETATM   20  C   UNL     1      -9.621  15.162  69.005  1.00  0.00    -0.229 A  
HETATM   21  C   UNL     1     -10.391  17.697  68.107  1.00  0.00    -0.386 A  
HETATM   22  C   UNL     1      -8.708  16.225  69.016  1.00  0.00    -0.246 A  
HETATM   23  N   UNL     1      -7.354  16.014  69.542  1.00  0.00    -0.201 N  
HETATM   24  C   UNL     1      -9.088  17.492  68.562  1.00  0.00    -0.277 A  
HETATM   25  O   UNL     1      -7.067  14.888  69.972  1.00  0.00    -0.176 OA 
HETATM   26  O   UNL     1      -6.577  16.982  69.542  1.00  0.00    -0.238 OA 
ENDBRANCH  13  18
ENDBRANCH   4   6
ENDBRANCH   3   4
ENDBRANCH   2   3
TORSDOF 6
ENDMDL
MODEL        4
REMARK 921   NORMALIZED FREE ENERGY PREDICTED BY IDOCK:   -6.49 KCAL/MOL
REMARK 922        TOTAL FREE ENERGY PREDICTED BY IDOCK:   -9.91 KCAL/MOL
REMARK 923 INTER-LIGAND FREE ENERGY PREDICTED BY IDOCK:   -9.13 KCAL/MOL
REMARK 924 INTRA-LIGAND FREE ENERGY PREDICTED BY IDOCK:   -0.78 KCAL/MOL
REMARK 927      BINDING AFFINITY PREDICTED BY RF-SCORE:    0.00 PKD
ROOT
HETATM    1  C   UNL     1     -12.398  15.269  73.870  1.00  0.00    -0.756 C  
HETATM    2  C   UNL     1     -11.999  16.128  72.685  1.00  0.00    -0.551 C  
ENDROOT
BRANCH   2   3
HETATM    3  O   UNL     1     -11.660  15.228  71.619  1.00  0.00    -0.351 OA 
BRANCH   3   4
HETATM    4  C   UNL     1     -12.642  14.989  70.715  1.00  0.00    -0.370 C  
HETATM    5  O   UNL     1     -13.638  15.678  70.551  1.00  0.00    -0.351 OA 
BRANCH   4   6
HETATM    6  C   UNL     1     -12.278  13.811  69.888  1.00  0.00    -0.383 C  
HETATM    7  C   UNL     1     -12.350  12.560  70.401  1.00  0.00    -0.232 C  
HETATM    8  N   UNL     1     -12.019  11.478  69.605  1.00  0.00    -0.332 NA 
HETATM    9  C   UNL     1     -12.785  12.161  71.794  1.00  0.00    -0.265 C  
HETATM   10  C   UNL     1     -11.510  11.556  68.326  1.00  0.00    -0.299 C  
HETATM   11  C   UNL     1     -11.132  10.229  67.708  1.00  0.00    -0.335 C  
HETATM   12  C   UNL     1     -11.383  12.759  67.716  1.00  0.00    -0.342 C  
HETATM   13  C   UNL     1     -11.836  14.047  68.428  1.00  0.00    -0.397 C  
BRANCH  12  14
HETATM   14  C   UNL     1     -10.754  12.809  66.369  1.00  0.00    -0.262 C  
HETATM   15  O   UNL     1      -9.548  12.863  66.177  1.00  0.00    -0.260 OA 
BRANCH  14  16
HETATM   16  O   UNL     1     -11.680  12.799  65.372  1.00  0.00    -0.346 OA 
HETATM   17  C   UNL     1     -11.108  12.671  64.067  1.00  0.00    -0.405 C  
ENDBRANCH  14  16
ENDBRANCH  12  14
BRANCH  13  18
HETATM   18  C   UNL     1     -10.775  15.150  68.335  1.00  0.00    -0.248 A  
HETATM   19  C   UNL     1      -9.682  15.184  69.214  1.00  0.00    -0.225 A  
HETATM   20  C   UNL     1     -10.874  16.138  67.334  1.00  0.00    -0.265 A  
HETATM   21  C   UNL     1      -8.699  16.169  69.091  1.00  0.00    -0.235 A  
HETATM   22  C   UNL     1      -9.871  17.106  67.201  1.00  0.00    -0.271 A  
HETATM   23  N   UNL     1      -9.941  18.081  66.106  1.00  0.00    -0.316 N  
HETATM   24  C   UNL     1      -8.785  17.127  68.082  1.00  0.00    -0.232 A  
HETATM   25  O   UNL     1     -10.898  18.005  65.322  1.00  0.00    -0.627 OA 
HETATM   26  O   UNL     1      -9.028  18.917  66.018  1.00  0.00    -0.470 OA 
ENDBRANCH  13  18
ENDBRANCH   4   6
ENDBRANCH   3   4
ENDBRANCH   2   3
TORSDOF 6
ENDMDL
MODEL        5
REMARK 921   NORMALIZED FREE ENERGY PREDICTED BY IDOCK:   -6.35 KCAL/MOL
REMARK 922        TOTAL FREE ENERGY PREDICTED BY IDOCK:   -9.72 KCAL/MOL
REMARK 923 INTER-LIGAND FREE ENERGY PREDICTED BY IDOCK:   -8.55 KCAL/MOL
REMARK 924 INTRA-LIGAND FREE ENERGY PREDICTED BY IDOCK:   -1.17 KCAL/MOL
REMARK 927      BINDING AFFINITY PREDICTED BY RF-SCORE:    0.00 PKD
ROOT
HETATM    1  C   UNL     1     -10.664   9.523  71.021  1.00  0.00    -0.411 C  
HETATM    2  C   UNL     1     -10.342   9.828  69.570  1.00  0.00    -0.230 C  
ENDROOT
BRANCH   2   3
HETATM    3  O   UNL     1     -10.357  11.256  69.436  1.00  0.00    -0.140 OA 
BRANCH   3   4
HETATM    4  C   UNL     1     -11.455  11.781  68.836  1.00  0.00    -0.297 C  
HETATM    5  O   UNL     1     -12.489  11.175  68.597  1.00  0.00    -0.463 OA 
BRANCH   4   6
HETATM    6  C   UNL     1     -11.242  13.230  68.594  1.00  0.00    -0.311 C  
HETATM    7  C   UNL     1     -11.787  14.154  69.419  1.00  0.00    -0.330 C  
HETATM    8  N   UNL     1     -11.560  15.498  69.179  1.00  0.00    -0.340 NA 
HETATM    9  C   UNL     1     -12.639  13.905  70.644  1.00  0.00    -0.405 C  
HETATM   10  C   UNL     1     -10.894  16.011  68.087  1.00  0.00    -0.322 C  
HETATM   11  C   UNL     1     -10.871  17.521  68.005  1.00  0.00    -0.260 C  
HETATM   12  C   UNL     1     -10.316  15.178  67.188  1.00  0.00    -0.263 C  
HETATM   13  C   UNL     1     -10.369  13.653  67.392  1.00  0.00    -0.244 C  
BRANCH  12  14
HETATM   14  C   UNL     1      -9.677  15.768  65.982  1.00  0.00    -0.345 C  
HETATM   15  O   UNL     1     -10.290  16.125  64.986  1.00  0.00    -0.573 OA 
BRANCH  14  16
HETATM   16  O   UNL     1      -8.326  15.853  66.110  1.00  0.00    -0.282 OA 
HETATM   17  C   UNL     1      -7.848  17.198  66.211  1.00  0.00    -0.316 C  
ENDBRANCH  14  16
ENDBRANCH  12  14
BRANCH  13  18
HETATM   18  C   UNL     1     -10.788  12.922  66.110  1.00  0.00    -0.300 A  
HETATM   19  C   UNL     1     -12.045  13.143  65.526  1.00  0.00    -0.490 A  
HETATM   20  C   UNL     1      -9.892  12.033  65.483  1.00  0.00    -0.251 A  
HETATM   21  C   UNL     1     -12.398  12.505  64.335  1.00  0.00    -0.537 A  
HETATM   22  C   UNL     1     -10.244  11.418  64.274  1.00  0.00    -0.315 A  
HETATM   23  N   UNL     1      -9.274  10.557  63.587  1.00  0.00    -0.245 N  
HETATM   24  C   UNL     1     -11.498  11.648  63.701  1.00  0.00    -0.458 A  
HETATM   25  O   UNL     1      -8.158  10.411  64.107  1.00  0.00    -0.156 OA 
HETATM   26  O   UNL     1      -9.621  10.037  62.515  1.00  0.00    -0.272 OA 
ENDBRANCH  13  18
ENDBRANCH   4   6
ENDBRANCH   3   4
ENDBRANCH   2   3
TORSDOF 6
ENDMDL
MODEL        6
REMARK 921   NORMALIZED FREE ENERGY PREDICTED BY IDOCK:   -6.18 KCAL/MOL
REMARK 922        TOTAL FREE ENERGY PREDICTED BY IDOCK:   -9.50 KCAL/MOL
REMARK 923 INTER-LIGAND FREE ENERGY PREDICTED BY IDOCK:   -8.40 KCAL/MOL
REMARK 924 INTRA-LIGAND FREE ENERGY PREDICTED BY IDOCK:   -1.10 KCAL/MOL
REMARK 927      BINDING AFFINITY PREDICTED BY RF-SCORE:    0.00 PKD
ROOT
HETATM    1  C   UNL     1     -10.082  11.279  63.206  1.00  0.00    -0.428 C  
HETATM    2  C   UNL     1      -9.522  10.102  63.983  1.00  0.00    -0.282 C  
ENDROOT
BRANCH   2   3
HETATM    3  O   UNL     1     -10.085  10.173  65.301  1.00  0.00    -0.319 OA 
BRANCH   3   4
HETATM    4  C   UNL     1      -9.253  10.622  66.274  1.00  0.00    -0.170 C  
HETATM    5  O   UNL     1      -8.071  10.895  66.126  1.00  0.00    -0.161 OA 
BRANCH   4   6
HETATM    6  C   UNL     1     -10.021  10.820  67.529  1.00  0.00    -0.203 C  
HETATM    7  C   UNL     1     -10.350   9.766  68.310  1.00  0.00    -0.198 C  
HETATM    8  N   UNL     1     -11.054   9.980  69.483  1.00  0.00    -0.240 NA 
HETATM    9  C   UNL     1     -10.019   8.308  68.075  1.00  0.00    -0.224 C  
HETATM   10  C   UNL     1     -11.559  11.193  69.898  1.00  0.00    -0.337 C  
HETATM   11  C   UNL     1     -12.381  11.142  71.166  1.00  0.00    -0.451 C  
HETATM   12  C   UNL     1     -11.300  12.318  69.188  1.00  0.00    -0.330 C  
HETATM   13  C   UNL     1     -10.417  12.259  67.928  1.00  0.00    -0.227 C  
BRANCH  12  14
HETATM   14  C   UNL     1     -11.930  13.593  69.624  1.00  0.00    -0.343 C  
HETATM   15  O   UNL     1     -13.137  13.781  69.672  1.00  0.00     0.450 OA 
BRANCH  14  16
HETATM   16  O   UNL     1     -11.003  14.533  69.952  1.00  0.00    -0.209 OA 
HETATM   17  C   UNL     1     -11.380  15.334  71.076  1.00  0.00    -0.351 C  
ENDBRANCH  14  16
ENDBRANCH  12  14
BRANCH  13  18
HETATM   18  C   UNL     1     -11.052  13.012  66.753  1.00  0.00    -0.316 A  
HETATM   19  C   UNL     1     -12.145  12.478  66.053  1.00  0.00    -0.390 A  
HETATM   20  C   UNL     1     -10.556  14.277  66.378  1.00  0.00    -0.286 A  
HETATM   21  C   UNL     1     -12.742  13.194  65.012  1.00  0.00    -0.456 A  
HETATM   22  C   UNL     1     -11.178  15.000  65.352  1.00  0.00    -0.356 A  
HETATM   23  N   UNL     1     -10.705  16.350  65.023  1.00  0.00    -0.344 N  
HETATM   24  C   UNL     1     -12.268  14.458  64.663  1.00  0.00    -0.479 A  
HETATM   25  O   UNL     1      -9.762  16.811  65.682  1.00  0.00    -0.539 OA 
HETATM   26  O   UNL     1     -11.287  16.960  64.112  1.00  0.00    -1.208 OA 
ENDBRANCH  13  18
ENDBRANCH   4   6
ENDBRANCH   3   4
ENDBRANCH   2   3
TORSDOF 6
ENDMDL
MODEL        7
REMARK 921   NORMALIZED FREE ENERGY PREDICTED BY IDOCK:   -6.14 KCAL/MOL
REMARK 922        TOTAL FREE ENERGY PREDICTED BY IDOCK:   -9.45 KCAL/MOL
REMARK 923 INTER-LIGAND FREE ENERGY PREDICTED BY IDOCK:   -8.28 KCAL/MOL
REMARK 924 INTRA-LIGAND FREE ENERGY PREDICTED BY IDOCK:   -1.17 KCAL/MOL
REMARK 927      BINDING AFFINITY PREDICTED BY RF-SCORE:    0.00 PKD
ROOT
HETATM    1  C   UNL     1     -12.398  12.132  63.461  1.00  0.00    -0.682 C  
HETATM    2  C   UNL     1     -12.517  12.984  64.711  1.00  0.00    -0.427 C  
ENDROOT
BRANCH   2   3
HETATM    3  O   UNL     1     -12.196  12.133  65.821  1.00  0.00    -0.586 OA 
BRANCH   3   4
HETATM    4  C   UNL     1     -11.200  12.571  66.631  1.00  0.00    -0.307 C  
HETATM    5  O   UNL     1     -10.110  12.977  66.257  1.00  0.00    -0.270 OA 
BRANCH   4   6
HETATM    6  C   UNL     1     -11.669  12.567  68.040  1.00  0.00    -0.410 C  
HETATM    7  C   UNL     1     -11.912  13.730  68.689  1.00  0.00    -0.366 C  
HETATM    8  N   UNL     1     -12.363  13.698  69.997  1.00  0.00    -0.309 NA 
HETATM    9  C   UNL     1     -11.769  15.134  68.144  1.00  0.00    -0.323 C  
HETATM   10  C   UNL     1     -12.499  12.562  70.765  1.00  0.00    -0.268 C  
HETATM   11  C   UNL     1     -12.912  12.806  72.199  1.00  0.00    -0.344 C  
HETATM   12  C   UNL     1     -12.271  11.341  70.222  1.00  0.00    -0.428 C  
HETATM   13  C   UNL     1     -11.891  11.207  68.736  1.00  0.00    -0.388 C  
BRANCH  12  14
HETATM   14  C   UNL     1     -12.349  10.146  71.104  1.00  0.00    -0.385 C  
HETATM   15  O   UNL     1     -11.393   9.672  71.702  1.00  0.00    -0.374 OA 
BRANCH  14  16
HETATM   16  O   UNL     1     -13.607   9.633  71.159  1.00  0.00    -0.340 OA 
HETATM   17  C   UNL     1     -13.926   9.043  72.423  1.00  0.00    -0.448 C  
ENDBRANCH  14  16
ENDBRANCH  12  14
BRANCH  13  18
HETATM   18  C   UNL     1     -10.690  10.274  68.539  1.00  0.00    -0.262 A  
HETATM   19  C   UNL     1      -9.418  10.614  69.026  1.00  0.00    -0.202 A  
HETATM   20  C   UNL     1     -10.859   9.038  67.884  1.00  0.00    -0.118 A  
HETATM   21  C   UNL     1      -8.341   9.737  68.879  1.00  0.00    -0.120 A  
HETATM   22  C   UNL     1      -9.781   8.152  67.765  1.00  0.00    -0.157 A  
HETATM   23  N   UNL     1      -9.986   6.834  67.153  1.00  0.00    -0.154 N  
HETATM   24  C   UNL     1      -8.519   8.501  68.256  1.00  0.00    -0.135 A  
HETATM   25  O   UNL     1     -11.127   6.546  66.766  1.00  0.00    -0.362 OA 
HETATM   26  O   UNL     1      -9.007   6.075  67.073  1.00  0.00    -0.113 OA 
ENDBRANCH  13  18
ENDBRANCH   4   6
ENDBRANCH   3   4
ENDBRANCH   2   3
TORSDOF 6
ENDMDL
MODEL        8
REMARK 921   NORMALIZED FREE ENERGY PREDICTED BY IDOCK:   -6.14 KCAL/MOL
REMARK 922        TOTAL FREE ENERGY PREDICTED BY IDOCK:   -9.45 KCAL/MOL
REMARK 923 INTER-LIGAND FREE ENERGY PREDICTED BY IDOCK:   -8.36 KCAL/MOL
REMARK 924 INTRA-LIGAND FREE ENERGY PREDICTED BY IDOCK:   -1.09 KCAL/MOL
REMARK 927      BINDING AFFINITY PREDICTED BY RF-SCORE:    0.00 PKD
ROOT
HETATM    1  C   UNL     1     -13.091  10.033  71.709  1.00  0.00    -0.562 C  
HETATM    2  C   UNL     1     -12.493  11.146  70.869  1.00  0.00    -0.409 C  
ENDROOT
BRANCH   2   3
HETATM    3  O   UNL     1     -12.249  10.595  69.567  1.00  0.00    -0.271 OA 
BRANCH   3   4
HETATM    4  C   UNL     1     -10.967  10.660  69.130  1.00  0.00    -0.247 C  
HETATM    5  O   UNL     1      -9.975  10.428  69.805  1.00  0.00    -0.213 OA 
BRANCH   4   6
HETATM    6  C   UNL     1     -10.954  10.968  67.677  1.00  0.00    -0.332 C  
HETATM    7  C   UNL     1     -10.397  10.108  66.794  1.00  0.00    -0.222 C  
HETATM    8  N   UNL     1     -10.412  10.413  65.444  1.00  0.00    -0.191 NA 
HETATM    9  C   UNL     1      -9.743   8.777  67.095  1.00  0.00    -0.248 C  
HETATM   10  C   UNL     1     -10.865  11.595  64.900  1.00  0.00    -0.301 C  
HETATM   11  C   UNL     1     -10.677  11.723  63.405  1.00  0.00    -0.468 C  
HETATM   12  C   UNL     1     -11.434  12.536  65.692  1.00  0.00    -0.400 C  
HETATM   13  C   UNL     1     -11.609  12.283  67.201  1.00  0.00    -0.423 C  
BRANCH  12  14
HETATM   14  C   UNL     1     -11.836  13.831  65.081  1.00  0.00    -0.352 C  
HETATM   15  O   UNL     1     -12.996  14.177  64.908  1.00  0.00    -0.705 OA 
BRANCH  14  16
HETATM   16  O   UNL     1     -10.760  14.582  64.722  1.00  0.00    -0.413 OA 
HETATM   17  C   UNL     1     -10.879  15.958  65.095  1.00  0.00    -0.421 C  
ENDBRANCH  14  16
ENDBRANCH  12  14
BRANCH  13  18
HETATM   18  C   UNL     1     -11.136  13.480  68.036  1.00  0.00    -0.283 A  
HETATM   19  C   UNL     1     -12.024  14.186  68.862  1.00  0.00    -0.376 A  
HETATM   20  C   UNL     1      -9.782  13.868  68.004  1.00  0.00    -0.226 A  
HETATM   21  C   UNL     1     -11.572  15.246  69.651  1.00  0.00    -0.340 A  
HETATM   22  C   UNL     1      -9.331  14.915  68.819  1.00  0.00    -0.203 A  
HETATM   23  N   UNL     1      -7.905  15.260  68.838  1.00  0.00    -0.150 N  
HETATM   24  C   UNL     1     -10.226  15.610  69.639  1.00  0.00    -0.291 A  
HETATM   25  O   UNL     1      -7.138  14.595  68.127  1.00  0.00    -0.101 OA 
HETATM   26  O   UNL     1      -7.545  16.188  69.579  1.00  0.00    -0.207 OA 
ENDBRANCH  13  18
ENDBRANCH   4   6
ENDBRANCH   3   4
ENDBRANCH   2   3
TORSDOF 6
ENDMDL
MODEL        9
REMARK 921   NORMALIZED FREE ENERGY PREDICTED BY IDOCK:   -6.08 KCAL/MOL
REMARK 922        TOTAL FREE ENERGY PREDICTED BY IDOCK:   -9.36 KCAL/MOL
REMARK 923 INTER-LIGAND FREE ENERGY PREDICTED BY IDOCK:   -7.93 KCAL/MOL
REMARK 924 INTRA-LIGAND FREE ENERGY PREDICTED BY IDOCK:   -1.42 KCAL/MOL
REMARK 927      BINDING AFFINITY PREDICTED BY RF-SCORE:    0.00 PKD
ROOT
HETATM    1  C   UNL     1      -7.087  11.726  67.646  1.00  0.00    -0.107 C  
HETATM    2  C   UNL     1      -6.864  12.804  68.690  1.00  0.00    -0.099 C  
ENDROOT
BRANCH   2   3
HETATM    3  O   UNL     1      -7.121  14.061  68.047  1.00  0.00    -0.110 OA 
BRANCH   3   4
HETATM    4  C   UNL     1      -8.200  14.746  68.502  1.00  0.00    -0.153 C  
HETATM    5  O   UNL     1      -8.365  15.126  69.651  1.00  0.00    -0.202 OA 
BRANCH   4   6
HETATM    6  C   UNL     1      -9.110  15.045  67.368  1.00  0.00    -0.194 C  
HETATM    7  C   UNL     1      -9.063  16.245  66.743  1.00  0.00    -0.232 C  
HETATM    8  N   UNL     1      -9.913  16.492  65.679  1.00  0.00    -0.549 NA 
HETATM    9  C   UNL     1      -8.145  17.407  67.053  1.00  0.00    -0.240 C  
HETATM   10  C   UNL     1     -10.907  15.645  65.241  1.00  0.00    -0.406 C  
HETATM   11  C   UNL     1     -11.767  16.194  64.124  1.00  0.00     0.133 C  
HETATM   12  C   UNL     1     -11.055  14.420  65.801  1.00  0.00    -0.316 C  
HETATM   13  C   UNL     1     -10.096  13.948  66.909  1.00  0.00    -0.260 C  
BRANCH  12  14
HETATM   14  C   UNL     1     -12.190  13.568  65.356  1.00  0.00    -0.447 C  
HETATM   15  O   UNL     1     -13.368  13.849  65.530  1.00  0.00    -0.662 OA 
BRANCH  14  16
HETATM   16  O   UNL     1     -11.766  12.431  64.742  1.00  0.00    -0.341 OA 
HETATM   17  C   UNL     1     -12.409  12.189  63.488  1.00  0.00    -0.574 C  
ENDBRANCH  14  16
ENDBRANCH  12  14
BRANCH  13  18
HETATM   18  C   UNL     1     -10.854  13.343  68.097  1.00  0.00    -0.273 A  
HETATM   19  C   UNL     1     -10.760  11.976  68.399  1.00  0.00    -0.255 A  
HETATM   20  C   UNL     1     -11.639  14.171  68.925  1.00  0.00    -0.345 A  
HETATM   21  C   UNL     1     -11.420  11.445  69.509  1.00  0.00    -0.381 A  
HETATM   22  C   UNL     1     -12.276  13.636  70.052  1.00  0.00    -0.329 A  
HETATM   23  N   UNL     1     -13.025  14.520  70.953  1.00  0.00    -0.355 N  
HETATM   24  C   UNL     1     -12.173  12.272  70.343  1.00  0.00    -0.371 A  
HETATM   25  O   UNL     1     -13.060  15.728  70.682  1.00  0.00    -0.497 OA 
HETATM   26  O   UNL     1     -13.569  14.008  71.944  1.00  0.00    -0.370 OA 
ENDBRANCH  13  18
ENDBRANCH   4   6
ENDBRANCH   3   4
ENDBRANCH   2   3
TORSDOF 6
ENDMDL
MODEL       10
REMARK 921   NORMALIZED FREE ENERGY PREDICTED BY IDOCK:   -6.05 KCAL/MOL
REMARK 922        TOTAL FREE ENERGY PREDICTED BY IDOCK:   -9.32 KCAL/MOL
REMARK 923 INTER-LIGAND FREE ENERGY PREDICTED BY IDOCK:   -8.36 KCAL/MOL
REMARK 924 INTRA-LIGAND FREE ENERGY PREDICTED BY IDOCK:   -0.96 KCAL/MOL
REMARK 927      BINDING AFFINITY PREDICTED BY RF-SCORE:    0.00 PKD
ROOT
HETATM    1  C   UNL     1     -10.242  10.976  64.801  1.00  0.00    -0.381 C  
HETATM    2  C   UNL     1      -9.465  10.414  65.978  1.00  0.00    -0.185 C  
ENDROOT
BRANCH   2   3
HETATM    3  O   UNL     1     -10.233  10.703  67.154  1.00  0.00    -0.198 OA 
BRANCH   3   4
HETATM    4  C   UNL     1      -9.590  11.403  68.122  1.00  0.00    -0.190 C  
HETATM    5  O   UNL     1      -8.394  11.654  68.138  1.00  0.00    -0.139 OA 
BRANCH   4   6
HETATM    6  C   UNL     1     -10.576  11.898  69.114  1.00  0.00    -0.085 C  
HETATM    7  C   UNL     1     -11.322  11.031  69.837  1.00  0.00    -0.287 C  
HETATM    8  N   UNL     1     -12.224  11.519  70.767  1.00  0.00    -0.381 NA 
HETATM    9  C   UNL     1     -11.289   9.520  69.780  1.00  0.00    -0.117 C  
HETATM   10  C   UNL     1     -12.522  12.851  70.965  1.00  0.00    -0.283 C  
HETATM   11  C   UNL     1     -13.620  13.116  71.969  1.00  0.00    -0.554 C  
HETATM   12  C   UNL     1     -11.844  13.808  70.287  1.00  0.00    -0.342 C  
HETATM   13  C   UNL     1     -10.715  13.424  69.313  1.00  0.00    -0.018 C  
BRANCH  12  14
HETATM   14  C   UNL     1     -12.249  15.228  70.468  1.00  0.00    -0.371 C  
HETATM   15  O   UNL     1     -13.244  15.727  69.961  1.00  0.00    -0.056 OA 
BRANCH  14  16
HETATM   16  O   UNL     1     -11.376  15.912  71.255  1.00  0.00    -0.379 OA 
HETATM   17  C   UNL     1     -11.926  16.290  72.520  1.00  0.00    -0.554 C  
ENDBRANCH  14  16
ENDBRANCH  12  14
BRANCH  13  18
HETATM   18  C   UNL     1     -10.849  14.154  67.971  1.00  0.00    -0.256 A  
HETATM   19  C   UNL     1     -10.093  15.303  67.690  1.00  0.00    -0.235 A  
HETATM   20  C   UNL     1     -11.721  13.655  66.983  1.00  0.00    -0.419 A  
HETATM   21  C   UNL     1     -10.192  15.934  66.448  1.00  0.00    -0.311 A  
HETATM   22  C   UNL     1     -11.794  14.278  65.730  1.00  0.00    -0.374 A  
HETATM   23  N   UNL     1     -12.645  13.704  64.681  1.00  0.00    -0.291 N  
HETATM   24  C   UNL     1     -11.034  15.421  65.462  1.00  0.00    -0.350 A  
HETATM   25  O   UNL     1     -13.271  12.668  64.944  1.00  0.00    -0.819 OA 
HETATM   26  O   UNL     1     -12.676  14.282  63.583  1.00  0.00    -0.783 OA 
ENDBRANCH  13  18
ENDBRANCH   4   6
ENDBRANCH   3   4
ENDBRANCH   2   3
TORSDOF 6
ENDMDL
MODEL       11
REMARK 921   NORMALIZED FREE ENERGY PREDICTED BY IDOCK:   -5.87 KCAL/MOL
REMARK 922        TOTAL FREE ENERGY PREDICTED BY IDOCK:   -9.08 KCAL/MOL
REMARK 923 INTER-LIGAND FREE ENERGY PREDICTED BY IDOCK:   -7.66 KCAL/MOL
REMARK 924 INTRA-LIGAND FREE ENERGY PREDICTED BY IDOCK:   -1.41 KCAL/MOL
REMARK 927      BINDING AFFINITY PREDICTED BY RF-SCORE:    0.00 PKD
ROOT
HETATM    1  C   UNL     1      -7.473  11.376  67.640  1.00  0.00    -0.103 C  
HETATM    2  C   UNL     1      -7.014  12.482  68.572  1.00  0.00    -0.086 C  
ENDROOT
BRANCH   2   3
HETATM    3  O   UNL     1      -7.160  13.714  67.853  1.00  0.00    -0.113 OA 
BRANCH   3   4
HETATM    4  C   UNL     1      -8.137  14.545  68.295  1.00  0.00    -0.140 C  
HETATM    5  O   UNL     1      -8.192  15.042  69.410  1.00  0.00    -0.196 OA 
BRANCH   4   6
HETATM    6  C   UNL     1      -9.083  14.830  67.188  1.00  0.00    -0.231 C  
HETATM    7  C   UNL     1      -8.926  15.927  66.412  1.00  0.00    -0.326 C  
HETATM    8  N   UNL     1      -9.814  16.162  65.376  1.00  0.00    -0.472 NA 
HETATM    9  C   UNL     1      -7.842  16.977  66.513  1.00  0.00    -0.331 C  
HETATM   10  C   UNL     1     -10.943  15.416  65.111  1.00  0.00    -0.418 C  
HETATM   11  C   UNL     1     -11.805  15.942  63.985  1.00  0.00     0.175 C  
HETATM   12  C   UNL     1     -11.207  14.300  65.833  1.00  0.00    -0.319 C  
HETATM   13  C   UNL     1     -10.237  13.835  66.934  1.00  0.00    -0.261 C  
BRANCH  12  14
HETATM   14  C   UNL     1     -12.475  13.569  65.570  1.00  0.00    -0.491 C  
HETATM   15  O   UNL     1     -13.589  14.060  65.694  1.00  0.00    -0.499 OA 
BRANCH  14  16
HETATM   16  O   UNL     1     -12.253  12.283  65.187  1.00  0.00    -0.462 OA 
HETATM   17  C   UNL     1     -12.119  12.127  63.771  1.00  0.00    -0.525 C  
ENDBRANCH  14  16
ENDBRANCH  12  14
BRANCH  13  18
HETATM   18  C   UNL     1     -10.975  13.490  68.233  1.00  0.00    -0.280 A  
HETATM   19  C   UNL     1     -11.686  14.467  68.947  1.00  0.00    -0.354 A  
HETATM   20  C   UNL     1     -10.972  12.165  68.713  1.00  0.00    -0.274 A  
HETATM   21  C   UNL     1     -12.391  14.131  70.105  1.00  0.00    -0.413 A  
HETATM   22  C   UNL     1     -11.703  11.831  69.860  1.00  0.00    -0.323 A  
HETATM   23  N   UNL     1     -11.759  10.434  70.307  1.00  0.00    -0.296 N  
HETATM   24  C   UNL     1     -12.409  12.814  70.562  1.00  0.00    -0.355 A  
HETATM   25  O   UNL     1     -11.153   9.586  69.636  1.00  0.00    -0.234 OA 
HETATM   26  O   UNL     1     -12.424  10.178  71.323  1.00  0.00    -0.339 OA 
ENDBRANCH  13  18
ENDBRANCH   4   6
ENDBRANCH   3   4
ENDBRANCH   2   3
TORSDOF 6
ENDMDL
MODEL       12
REMARK 921   NORMALIZED FREE ENERGY PREDICTED BY IDOCK:   -5.82 KCAL/MOL
REMARK 922        TOTAL FREE ENERGY PREDICTED BY IDOCK:   -9.00 KCAL/MOL
REMARK 923 INTER-LIGAND FREE ENERGY PREDICTED BY IDOCK:   -8.05 KCAL/MOL
REMARK 924 INTRA-LIGAND FREE ENERGY PREDICTED BY IDOCK:   -0.96 KCAL/MOL
REMARK 927      BINDING AFFINITY PREDICTED BY RF-SCORE:    0.00 PKD
ROOT
HETATM    1  C   UNL     1      -6.519  16.472  69.702  1.00  0.00    -0.198 C  
HETATM    2  C   UNL     1      -6.850  14.992  69.701  1.00  0.00    -0.183 C  
ENDROOT
BRANCH   2   3
HETATM    3  O   UNL     1      -8.069  14.842  68.959  1.00  0.00    -0.152 OA 
BRANCH   3   4
HETATM    4  C   UNL     1      -8.014  14.000  67.897  1.00  0.00    -0.158 C  
HETATM    5  O   UNL     1      -7.309  13.005  67.818  1.00  0.00    -0.109 OA 
BRANCH   4   6
HETATM    6  C   UNL     1      -9.009  14.420  66.880  1.00  0.00    -0.263 C  
HETATM    7  C   UNL     1      -8.869  15.594  66.221  1.00  0.00    -0.329 C  
HETATM    8  N   UNL     1      -9.804  15.955  65.266  1.00  0.00    -0.400 NA 
HETATM    9  C   UNL     1      -7.760  16.610  66.380  1.00  0.00    -0.328 C  
HETATM   10  C   UNL     1     -10.960  15.260  64.981  1.00  0.00    -0.437 C  
HETATM   11  C   UNL     1     -11.867  15.920  63.967  1.00  0.00     0.175 C  
HETATM   12  C   UNL     1     -11.210  14.075  65.589  1.00  0.00    -0.310 C  
HETATM   13  C   UNL     1     -10.195  13.477  66.580  1.00  0.00    -0.283 C  
BRANCH  12  14
HETATM   14  C   UNL     1     -12.505  13.396  65.315  1.00  0.00    -0.483 C  
HETATM   15  O   UNL     1     -13.600  13.912  65.489  1.00  0.00    -0.579 OA 
BRANCH  14  16
HETATM   16  O   UNL     1     -12.330  12.127  64.860  1.00  0.00    -0.421 OA 
HETATM   17  C   UNL     1     -12.454  12.010  63.439  1.00  0.00    -0.509 C  
ENDBRANCH  14  16
ENDBRANCH  12  14
BRANCH  13  18
HETATM   18  C   UNL     1     -10.873  13.001  67.870  1.00  0.00    -0.260 A  
HETATM   19  C   UNL     1     -10.839  11.652  68.255  1.00  0.00    -0.260 A  
HETATM   20  C   UNL     1     -11.521  13.931  68.708  1.00  0.00    -0.327 A  
HETATM   21  C   UNL     1     -11.422  11.238  69.454  1.00  0.00    -0.370 A  
HETATM   22  C   UNL     1     -12.080  13.512  69.923  1.00  0.00    -0.341 A  
HETATM   23  N   UNL     1     -12.681  14.501  70.826  1.00  0.00    -0.345 N  
HETATM   24  C   UNL     1     -12.037  12.165  70.295  1.00  0.00    -0.385 A  
HETATM   25  O   UNL     1     -12.664  15.690  70.478  1.00  0.00    -0.447 OA 
HETATM   26  O   UNL     1     -13.159  14.090  71.895  1.00  0.00    -0.343 OA 
ENDBRANCH  13  18
ENDBRANCH   4   6
ENDBRANCH   3   4
ENDBRANCH   2   3
TORSDOF 6
ENDMDL
MODEL       13
REMARK 921   NORMALIZED FREE ENERGY PREDICTED BY IDOCK:   -5.78 KCAL/MOL
REMARK 922        TOTAL FREE ENERGY PREDICTED BY IDOCK:   -8.96 KCAL/MOL
REMARK 923 INTER-LIGAND FREE ENERGY PREDICTED BY IDOCK:   -7.76 KCAL/MOL
REMARK 924 INTRA-LIGAND FREE ENERGY PREDICTED BY IDOCK:   -1.20 KCAL/MOL
REMARK 927      BINDING AFFINITY PREDICTED BY RF-SCORE:    0.00 PKD
ROOT
HETATM    1  C   UNL     1     -12.136  12.983  63.542  1.00  0.00    -0.617 C  
HETATM    2  C   UNL     1     -12.481  13.373  64.967  1.00  0.00    -0.428 C  
ENDROOT
BRANCH   2   3
HETATM    3  O   UNL     1     -12.094  12.272  65.801  1.00  0.00    -0.587 OA 
BRANCH   3   4
HETATM    4  C   UNL     1     -11.077  12.515  66.665  1.00  0.00    -0.283 C  
HETATM    5  O   UNL     1      -9.922  12.760  66.349  1.00  0.00    -0.252 OA 
BRANCH   4   6
HETATM    6  C   UNL     1     -11.599  12.527  68.055  1.00  0.00    -0.395 C  
HETATM    7  C   UNL     1     -11.815  13.696  68.700  1.00  0.00    -0.374 C  
HETATM    8  N   UNL     1     -12.317  13.680  69.990  1.00  0.00    -0.309 NA 
HETATM    9  C   UNL     1     -11.589  15.095  68.169  1.00  0.00    -0.358 C  
HETATM   10  C   UNL     1     -12.532  12.548  70.746  1.00  0.00    -0.268 C  
HETATM   11  C   UNL     1     -12.988  12.805  72.165  1.00  0.00    -0.344 C  
HETATM   12  C   UNL     1     -12.339  11.320  70.205  1.00  0.00    -0.389 C  
HETATM   13  C   UNL     1     -11.908  11.175  68.734  1.00  0.00    -0.388 C  
BRANCH  12  14
HETATM   14  C   UNL     1     -12.503  10.126  71.077  1.00  0.00    -0.375 C  
HETATM   15  O   UNL     1     -11.605   9.639  71.750  1.00  0.00    -0.378 OA 
BRANCH  14  16
HETATM   16  O   UNL     1     -13.769   9.630  71.030  1.00  0.00    -0.274 OA 
HETATM   17  C   UNL     1     -14.031   8.646  72.034  1.00  0.00    -0.446 C  
ENDBRANCH  14  16
ENDBRANCH  12  14
BRANCH  13  18
HETATM   18  C   UNL     1     -10.743  10.190  68.578  1.00  0.00    -0.264 A  
HETATM   19  C   UNL     1     -10.890   8.998  67.851  1.00  0.00    -0.118 A  
HETATM   20  C   UNL     1      -9.488  10.490  69.146  1.00  0.00    -0.205 A  
HETATM   21  C   UNL     1      -9.810   8.130  67.679  1.00  0.00    -0.216 A  
HETATM   22  C   UNL     1      -8.402   9.627  68.946  1.00  0.00    -0.116 A  
HETATM   23  N   UNL     1      -7.080   9.988  69.472  1.00  0.00    -0.078 N  
HETATM   24  C   UNL     1      -8.562   8.444  68.218  1.00  0.00    -0.139 A  
HETATM   25  O   UNL     1      -6.971  11.063  70.077  1.00  0.00    -0.121 OA 
HETATM   26  O   UNL     1      -6.143   9.200  69.267  1.00  0.00    -0.040 OA 
ENDBRANCH  13  18
ENDBRANCH   4   6
ENDBRANCH   3   4
ENDBRANCH   2   3
TORSDOF 6
ENDMDL
MODEL       14
REMARK 921   NORMALIZED FREE ENERGY PREDICTED BY IDOCK:   -5.73 KCAL/MOL
REMARK 922        TOTAL FREE ENERGY PREDICTED BY IDOCK:   -8.89 KCAL/MOL
REMARK 923 INTER-LIGAND FREE ENERGY PREDICTED BY IDOCK:   -7.59 KCAL/MOL
REMARK 924 INTRA-LIGAND FREE ENERGY PREDICTED BY IDOCK:   -1.30 KCAL/MOL
REMARK 927      BINDING AFFINITY PREDICTED BY RF-SCORE:    0.00 PKD
ROOT
HETATM    1  C   UNL     1     -12.714  11.121  71.263  1.00  0.00    -0.531 C  
HETATM    2  C   UNL     1     -11.824   9.914  71.031  1.00  0.00    -0.376 C  
ENDROOT
BRANCH   2   3
HETATM    3  O   UNL     1     -11.606   9.829  69.615  1.00  0.00    -0.126 OA 
BRANCH   3   4
HETATM    4  C   UNL     1     -10.331  10.034  69.201  1.00  0.00    -0.216 C  
HETATM    5  O   UNL     1      -9.339   9.989  69.913  1.00  0.00    -0.220 OA 
BRANCH   4   6
HETATM    6  C   UNL     1     -10.314  10.232  67.729  1.00  0.00    -0.246 C  
HETATM    7  C   UNL     1      -9.791   9.288  66.913  1.00  0.00    -0.214 C  
HETATM    8  N   UNL     1      -9.802   9.491  65.543  1.00  0.00    -0.296 NA 
HETATM    9  C   UNL     1      -9.182   7.962  67.312  1.00  0.00    -0.167 C  
HETATM   10  C   UNL     1     -10.216  10.644  64.913  1.00  0.00    -0.324 C  
HETATM   11  C   UNL     1     -10.030  10.653  63.412  1.00  0.00    -0.329 C  
HETATM   12  C   UNL     1     -10.748  11.661  65.633  1.00  0.00    -0.330 C  
HETATM   13  C   UNL     1     -10.925  11.529  67.157  1.00  0.00    -0.338 C  
BRANCH  12  14
HETATM   14  C   UNL     1     -11.108  12.920  64.926  1.00  0.00    -0.297 C  
HETATM   15  O   UNL     1     -10.295  13.755  64.556  1.00  0.00    -0.437 OA 
BRANCH  14  16
HETATM   16  O   UNL     1     -12.451  13.040  64.749  1.00  0.00    -0.476 OA 
HETATM   17  C   UNL     1     -13.013  14.172  65.419  1.00  0.00    -0.270 C  
ENDBRANCH  14  16
ENDBRANCH  12  14
BRANCH  13  18
HETATM   18  C   UNL     1     -10.408  12.768  67.898  1.00  0.00    -0.228 A  
HETATM   19  C   UNL     1      -9.103  13.244  67.696  1.00  0.00    -0.204 A  
HETATM   20  C   UNL     1     -11.257  13.465  68.780  1.00  0.00    -0.315 A  
HETATM   21  C   UNL     1      -8.657  14.398  68.344  1.00  0.00    -0.174 A  
HETATM   22  C   UNL     1     -10.812  14.637  69.405  1.00  0.00    -0.243 A  
HETATM   23  N   UNL     1     -11.730  15.401  70.259  1.00  0.00    -0.298 N  
HETATM   24  C   UNL     1      -9.510  15.103  69.193  1.00  0.00    -0.221 A  
HETATM   25  O   UNL     1     -12.887  14.977  70.390  1.00  0.00    -0.341 OA 
HETATM   26  O   UNL     1     -11.299  16.437  70.788  1.00  0.00    -0.373 OA 
ENDBRANCH  13  18
ENDBRANCH   4   6
ENDBRANCH   3   4
ENDBRANCH   2   3
TORSDOF 6
ENDMDL
MODEL       15
REMARK 921   NORMALIZED FREE ENERGY PREDICTED BY IDOCK:   -5.67 KCAL/MOL
REMARK 922        TOTAL FREE ENERGY PREDICTED BY IDOCK:   -8.81 KCAL/MOL
REMARK 923 INTER-LIGAND FREE ENERGY PREDICTED BY IDOCK:   -7.34 KCAL/MOL
REMARK 924 INTRA-LIGAND FREE ENERGY PREDICTED BY IDOCK:   -1.47 KCAL/MOL
REMARK 927      BINDING AFFINITY PREDICTED BY RF-SCORE:    0.00 PKD
ROOT
HETATM    1  C   UNL     1     -11.822  12.020  63.550  1.00  0.00    -0.587 C  
HETATM    2  C   UNL     1     -12.497  12.972  64.520  1.00  0.00    -0.363 C  
ENDROOT
BRANCH   2   3
HETATM    3  O   UNL     1     -12.453  12.345  65.810  1.00  0.00    -0.615 OA 
BRANCH   3   4
HETATM    4  C   UNL     1     -11.426  12.720  66.613  1.00  0.00    -0.350 C  
HETATM    5  O   UNL     1     -10.735  13.716  66.461  1.00  0.00    -0.282 OA 
BRANCH   4   6
HETATM    6  C   UNL     1     -11.327  11.782  67.760  1.00  0.00    -0.358 C  
HETATM    7  C   UNL     1     -11.603  12.198  69.017  1.00  0.00    -0.319 C  
HETATM    8  N   UNL     1     -11.517  11.299  70.066  1.00  0.00    -0.293 NA 
HETATM    9  C   UNL     1     -12.034  13.581  69.454  1.00  0.00    -0.383 C  
HETATM   10  C   UNL     1     -11.066  10.001  69.967  1.00  0.00    -0.295 C  
HETATM   11  C   UNL     1     -10.970   9.257  71.281  1.00  0.00    -0.421 C  
HETATM   12  C   UNL     1     -10.750   9.480  68.757  1.00  0.00    -0.218 C  
HETATM   13  C   UNL     1     -10.922  10.318  67.477  1.00  0.00    -0.344 C  
BRANCH  12  14
HETATM   14  C   UNL     1     -10.190   8.103  68.701  1.00  0.00    -0.207 C  
HETATM   15  O   UNL     1      -9.006   7.837  68.851  1.00  0.00    -0.141 OA 
BRANCH  14  16
HETATM   16  O   UNL     1     -11.149   7.171  68.452  1.00  0.00    -0.072 OA 
HETATM   17  C   UNL     1     -11.004   6.532  67.181  1.00  0.00    -0.408 C  
ENDBRANCH  14  16
ENDBRANCH  12  14
BRANCH  13  18
HETATM   18  C   UNL     1      -9.682  10.244  66.578  1.00  0.00    -0.243 A  
HETATM   19  C   UNL     1      -9.734   9.629  65.318  1.00  0.00    -0.330 A  
HETATM   20  C   UNL     1      -8.470  10.825  67.002  1.00  0.00    -0.128 A  
HETATM   21  C   UNL     1      -8.610   9.605  64.490  1.00  0.00    -0.205 A  
HETATM   22  C   UNL     1      -7.354  10.821  66.155  1.00  0.00    -0.127 A  
HETATM   23  N   UNL     1      -6.121  11.498  66.572  1.00  0.00    -0.127 N  
HETATM   24  C   UNL     1      -7.420  10.206  64.900  1.00  0.00    -0.137 A  
HETATM   25  O   UNL     1      -6.116  12.065  67.674  1.00  0.00    -0.068 OA 
HETATM   26  O   UNL     1      -5.158  11.478  65.789  1.00  0.00    -0.314 OA 
ENDBRANCH  13  18
ENDBRANCH   4   6
ENDBRANCH   3   4
ENDBRANCH   2   3
TORSDOF 6
ENDMDL
MODEL       16
REMARK 921   NORMALIZED FREE ENERGY PREDICTED BY IDOCK:   -5.65 KCAL/MOL
REMARK 922        TOTAL FREE ENERGY PREDICTED BY IDOCK:   -8.77 KCAL/MOL
REMARK 923 INTER-LIGAND FREE ENERGY PREDICTED BY IDOCK:   -7.86 KCAL/MOL
REMARK 924 INTRA-LIGAND FREE ENERGY PREDICTED BY IDOCK:   -0.92 KCAL/MOL
REMARK 927      BINDING AFFINITY PREDICTED BY RF-SCORE:    0.00 PKD
ROOT
HETATM    1  C   UNL     1      -6.135   9.800  67.910  1.00  0.00    -0.051 C  
HETATM    2  C   UNL     1      -7.436   9.590  67.156  1.00  0.00    -0.091 C  
ENDROOT
BRANCH   2   3
HETATM    3  O   UNL     1      -8.261  10.731  67.433  1.00  0.00    -0.114 OA 
BRANCH   3   4
HETATM    4  C   UNL     1      -9.585  10.575  67.184  1.00  0.00    -0.168 C  
HETATM    5  O   UNL     1     -10.062  10.054  66.186  1.00  0.00    -0.245 OA 
BRANCH   4   6
HETATM    6  C   UNL     1     -10.368  11.053  68.351  1.00  0.00    -0.200 C  
HETATM    7  C   UNL     1     -10.824  10.180  69.280  1.00  0.00    -0.235 C  
HETATM    8  N   UNL     1     -11.538  10.654  70.366  1.00  0.00    -0.330 NA 
HETATM    9  C   UNL     1     -10.631   8.680  69.304  1.00  0.00    -0.204 C  
HETATM   10  C   UNL     1     -11.933  11.962  70.551  1.00  0.00    -0.267 C  
HETATM   11  C   UNL     1     -12.794  12.202  71.771  1.00  0.00    -0.367 C  
HETATM   12  C   UNL     1     -11.543  12.921  69.677  1.00  0.00    -0.318 C  
HETATM   13  C   UNL     1     -10.631  12.568  68.487  1.00  0.00    -0.262 C  
BRANCH  12  14
HETATM   14  C   UNL     1     -12.056  14.304  69.866  1.00  0.00    -0.347 C  
HETATM   15  O   UNL     1     -13.161  14.682  69.503  1.00  0.00     0.326 OA 
BRANCH  14  16
HETATM   16  O   UNL     1     -11.145  15.107  70.480  1.00  0.00    -0.274 OA 
HETATM   17  C   UNL     1     -11.652  15.746  71.655  1.00  0.00    -0.457 C  
ENDBRANCH  14  16
ENDBRANCH  12  14
BRANCH  13  18
HETATM   18  C   UNL     1     -11.152  13.167  67.175  1.00  0.00    -0.305 A  
HETATM   19  C   UNL     1     -12.153  12.525  66.430  1.00  0.00    -0.279 A  
HETATM   20  C   UNL     1     -10.645  14.399  66.714  1.00  0.00    -0.282 A  
HETATM   21  C   UNL     1     -12.650  13.102  65.259  1.00  0.00    -0.531 A  
HETATM   22  C   UNL     1     -11.168  14.984  65.554  1.00  0.00    -0.344 A  
HETATM   23  N   UNL     1     -10.690  16.304  65.126  1.00  0.00    -0.388 N  
HETATM   24  C   UNL     1     -12.167  14.335  64.821  1.00  0.00    -0.456 A  
HETATM   25  O   UNL     1      -9.833  16.865  65.824  1.00  0.00    -0.514 OA 
HETATM   26  O   UNL     1     -11.184  16.791  64.097  1.00  0.00    -1.155 OA 
ENDBRANCH  13  18
ENDBRANCH   4   6
ENDBRANCH   3   4
ENDBRANCH   2   3
TORSDOF 6
ENDMDL
MODEL       17
REMARK 921   NORMALIZED FREE ENERGY PREDICTED BY IDOCK:   -5.63 KCAL/MOL
REMARK 922        TOTAL FREE ENERGY PREDICTED BY IDOCK:   -8.76 KCAL/MOL
REMARK 923 INTER-LIGAND FREE ENERGY PREDICTED BY IDOCK:   -7.39 KCAL/MOL
REMARK 924 INTRA-LIGAND FREE ENERGY PREDICTED BY IDOCK:   -1.36 KCAL/MOL
REMARK 927      BINDING AFFINITY PREDICTED BY RF-SCORE:    0.00 PKD
ROOT
HETATM    1  C   UNL     1     -12.145  12.367  63.416  1.00  0.00    -0.620 C  
HETATM    2  C   UNL     1     -12.205  13.844  63.756  1.00  0.00    -0.261 C  
ENDROOT
BRANCH   2   3
HETATM    3  O   UNL     1     -11.049  14.131  64.556  1.00  0.00    -0.376 OA 
BRANCH   3   4
HETATM    4  C   UNL     1     -11.233  14.079  65.899  1.00  0.00    -0.308 C  
HETATM    5  O   UNL     1     -12.289  14.286  66.477  1.00  0.00    -0.445 OA 
BRANCH   4   6
HETATM    6  C   UNL     1      -9.975  13.643  66.554  1.00  0.00    -0.288 C  
HETATM    7  C   UNL     1      -9.813  12.360  66.952  1.00  0.00    -0.215 C  
HETATM    8  N   UNL     1      -8.624  11.976  67.548  1.00  0.00    -0.159 NA 
HETATM    9  C   UNL     1     -10.800  11.222  66.810  1.00  0.00    -0.334 C  
HETATM   10  C   UNL     1      -7.589  12.824  67.878  1.00  0.00    -0.138 C  
HETATM   11  C   UNL     1      -6.441  12.172  68.616  1.00  0.00    -0.072 C  
HETATM   12  C   UNL     1      -7.647  14.134  67.538  1.00  0.00    -0.200 C  
HETATM   13  C   UNL     1      -8.851  14.684  66.751  1.00  0.00    -0.269 C  
BRANCH  12  14
HETATM   14  C   UNL     1      -6.548  15.033  67.983  1.00  0.00    -0.145 C  
HETATM   15  O   UNL     1      -5.622  15.390  67.269  1.00  0.00    -0.337 OA 
BRANCH  14  16
HETATM   16  O   UNL     1      -6.687  15.402  69.285  1.00  0.00    -0.128 OA 
HETATM   17  C   UNL     1      -6.518  16.807  69.498  1.00  0.00    -0.225 C  
ENDBRANCH  14  16
ENDBRANCH  12  14
BRANCH  13  18
HETATM   18  C   UNL     1      -9.390  15.980  67.370  1.00  0.00    -0.220 A  
HETATM   19  C   UNL     1     -10.082  15.970  68.591  1.00  0.00    -0.220 A  
HETATM   20  C   UNL     1      -9.167  17.212  66.724  1.00  0.00    -0.270 A  
HETATM   21  C   UNL     1     -10.529  17.161  69.165  1.00  0.00    -0.296 A  
HETATM   22  C   UNL     1      -9.595  18.406  67.320  1.00  0.00    -0.288 A  
HETATM   23  N   UNL     1      -9.288  19.690  66.680  1.00  0.00    -0.354 N  
HETATM   24  C   UNL     1     -10.282  18.383  68.539  1.00  0.00    -0.394 A  
HETATM   25  O   UNL     1      -8.643  19.671  65.622  1.00  0.00    -0.353 OA 
HETATM   26  O   UNL     1      -9.678  20.724  67.244  1.00  0.00    -0.479 OA 
ENDBRANCH  13  18
ENDBRANCH   4   6
ENDBRANCH   3   4
ENDBRANCH   2   3
TORSDOF 6
ENDMDL
MODEL       18
REMARK 921   NORMALIZED FREE ENERGY PREDICTED BY IDOCK:   -5.63 KCAL/MOL
REMARK 922        TOTAL FREE ENERGY PREDICTED BY IDOCK:   -8.75 KCAL/MOL
REMARK 923 INTER-LIGAND FREE ENERGY PREDICTED BY IDOCK:   -7.85 KCAL/MOL
REMARK 924 INTRA-LIGAND FREE ENERGY PREDICTED BY IDOCK:   -0.91 KCAL/MOL
REMARK 927      BINDING AFFINITY PREDICTED BY RF-SCORE:    0.00 PKD
ROOT
HETATM    1  C   UNL     1      -9.906  10.796  63.537  1.00  0.00    -0.401 C  
HETATM    2  C   UNL     1     -10.930  11.914  63.615  1.00  0.00    -0.440 C  
ENDROOT
BRANCH   2   3
HETATM    3  O   UNL     1     -10.909  12.399  64.964  1.00  0.00    -0.278 OA 
BRANCH   3   4
HETATM    4  C   UNL     1     -12.049  12.995  65.395  1.00  0.00    -0.444 C  
HETATM    5  O   UNL     1     -13.182  12.593  65.182  1.00  0.00    -0.646 OA 
BRANCH   4   6
HETATM    6  C   UNL     1     -11.706  14.165  66.243  1.00  0.00    -0.402 C  
HETATM    7  C   UNL     1     -11.272  15.318  65.685  1.00  0.00    -0.256 C  
HETATM    8  N   UNL     1     -10.974  16.398  66.498  1.00  0.00    -0.060 NA 
HETATM    9  C   UNL     1     -11.077  15.611  64.213  1.00  0.00    -0.001 C  
HETATM   10  C   UNL     1     -10.979  16.383  67.876  1.00  0.00    -0.298 C  
HETATM   11  C   UNL     1     -10.514  17.664  68.530  1.00  0.00    -0.337 C  
HETATM   12  C   UNL     1     -11.386  15.276  68.543  1.00  0.00    -0.337 C  
HETATM   13  C   UNL     1     -11.877  14.036  67.772  1.00  0.00    -0.419 C  
BRANCH  12  14
HETATM   14  C   UNL     1     -11.301  15.271  70.028  1.00  0.00    -0.290 C  
HETATM   15  O   UNL     1     -10.251  15.250  70.655  1.00  0.00    -0.082 OA 
BRANCH  14  16
HETATM   16  O   UNL     1     -12.530  15.279  70.611  1.00  0.00    -0.348 OA 
HETATM   17  C   UNL     1     -12.702  14.251  71.590  1.00  0.00    -0.352 C  
ENDBRANCH  14  16
ENDBRANCH  12  14
BRANCH  13  18
HETATM   18  C   UNL     1     -11.235  12.748  68.302  1.00  0.00    -0.308 A  
HETATM   19  C   UNL     1      -9.897  12.433  68.020  1.00  0.00    -0.205 A  
HETATM   20  C   UNL     1     -11.985  11.870  69.111  1.00  0.00    -0.336 A  
HETATM   21  C   UNL     1      -9.311  11.278  68.544  1.00  0.00    -0.182 A  
HETATM   22  C   UNL     1     -11.383  10.728  69.655  1.00  0.00    -0.294 A  
HETATM   23  N   UNL     1     -12.148   9.864  70.561  1.00  0.00    -0.240 N  
HETATM   24  C   UNL     1     -10.047  10.427  69.368  1.00  0.00    -0.251 A  
HETATM   25  O   UNL     1     -13.315  10.186  70.822  1.00  0.00    -0.361 OA 
HETATM   26  O   UNL     1     -11.575   8.866  71.028  1.00  0.00    -0.277 OA 
ENDBRANCH  13  18
ENDBRANCH   4   6
ENDBRANCH   3   4
ENDBRANCH   2   3
TORSDOF 6
ENDMDL
MODEL       19
REMARK 921   NORMALIZED FREE ENERGY PREDICTED BY IDOCK:   -5.53 KCAL/MOL
REMARK 922        TOTAL FREE ENERGY PREDICTED BY IDOCK:   -8.62 KCAL/MOL
REMARK 923 INTER-LIGAND FREE ENERGY PREDICTED BY IDOCK:   -7.58 KCAL/MOL
REMARK 924 INTRA-LIGAND FREE ENERGY PREDICTED BY IDOCK:   -1.03 KCAL/MOL
REMARK 927      BINDING AFFINITY PREDICTED BY RF-SCORE:    0.00 PKD
ROOT
HETATM    1  C   UNL     1     -10.311  16.254  65.882  1.00  0.00    -0.381 C  
HETATM    2  C   UNL     1     -11.220  15.364  65.056  1.00  0.00    -0.387 C  
ENDROOT
BRANCH   2   3
HETATM    3  O   UNL     1     -11.958  14.555  65.983  1.00  0.00    -0.370 OA 
BRANCH   3   4
HETATM    4  C   UNL     1     -12.108  13.251  65.639  1.00  0.00    -0.441 C  
HETATM    5  O   UNL     1     -13.128  12.750  65.192  1.00  0.00    -0.750 OA 
BRANCH   4   6
HETATM    6  C   UNL     1     -10.814  12.543  65.804  1.00  0.00    -0.310 C  
HETATM    7  C   UNL     1     -10.301  11.799  64.797  1.00  0.00    -0.288 C  
HETATM    8  N   UNL     1      -9.085  11.162  64.971  1.00  0.00    -0.166 NA 
HETATM    9  C   UNL     1     -10.898  11.573  63.425  1.00  0.00    -0.423 C  
HETATM   10  C   UNL     1      -8.367  11.126  66.147  1.00  0.00    -0.144 C  
HETATM   11  C   UNL     1      -7.118  10.273  66.106  1.00  0.00    -0.121 C  
HETATM   12  C   UNL     1      -8.791  11.826  67.227  1.00  0.00    -0.167 C  
HETATM   13  C   UNL     1     -10.061  12.694  67.144  1.00  0.00    -0.224 C  
BRANCH  12  14
HETATM   14  C   UNL     1      -8.033  11.697  68.500  1.00  0.00    -0.144 C  
HETATM   15  O   UNL     1      -8.099  10.727  69.242  1.00  0.00    -0.150 OA 
BRANCH  14  16
HETATM   16  O   UNL     1      -7.265  12.791  68.750  1.00  0.00    -0.099 OA 
HETATM   17  C   UNL     1      -6.221  12.549  69.698  1.00  0.00    -0.126 C  
ENDBRANCH  14  16
ENDBRANCH  12  14
BRANCH  13  18
HETATM   18  C   UNL     1     -10.991  12.455  68.340  1.00  0.00    -0.272 A  
HETATM   19  C   UNL     1     -11.536  11.187  68.595  1.00  0.00    -0.383 A  
HETATM   20  C   UNL     1     -11.288  13.514  69.222  1.00  0.00    -0.317 A  
HETATM   21  C   UNL     1     -12.347  10.972  69.712  1.00  0.00    -0.331 A  
HETATM   22  C   UNL     1     -12.079  13.283  70.354  1.00  0.00    -0.327 A  
HETATM   23  N   UNL     1     -12.317  14.372  71.310  1.00  0.00    -0.341 N  
HETATM   24  C   UNL     1     -12.615  12.015  70.599  1.00  0.00    -0.255 A  
HETATM   25  O   UNL     1     -11.792  15.471  71.079  1.00  0.00    -0.310 OA 
HETATM   26  O   UNL     1     -13.017  14.125  72.304  1.00  0.00    -0.358 OA 
ENDBRANCH  13  18
ENDBRANCH   4   6
ENDBRANCH   3   4
ENDBRANCH   2   3
TORSDOF 6
ENDMDL
MODEL       20
REMARK 921   NORMALIZED FREE ENERGY PREDICTED BY IDOCK:   -5.52 KCAL/MOL
REMARK 922        TOTAL FREE ENERGY PREDICTED BY IDOCK:   -8.60 KCAL/MOL
REMARK 923 INTER-LIGAND FREE ENERGY PREDICTED BY IDOCK:   -7.40 KCAL/MOL
REMARK 924 INTRA-LIGAND FREE ENERGY PREDICTED BY IDOCK:   -1.20 KCAL/MOL
REMARK 927      BINDING AFFINITY PREDICTED BY RF-SCORE:    0.00 PKD
ROOT
HETATM    1  C   UNL     1      -5.842  11.219  66.586  1.00  0.00    -0.138 C  
HETATM    2  C   UNL     1      -6.910  12.146  67.136  1.00  0.00    -0.119 C  
ENDROOT
BRANCH   2   3
HETATM    3  O   UNL     1      -7.806  11.332  67.906  1.00  0.00    -0.108 OA 
BRANCH   3   4
HETATM    4  C   UNL     1      -9.056  11.189  67.399  1.00  0.00    -0.142 C  
HETATM    5  O   UNL     1      -9.325  10.757  66.288  1.00  0.00    -0.171 OA 
BRANCH   4   6
HETATM    6  C   UNL     1     -10.055  11.553  68.434  1.00  0.00    -0.207 C  
HETATM    7  C   UNL     1     -10.710  10.593  69.128  1.00  0.00    -0.228 C  
HETATM    8  N   UNL     1     -11.626  10.960  70.099  1.00  0.00    -0.314 NA 
HETATM    9  C   UNL     1     -10.555   9.094  68.995  1.00  0.00    -0.219 C  
HETATM   10  C   UNL     1     -12.025  12.251  70.370  1.00  0.00    -0.263 C  
HETATM   11  C   UNL     1     -13.117  12.376  71.409  1.00  0.00    -0.299 C  
HETATM   12  C   UNL     1     -11.445  13.293  69.727  1.00  0.00    -0.228 C  
HETATM   13  C   UNL     1     -10.312  13.050  68.712  1.00  0.00    -0.146 C  
BRANCH  12  14
HETATM   14  C   UNL     1     -11.960  14.664  69.987  1.00  0.00    -0.320 C  
HETATM   15  O   UNL     1     -12.905  15.165  69.395  1.00  0.00     0.128 OA 
BRANCH  14  16
HETATM   16  O   UNL     1     -11.247  15.302  70.954  1.00  0.00    -0.312 OA 
HETATM   17  C   UNL     1     -12.067  15.991  71.903  1.00  0.00    -0.514 C  
ENDBRANCH  14  16
ENDBRANCH  12  14
BRANCH  13  18
HETATM   18  C   UNL     1     -10.538  13.831  67.411  1.00  0.00    -0.260 A  
HETATM   19  C   UNL     1      -9.767  14.961  67.098  1.00  0.00    -0.229 A  
HETATM   20  C   UNL     1     -11.516  13.398  66.493  1.00  0.00    -0.372 A  
HETATM   21  C   UNL     1      -9.953  15.637  65.891  1.00  0.00    -0.379 A  
HETATM   22  C   UNL     1     -11.677  14.066  65.272  1.00  0.00    -0.346 A  
HETATM   23  N   UNL     1     -12.641  13.560  64.287  1.00  0.00    -0.210 N  
HETATM   24  C   UNL     1     -10.900  15.190  64.971  1.00  0.00    -0.457 A  
HETATM   25  O   UNL     1     -13.281  12.539  64.575  1.00  0.00    -0.832 OA 
HETATM   26  O   UNL     1     -12.748  14.176  63.215  1.00  0.00    -0.714 OA 
ENDBRANCH  13  18
ENDBRANCH   4   6
ENDBRANCH   3   4
ENDBRANCH   2   3
TORSDOF 6
ENDMDL
MODEL       21
REMARK 921   NORMALIZED FREE ENERGY PREDICTED BY IDOCK:   -5.49 KCAL/MOL
REMARK 922        TOTAL FREE ENERGY PREDICTED BY IDOCK:   -8.56 KCAL/MOL
REMARK 923 INTER-LIGAND FREE ENERGY PREDICTED BY IDOCK:   -7.17 KCAL/MOL
REMARK 924 INTRA-LIGAND FREE ENERGY PREDICTED BY IDOCK:   -1.40 KCAL/MOL
REMARK 927      BINDING AFFINITY PREDICTED BY RF-SCORE:    0.00 PKD
ROOT
HETATM    1  C   UNL     1     -12.137  14.751  64.210  1.00  0.00    -0.415 C  
HETATM    2  C   UNL     1     -12.190  13.325  63.694  1.00  0.00    -0.451 C  
ENDROOT
BRANCH   2   3
HETATM    3  O   UNL     1     -11.064  12.640  64.260  1.00  0.00    -0.318 OA 
BRANCH   3   4
HETATM    4  C   UNL     1     -11.195  12.258  65.555  1.00  0.00    -0.332 C  
HETATM    5  O   UNL     1     -12.251  11.996  66.113  1.00  0.00    -0.552 OA 
BRANCH   4   6
HETATM    6  C   UNL     1      -9.851  12.117  66.169  1.00  0.00    -0.254 C  
HETATM    7  C   UNL     1      -9.248  10.907  66.239  1.00  0.00    -0.177 C  
HETATM    8  N   UNL     1      -7.988  10.806  66.802  1.00  0.00    -0.132 NA 
HETATM    9  C   UNL     1      -9.783   9.583  65.740  1.00  0.00    -0.357 C  
HETATM   10  C   UNL     1      -7.304  11.835  67.413  1.00  0.00    -0.136 C  
HETATM   11  C   UNL     1      -5.987  11.440  68.042  1.00  0.00    -0.046 C  
HETATM   12  C   UNL     1      -7.818  13.089  67.413  1.00  0.00    -0.166 C  
HETATM   13  C   UNL     1      -9.153  13.385  66.706  1.00  0.00    -0.221 C  
BRANCH  12  14
HETATM   14  C   UNL     1      -7.089  14.155  68.151  1.00  0.00    -0.127 C  
HETATM   15  O   UNL     1      -7.220  14.373  69.347  1.00  0.00    -0.134 OA 
BRANCH  14  16
HETATM   16  O   UNL     1      -6.266  14.869  67.337  1.00  0.00    -0.329 OA 
HETATM   17  C   UNL     1      -6.713  16.209  67.111  1.00  0.00    -0.192 C  
ENDBRANCH  14  16
ENDBRANCH  12  14
BRANCH  13  18
HETATM   18  C   UNL     1     -10.094  14.210  67.592  1.00  0.00    -0.236 A  
HETATM   19  C   UNL     1     -10.333  15.569  67.332  1.00  0.00    -0.266 A  
HETATM   20  C   UNL     1     -10.760  13.597  68.673  1.00  0.00    -0.272 A  
HETATM   21  C   UNL     1     -11.226  16.299  68.119  1.00  0.00    -0.298 A  
HETATM   22  C   UNL     1     -11.674  14.329  69.441  1.00  0.00    -0.316 A  
HETATM   23  N   UNL     1     -12.422  13.662  70.513  1.00  0.00    -0.339 N  
HETATM   24  C   UNL     1     -11.905  15.682  69.170  1.00  0.00    -0.378 A  
HETATM   25  O   UNL     1     -12.219  12.453  70.696  1.00  0.00    -0.368 OA 
HETATM   26  O   UNL     1     -13.228  14.344  71.166  1.00  0.00    -0.349 OA 
ENDBRANCH  13  18
ENDBRANCH   4   6
ENDBRANCH   3   4
ENDBRANCH   2   3
TORSDOF 6
ENDMDL
MODEL       22
REMARK 921   NORMALIZED FREE ENERGY PREDICTED BY IDOCK:   -5.49 KCAL/MOL
REMARK 922        TOTAL FREE ENERGY PREDICTED BY IDOCK:   -8.56 KCAL/MOL
REMARK 923 INTER-LIGAND FREE ENERGY PREDICTED BY IDOCK:   -7.15 KCAL/MOL
REMARK 924 INTRA-LIGAND FREE ENERGY PREDICTED BY IDOCK:   -1.41 KCAL/MOL
REMARK 927      BINDING AFFINITY PREDICTED BY RF-SCORE:    0.00 PKD
ROOT
HETATM    1  C   UNL     1     -12.120  14.668  64.239  1.00  0.00    -0.437 C  
HETATM    2  C   UNL     1     -12.132  13.185  63.921  1.00  0.00    -0.470 C  
ENDROOT
BRANCH   2   3
HETATM    3  O   UNL     1     -10.986  12.615  64.569  1.00  0.00    -0.299 OA 
BRANCH   3   4
HETATM    4  C   UNL     1     -11.165  12.238  65.860  1.00  0.00    -0.340 C  
HETATM    5  O   UNL     1     -12.243  12.007  66.388  1.00  0.00    -0.551 OA 
BRANCH   4   6
HETATM    6  C   UNL     1      -9.843  12.058  66.511  1.00  0.00    -0.225 C  
HETATM    7  C   UNL     1      -9.416  10.827  66.878  1.00  0.00    -0.168 C  
HETATM    8  N   UNL     1      -8.173  10.686  67.470  1.00  0.00    -0.111 NA 
HETATM    9  C   UNL     1     -10.143   9.512  66.703  1.00  0.00    -0.321 C  
HETATM   10  C   UNL     1      -7.339  11.723  67.827  1.00  0.00    -0.106 C  
HETATM   11  C   UNL     1      -6.079  11.308  68.554  1.00  0.00    -0.042 C  
HETATM   12  C   UNL     1      -7.669  13.001  67.518  1.00  0.00    -0.168 C  
HETATM   13  C   UNL     1      -8.962  13.306  66.740  1.00  0.00    -0.183 C  
BRANCH  12  14
HETATM   14  C   UNL     1      -6.783  14.097  67.991  1.00  0.00    -0.148 C  
HETATM   15  O   UNL     1      -5.939  14.646  67.296  1.00  0.00    -0.300 OA 
BRANCH  14  16
HETATM   16  O   UNL     1      -7.012  14.413  69.294  1.00  0.00    -0.120 OA 
HETATM   17  C   UNL     1      -7.131  15.819  69.526  1.00  0.00    -0.190 C  
ENDBRANCH  14  16
ENDBRANCH  12  14
BRANCH  13  18
HETATM   18  C   UNL     1      -9.760  14.444  67.387  1.00  0.00    -0.220 A  
HETATM   19  C   UNL     1     -10.480  14.244  68.575  1.00  0.00    -0.253 A  
HETATM   20  C   UNL     1      -9.755  15.727  66.803  1.00  0.00    -0.251 A  
HETATM   21  C   UNL     1     -11.167  15.299  69.179  1.00  0.00    -0.285 A  
HETATM   22  C   UNL     1     -10.424  16.787  67.429  1.00  0.00    -0.310 A  
HETATM   23  N   UNL     1     -10.346  18.136  66.856  1.00  0.00    -0.365 N  
HETATM   24  C   UNL     1     -11.136  16.574  68.614  1.00  0.00    -0.329 A  
HETATM   25  O   UNL     1      -9.673  18.291  65.828  1.00  0.00    -0.494 OA 
HETATM   26  O   UNL     1     -10.946  19.048  67.445  1.00  0.00    -0.459 OA 
ENDBRANCH  13  18
ENDBRANCH   4   6
ENDBRANCH   3   4
ENDBRANCH   2   3
TORSDOF 6
ENDMDL
MODEL       23
REMARK 921   NORMALIZED FREE ENERGY PREDICTED BY IDOCK:   -5.42 KCAL/MOL
REMARK 922        TOTAL FREE ENERGY PREDICTED BY IDOCK:   -8.47 KCAL/MOL
REMARK 923 INTER-LIGAND FREE ENERGY PREDICTED BY IDOCK:   -7.19 KCAL/MOL
REMARK 924 INTRA-LIGAND FREE ENERGY PREDICTED BY IDOCK:   -1.28 KCAL/MOL
REMARK 927      BINDING AFFINITY PREDICTED BY RF-SCORE:    0.00 PKD
ROOT
HETATM    1  C   UNL     1      -9.490  10.910  68.013  1.00  0.00    -0.167 C  
HETATM    2  C   UNL     1      -8.041  11.197  68.357  1.00  0.00    -0.141 C  
ENDROOT
BRANCH   2   3
HETATM    3  O   UNL     1      -7.950  12.604  68.620  1.00  0.00    -0.118 OA 
BRANCH   3   4
HETATM    4  C   UNL     1      -7.130  13.306  67.798  1.00  0.00    -0.149 C  
HETATM    5  O   UNL     1      -6.395  12.823  66.951  1.00  0.00    -0.146 OA 
BRANCH   4   6
HETATM    6  C   UNL     1      -7.331  14.760  68.023  1.00  0.00    -0.140 C  
HETATM    7  C   UNL     1      -6.579  15.428  68.928  1.00  0.00    -0.110 C  
HETATM    8  N   UNL     1      -6.776  16.787  69.107  1.00  0.00    -0.212 NA 
HETATM    9  C   UNL     1      -5.479  14.868  69.803  1.00  0.00    -0.098 C  
HETATM   10  C   UNL     1      -7.767  17.533  68.506  1.00  0.00    -0.272 C  
HETATM   11  C   UNL     1      -7.834  18.978  68.948  1.00  0.00    -0.332 C  
HETATM   12  C   UNL     1      -8.587  16.965  67.590  1.00  0.00    -0.212 C  
HETATM   13  C   UNL     1      -8.403  15.490  67.186  1.00  0.00    -0.243 C  
BRANCH  12  14
HETATM   14  C   UNL     1      -9.694  17.782  67.024  1.00  0.00    -0.290 C  
HETATM   15  O   UNL     1     -10.826  17.816  67.485  1.00  0.00    -0.344 OA 
BRANCH  14  16
HETATM   16  O   UNL     1      -9.303  18.480  65.924  1.00  0.00    -0.486 OA 
HETATM   17  C   UNL     1      -9.783  19.828  65.907  1.00  0.00    -0.281 C  
ENDBRANCH  14  16
ENDBRANCH  12  14
BRANCH  13  18
HETATM   18  C   UNL     1      -9.735  14.729  67.193  1.00  0.00    -0.234 A  
HETATM   19  C   UNL     1     -10.487  14.590  68.370  1.00  0.00    -0.246 A  
HETATM   20  C   UNL     1     -10.237  14.180  65.996  1.00  0.00    -0.318 A  
HETATM   21  C   UNL     1     -11.718  13.933  68.355  1.00  0.00    -0.391 A  
HETATM   22  C   UNL     1     -11.486  13.545  65.984  1.00  0.00    -0.325 A  
HETATM   23  N   UNL     1     -12.037  13.047  64.718  1.00  0.00    -0.390 N  
HETATM   24  C   UNL     1     -12.226  13.415  67.163  1.00  0.00    -0.306 A  
HETATM   25  O   UNL     1     -11.368  13.217  63.688  1.00  0.00    -0.383 OA 
HETATM   26  O   UNL     1     -13.149  12.498  64.748  1.00  0.00    -0.853 OA 
ENDBRANCH  13  18
ENDBRANCH   4   6
ENDBRANCH   3   4
ENDBRANCH   2   3
TORSDOF 6
ENDMDL
MODEL       24
REMARK 921   NORMALIZED FREE ENERGY PREDICTED BY IDOCK:   -5.41 KCAL/MOL
REMARK 922        TOTAL FREE ENERGY PREDICTED BY IDOCK:   -8.46 KCAL/MOL
REMARK 923 INTER-LIGAND FREE ENERGY PREDICTED BY IDOCK:   -7.51 KCAL/MOL
REMARK 924 INTRA-LIGAND FREE ENERGY PREDICTED BY IDOCK:   -0.94 KCAL/MOL
REMARK 927      BINDING AFFINITY PREDICTED BY RF-SCORE:    0.00 PKD
ROOT
HETATM    1  C   UNL     1     -10.169   8.474  72.191  1.00  0.00    -0.403 C  
HETATM    2  C   UNL     1      -9.535   8.464  70.813  1.00  0.00    -0.169 C  
ENDROOT
BRANCH   2   3
HETATM    3  O   UNL     1      -9.609   9.808  70.316  1.00  0.00    -0.249 OA 
BRANCH   3   4
HETATM    4  C   UNL     1     -10.639  10.070  69.473  1.00  0.00    -0.244 C  
HETATM    5  O   UNL     1     -11.187   9.252  68.750  1.00  0.00     0.020 OA 
BRANCH   4   6
HETATM    6  C   UNL     1     -11.060  11.485  69.630  1.00  0.00    -0.211 C  
HETATM    7  C   UNL     1     -12.056  11.817  70.484  1.00  0.00    -0.347 C  
HETATM    8  N   UNL     1     -12.419  13.146  70.622  1.00  0.00    -0.321 NA 
HETATM    9  C   UNL     1     -12.856  10.888  71.370  1.00  0.00    -0.554 C  
HETATM   10  C   UNL     1     -11.917  14.190  69.876  1.00  0.00    -0.338 C  
HETATM   11  C   UNL     1     -12.554  15.534  70.150  1.00  0.00    -0.304 C  
HETATM   12  C   UNL     1     -10.923  13.973  68.981  1.00  0.00    -0.287 C  
HETATM   13  C   UNL     1     -10.321  12.565  68.811  1.00  0.00    -0.138 C  
BRANCH  12  14
HETATM   14  C   UNL     1     -10.465  15.109  68.138  1.00  0.00    -0.245 C  
HETATM   15  O   UNL     1     -11.022  15.469  67.111  1.00  0.00    -0.321 OA 
BRANCH  14  16
HETATM   16  O   UNL     1      -9.344  15.696  68.637  1.00  0.00    -0.186 OA 
HETATM   17  C   UNL     1      -9.250  17.091  68.336  1.00  0.00    -0.259 C  
ENDBRANCH  14  16
ENDBRANCH  12  14
BRANCH  13  18
HETATM   18  C   UNL     1     -10.210  12.170  67.333  1.00  0.00    -0.211 A  
HETATM   19  C   UNL     1      -9.037  11.594  66.821  1.00  0.00    -0.186 A  
HETATM   20  C   UNL     1     -11.309  12.358  66.470  1.00  0.00    -0.392 A  
HETATM   21  C   UNL     1      -8.963  11.198  65.484  1.00  0.00    -0.178 A  
HETATM   22  C   UNL     1     -11.236  11.934  65.137  1.00  0.00    -0.289 A  
HETATM   23  N   UNL     1     -12.412  12.060  64.268  1.00  0.00    -0.331 N  
HETATM   24  C   UNL     1     -10.062  11.359  64.640  1.00  0.00    -0.330 A  
HETATM   25  O   UNL     1     -13.446  12.537  64.758  1.00  0.00    -0.645 OA 
HETATM   26  O   UNL     1     -12.309  11.665  63.097  1.00  0.00    -0.399 OA 
ENDBRANCH  13  18
ENDBRANCH   4   6
ENDBRANCH   3   4
ENDBRANCH   2   3
TORSDOF 6
ENDMDL
MODEL       25
REMARK 921   NORMALIZED FREE ENERGY PREDICTED BY IDOCK:   -5.37 KCAL/MOL
REMARK 922        TOTAL FREE ENERGY PREDICTED BY IDOCK:   -8.41 KCAL/MOL
REMARK 923 INTER-LIGAND FREE ENERGY PREDICTED BY IDOCK:   -7.46 KCAL/MOL
REMARK 924 INTRA-LIGAND FREE ENERGY PREDICTED BY IDOCK:   -0.95 KCAL/MOL
REMARK 927      BINDING AFFINITY PREDICTED BY RF-SCORE:    0.00 PKD
ROOT
HETATM    1  C   UNL     1      -6.313  16.173  69.902  1.00  0.00    -0.138 C  
HETATM    2  C   UNL     1      -6.771  14.727  69.874  1.00  0.00    -0.172 C  
ENDROOT
BRANCH   2   3
HETATM    3  O   UNL     1      -7.950  14.684  69.057  1.00  0.00    -0.143 OA 
BRANCH   3   4
HETATM    4  C   UNL     1      -7.822  14.040  67.870  1.00  0.00    -0.160 C  
HETATM    5  O   UNL     1      -7.018  13.151  67.629  1.00  0.00    -0.127 OA 
BRANCH   4   6
HETATM    6  C   UNL     1      -8.870  14.516  66.932  1.00  0.00    -0.257 C  
HETATM    7  C   UNL     1      -8.772  15.733  66.349  1.00  0.00    -0.337 C  
HETATM    8  N   UNL     1      -9.755  16.146  65.467  1.00  0.00    -0.467 NA 
HETATM    9  C   UNL     1      -7.664  16.749  66.522  1.00  0.00    -0.334 C  
HETATM   10  C   UNL     1     -10.917  15.458  65.191  1.00  0.00    -0.418 C  
HETATM   11  C   UNL     1     -11.879  16.174  64.269  1.00  0.00     0.108 C  
HETATM   12  C   UNL     1     -11.128  14.233  65.729  1.00  0.00    -0.310 C  
HETATM   13  C   UNL     1     -10.060  13.581  66.627  1.00  0.00    -0.277 C  
BRANCH  12  14
HETATM   14  C   UNL     1     -12.429  13.559  65.473  1.00  0.00    -0.491 C  
HETATM   15  O   UNL     1     -13.518  14.040  65.752  1.00  0.00    -0.480 OA 
BRANCH  14  16
HETATM   16  O   UNL     1     -12.266  12.335  64.901  1.00  0.00    -0.410 OA 
HETATM   17  C   UNL     1     -11.655  12.388  63.609  1.00  0.00    -0.499 C  
ENDBRANCH  14  16
ENDBRANCH  12  14
BRANCH  13  18
HETATM   18  C   UNL     1     -10.670  13.012  67.914  1.00  0.00    -0.249 A  
HETATM   19  C   UNL     1     -11.448  13.811  68.765  1.00  0.00    -0.338 A  
HETATM   20  C   UNL     1     -10.477  11.655  68.243  1.00  0.00    -0.223 A  
HETATM   21  C   UNL     1     -12.035  13.270  69.911  1.00  0.00    -0.400 A  
HETATM   22  C   UNL     1     -11.091  11.113  69.380  1.00  0.00    -0.255 A  
HETATM   23  N   UNL     1     -10.951   9.681  69.670  1.00  0.00    -0.239 N  
HETATM   24  C   UNL     1     -11.866  11.920  70.219  1.00  0.00    -0.368 A  
HETATM   25  O   UNL     1     -10.289   8.992  68.881  1.00  0.00    -0.207 OA 
HETATM   26  O   UNL     1     -11.516   9.240  70.683  1.00  0.00    -0.266 OA 
ENDBRANCH  13  18
ENDBRANCH   4   6
ENDBRANCH   3   4
ENDBRANCH   2   3
TORSDOF 6
ENDMDL
MODEL       26
REMARK 921   NORMALIZED FREE ENERGY PREDICTED BY IDOCK:   -5.37 KCAL/MOL
REMARK 922        TOTAL FREE ENERGY PREDICTED BY IDOCK:   -8.40 KCAL/MOL
REMARK 923 INTER-LIGAND FREE ENERGY PREDICTED BY IDOCK:   -7.14 KCAL/MOL
REMARK 924 INTRA-LIGAND FREE ENERGY PREDICTED BY IDOCK:   -1.25 KCAL/MOL
REMARK 927      BINDING AFFINITY PREDICTED BY RF-SCORE:    0.00 PKD
ROOT
HETATM    1  C   UNL     1     -11.008   8.336  71.155  1.00  0.00    -0.286 C  
HETATM    2  C   UNL     1     -11.468   9.781  71.163  1.00  0.00    -0.398 C  
ENDROOT
BRANCH   2   3
HETATM    3  O   UNL     1     -10.777  10.440  70.093  1.00  0.00    -0.280 OA 
BRANCH   3   4
HETATM    4  C   UNL     1     -11.548  11.185  69.262  1.00  0.00    -0.318 C  
HETATM    5  O   UNL     1     -12.567  10.801  68.707  1.00  0.00    -0.257 OA 
BRANCH   4   6
HETATM    6  C   UNL     1     -11.016  12.570  69.201  1.00  0.00    -0.198 C  
HETATM    7  C   UNL     1     -11.575  13.557  69.938  1.00  0.00    -0.201 C  
HETATM    8  N   UNL     1     -11.050  14.836  69.874  1.00  0.00    -0.253 NA 
HETATM    9  C   UNL     1     -12.746  13.442  70.890  1.00  0.00    -0.349 C  
HETATM   10  C   UNL     1     -10.042  15.241  69.027  1.00  0.00    -0.239 C  
HETATM   11  C   UNL     1      -9.720  16.717  69.078  1.00  0.00    -0.244 C  
HETATM   12  C   UNL     1      -9.416  14.339  68.233  1.00  0.00    -0.209 C  
HETATM   13  C   UNL     1      -9.800  12.849  68.291  1.00  0.00    -0.228 C  
BRANCH  12  14
HETATM   14  C   UNL     1      -8.389  14.828  67.274  1.00  0.00    -0.212 C  
HETATM   15  O   UNL     1      -8.648  15.403  66.226  1.00  0.00    -0.269 OA 
BRANCH  14  16
HETATM   16  O   UNL     1      -7.125  14.551  67.694  1.00  0.00    -0.159 OA 
HETATM   17  C   UNL     1      -6.252  15.683  67.653  1.00  0.00    -0.154 C  
ENDBRANCH  14  16
ENDBRANCH  12  14
BRANCH  13  18
HETATM   18  C   UNL     1     -10.001  12.259  66.889  1.00  0.00    -0.223 A  
HETATM   19  C   UNL     1      -9.188  11.218  66.415  1.00  0.00    -0.206 A  
HETATM   20  C   UNL     1     -11.037  12.744  66.065  1.00  0.00    -0.315 A  
HETATM   21  C   UNL     1      -9.409  10.660  65.154  1.00  0.00    -0.254 A  
HETATM   22  C   UNL     1     -11.269  12.160  64.812  1.00  0.00    -0.323 A  
HETATM   23  N   UNL     1     -12.399  12.617  63.995  1.00  0.00    -0.437 N  
HETATM   24  C   UNL     1     -10.453  11.121  64.352  1.00  0.00    -0.418 A  
HETATM   25  O   UNL     1     -13.123  13.511  64.455  1.00  0.00    -0.506 OA 
HETATM   26  O   UNL     1     -12.575  12.069  62.896  1.00  0.00    -0.208 OA 
ENDBRANCH  13  18
ENDBRANCH   4   6
ENDBRANCH   3   4
ENDBRANCH   2   3
TORSDOF 6
ENDMDL
MODEL       27
REMARK 921   NORMALIZED FREE ENERGY PREDICTED BY IDOCK:   -5.35 KCAL/MOL
REMARK 922        TOTAL FREE ENERGY PREDICTED BY IDOCK:   -8.38 KCAL/MOL
REMARK 923 INTER-LIGAND FREE ENERGY PREDICTED BY IDOCK:   -7.32 KCAL/MOL
REMARK 924 INTRA-LIGAND FREE ENERGY PREDICTED BY IDOCK:   -1.06 KCAL/MOL
REMARK 927      BINDING AFFINITY PREDICTED BY RF-SCORE:    0.00 PKD
ROOT
HETATM    1  C   UNL     1      -9.357  10.032  63.460  1.00  0.00    -0.301 C  
HETATM    2  C   UNL     1      -9.596  11.469  63.035  1.00  0.00    -0.346 C  
ENDROOT
BRANCH   2   3
HETATM    3  O   UNL     1     -10.014  12.181  64.208  1.00  0.00    -0.285 OA 
BRANCH   3   4
HETATM    4  C   UNL     1     -11.334  12.097  64.511  1.00  0.00    -0.334 C  
HETATM    5  O   UNL     1     -12.204  11.667  63.769  1.00  0.00    -0.359 OA 
BRANCH   4   6
HETATM    6  C   UNL     1     -11.547  12.523  65.917  1.00  0.00    -0.454 C  
HETATM    7  C   UNL     1     -11.678  13.834  66.228  1.00  0.00    -0.376 C  
HETATM    8  N   UNL     1     -11.892  14.203  67.545  1.00  0.00    -0.387 NA 
HETATM    9  C   UNL     1     -11.642  15.012  65.280  1.00  0.00    -0.258 C  
HETATM   10  C   UNL     1     -11.883  13.345  68.623  1.00  0.00    -0.362 C  
HETATM   11  C   UNL     1     -12.038  14.013  69.971  1.00  0.00    -0.412 C  
HETATM   12  C   UNL     1     -11.748  12.011  68.432  1.00  0.00    -0.390 C  
HETATM   13  C   UNL     1     -11.635  11.434  67.008  1.00  0.00    -0.135 C  
BRANCH  12  14
HETATM   14  C   UNL     1     -11.663  11.127  69.625  1.00  0.00    -0.339 C  
HETATM   15  O   UNL     1     -10.614  10.711  70.097  1.00  0.00    -0.199 OA 
BRANCH  14  16
HETATM   16  O   UNL     1     -12.890  10.824  70.126  1.00  0.00    -0.265 OA 
HETATM   17  C   UNL     1     -12.924  10.769  71.554  1.00  0.00    -0.456 C  
ENDBRANCH  14  16
ENDBRANCH  12  14
BRANCH  13  18
HETATM   18  C   UNL     1     -10.482  10.430  66.892  1.00  0.00    -0.300 A  
HETATM   19  C   UNL     1      -9.144  10.852  66.923  1.00  0.00    -0.164 A  
HETATM   20  C   UNL     1     -10.758   9.052  66.781  1.00  0.00    -0.103 A  
HETATM   21  C   UNL     1      -8.102   9.924  66.860  1.00  0.00    -0.113 A  
HETATM   22  C   UNL     1      -9.708   8.126  66.746  1.00  0.00    -0.235 A  
HETATM   23  N   UNL     1     -10.007   6.689  66.711  1.00  0.00    -0.181 N  
HETATM   24  C   UNL     1      -8.379   8.559  66.779  1.00  0.00    -0.109 A  
HETATM   25  O   UNL     1     -11.197   6.344  66.723  1.00  0.00    -0.327 OA 
HETATM   26  O   UNL     1      -9.048   5.901  66.688  1.00  0.00    -0.126 OA 
ENDBRANCH  13  18
ENDBRANCH   4   6
ENDBRANCH   3   4
ENDBRANCH   2   3
TORSDOF 6
ENDMDL
MODEL       28
REMARK 921   NORMALIZED FREE ENERGY PREDICTED BY IDOCK:   -5.31 KCAL/MOL
REMARK 922        TOTAL FREE ENERGY PREDICTED BY IDOCK:   -8.32 KCAL/MOL
REMARK 923 INTER-LIGAND FREE ENERGY PREDICTED BY IDOCK:   -7.41 KCAL/MOL
REMARK 924 INTRA-LIGAND FREE ENERGY PREDICTED BY IDOCK:   -0.92 KCAL/MOL
REMARK 927      BINDING AFFINITY PREDICTED BY RF-SCORE:    0.00 PKD
ROOT
HETATM    1  C   UNL     1      -8.695  15.105  66.567  1.00  0.00    -0.280 C  
HETATM    2  C   UNL     1      -9.733  14.238  65.879  1.00  0.00    -0.262 C  
ENDROOT
BRANCH   2   3
HETATM    3  O   UNL     1      -9.977  13.121  66.745  1.00  0.00    -0.239 OA 
BRANCH   3   4
HETATM    4  C   UNL     1     -11.252  12.658  66.766  1.00  0.00    -0.300 C  
HETATM    5  O   UNL     1     -11.878  12.264  65.794  1.00  0.00    -0.434 OA 
BRANCH   4   6
HETATM    6  C   UNL     1     -11.741  12.617  68.167  1.00  0.00    -0.396 C  
HETATM    7  C   UNL     1     -12.011  13.762  68.837  1.00  0.00    -0.359 C  
HETATM    8  N   UNL     1     -12.481  13.695  70.138  1.00  0.00    -0.282 NA 
HETATM    9  C   UNL     1     -11.883  15.179  68.324  1.00  0.00    -0.275 C  
HETATM   10  C   UNL     1     -12.609  12.540  70.879  1.00  0.00    -0.241 C  
HETATM   11  C   UNL     1     -13.047  12.748  72.312  1.00  0.00    -0.400 C  
HETATM   12  C   UNL     1     -12.355  11.335  70.314  1.00  0.00    -0.389 C  
HETATM   13  C   UNL     1     -11.951  11.239  68.831  1.00  0.00    -0.378 C  
BRANCH  12  14
HETATM   14  C   UNL     1     -12.426  10.121  71.170  1.00  0.00    -0.387 C  
HETATM   15  O   UNL     1     -11.466   9.634  71.751  1.00  0.00    -0.365 OA 
BRANCH  14  16
HETATM   16  O   UNL     1     -13.683   9.605  71.221  1.00  0.00    -0.323 OA 
HETATM   17  C   UNL     1     -13.965   8.916  72.442  1.00  0.00    -0.448 C  
ENDBRANCH  14  16
ENDBRANCH  12  14
BRANCH  13  18
HETATM   18  C   UNL     1     -10.732  10.329  68.632  1.00  0.00    -0.255 A  
HETATM   19  C   UNL     1      -9.457  10.716  69.073  1.00  0.00    -0.202 A  
HETATM   20  C   UNL     1     -10.888   9.068  68.023  1.00  0.00    -0.102 A  
HETATM   21  C   UNL     1      -8.363   9.860  68.926  1.00  0.00    -0.124 A  
HETATM   22  C   UNL     1      -9.791   8.205  67.903  1.00  0.00    -0.169 A  
HETATM   23  N   UNL     1      -9.979   6.863  67.340  1.00  0.00    -0.153 N  
HETATM   24  C   UNL     1      -8.526   8.601  68.349  1.00  0.00    -0.131 A  
HETATM   25  O   UNL     1     -11.123   6.535  66.994  1.00  0.00    -0.399 OA 
HETATM   26  O   UNL     1      -8.984   6.126  67.259  1.00  0.00    -0.114 OA 
ENDBRANCH  13  18
ENDBRANCH   4   6
ENDBRANCH   3   4
ENDBRANCH   2   3
TORSDOF 6
ENDMDL
MODEL       29
REMARK 921   NORMALIZED FREE ENERGY PREDICTED BY IDOCK:   -5.31 KCAL/MOL
REMARK 922        TOTAL FREE ENERGY PREDICTED BY IDOCK:   -8.32 KCAL/MOL
REMARK 923 INTER-LIGAND FREE ENERGY PREDICTED BY IDOCK:   -7.17 KCAL/MOL
REMARK 924 INTRA-LIGAND FREE ENERGY PREDICTED BY IDOCK:   -1.14 KCAL/MOL
REMARK 927      BINDING AFFINITY PREDICTED BY RF-SCORE:    0.00 PKD
ROOT
HETATM    1  C   UNL     1     -11.741  15.168  68.888  1.00  0.00    -0.357 C  
HETATM    2  C   UNL     1     -12.039  13.950  69.742  1.00  0.00    -0.345 C  
ENDROOT
BRANCH   2   3
HETATM    3  O   UNL     1     -11.096  12.939  69.361  1.00  0.00    -0.183 OA 
BRANCH   3   4
HETATM    4  C   UNL     1     -11.627  11.758  68.957  1.00  0.00    -0.311 C  
HETATM    5  O   UNL     1     -12.806  11.446  69.042  1.00  0.00     0.079 OA 
BRANCH   4   6
HETATM    6  C   UNL     1     -10.573  10.935  68.312  1.00  0.00    -0.223 C  
HETATM    7  C   UNL     1      -9.886  10.012  69.024  1.00  0.00    -0.199 C  
HETATM    8  N   UNL     1      -8.919   9.248  68.395  1.00  0.00    -0.129 NA 
HETATM    9  C   UNL     1     -10.054   9.669  70.488  1.00  0.00    -0.338 C  
HETATM   10  C   UNL     1      -8.501   9.409  67.092  1.00  0.00    -0.128 C  
HETATM   11  C   UNL     1      -7.356   8.514  66.674  1.00  0.00    -0.081 C  
HETATM   12  C   UNL     1      -9.111  10.312  66.287  1.00  0.00    -0.178 C  
HETATM   13  C   UNL     1     -10.296  11.146  66.808  1.00  0.00    -0.284 C  
BRANCH  12  14
HETATM   14  C   UNL     1      -8.578  10.513  64.913  1.00  0.00    -0.172 C  
HETATM   15  O   UNL     1      -7.459  10.941  64.667  1.00  0.00     0.205 OA 
BRANCH  14  16
HETATM   16  O   UNL     1      -9.486  10.176  63.958  1.00  0.00    -0.271 OA 
HETATM   17  C   UNL     1      -8.891   9.832  62.704  1.00  0.00    -0.244 C  
ENDBRANCH  14  16
ENDBRANCH  12  14
BRANCH  13  18
HETATM   18  C   UNL     1     -10.136  12.633  66.470  1.00  0.00    -0.257 A  
HETATM   19  C   UNL     1      -9.057  13.380  66.968  1.00  0.00    -0.245 A  
HETATM   20  C   UNL     1     -11.068  13.266  65.623  1.00  0.00    -0.299 A  
HETATM   21  C   UNL     1      -8.898  14.723  66.618  1.00  0.00    -0.262 A  
HETATM   22  C   UNL     1     -10.887  14.606  65.255  1.00  0.00    -0.377 A  
HETATM   23  N   UNL     1     -11.817  15.232  64.308  1.00  0.00    -0.327 N  
HETATM   24  C   UNL     1      -9.806  15.338  65.755  1.00  0.00    -0.395 A  
HETATM   25  O   UNL     1     -12.739  14.539  63.856  1.00  0.00    -0.782 OA 
HETATM   26  O   UNL     1     -11.618  16.418  64.002  1.00  0.00    -1.071 OA 
ENDBRANCH  13  18
ENDBRANCH   4   6
ENDBRANCH   3   4
ENDBRANCH   2   3
TORSDOF 6
ENDMDL
MODEL       30
REMARK 921   NORMALIZED FREE ENERGY PREDICTED BY IDOCK:   -5.28 KCAL/MOL
REMARK 922        TOTAL FREE ENERGY PREDICTED BY IDOCK:   -8.29 KCAL/MOL
REMARK 923 INTER-LIGAND FREE ENERGY PREDICTED BY IDOCK:   -7.37 KCAL/MOL
REMARK 924 INTRA-LIGAND FREE ENERGY PREDICTED BY IDOCK:   -0.92 KCAL/MOL
REMARK 927      BINDING AFFINITY PREDICTED BY RF-SCORE:    0.00 PKD
ROOT
HETATM    1  C   UNL     1      -7.285  10.075  70.066  1.00  0.00    -0.158 C  
HETATM    2  C   UNL     1      -8.743   9.653  70.070  1.00  0.00    -0.231 C  
ENDROOT
BRANCH   2   3
HETATM    3  O   UNL     1      -9.478  10.704  69.429  1.00  0.00    -0.176 OA 
BRANCH   3   4
HETATM    4  C   UNL     1     -10.703  10.364  68.956  1.00  0.00    -0.228 C  
HETATM    5  O   UNL     1     -11.588   9.827  69.605  1.00  0.00    -0.126 OA 
BRANCH   4   6
HETATM    6  C   UNL     1     -10.839  10.826  67.552  1.00  0.00    -0.342 C  
HETATM    7  C   UNL     1     -10.307  10.109  66.535  1.00  0.00    -0.202 C  
HETATM    8  N   UNL     1     -10.461  10.554  65.234  1.00  0.00    -0.224 NA 
HETATM    9  C   UNL     1      -9.545   8.805  66.630  1.00  0.00    -0.283 C  
HETATM   10  C   UNL     1     -11.035  11.752  64.865  1.00  0.00    -0.300 C  
HETATM   11  C   UNL     1     -10.988  12.052  63.384  1.00  0.00    -0.475 C  
HETATM   12  C   UNL     1     -11.591  12.558  65.802  1.00  0.00    -0.439 C  
HETATM   13  C   UNL     1     -11.616  12.133  67.282  1.00  0.00    -0.404 C  
BRANCH  12  14
HETATM   14  C   UNL     1     -12.128  13.878  65.375  1.00  0.00    -0.408 C  
HETATM   15  O   UNL     1     -13.318  14.119  65.227  1.00  0.00    -0.715 OA 
BRANCH  14  16
HETATM   16  O   UNL     1     -11.139  14.784  65.154  1.00  0.00    -0.341 OA 
HETATM   17  C   UNL     1     -11.512  15.824  64.245  1.00  0.00    -0.198 C  
ENDBRANCH  14  16
ENDBRANCH  12  14
BRANCH  13  18
HETATM   18  C   UNL     1     -11.150  13.264  68.206  1.00  0.00    -0.294 A  
HETATM   19  C   UNL     1     -11.930  13.682  69.295  1.00  0.00    -0.384 A  
HETATM   20  C   UNL     1      -9.903  13.884  67.984  1.00  0.00    -0.234 A  
HETATM   21  C   UNL     1     -11.475  14.683  70.155  1.00  0.00    -0.310 A  
HETATM   22  C   UNL     1      -9.442  14.869  68.868  1.00  0.00    -0.209 A  
HETATM   23  N   UNL     1      -8.108  15.451  68.675  1.00  0.00    -0.146 N  
HETATM   24  C   UNL     1     -10.228  15.274  69.951  1.00  0.00    -0.233 A  
HETATM   25  O   UNL     1      -7.426  15.037  67.727  1.00  0.00    -0.127 OA 
HETATM   26  O   UNL     1      -7.734  16.315  69.484  1.00  0.00    -0.179 OA 
ENDBRANCH  13  18
ENDBRANCH   4   6
ENDBRANCH   3   4
ENDBRANCH   2   3
TORSDOF 6
ENDMDL
MODEL       31
REMARK 921   NORMALIZED FREE ENERGY PREDICTED BY IDOCK:   -5.27 KCAL/MOL
REMARK 922        TOTAL FREE ENERGY PREDICTED BY IDOCK:   -8.26 KCAL/MOL
REMARK 923 INTER-LIGAND FREE ENERGY PREDICTED BY IDOCK:   -7.11 KCAL/MOL
REMARK 924 INTRA-LIGAND FREE ENERGY PREDICTED BY IDOCK:   -1.15 KCAL/MOL
REMARK 927      BINDING AFFINITY PREDICTED BY RF-SCORE:    0.00 PKD
ROOT
HETATM    1  C   UNL     1     -11.874  12.929  64.072  1.00  0.00    -0.512 C  
HETATM    2  C   UNL     1     -12.523  13.523  65.309  1.00  0.00    -0.482 C  
ENDROOT
BRANCH   2   3
HETATM    3  O   UNL     1     -12.321  12.582  66.372  1.00  0.00    -0.537 OA 
BRANCH   3   4
HETATM    4  C   UNL     1     -11.486  12.981  67.363  1.00  0.00    -0.332 C  
HETATM    5  O   UNL     1     -10.919  14.062  67.419  1.00  0.00    -0.284 OA 
BRANCH   4   6
HETATM    6  C   UNL     1     -11.435  11.939  68.419  1.00  0.00    -0.357 C  
HETATM    7  C   UNL     1     -11.889  12.199  69.667  1.00  0.00    -0.322 C  
HETATM    8  N   UNL     1     -11.845  11.205  70.629  1.00  0.00    -0.337 NA 
HETATM    9  C   UNL     1     -12.490  13.491  70.176  1.00  0.00    -0.276 C  
HETATM   10  C   UNL     1     -11.270   9.963  70.464  1.00  0.00    -0.330 C  
HETATM   11  C   UNL     1     -11.260   9.095  71.702  1.00  0.00    -0.447 C  
HETATM   12  C   UNL     1     -10.773   9.597  69.258  1.00  0.00    -0.246 C  
HETATM   13  C   UNL     1     -10.871  10.549  68.052  1.00  0.00    -0.312 C  
BRANCH  12  14
HETATM   14  C   UNL     1     -10.089   8.281  69.141  1.00  0.00    -0.202 C  
HETATM   15  O   UNL     1      -8.931   8.078  69.477  1.00  0.00    -0.146 OA 
BRANCH  14  16
HETATM   16  O   UNL     1     -10.900   7.330  68.604  1.00  0.00    -0.170 OA 
HETATM   17  C   UNL     1     -11.043   6.172  69.432  1.00  0.00    -0.409 C  
ENDBRANCH  14  16
ENDBRANCH  12  14
BRANCH  13  18
HETATM   18  C   UNL     1      -9.534  10.665  67.309  1.00  0.00    -0.178 A  
HETATM   19  C   UNL     1      -8.362  11.052  67.978  1.00  0.00    -0.125 A  
HETATM   20  C   UNL     1      -9.463  10.353  65.937  1.00  0.00    -0.237 A  
HETATM   21  C   UNL     1      -7.143  11.112  67.300  1.00  0.00    -0.109 A  
HETATM   22  C   UNL     1      -8.231  10.389  65.271  1.00  0.00    -0.162 A  
HETATM   23  N   UNL     1      -8.153   9.984  63.862  1.00  0.00    -0.147 N  
HETATM   24  C   UNL     1      -7.070  10.774  65.949  1.00  0.00    -0.080 A  
HETATM   25  O   UNL     1      -9.197   9.612  63.308  1.00  0.00    -0.244 OA 
HETATM   26  O   UNL     1      -7.042  10.023  63.311  1.00  0.00    -0.126 OA 
ENDBRANCH  13  18
ENDBRANCH   4   6
ENDBRANCH   3   4
ENDBRANCH   2   3
TORSDOF 6
ENDMDL
MODEL       32
REMARK 921   NORMALIZED FREE ENERGY PREDICTED BY IDOCK:   -5.26 KCAL/MOL
REMARK 922        TOTAL FREE ENERGY PREDICTED BY IDOCK:   -8.25 KCAL/MOL
REMARK 923 INTER-LIGAND FREE ENERGY PREDICTED BY IDOCK:   -7.02 KCAL/MOL
REMARK 924 INTRA-LIGAND FREE ENERGY PREDICTED BY IDOCK:   -1.23 KCAL/MOL
REMARK 927      BINDING AFFINITY PREDICTED BY RF-SCORE:    0.00 PKD
ROOT
HETATM    1  C   UNL     1      -9.196  10.003  63.338  1.00  0.00    -0.317 C  
HETATM    2  C   UNL     1      -9.528  11.447  63.010  1.00  0.00    -0.358 C  
ENDROOT
BRANCH   2   3
HETATM    3  O   UNL     1      -9.906  12.074  64.244  1.00  0.00    -0.243 OA 
BRANCH   3   4
HETATM    4  C   UNL     1     -11.229  12.039  64.542  1.00  0.00    -0.332 C  
HETATM    5  O   UNL     1     -12.114  11.648  63.794  1.00  0.00    -0.375 OA 
BRANCH   4   6
HETATM    6  C   UNL     1     -11.431  12.462  65.950  1.00  0.00    -0.422 C  
HETATM    7  C   UNL     1     -11.548  13.773  66.267  1.00  0.00    -0.350 C  
HETATM    8  N   UNL     1     -11.751  14.139  67.586  1.00  0.00    -0.366 NA 
HETATM    9  C   UNL     1     -11.506  14.954  65.322  1.00  0.00    -0.336 C  
HETATM   10  C   UNL     1     -11.745  13.278  68.661  1.00  0.00    -0.341 C  
HETATM   11  C   UNL     1     -11.886  13.943  70.012  1.00  0.00    -0.384 C  
HETATM   12  C   UNL     1     -11.623  11.943  68.465  1.00  0.00    -0.375 C  
HETATM   13  C   UNL     1     -11.523  11.370  67.039  1.00  0.00    -0.234 C  
BRANCH  12  14
HETATM   14  C   UNL     1     -11.539  11.054  69.654  1.00  0.00    -0.318 C  
HETATM   15  O   UNL     1     -10.489  10.670  70.151  1.00  0.00    -0.144 OA 
BRANCH  14  16
HETATM   16  O   UNL     1     -12.769  10.707  70.121  1.00  0.00    -0.308 OA 
HETATM   17  C   UNL     1     -12.859  10.718  71.548  1.00  0.00    -0.462 C  
ENDBRANCH  14  16
ENDBRANCH  12  14
BRANCH  13  18
HETATM   18  C   UNL     1     -10.380  10.356  66.913  1.00  0.00    -0.297 A  
HETATM   19  C   UNL     1     -10.638   8.995  66.682  1.00  0.00    -0.158 A  
HETATM   20  C   UNL     1      -9.042  10.789  67.000  1.00  0.00    -0.155 A  
HETATM   21  C   UNL     1      -9.588   8.088  66.525  1.00  0.00    -0.295 A  
HETATM   22  C   UNL     1      -7.994   9.878  66.814  1.00  0.00    -0.116 A  
HETATM   23  N   UNL     1      -6.606  10.353  66.827  1.00  0.00    -0.073 N  
HETATM   24  C   UNL     1      -8.264   8.525  66.583  1.00  0.00    -0.108 A  
HETATM   25  O   UNL     1      -6.409  11.565  66.995  1.00  0.00    -0.104 OA 
HETATM   26  O   UNL     1      -5.707   9.515  66.651  1.00  0.00    -0.052 OA 
ENDBRANCH  13  18
ENDBRANCH   4   6
ENDBRANCH   3   4
ENDBRANCH   2   3
TORSDOF 6
ENDMDL
MODEL       33
REMARK 921   NORMALIZED FREE ENERGY PREDICTED BY IDOCK:   -5.24 KCAL/MOL
REMARK 922        TOTAL FREE ENERGY PREDICTED BY IDOCK:   -8.23 KCAL/MOL
REMARK 923 INTER-LIGAND FREE ENERGY PREDICTED BY IDOCK:   -7.42 KCAL/MOL
REMARK 924 INTRA-LIGAND FREE ENERGY PREDICTED BY IDOCK:   -0.81 KCAL/MOL
REMARK 927      BINDING AFFINITY PREDICTED BY RF-SCORE:    0.00 PKD
ROOT
HETATM    1  C   UNL     1     -12.746  14.025  71.031  1.00  0.00    -0.431 C  
HETATM    2  C   UNL     1     -12.919  12.576  71.449  1.00  0.00    -0.251 C  
ENDROOT
BRANCH   2   3
HETATM    3  O   UNL     1     -11.932  11.820  70.734  1.00  0.00    -0.319 OA 
BRANCH   3   4
HETATM    4  C   UNL     1     -12.283  10.552  70.406  1.00  0.00    -0.328 C  
HETATM    5  O   UNL     1     -13.408  10.084  70.495  1.00  0.00    -0.213 OA 
BRANCH   4   6
HETATM    6  C   UNL     1     -11.110   9.845  69.834  1.00  0.00    -0.318 C  
HETATM    7  C   UNL     1     -10.294   9.111  70.625  1.00  0.00    -0.246 C  
HETATM    8  N   UNL     1      -9.215   8.450  70.064  1.00  0.00    -0.157 NA 
HETATM    9  C   UNL     1     -10.417   8.887  72.116  1.00  0.00    -0.320 C  
HETATM   10  C   UNL     1      -8.817   8.549  68.748  1.00  0.00    -0.139 C  
HETATM   11  C   UNL     1      -7.544   7.807  68.409  1.00  0.00    -0.109 C  
HETATM   12  C   UNL     1      -9.554   9.267  67.866  1.00  0.00    -0.163 C  
HETATM   13  C   UNL     1     -10.858   9.952  68.314  1.00  0.00    -0.275 C  
BRANCH  12  14
HETATM   14  C   UNL     1      -9.048   9.417  66.475  1.00  0.00    -0.153 C  
HETATM   15  O   UNL     1      -9.476   8.786  65.518  1.00  0.00    -0.169 OA 
BRANCH  14  16
HETATM   16  O   UNL     1      -8.044  10.330  66.392  1.00  0.00    -0.116 OA 
HETATM   17  C   UNL     1      -7.054   9.999  65.414  1.00  0.00    -0.138 C  
ENDBRANCH  14  16
ENDBRANCH  12  14
BRANCH  13  18
HETATM   18  C   UNL     1     -10.928  11.408  67.835  1.00  0.00    -0.295 A  
HETATM   19  C   UNL     1     -10.141  12.407  68.429  1.00  0.00    -0.217 A  
HETATM   20  C   UNL     1     -11.774  11.755  66.762  1.00  0.00    -0.197 A  
HETATM   21  C   UNL     1     -10.181  13.720  67.956  1.00  0.00    -0.248 A  
HETATM   22  C   UNL     1     -11.788  13.069  66.276  1.00  0.00    -0.408 A  
HETATM   23  N   UNL     1     -12.611  13.403  65.107  1.00  0.00    -0.453 N  
HETATM   24  C   UNL     1     -10.997  14.055  66.875  1.00  0.00    -0.301 A  
HETATM   25  O   UNL     1     -13.266  12.493  64.581  1.00  0.00    -0.848 OA 
HETATM   26  O   UNL     1     -12.590  14.576  64.703  1.00  0.00    -0.607 OA 
ENDBRANCH  13  18
ENDBRANCH   4   6
ENDBRANCH   3   4
ENDBRANCH   2   3
TORSDOF 6
ENDMDL
MODEL       34
REMARK 921   NORMALIZED FREE ENERGY PREDICTED BY IDOCK:   -5.19 KCAL/MOL
REMARK 922        TOTAL FREE ENERGY PREDICTED BY IDOCK:   -8.16 KCAL/MOL
REMARK 923 INTER-LIGAND FREE ENERGY PREDICTED BY IDOCK:   -7.56 KCAL/MOL
REMARK 924 INTRA-LIGAND FREE ENERGY PREDICTED BY IDOCK:   -0.60 KCAL/MOL
REMARK 927      BINDING AFFINITY PREDICTED BY RF-SCORE:    0.00 PKD
ROOT
HETATM    1  C   UNL     1      -9.183  16.174  66.003  1.00  0.00    -0.363 C  
HETATM    2  C   UNL     1     -10.641  16.176  65.582  1.00  0.00    -0.363 C  
ENDROOT
BRANCH   2   3
HETATM    3  O   UNL     1     -10.888  14.915  64.945  1.00  0.00    -0.390 OA 
BRANCH   3   4
HETATM    4  C   UNL     1     -11.657  14.042  65.642  1.00  0.00    -0.331 C  
HETATM    5  O   UNL     1     -12.807  14.244  66.003  1.00  0.00    -0.379 OA 
BRANCH   4   6
HETATM    6  C   UNL     1     -10.921  12.766  65.821  1.00  0.00    -0.306 C  
HETATM    7  C   UNL     1     -11.055  11.760  64.925  1.00  0.00    -0.285 C  
HETATM    8  N   UNL     1     -10.345  10.586  65.107  1.00  0.00    -0.284 NA 
HETATM    9  C   UNL     1     -11.906  11.751  63.674  1.00  0.00    -0.498 C  
HETATM   10  C   UNL     1      -9.564  10.291  66.204  1.00  0.00    -0.197 C  
HETATM   11  C   UNL     1      -8.976   8.898  66.211  1.00  0.00    -0.207 C  
HETATM   12  C   UNL     1      -9.366  11.220  67.170  1.00  0.00    -0.172 C  
HETATM   13  C   UNL     1      -9.984  12.624  67.041  1.00  0.00    -0.220 C  
BRANCH  12  14
HETATM   14  C   UNL     1      -8.584  10.835  68.375  1.00  0.00    -0.141 C  
HETATM   15  O   UNL     1      -7.448  11.225  68.609  1.00  0.00    -0.102 OA 
BRANCH  14  16
HETATM   16  O   UNL     1      -9.275   9.988  69.184  1.00  0.00    -0.167 OA 
HETATM   17  C   UNL     1      -8.455   9.336  70.158  1.00  0.00    -0.191 C  
ENDBRANCH  14  16
ENDBRANCH  12  14
BRANCH  13  18
HETATM   18  C   UNL     1     -10.681  13.060  68.335  1.00  0.00    -0.273 A  
HETATM   19  C   UNL     1     -10.642  14.394  68.768  1.00  0.00    -0.256 A  
HETATM   20  C   UNL     1     -11.401  12.118  69.098  1.00  0.00    -0.333 A  
HETATM   21  C   UNL     1     -11.317  14.787  69.926  1.00  0.00    -0.310 A  
HETATM   22  C   UNL     1     -12.098  12.525  70.243  1.00  0.00    -0.294 A  
HETATM   23  N   UNL     1     -12.910  11.553  70.985  1.00  0.00    -0.307 N  
HETATM   24  C   UNL     1     -12.053  13.859  70.663  1.00  0.00    -0.417 A  
HETATM   25  O   UNL     1     -12.956  10.391  70.558  1.00  0.00    -0.344 OA 
HETATM   26  O   UNL     1     -13.517  11.956  71.989  1.00  0.00    -0.431 OA 
ENDBRANCH  13  18
ENDBRANCH   4   6
ENDBRANCH   3   4
ENDBRANCH   2   3
TORSDOF 6
ENDMDL
MODEL       35
REMARK 921   NORMALIZED FREE ENERGY PREDICTED BY IDOCK:   -5.17 KCAL/MOL
REMARK 922        TOTAL FREE ENERGY PREDICTED BY IDOCK:   -8.13 KCAL/MOL
REMARK 923 INTER-LIGAND FREE ENERGY PREDICTED BY IDOCK:   -7.00 KCAL/MOL
REMARK 924 INTRA-LIGAND FREE ENERGY PREDICTED BY IDOCK:   -1.12 KCAL/MOL
REMARK 927      BINDING AFFINITY PREDICTED BY RF-SCORE:    0.00 PKD
ROOT
HETATM    1  C   UNL     1     -12.834  10.842  71.163  1.00  0.00    -0.508 C  
HETATM    2  C   UNL     1     -11.725   9.846  70.882  1.00  0.00    -0.364 C  
ENDROOT
BRANCH   2   3
HETATM    3  O   UNL     1     -11.495   9.874  69.466  1.00  0.00    -0.180 OA 
BRANCH   3   4
HETATM    4  C   UNL     1     -10.201  10.001  69.080  1.00  0.00    -0.203 C  
HETATM    5  O   UNL     1      -9.230   9.899  69.814  1.00  0.00    -0.213 OA 
BRANCH   4   6
HETATM    6  C   UNL     1     -10.140  10.193  67.609  1.00  0.00    -0.231 C  
HETATM    7  C   UNL     1      -9.485   9.306  66.824  1.00  0.00    -0.175 C  
HETATM    8  N   UNL     1      -9.455   9.500  65.454  1.00  0.00    -0.266 NA 
HETATM    9  C   UNL     1      -8.758   8.053  67.262  1.00  0.00    -0.132 C  
HETATM   10  C   UNL     1      -9.959  10.601  64.796  1.00  0.00    -0.327 C  
HETATM   11  C   UNL     1      -9.709  10.622  63.305  1.00  0.00    -0.385 C  
HETATM   12  C   UNL     1     -10.626  11.560  65.483  1.00  0.00    -0.334 C  
HETATM   13  C   UNL     1     -10.857  11.417  66.998  1.00  0.00    -0.331 C  
BRANCH  12  14
HETATM   14  C   UNL     1     -11.084  12.771  64.749  1.00  0.00    -0.302 C  
HETATM   15  O   UNL     1     -10.339  13.658  64.359  1.00  0.00    -0.428 OA 
BRANCH  14  16
HETATM   16  O   UNL     1     -12.432  12.782  64.573  1.00  0.00    -0.499 OA 
HETATM   17  C   UNL     1     -13.086  13.855  65.258  1.00  0.00    -0.158 C  
ENDBRANCH  14  16
ENDBRANCH  12  14
BRANCH  13  18
HETATM   18  C   UNL     1     -10.505  12.706  67.751  1.00  0.00    -0.228 A  
HETATM   19  C   UNL     1     -11.410  13.293  68.649  1.00  0.00    -0.324 A  
HETATM   20  C   UNL     1      -9.243  13.305  67.567  1.00  0.00    -0.213 A  
HETATM   21  C   UNL     1     -11.061  14.442  69.362  1.00  0.00    -0.294 A  
HETATM   22  C   UNL     1      -8.891  14.442  68.306  1.00  0.00    -0.182 A  
HETATM   23  N   UNL     1      -7.545  15.012  68.167  1.00  0.00    -0.105 N  
HETATM   24  C   UNL     1      -9.800  15.017  69.200  1.00  0.00    -0.223 A  
HETATM   25  O   UNL     1      -6.755  14.451  67.395  1.00  0.00    -0.256 OA 
HETATM   26  O   UNL     1      -7.271  16.015  68.844  1.00  0.00    -0.145 OA 
ENDBRANCH  13  18
ENDBRANCH   4   6
ENDBRANCH   3   4
ENDBRANCH   2   3
TORSDOF 6
ENDMDL
MODEL       36
REMARK 921   NORMALIZED FREE ENERGY PREDICTED BY IDOCK:   -5.14 KCAL/MOL
REMARK 922        TOTAL FREE ENERGY PREDICTED BY IDOCK:   -8.09 KCAL/MOL
REMARK 923 INTER-LIGAND FREE ENERGY PREDICTED BY IDOCK:   -7.36 KCAL/MOL
REMARK 924 INTRA-LIGAND FREE ENERGY PREDICTED BY IDOCK:   -0.74 KCAL/MOL
REMARK 927      BINDING AFFINITY PREDICTED BY RF-SCORE:    0.00 PKD
ROOT
HETATM    1  C   UNL     1      -9.726  10.615  64.060  1.00  0.00    -0.373 C  
HETATM    2  C   UNL     1     -10.659  11.811  64.051  1.00  0.00    -0.375 C  
ENDROOT
BRANCH   2   3
HETATM    3  O   UNL     1     -10.938  12.127  65.423  1.00  0.00    -0.285 OA 
BRANCH   3   4
HETATM    4  C   UNL     1     -12.054  12.866  65.643  1.00  0.00    -0.458 C  
HETATM    5  O   UNL     1     -13.180  12.578  65.267  1.00  0.00    -0.417 OA 
BRANCH   4   6
HETATM    6  C   UNL     1     -11.713  14.035  66.492  1.00  0.00    -0.412 C  
HETATM    7  C   UNL     1     -11.151  15.141  65.951  1.00  0.00    -0.319 C  
HETATM    8  N   UNL     1     -10.857  16.223  66.762  1.00  0.00    -0.197 NA 
HETATM    9  C   UNL     1     -10.799  15.375  64.498  1.00  0.00    -0.140 C  
HETATM   10  C   UNL     1     -10.992  16.249  68.134  1.00  0.00    -0.343 C  
HETATM   11  C   UNL     1     -10.504  17.517  68.798  1.00  0.00    -0.318 C  
HETATM   12  C   UNL     1     -11.535  15.192  68.785  1.00  0.00    -0.335 C  
HETATM   13  C   UNL     1     -12.034  13.965  68.001  1.00  0.00    -0.390 C  
BRANCH  12  14
HETATM   14  C   UNL     1     -11.589  15.226  70.271  1.00  0.00    -0.301 C  
HETATM   15  O   UNL     1     -10.606  15.152  70.996  1.00  0.00    -0.111 OA 
BRANCH  14  16
HETATM   16  O   UNL     1     -12.863  15.337  70.734  1.00  0.00    -0.393 OA 
HETATM   17  C   UNL     1     -12.971  15.172  72.150  1.00  0.00    -0.353 C  
ENDBRANCH  14  16
ENDBRANCH  12  14
BRANCH  13  18
HETATM   18  C   UNL     1     -11.535  12.653  68.620  1.00  0.00    -0.347 A  
HETATM   19  C   UNL     1     -12.388  11.835  69.376  1.00  0.00    -0.097 A  
HETATM   20  C   UNL     1     -10.205  12.238  68.409  1.00  0.00    -0.220 A  
HETATM   21  C   UNL     1     -11.934  10.622  69.897  1.00  0.00    -0.385 A  
HETATM   22  C   UNL     1      -9.764  11.007  68.912  1.00  0.00    -0.172 A  
HETATM   23  N   UNL     1      -8.402  10.546  68.619  1.00  0.00    -0.124 N  
HETATM   24  C   UNL     1     -10.625  10.199  69.662  1.00  0.00    -0.286 A  
HETATM   25  O   UNL     1      -7.683  11.272  67.918  1.00  0.00    -0.103 OA 
HETATM   26  O   UNL     1      -8.054   9.447  69.077  1.00  0.00    -0.101 OA 
ENDBRANCH  13  18
ENDBRANCH   4   6
ENDBRANCH   3   4
ENDBRANCH   2   3
TORSDOF 6
ENDMDL
MODEL       37
REMARK 921   NORMALIZED FREE ENERGY PREDICTED BY IDOCK:   -5.14 KCAL/MOL
REMARK 922        TOTAL FREE ENERGY PREDICTED BY IDOCK:   -8.09 KCAL/MOL
REMARK 923 INTER-LIGAND FREE ENERGY PREDICTED BY IDOCK:   -7.46 KCAL/MOL
REMARK 924 INTRA-LIGAND FREE ENERGY PREDICTED BY IDOCK:   -0.63 KCAL/MOL
REMARK 927      BINDING AFFINITY PREDICTED BY RF-SCORE:    0.00 PKD
ROOT
HETATM    1  C   UNL     1     -11.186   6.503  68.002  1.00  0.00    -0.251 C  
HETATM    2  C   UNL     1     -10.476   7.781  67.598  1.00  0.00    -0.239 C  
ENDROOT
BRANCH   2   3
HETATM    3  O   UNL     1     -11.122   8.851  68.303  1.00  0.00     0.044 OA 
BRANCH   3   4
HETATM    4  C   UNL     1     -10.364   9.488  69.231  1.00  0.00    -0.208 C  
HETATM    5  O   UNL     1      -9.325   9.060  69.711  1.00  0.00    -0.159 OA 
BRANCH   4   6
HETATM    6  C   UNL     1     -10.943  10.826  69.510  1.00  0.00    -0.317 C  
HETATM    7  C   UNL     1     -11.955  10.968  70.397  1.00  0.00    -0.368 C  
HETATM    8  N   UNL     1     -12.467  12.229  70.650  1.00  0.00    -0.285 NA 
HETATM    9  C   UNL     1     -12.627   9.882  71.209  1.00  0.00    -0.480 C  
HETATM   10  C   UNL     1     -12.102  13.383  69.990  1.00  0.00    -0.334 C  
HETATM   11  C   UNL     1     -12.885  14.616  70.382  1.00  0.00    -0.321 C  
HETATM   12  C   UNL     1     -11.106  13.358  69.072  1.00  0.00    -0.293 C  
HETATM   13  C   UNL     1     -10.349  12.049  68.779  1.00  0.00    -0.181 C  
BRANCH  12  14
HETATM   14  C   UNL     1     -10.797  14.605  68.324  1.00  0.00    -0.245 C  
HETATM   15  O   UNL     1     -11.605  15.206  67.629  1.00  0.00    -0.336 OA 
BRANCH  14  16
HETATM   16  O   UNL     1      -9.506  14.996  68.493  1.00  0.00    -0.190 OA 
HETATM   17  C   UNL     1      -9.354  16.074  69.420  1.00  0.00    -0.218 C  
ENDBRANCH  14  16
ENDBRANCH  12  14
BRANCH  13  18
HETATM   18  C   UNL     1     -10.219  11.793  67.272  1.00  0.00    -0.226 A  
HETATM   19  C   UNL     1      -9.048  11.245  66.726  1.00  0.00    -0.181 A  
HETATM   20  C   UNL     1     -11.299  12.083  66.415  1.00  0.00    -0.411 A  
HETATM   21  C   UNL     1      -8.959  10.976  65.359  1.00  0.00    -0.192 A  
HETATM   22  C   UNL     1     -11.211  11.785  65.049  1.00  0.00    -0.257 A  
HETATM   23  N   UNL     1     -12.370  12.015  64.177  1.00  0.00    -0.375 N  
HETATM   24  C   UNL     1     -10.040  11.236  64.517  1.00  0.00    -0.348 A  
HETATM   25  O   UNL     1     -13.403  12.465  64.694  1.00  0.00    -0.778 OA 
HETATM   26  O   UNL     1     -12.254  11.731  62.975  1.00  0.00    -0.319 OA 
ENDBRANCH  13  18
ENDBRANCH   4   6
ENDBRANCH   3   4
ENDBRANCH   2   3
TORSDOF 6
ENDMDL
MODEL       38
REMARK 921   NORMALIZED FREE ENERGY PREDICTED BY IDOCK:   -5.12 KCAL/MOL
REMARK 922        TOTAL FREE ENERGY PREDICTED BY IDOCK:   -8.07 KCAL/MOL
REMARK 923 INTER-LIGAND FREE ENERGY PREDICTED BY IDOCK:   -7.08 KCAL/MOL
REMARK 924 INTRA-LIGAND FREE ENERGY PREDICTED BY IDOCK:   -0.99 KCAL/MOL
REMARK 927      BINDING AFFINITY PREDICTED BY RF-SCORE:    0.00 PKD
ROOT
HETATM    1  C   UNL     1     -12.383  14.627  71.267  1.00  0.00    -0.407 C  
HETATM    2  C   UNL     1     -12.344  15.748  70.245  1.00  0.00    -0.310 C  
ENDROOT
BRANCH   2   3
HETATM    3  O   UNL     1     -10.995  16.235  70.218  1.00  0.00    -0.347 OA 
BRANCH   3   4
HETATM    4  C   UNL     1     -10.520  16.593  68.999  1.00  0.00    -0.328 C  
HETATM    5  O   UNL     1     -11.070  17.360  68.223  1.00  0.00    -0.251 OA 
BRANCH   4   6
HETATM    6  C   UNL     1      -9.185  15.980  68.787  1.00  0.00    -0.224 C  
HETATM    7  C   UNL     1      -8.075  16.752  68.718  1.00  0.00    -0.252 C  
HETATM    8  N   UNL     1      -6.840  16.154  68.535  1.00  0.00    -0.130 NA 
HETATM    9  C   UNL     1      -7.993  18.257  68.841  1.00  0.00    -0.198 C  
HETATM   10  C   UNL     1      -6.632  14.810  68.307  1.00  0.00    -0.116 C  
HETATM   11  C   UNL     1      -5.196  14.425  68.035  1.00  0.00    -0.103 C  
HETATM   12  C   UNL     1      -7.674  13.944  68.342  1.00  0.00    -0.139 C  
HETATM   13  C   UNL     1      -9.093  14.443  68.667  1.00  0.00    -0.178 C  
BRANCH  12  14
HETATM   14  C   UNL     1      -7.421  12.516  68.011  1.00  0.00    -0.117 C  
HETATM   15  O   UNL     1      -7.484  12.052  66.882  1.00  0.00    -0.131 OA 
BRANCH  14  16
HETATM   16  O   UNL     1      -7.121  11.781  69.116  1.00  0.00    -0.109 OA 
HETATM   17  C   UNL     1      -7.929  10.608  69.254  1.00  0.00    -0.135 C  
ENDBRANCH  14  16
ENDBRANCH  12  14
BRANCH  13  18
HETATM   18  C   UNL     1     -10.129  13.895  67.678  1.00  0.00    -0.241 A  
HETATM   19  C   UNL     1     -10.831  12.709  67.942  1.00  0.00    -0.244 A  
HETATM   20  C   UNL     1     -10.410  14.602  66.491  1.00  0.00    -0.283 A  
HETATM   21  C   UNL     1     -11.803  12.243  67.054  1.00  0.00    -0.329 A  
HETATM   22  C   UNL     1     -11.406  14.143  65.619  1.00  0.00    -0.319 A  
HETATM   23  N   UNL     1     -11.747  14.928  64.427  1.00  0.00    -0.367 N  
HETATM   24  C   UNL     1     -12.100  12.960  65.895  1.00  0.00    -0.503 A  
HETATM   25  O   UNL     1     -11.138  15.990  64.238  1.00  0.00    -0.516 OA 
HETATM   26  O   UNL     1     -12.640  14.491  63.684  1.00  0.00    -0.798 OA 
ENDBRANCH  13  18
ENDBRANCH   4   6
ENDBRANCH   3   4
ENDBRANCH   2   3
TORSDOF 6
ENDMDL
MODEL       39
REMARK 921   NORMALIZED FREE ENERGY PREDICTED BY IDOCK:   -5.11 KCAL/MOL
REMARK 922        TOTAL FREE ENERGY PREDICTED BY IDOCK:   -8.05 KCAL/MOL
REMARK 923 INTER-LIGAND FREE ENERGY PREDICTED BY IDOCK:   -7.00 KCAL/MOL
REMARK 924 INTRA-LIGAND FREE ENERGY PREDICTED BY IDOCK:   -1.06 KCAL/MOL
REMARK 927      BINDING AFFINITY PREDICTED BY RF-SCORE:    0.00 PKD
ROOT
HETATM    1  C   UNL     1     -12.380  14.428  70.776  1.00  0.00    -0.417 C  
HETATM    2  C   UNL     1     -11.971  15.385  69.671  1.00  0.00    -0.343 C  
ENDROOT
BRANCH   2   3
HETATM    3  O   UNL     1     -11.699  14.585  68.512  1.00  0.00    -0.294 OA 
BRANCH   3   4
HETATM    4  C   UNL     1     -10.391  14.324  68.269  1.00  0.00    -0.242 C  
HETATM    5  O   UNL     1      -9.451  14.733  68.935  1.00  0.00    -0.203 OA 
BRANCH   4   6
HETATM    6  C   UNL     1     -10.277  13.390  67.120  1.00  0.00    -0.247 C  
HETATM    7  C   UNL     1     -10.619  13.786  65.873  1.00  0.00    -0.289 C  
HETATM    8  N   UNL     1     -10.489  12.900  64.817  1.00  0.00    -0.334 NA 
HETATM    9  C   UNL     1     -11.133  15.144  65.448  1.00  0.00    -0.371 C  
HETATM   10  C   UNL     1     -10.128  11.575  64.930  1.00  0.00    -0.268 C  
HETATM   11  C   UNL     1     -10.159  10.792  63.637  1.00  0.00    -0.375 C  
HETATM   12  C   UNL     1      -9.774  11.065  66.135  1.00  0.00    -0.257 C  
HETATM   13  C   UNL     1      -9.741  11.966  67.384  1.00  0.00    -0.189 C  
BRANCH  12  14
HETATM   14  C   UNL     1      -9.469   9.613  66.230  1.00  0.00    -0.199 C  
HETATM   15  O   UNL     1      -8.339   9.145  66.202  1.00  0.00    -0.115 OA 
BRANCH  14  16
HETATM   16  O   UNL     1     -10.597   8.860  66.339  1.00  0.00    -0.139 OA 
HETATM   17  C   UNL     1     -10.487   7.809  67.303  1.00  0.00    -0.322 C  
ENDBRANCH  14  16
ENDBRANCH  12  14
BRANCH  13  18
HETATM   18  C   UNL     1     -10.450  11.311  68.575  1.00  0.00    -0.218 A  
HETATM   19  C   UNL     1     -11.845  11.373  68.714  1.00  0.00    -0.388 A  
HETATM   20  C   UNL     1      -9.700  10.608  69.540  1.00  0.00    -0.085 A  
HETATM   21  C   UNL     1     -12.483  10.735  69.781  1.00  0.00    -0.231 A  
HETATM   22  C   UNL     1     -10.350   9.949  70.591  1.00  0.00    -0.187 A  
HETATM   23  N   UNL     1      -9.569   9.153  71.545  1.00  0.00    -0.263 N  
HETATM   24  C   UNL     1     -11.742  10.016  70.717  1.00  0.00    -0.437 A  
HETATM   25  O   UNL     1      -8.343   9.086  71.376  1.00  0.00    -0.273 OA 
HETATM   26  O   UNL     1     -10.183   8.578  72.457  1.00  0.00    -0.310 OA 
ENDBRANCH  13  18
ENDBRANCH   4   6
ENDBRANCH   3   4
ENDBRANCH   2   3
TORSDOF 6
ENDMDL
MODEL       40
REMARK 921   NORMALIZED FREE ENERGY PREDICTED BY IDOCK:   -5.10 KCAL/MOL
REMARK 922        TOTAL FREE ENERGY PREDICTED BY IDOCK:   -8.03 KCAL/MOL
REMARK 923 INTER-LIGAND FREE ENERGY PREDICTED BY IDOCK:   -7.75 KCAL/MOL
REMARK 924 INTRA-LIGAND FREE ENERGY PREDICTED BY IDOCK:   -0.28 KCAL/MOL
REMARK 927      BINDING AFFINITY PREDICTED BY RF-SCORE:    0.00 PKD
ROOT
HETATM    1  C   UNL     1     -10.287  19.826  66.518  1.00  0.00    -0.621 C  
HETATM    2  C   UNL     1     -10.870  19.053  67.686  1.00  0.00    -0.352 C  
ENDROOT
BRANCH   2   3
HETATM    3  O   UNL     1     -10.440  17.693  67.536  1.00  0.00    -0.351 OA 
BRANCH   3   4
HETATM    4  C   UNL     1     -10.151  17.035  68.687  1.00  0.00    -0.303 C  
HETATM    5  O   UNL     1     -10.840  17.035  69.695  1.00  0.00    -0.242 OA 
BRANCH   4   6
HETATM    6  C   UNL     1      -8.911  16.238  68.504  1.00  0.00    -0.219 C  
HETATM    7  C   UNL     1      -7.707  16.848  68.410  1.00  0.00    -0.219 C  
HETATM    8  N   UNL     1      -6.565  16.081  68.256  1.00  0.00    -0.114 NA 
HETATM    9  C   UNL     1      -7.420  18.332  68.476  1.00  0.00    -0.300 C  
HETATM   10  C   UNL     1      -6.543  14.714  68.080  1.00  0.00    -0.146 C  
HETATM   11  C   UNL     1      -5.172  14.126  67.828  1.00  0.00     0.003 C  
HETATM   12  C   UNL     1      -7.692  14.000  68.143  1.00  0.00    -0.143 C  
HETATM   13  C   UNL     1      -9.030  14.700  68.443  1.00  0.00    -0.180 C  
BRANCH  12  14
HETATM   14  C   UNL     1      -7.637  12.539  67.868  1.00  0.00    -0.133 C  
HETATM   15  O   UNL     1      -7.603  12.053  66.746  1.00  0.00    -0.102 OA 
BRANCH  14  16
HETATM   16  O   UNL     1      -7.640  11.803  69.012  1.00  0.00    -0.089 OA 
HETATM   17  C   UNL     1      -8.442  10.622  68.926  1.00  0.00    -0.154 C  
ENDBRANCH  14  16
ENDBRANCH  12  14
BRANCH  13  18
HETATM   18  C   UNL     1     -10.132  14.261  67.471  1.00  0.00    -0.236 A  
HETATM   19  C   UNL     1     -10.880  13.095  67.698  1.00  0.00    -0.269 A  
HETATM   20  C   UNL     1     -10.427  15.049  66.341  1.00  0.00    -0.296 A  
HETATM   21  C   UNL     1     -11.910  12.729  66.829  1.00  0.00    -0.452 A  
HETATM   22  C   UNL     1     -11.480  14.689  65.489  1.00  0.00    -0.341 A  
HETATM   23  N   UNL     1     -11.832  15.559  64.360  1.00  0.00    -0.322 N  
HETATM   24  C   UNL     1     -12.219  13.526  65.727  1.00  0.00    -0.505 A  
HETATM   25  O   UNL     1     -11.179  16.601  64.205  1.00  0.00    -1.098 OA 
HETATM   26  O   UNL     1     -12.775  15.209  63.633  1.00  0.00    -0.569 OA 
ENDBRANCH  13  18
ENDBRANCH   4   6
ENDBRANCH   3   4
ENDBRANCH   2   3
TORSDOF 6
ENDMDL
MODEL       41
REMARK 921   NORMALIZED FREE ENERGY PREDICTED BY IDOCK:   -5.08 KCAL/MOL
REMARK 922        TOTAL FREE ENERGY PREDICTED BY IDOCK:   -8.01 KCAL/MOL
REMARK 923 INTER-LIGAND FREE ENERGY PREDICTED BY IDOCK:   -6.89 KCAL/MOL
REMARK 924 INTRA-LIGAND FREE ENERGY PREDICTED BY IDOCK:   -1.12 KCAL/MOL
REMARK 927      BINDING AFFINITY PREDICTED BY RF-SCORE:    0.00 PKD
ROOT
HETATM    1  C   UNL     1      -9.694   9.509  65.406  1.00  0.00    -0.314 C  
HETATM    2  C   UNL     1     -10.212  10.889  65.047  1.00  0.00    -0.303 C  
ENDROOT
BRANCH   2   3
HETATM    3  O   UNL     1     -10.960  11.356  66.179  1.00  0.00    -0.286 OA 
BRANCH   3   4
HETATM    4  C   UNL     1     -10.244  11.996  67.136  1.00  0.00    -0.202 C  
HETATM    5  O   UNL     1      -9.136  12.488  66.982  1.00  0.00    -0.199 OA 
BRANCH   4   6
HETATM    6  C   UNL     1     -11.050  12.089  68.379  1.00  0.00    -0.290 C  
HETATM    7  C   UNL     1     -11.362  13.294  68.911  1.00  0.00    -0.288 C  
HETATM    8  N   UNL     1     -12.128  13.353  70.062  1.00  0.00    -0.339 NA 
HETATM    9  C   UNL     1     -10.986  14.659  68.378  1.00  0.00    -0.260 C  
HETATM   10  C   UNL     1     -12.534  12.265  70.805  1.00  0.00    -0.265 C  
HETATM   11  C   UNL     1     -13.275  12.603  72.079  1.00  0.00    -0.531 C  
HETATM   12  C   UNL     1     -12.267  11.008  70.374  1.00  0.00    -0.461 C  
HETATM   13  C   UNL     1     -11.537  10.780  69.037  1.00  0.00    -0.370 C  
BRANCH  12  14
HETATM   14  C   UNL     1     -12.650   9.863  71.243  1.00  0.00    -0.381 C  
HETATM   15  O   UNL     1     -11.906   9.346  72.064  1.00  0.00    -0.355 OA 
BRANCH  14  16
HETATM   16  O   UNL     1     -13.925   9.449  71.010  1.00  0.00    -0.172 OA 
HETATM   17  C   UNL     1     -14.354   8.407  71.891  1.00  0.00    -0.473 C  
ENDBRANCH  14  16
ENDBRANCH  12  14
BRANCH  13  18
HETATM   18  C   UNL     1     -10.396   9.765  69.179  1.00  0.00    -0.225 A  
HETATM   19  C   UNL     1     -10.557   8.430  68.779  1.00  0.00    -0.154 A  
HETATM   20  C   UNL     1      -9.150  10.176  69.693  1.00  0.00    -0.195 A  
HETATM   21  C   UNL     1      -9.497   7.526  68.872  1.00  0.00    -0.145 A  
HETATM   22  C   UNL     1      -8.083   9.270  69.758  1.00  0.00    -0.120 A  
HETATM   23  N   UNL     1      -6.767   9.728  70.219  1.00  0.00    -0.095 N  
HETATM   24  C   UNL     1      -8.256   7.942  69.354  1.00  0.00    -0.130 A  
HETATM   25  O   UNL     1      -6.644  10.921  70.531  1.00  0.00    -0.309 OA 
HETATM   26  O   UNL     1      -5.847   8.896  70.255  1.00  0.00    -0.029 OA 
ENDBRANCH  13  18
ENDBRANCH   4   6
ENDBRANCH   3   4
ENDBRANCH   2   3
TORSDOF 6
ENDMDL
MODEL       42
REMARK 921   NORMALIZED FREE ENERGY PREDICTED BY IDOCK:   -5.06 KCAL/MOL
REMARK 922        TOTAL FREE ENERGY PREDICTED BY IDOCK:   -7.98 KCAL/MOL
REMARK 923 INTER-LIGAND FREE ENERGY PREDICTED BY IDOCK:   -6.78 KCAL/MOL
REMARK 924 INTRA-LIGAND FREE ENERGY PREDICTED BY IDOCK:   -1.21 KCAL/MOL
REMARK 927      BINDING AFFINITY PREDICTED BY RF-SCORE:    0.00 PKD
ROOT
HETATM    1  C   UNL     1     -12.658  13.835  65.504  1.00  0.00    -0.551 C  
HETATM    2  C   UNL     1     -11.773  12.697  65.979  1.00  0.00    -0.417 C  
ENDROOT
BRANCH   2   3
HETATM    3  O   UNL     1     -12.283  12.282  67.253  1.00  0.00    -0.485 OA 
BRANCH   3   4
HETATM    4  C   UNL     1     -11.503  12.572  68.325  1.00  0.00    -0.308 C  
HETATM    5  O   UNL     1     -10.873  13.606  68.482  1.00  0.00    -0.242 OA 
BRANCH   4   6
HETATM    6  C   UNL     1     -11.603  11.476  69.321  1.00  0.00    -0.388 C  
HETATM    7  C   UNL     1     -12.151  11.699  70.538  1.00  0.00    -0.366 C  
HETATM    8  N   UNL     1     -12.246  10.656  71.444  1.00  0.00    -0.335 NA 
HETATM    9  C   UNL     1     -12.723  12.997  71.066  1.00  0.00    -0.347 C  
HETATM   10  C   UNL     1     -11.728   9.392  71.259  1.00  0.00    -0.360 C  
HETATM   11  C   UNL     1     -11.876   8.464  72.444  1.00  0.00    -0.452 C  
HETATM   12  C   UNL     1     -11.147   9.059  70.082  1.00  0.00    -0.228 C  
HETATM   13  C   UNL     1     -11.086  10.076  68.927  1.00  0.00    -0.219 C  
BRANCH  12  14
HETATM   14  C   UNL     1     -10.529   7.713  69.951  1.00  0.00    -0.231 C  
HETATM   15  O   UNL     1      -9.385   7.446  70.294  1.00  0.00    -0.161 OA 
BRANCH  14  16
HETATM   16  O   UNL     1     -11.381   6.811  69.393  1.00  0.00    -0.257 OA 
HETATM   17  C   UNL     1     -10.844   6.162  68.236  1.00  0.00    -0.306 C  
ENDBRANCH  14  16
ENDBRANCH  12  14
BRANCH  13  18
HETATM   18  C   UNL     1      -9.684  10.149  68.309  1.00  0.00    -0.154 A  
HETATM   19  C   UNL     1      -9.458   9.779  66.974  1.00  0.00    -0.195 A  
HETATM   20  C   UNL     1      -8.601  10.623  69.076  1.00  0.00    -0.150 A  
HETATM   21  C   UNL     1      -8.186   9.892  66.409  1.00  0.00    -0.117 A  
HETATM   22  C   UNL     1      -7.334  10.760  68.495  1.00  0.00    -0.096 A  
HETATM   23  N   UNL     1      -6.231  11.330  69.278  1.00  0.00    -0.064 N  
HETATM   24  C   UNL     1      -7.122  10.389  67.163  1.00  0.00    -0.090 A  
HETATM   25  O   UNL     1      -6.469  11.683  70.442  1.00  0.00    -0.214 OA 
HETATM   26  O   UNL     1      -5.127  11.440  68.724  1.00  0.00    -0.041 OA 
ENDBRANCH  13  18
ENDBRANCH   4   6
ENDBRANCH   3   4
ENDBRANCH   2   3
TORSDOF 6
ENDMDL
MODEL       43
REMARK 921   NORMALIZED FREE ENERGY PREDICTED BY IDOCK:   -5.03 KCAL/MOL
REMARK 922        TOTAL FREE ENERGY PREDICTED BY IDOCK:   -7.95 KCAL/MOL
REMARK 923 INTER-LIGAND FREE ENERGY PREDICTED BY IDOCK:   -7.37 KCAL/MOL
REMARK 924 INTRA-LIGAND FREE ENERGY PREDICTED BY IDOCK:   -0.58 KCAL/MOL
REMARK 927      BINDING AFFINITY PREDICTED BY RF-SCORE:    0.00 PKD
ROOT
HETATM    1  C   UNL     1      -6.727  16.994  66.926  1.00  0.00    -0.252 C  
HETATM    2  C   UNL     1      -8.007  17.099  66.118  1.00  0.00    -0.262 C  
ENDROOT
BRANCH   2   3
HETATM    3  O   UNL     1      -8.625  15.804  66.155  1.00  0.00    -0.313 OA 
BRANCH   3   4
HETATM    4  C   UNL     1      -9.964  15.783  65.942  1.00  0.00    -0.352 C  
HETATM    5  O   UNL     1     -10.516  16.021  64.878  1.00  0.00    -0.574 OA 
BRANCH   4   6
HETATM    6  C   UNL     1     -10.656  15.337  67.177  1.00  0.00    -0.302 C  
HETATM    7  C   UNL     1     -10.969  16.224  68.151  1.00  0.00    -0.343 C  
HETATM    8  N   UNL     1     -11.627  15.784  69.286  1.00  0.00    -0.358 NA 
HETATM    9  C   UNL     1     -10.702  17.713  68.159  1.00  0.00    -0.312 C  
HETATM   10  C   UNL     1     -11.915  14.469  69.580  1.00  0.00    -0.328 C  
HETATM   11  C   UNL     1     -12.549  14.242  70.934  1.00  0.00    -0.426 C  
HETATM   12  C   UNL     1     -11.636  13.493  68.682  1.00  0.00    -0.365 C  
HETATM   13  C   UNL     1     -11.024  13.844  67.314  1.00  0.00    -0.299 C  
BRANCH  12  14
HETATM   14  C   UNL     1     -11.888  12.079  69.069  1.00  0.00    -0.315 C  
HETATM   15  O   UNL     1     -12.525  11.285  68.391  1.00  0.00    -0.403 OA 
BRANCH  14  16
HETATM   16  O   UNL     1     -11.337  11.773  70.274  1.00  0.00    -0.108 OA 
HETATM   17  C   UNL     1     -11.796  10.529  70.810  1.00  0.00    -0.365 C  
ENDBRANCH  14  16
ENDBRANCH  12  14
BRANCH  13  18
HETATM   18  C   UNL     1      -9.832  12.939  66.976  1.00  0.00    -0.233 A  
HETATM   19  C   UNL     1      -8.681  12.923  67.779  1.00  0.00    -0.188 A  
HETATM   20  C   UNL     1      -9.894  12.084  65.858  1.00  0.00    -0.259 A  
HETATM   21  C   UNL     1      -7.621  12.063  67.486  1.00  0.00    -0.147 A  
HETATM   22  C   UNL     1      -8.837  11.205  65.586  1.00  0.00    -0.157 A  
HETATM   23  N   UNL     1      -8.945  10.261  64.467  1.00  0.00    -0.200 N  
HETATM   24  C   UNL     1      -7.697  11.197  66.396  1.00  0.00    -0.124 A  
HETATM   25  O   UNL     1      -9.988  10.272  63.798  1.00  0.00    -0.262 OA 
HETATM   26  O   UNL     1      -7.990   9.495  64.265  1.00  0.00    -0.122 OA 
ENDBRANCH  13  18
ENDBRANCH   4   6
ENDBRANCH   3   4
ENDBRANCH   2   3
TORSDOF 6
ENDMDL
MODEL       44
REMARK 921   NORMALIZED FREE ENERGY PREDICTED BY IDOCK:   -5.02 KCAL/MOL
REMARK 922        TOTAL FREE ENERGY PREDICTED BY IDOCK:   -7.93 KCAL/MOL
REMARK 923 INTER-LIGAND FREE ENERGY PREDICTED BY IDOCK:   -6.61 KCAL/MOL
REMARK 924 INTRA-LIGAND FREE ENERGY PREDICTED BY IDOCK:   -1.32 KCAL/MOL
REMARK 927      BINDING AFFINITY PREDICTED BY RF-SCORE:    0.00 PKD
ROOT
HETATM    1  C   UNL     1      -6.310  12.358  67.337  1.00  0.00    -0.157 C  
HETATM    2  C   UNL     1      -6.201  12.802  68.784  1.00  0.00    -0.075 C  
ENDROOT
BRANCH   2   3
HETATM    3  O   UNL     1      -5.959  14.215  68.765  1.00  0.00    -0.080 OA 
BRANCH   3   4
HETATM    4  C   UNL     1      -6.608  14.938  69.712  1.00  0.00    -0.170 C  
HETATM    5  O   UNL     1      -6.724  14.624  70.887  1.00  0.00     0.106 OA 
BRANCH   4   6
HETATM    6  C   UNL     1      -7.079  16.217  69.123  1.00  0.00    -0.214 C  
HETATM    7  C   UNL     1      -6.518  17.393  69.489  1.00  0.00    -0.208 C  
HETATM    8  N   UNL     1      -6.966  18.569  68.914  1.00  0.00    -0.280 NA 
HETATM    9  C   UNL     1      -5.395  17.607  70.481  1.00  0.00    -0.271 C  
HETATM   10  C   UNL     1      -8.032  18.676  68.047  1.00  0.00    -0.273 C  
HETATM   11  C   UNL     1      -8.385  20.090  67.641  1.00  0.00    -0.364 C  
HETATM   12  C   UNL     1      -8.677  17.564  67.620  1.00  0.00    -0.223 C  
HETATM   13  C   UNL     1      -8.208  16.168  68.071  1.00  0.00    -0.152 C  
BRANCH  12  14
HETATM   14  C   UNL     1      -9.873  17.726  66.751  1.00  0.00    -0.320 C  
HETATM   15  O   UNL     1     -10.896  18.304  67.092  1.00  0.00    -0.351 OA 
BRANCH  14  16
HETATM   16  O   UNL     1      -9.702  17.145  65.533  1.00  0.00    -0.532 OA 
HETATM   17  C   UNL     1     -10.808  16.332  65.131  1.00  0.00    -0.318 C  
ENDBRANCH  14  16
ENDBRANCH  12  14
BRANCH  13  18
HETATM   18  C   UNL     1      -9.380  15.300  68.545  1.00  0.00    -0.200 A  
HETATM   19  C   UNL     1     -10.192  15.699  69.618  1.00  0.00    -0.291 A  
HETATM   20  C   UNL     1      -9.674  14.092  67.882  1.00  0.00    -0.224 A  
HETATM   21  C   UNL     1     -11.283  14.922  70.013  1.00  0.00    -0.293 A  
HETATM   22  C   UNL     1     -10.786  13.332  68.266  1.00  0.00    -0.252 A  
HETATM   23  N   UNL     1     -11.131  12.117  67.518  1.00  0.00    -0.259 N  
HETATM   24  C   UNL     1     -11.589  13.741  69.336  1.00  0.00    -0.365 A  
HETATM   25  O   UNL     1     -10.418  11.809  66.552  1.00  0.00    -0.218 OA 
HETATM   26  O   UNL     1     -12.127  11.476  67.886  1.00  0.00    -0.630 OA 
ENDBRANCH  13  18
ENDBRANCH   4   6
ENDBRANCH   3   4
ENDBRANCH   2   3
TORSDOF 6
ENDMDL
MODEL       45
REMARK 921   NORMALIZED FREE ENERGY PREDICTED BY IDOCK:   -5.00 KCAL/MOL
REMARK 922        TOTAL FREE ENERGY PREDICTED BY IDOCK:   -7.90 KCAL/MOL
REMARK 923 INTER-LIGAND FREE ENERGY PREDICTED BY IDOCK:   -6.73 KCAL/MOL
REMARK 924 INTRA-LIGAND FREE ENERGY PREDICTED BY IDOCK:   -1.17 KCAL/MOL
REMARK 927      BINDING AFFINITY PREDICTED BY RF-SCORE:    0.00 PKD
ROOT
HETATM    1  C   UNL     1     -11.590  16.072  68.956  1.00  0.00    -0.350 C  
HETATM    2  C   UNL     1     -11.218  15.135  67.821  1.00  0.00    -0.323 C  
ENDROOT
BRANCH   2   3
HETATM    3  O   UNL     1     -10.933  13.861  68.415  1.00  0.00    -0.237 OA 
BRANCH   3   4
HETATM    4  C   UNL     1     -11.744  12.840  68.040  1.00  0.00    -0.356 C  
HETATM    5  O   UNL     1     -12.408  12.804  67.015  1.00  0.00    -0.387 OA 
BRANCH   4   6
HETATM    6  C   UNL     1     -11.631  11.732  69.021  1.00  0.00    -0.372 C  
HETATM    7  C   UNL     1     -12.085  11.883  70.287  1.00  0.00    -0.325 C  
HETATM    8  N   UNL     1     -11.982  10.828  71.177  1.00  0.00    -0.305 NA 
HETATM    9  C   UNL     1     -12.743  13.105  70.888  1.00  0.00    -0.313 C  
HETATM   10  C   UNL     1     -11.349   9.630  70.923  1.00  0.00    -0.360 C  
HETATM   11  C   UNL     1     -11.283   8.681  72.098  1.00  0.00    -0.438 C  
HETATM   12  C   UNL     1     -10.846   9.373  69.691  1.00  0.00    -0.245 C  
HETATM   13  C   UNL     1     -11.004  10.400  68.554  1.00  0.00    -0.302 C  
BRANCH  12  14
HETATM   14  C   UNL     1     -10.100   8.104  69.479  1.00  0.00    -0.193 C  
HETATM   15  O   UNL     1      -8.940   7.925  69.821  1.00  0.00    -0.144 OA 
BRANCH  14  16
HETATM   16  O   UNL     1     -10.856   7.167  68.847  1.00  0.00    -0.200 OA 
HETATM   17  C   UNL     1     -10.982   5.947  69.584  1.00  0.00    -0.377 C  
ENDBRANCH  14  16
ENDBRANCH  12  14
BRANCH  13  18
HETATM   18  C   UNL     1      -9.682  10.633  67.812  1.00  0.00    -0.179 A  
HETATM   19  C   UNL     1      -8.548  11.120  68.482  1.00  0.00    -0.157 A  
HETATM   20  C   UNL     1      -9.583  10.330  66.439  1.00  0.00    -0.233 A  
HETATM   21  C   UNL     1      -7.338  11.287  67.805  1.00  0.00    -0.094 A  
HETATM   22  C   UNL     1      -8.359  10.474  65.774  1.00  0.00    -0.166 A  
HETATM   23  N   UNL     1      -8.246  10.079  64.365  1.00  0.00    -0.158 N  
HETATM   24  C   UNL     1      -7.236  10.958  66.453  1.00  0.00    -0.140 A  
HETATM   25  O   UNL     1      -9.253   9.617  63.810  1.00  0.00    -0.248 OA 
HETATM   26  O   UNL     1      -7.142  10.216  63.814  1.00  0.00    -0.129 OA 
ENDBRANCH  13  18
ENDBRANCH   4   6
ENDBRANCH   3   4
ENDBRANCH   2   3
TORSDOF 6
ENDMDL
MODEL       46
REMARK 921   NORMALIZED FREE ENERGY PREDICTED BY IDOCK:   -4.98 KCAL/MOL
REMARK 922        TOTAL FREE ENERGY PREDICTED BY IDOCK:   -7.88 KCAL/MOL
REMARK 923 INTER-LIGAND FREE ENERGY PREDICTED BY IDOCK:   -6.75 KCAL/MOL
REMARK 924 INTRA-LIGAND FREE ENERGY PREDICTED BY IDOCK:   -1.12 KCAL/MOL
REMARK 927      BINDING AFFINITY PREDICTED BY RF-SCORE:    0.00 PKD
ROOT
HETATM    1  C   UNL     1     -12.678  13.767  65.567  1.00  0.00    -0.530 C  
HETATM    2  C   UNL     1     -11.742  12.701  66.104  1.00  0.00    -0.406 C  
ENDROOT
BRANCH   2   3
HETATM    3  O   UNL     1     -12.244  12.324  67.395  1.00  0.00    -0.478 OA 
BRANCH   3   4
HETATM    4  C   UNL     1     -11.397  12.517  68.436  1.00  0.00    -0.291 C  
HETATM    5  O   UNL     1     -10.643  13.469  68.569  1.00  0.00    -0.238 OA 
BRANCH   4   6
HETATM    6  C   UNL     1     -11.590  11.438  69.438  1.00  0.00    -0.391 C  
HETATM    7  C   UNL     1     -12.212  11.692  70.613  1.00  0.00    -0.366 C  
HETATM    8  N   UNL     1     -12.393  10.665  71.524  1.00  0.00    -0.344 NA 
HETATM    9  C   UNL     1     -12.784  13.011  71.084  1.00  0.00    -0.372 C  
HETATM   10  C   UNL     1     -11.896   9.387  71.391  1.00  0.00    -0.374 C  
HETATM   11  C   UNL     1     -12.144   8.479  72.575  1.00  0.00    -0.395 C  
HETATM   12  C   UNL     1     -11.246   9.023  70.259  1.00  0.00    -0.232 C  
HETATM   13  C   UNL     1     -11.083  10.020  69.097  1.00  0.00    -0.232 C  
BRANCH  12  14
HETATM   14  C   UNL     1     -10.654   7.660  70.187  1.00  0.00    -0.236 C  
HETATM   15  O   UNL     1      -9.578   7.352  70.680  1.00  0.00    -0.171 OA 
BRANCH  14  16
HETATM   16  O   UNL     1     -11.445   6.795  69.496  1.00  0.00    -0.264 OA 
HETATM   17  C   UNL     1     -10.743   6.068  68.484  1.00  0.00    -0.286 C  
ENDBRANCH  14  16
ENDBRANCH  12  14
BRANCH  13  18
HETATM   18  C   UNL     1      -9.642  10.051  68.573  1.00  0.00    -0.157 A  
HETATM   19  C   UNL     1      -8.558  10.265  69.439  1.00  0.00    -0.167 A  
HETATM   20  C   UNL     1      -9.387   9.835  67.204  1.00  0.00    -0.169 A  
HETATM   21  C   UNL     1      -7.247  10.248  68.956  1.00  0.00    -0.080 A  
HETATM   22  C   UNL     1      -8.069   9.792  66.733  1.00  0.00    -0.120 A  
HETATM   23  N   UNL     1      -7.810   9.485  65.321  1.00  0.00    -0.108 N  
HETATM   24  C   UNL     1      -6.997  10.004  67.606  1.00  0.00    -0.085 A  
HETATM   25  O   UNL     1      -8.784   9.264  64.588  1.00  0.00    -0.185 OA 
HETATM   26  O   UNL     1      -6.628   9.449  64.945  1.00  0.00    -0.077 OA 
ENDBRANCH  13  18
ENDBRANCH   4   6
ENDBRANCH   3   4
ENDBRANCH   2   3
TORSDOF 6
ENDMDL
MODEL       47
REMARK 921   NORMALIZED FREE ENERGY PREDICTED BY IDOCK:   -4.98 KCAL/MOL
REMARK 922        TOTAL FREE ENERGY PREDICTED BY IDOCK:   -7.87 KCAL/MOL
REMARK 923 INTER-LIGAND FREE ENERGY PREDICTED BY IDOCK:   -7.04 KCAL/MOL
REMARK 924 INTRA-LIGAND FREE ENERGY PREDICTED BY IDOCK:   -0.83 KCAL/MOL
REMARK 927      BINDING AFFINITY PREDICTED BY RF-SCORE:    0.00 PKD
ROOT
HETATM    1  C   UNL     1     -10.613   5.954  68.726  1.00  0.00    -0.340 C  
HETATM    2  C   UNL     1     -10.536   6.050  67.214  1.00  0.00    -0.294 C  
ENDROOT
BRANCH   2   3
HETATM    3  O   UNL     1     -10.976   7.369  66.862  1.00  0.00    -0.324 OA 
BRANCH   3   4
HETATM    4  C   UNL     1      -9.997   8.295  66.701  1.00  0.00    -0.278 C  
HETATM    5  O   UNL     1      -8.849   8.058  66.360  1.00  0.00    -0.140 OA 
BRANCH   4   6
HETATM    6  C   UNL     1     -10.559   9.652  66.916  1.00  0.00    -0.241 C  
HETATM    7  C   UNL     1     -10.564  10.563  65.915  1.00  0.00    -0.078 C  
HETATM    8  N   UNL     1     -11.107  11.816  66.138  1.00  0.00    -0.310 NA 
HETATM    9  C   UNL     1     -10.046  10.382  64.505  1.00  0.00    -0.365 C  
HETATM   10  C   UNL     1     -11.570  12.280  67.350  1.00  0.00    -0.355 C  
HETATM   11  C   UNL     1     -12.020  13.724  67.352  1.00  0.00    -0.423 C  
HETATM   12  C   UNL     1     -11.603  11.457  68.427  1.00  0.00    -0.385 C  
HETATM   13  C   UNL     1     -11.154   9.989  68.301  1.00  0.00    -0.247 C  
BRANCH  12  14
HETATM   14  C   UNL     1     -12.032  12.017  69.736  1.00  0.00    -0.300 C  
HETATM   15  O   UNL     1     -11.539  13.010  70.252  1.00  0.00    -0.160 OA 
BRANCH  14  16
HETATM   16  O   UNL     1     -13.032  11.288  70.300  1.00  0.00    -0.060 OA 
HETATM   17  C   UNL     1     -13.104  11.426  71.722  1.00  0.00    -0.418 C  
ENDBRANCH  14  16
ENDBRANCH  12  14
BRANCH  13  18
HETATM   18  C   UNL     1     -10.201   9.587  69.433  1.00  0.00    -0.215 A  
HETATM   19  C   UNL     1      -8.833   9.896  69.376  1.00  0.00    -0.195 A  
HETATM   20  C   UNL     1     -10.702   8.921  70.570  1.00  0.00    -0.271 A  
HETATM   21  C   UNL     1      -7.983   9.563  70.433  1.00  0.00    -0.200 A  
HETATM   22  C   UNL     1      -9.848   8.615  71.638  1.00  0.00    -0.281 A  
HETATM   23  N   UNL     1     -10.393   7.994  72.850  1.00  0.00    -0.334 N  
HETATM   24  C   UNL     1      -8.487   8.930  71.570  1.00  0.00    -0.182 A  
HETATM   25  O   UNL     1     -11.611   7.767  72.888  1.00  0.00    -0.355 OA 
HETATM   26  O   UNL     1      -9.605   7.746  73.776  1.00  0.00    -0.288 OA 
ENDBRANCH  13  18
ENDBRANCH   4   6
ENDBRANCH   3   4
ENDBRANCH   2   3
TORSDOF 6
ENDMDL
MODEL       48
REMARK 921   NORMALIZED FREE ENERGY PREDICTED BY IDOCK:   -4.97 KCAL/MOL
REMARK 922        TOTAL FREE ENERGY PREDICTED BY IDOCK:   -7.87 KCAL/MOL
REMARK 923 INTER-LIGAND FREE ENERGY PREDICTED BY IDOCK:   -7.34 KCAL/MOL
REMARK 924 INTRA-LIGAND FREE ENERGY PREDICTED BY IDOCK:   -0.53 KCAL/MOL
REMARK 927      BINDING AFFINITY PREDICTED BY RF-SCORE:    0.00 PKD
ROOT
HETATM    1  C   UNL     1      -9.373   8.476  66.122  1.00  0.00    -0.279 C  
HETATM    2  C   UNL     1     -10.377   8.710  67.235  1.00  0.00    -0.296 C  
ENDROOT
BRANCH   2   3
HETATM    3  O   UNL     1     -10.589  10.127  67.308  1.00  0.00    -0.240 OA 
BRANCH   3   4
HETATM    4  C   UNL     1      -9.837  10.789  68.223  1.00  0.00    -0.166 C  
HETATM    5  O   UNL     1      -8.619  10.733  68.313  1.00  0.00    -0.124 OA 
BRANCH   4   6
HETATM    6  C   UNL     1     -10.711  11.666  69.041  1.00  0.00    -0.217 C  
HETATM    7  C   UNL     1     -11.614  11.134  69.898  1.00  0.00    -0.337 C  
HETATM    8  N   UNL     1     -12.406  11.975  70.661  1.00  0.00    -0.345 NA 
HETATM    9  C   UNL     1     -11.875   9.668  70.165  1.00  0.00    -0.087 C  
HETATM   10  C   UNL     1     -12.439  13.349  70.558  1.00  0.00    -0.279 C  
HETATM   11  C   UNL     1     -13.467  14.029  71.432  1.00  0.00    -0.360 C  
HETATM   12  C   UNL     1     -11.585  13.990  69.723  1.00  0.00    -0.344 C  
HETATM   13  C   UNL     1     -10.550  13.196  68.905  1.00  0.00    -0.159 C  
BRANCH  12  14
HETATM   14  C   UNL     1     -11.707  15.465  69.580  1.00  0.00    -0.346 C  
HETATM   15  O   UNL     1     -12.724  16.038  69.213  1.00  0.00     0.161 OA 
BRANCH  14  16
HETATM   16  O   UNL     1     -10.549  16.106  69.892  1.00  0.00    -0.301 OA 
HETATM   17  C   UNL     1     -10.338  17.301  69.136  1.00  0.00    -0.290 C  
ENDBRANCH  14  16
ENDBRANCH  12  14
BRANCH  13  18
HETATM   18  C   UNL     1     -10.535  13.629  67.434  1.00  0.00    -0.251 A  
HETATM   19  C   UNL     1      -9.515  14.449  66.928  1.00  0.00    -0.268 A  
HETATM   20  C   UNL     1     -11.543  13.178  66.558  1.00  0.00    -0.402 A  
HETATM   21  C   UNL     1      -9.488  14.801  65.576  1.00  0.00    -0.015 A  
HETATM   22  C   UNL     1     -11.494  13.513  65.198  1.00  0.00    -0.301 A  
HETATM   23  N   UNL     1     -12.503  12.972  64.279  1.00  0.00    -0.342 N  
HETATM   24  C   UNL     1     -10.471  14.329  64.706  1.00  0.00    -0.421 A  
HETATM   25  O   UNL     1     -13.370  12.221  64.747  1.00  0.00    -0.631 OA 
HETATM   26  O   UNL     1     -12.420  13.287  63.082  1.00  0.00    -0.696 OA 
ENDBRANCH  13  18
ENDBRANCH   4   6
ENDBRANCH   3   4
ENDBRANCH   2   3
TORSDOF 6
ENDMDL
MODEL       49
REMARK 921   NORMALIZED FREE ENERGY PREDICTED BY IDOCK:   -4.94 KCAL/MOL
REMARK 922        TOTAL FREE ENERGY PREDICTED BY IDOCK:   -7.82 KCAL/MOL
REMARK 923 INTER-LIGAND FREE ENERGY PREDICTED BY IDOCK:   -6.75 KCAL/MOL
REMARK 924 INTRA-LIGAND FREE ENERGY PREDICTED BY IDOCK:   -1.07 KCAL/MOL
REMARK 927      BINDING AFFINITY PREDICTED BY RF-SCORE:    0.00 PKD
ROOT
HETATM    1  C   UNL     1      -5.595  12.159  70.662  1.00  0.00    -0.157 C  
HETATM    2  C   UNL     1      -6.512  11.437  69.693  1.00  0.00    -0.133 C  
ENDROOT
BRANCH   2   3
HETATM    3  O   UNL     1      -7.264  12.447  69.006  1.00  0.00    -0.089 OA 
BRANCH   3   4
HETATM    4  C   UNL     1      -7.180  12.428  67.653  1.00  0.00    -0.130 C  
HETATM    5  O   UNL     1      -6.540  11.622  66.994  1.00  0.00    -0.123 OA 
BRANCH   4   6
HETATM    6  C   UNL     1      -8.059  13.483  67.087  1.00  0.00    -0.097 C  
HETATM    7  C   UNL     1      -7.704  14.787  67.156  1.00  0.00    -0.116 C  
HETATM    8  N   UNL     1      -8.535  15.748  66.607  1.00  0.00    -0.265 NA 
HETATM    9  C   UNL     1      -6.447  15.366  67.766  1.00  0.00    -0.183 C  
HETATM   10  C   UNL     1      -9.780  15.510  66.067  1.00  0.00    -0.345 C  
HETATM   11  C   UNL     1     -10.532  16.747  65.628  1.00  0.00    -0.284 C  
HETATM   12  C   UNL     1     -10.244  14.242  65.956  1.00  0.00    -0.327 C  
HETATM   13  C   UNL     1      -9.374  13.052  66.402  1.00  0.00    -0.189 C  
BRANCH  12  14
HETATM   14  C   UNL     1     -11.624  14.032  65.443  1.00  0.00    -0.328 C  
HETATM   15  O   UNL     1     -12.632  14.124  66.129  1.00  0.00    -0.465 OA 
BRANCH  14  16
HETATM   16  O   UNL     1     -11.634  13.713  64.121  1.00  0.00    -0.383 OA 
HETATM   17  C   UNL     1     -12.124  12.395  63.858  1.00  0.00    -0.499 C  
ENDBRANCH  14  16
ENDBRANCH  12  14
BRANCH  13  18
HETATM   18  C   UNL     1     -10.163  12.067  67.274  1.00  0.00    -0.221 A  
HETATM   19  C   UNL     1     -10.206  10.698  66.967  1.00  0.00    -0.267 A  
HETATM   20  C   UNL     1     -10.838  12.529  68.422  1.00  0.00    -0.266 A  
HETATM   21  C   UNL     1     -10.892   9.804  67.793  1.00  0.00    -0.306 A  
HETATM   22  C   UNL     1     -11.501  11.622  69.260  1.00  0.00    -0.300 A  
HETATM   23  N   UNL     1     -12.131  12.101  70.496  1.00  0.00    -0.355 N  
HETATM   24  C   UNL     1     -11.534  10.260  68.945  1.00  0.00    -0.190 A  
HETATM   25  O   UNL     1     -12.046  13.308  70.760  1.00  0.00    -0.341 OA 
HETATM   26  O   UNL     1     -12.702  11.265  71.214  1.00  0.00    -0.397 OA 
ENDBRANCH  13  18
ENDBRANCH   4   6
ENDBRANCH   3   4
ENDBRANCH   2   3
TORSDOF 6
ENDMDL
MODEL       50
REMARK 921   NORMALIZED FREE ENERGY PREDICTED BY IDOCK:   -4.92 KCAL/MOL
REMARK 922        TOTAL FREE ENERGY PREDICTED BY IDOCK:   -7.79 KCAL/MOL
REMARK 923 INTER-LIGAND FREE ENERGY PREDICTED BY IDOCK:   -7.61 KCAL/MOL
REMARK 924 INTRA-LIGAND FREE ENERGY PREDICTED BY IDOCK:   -0.18 KCAL/MOL
REMARK 927      BINDING AFFINITY PREDICTED BY RF-SCORE:    0.00 PKD
ROOT
HETATM    1  C   UNL     1      -8.270   7.765  66.831  1.00  0.00    -0.116 C  
HETATM    2  C   UNL     1      -7.851   7.951  68.277  1.00  0.00    -0.120 C  
ENDROOT
BRANCH   2   3
HETATM    3  O   UNL     1      -8.983   8.501  68.966  1.00  0.00    -0.144 OA 
BRANCH   3   4
HETATM    4  C   UNL     1      -8.749   9.633  69.677  1.00  0.00    -0.197 C  
HETATM    5  O   UNL     1      -8.365   9.674  70.836  1.00  0.00    -0.272 OA 
BRANCH   4   6
HETATM    6  C   UNL     1      -8.943  10.816  68.802  1.00  0.00    -0.171 C  
HETATM    7  C   UNL     1      -7.890  11.583  68.435  1.00  0.00    -0.136 C  
HETATM    8  N   UNL     1      -8.096  12.672  67.606  1.00  0.00    -0.160 NA 
HETATM    9  C   UNL     1      -6.437  11.390  68.811  1.00  0.00    -0.056 C  
HETATM   10  C   UNL     1      -9.326  13.129  67.183  1.00  0.00    -0.235 C  
HETATM   11  C   UNL     1      -9.287  14.401  66.366  1.00  0.00    -0.284 C  
HETATM   12  C   UNL     1     -10.452  12.446  67.500  1.00  0.00    -0.229 C  
HETATM   13  C   UNL     1     -10.370  11.137  68.307  1.00  0.00    -0.198 C  
BRANCH  12  14
HETATM   14  C   UNL     1     -11.765  13.014  67.094  1.00  0.00    -0.382 C  
HETATM   15  O   UNL     1     -12.227  14.058  67.535  1.00  0.00    -0.366 OA 
BRANCH  14  16
HETATM   16  O   UNL     1     -12.402  12.231  66.182  1.00  0.00    -0.588 OA 
HETATM   17  C   UNL     1     -12.384  12.772  64.858  1.00  0.00    -0.490 C  
ENDBRANCH  14  16
ENDBRANCH  12  14
BRANCH  13  18
HETATM   18  C   UNL     1     -11.381  11.116  69.460  1.00  0.00    -0.359 A  
HETATM   19  C   UNL     1     -11.873   9.906  69.974  1.00  0.00    -0.131 A  
HETATM   20  C   UNL     1     -11.809  12.326  70.041  1.00  0.00    -0.372 A  
HETATM   21  C   UNL     1     -12.759   9.898  71.053  1.00  0.00    -0.425 A  
HETATM   22  C   UNL     1     -12.678  12.309  71.141  1.00  0.00    -0.243 A  
HETATM   23  N   UNL     1     -13.055  13.570  71.790  1.00  0.00    -0.380 N  
HETATM   24  C   UNL     1     -13.159  11.096  71.645  1.00  0.00    -0.529 A  
HETATM   25  O   UNL     1     -12.576  14.620  71.339  1.00  0.00    -0.299 OA 
HETATM   26  O   UNL     1     -13.820  13.511  72.765  1.00  0.00    -0.730 OA 
ENDBRANCH  13  18
ENDBRANCH   4   6
ENDBRANCH   3   4
ENDBRANCH   2   3
TORSDOF 6
ENDMDL
MODEL       51
REMARK 921   NORMALIZED FREE ENERGY PREDICTED BY IDOCK:   -4.91 KCAL/MOL
REMARK 922        TOTAL FREE ENERGY PREDICTED BY IDOCK:   -7.78 KCAL/MOL
REMARK 923 INTER-LIGAND FREE ENERGY PREDICTED BY IDOCK:   -6.86 KCAL/MOL
REMARK 924 INTRA-LIGAND FREE ENERGY PREDICTED BY IDOCK:   -0.92 KCAL/MOL
REMARK 927      BINDING AFFINITY PREDICTED BY RF-SCORE:    0.00 PKD
ROOT
HETATM    1  C   UNL     1     -11.603  15.621  68.657  1.00  0.00    -0.391 C  
HETATM    2  C   UNL     1     -11.958  14.146  68.638  1.00  0.00    -0.338 C  
ENDROOT
BRANCH   2   3
HETATM    3  O   UNL     1     -11.299  13.579  67.497  1.00  0.00    -0.282 OA 
BRANCH   3   4
HETATM    4  C   UNL     1     -11.531  12.261  67.276  1.00  0.00    -0.357 C  
HETATM    5  O   UNL     1     -12.273  11.552  67.939  1.00  0.00    -0.586 OA 
BRANCH   4   6
HETATM    6  C   UNL     1     -10.816  11.831  66.048  1.00  0.00    -0.343 C  
HETATM    7  C   UNL     1     -11.388  11.974  64.831  1.00  0.00    -0.310 C  
HETATM    8  N   UNL     1     -10.693  11.578  63.701  1.00  0.00    -0.396 NA 
HETATM    9  C   UNL     1     -12.749  12.557  64.517  1.00  0.00    -0.440 C  
HETATM   10  C   UNL     1      -9.473  10.937  63.700  1.00  0.00    -0.285 C  
HETATM   11  C   UNL     1      -8.974  10.518  62.336  1.00  0.00    -0.308 C  
HETATM   12  C   UNL     1      -8.812  10.731  64.865  1.00  0.00    -0.176 C  
HETATM   13  C   UNL     1      -9.398  11.236  66.196  1.00  0.00    -0.230 C  
BRANCH  12  14
HETATM   14  C   UNL     1      -7.537   9.964  64.831  1.00  0.00    -0.135 C  
HETATM   15  O   UNL     1      -6.439  10.450  65.062  1.00  0.00    -0.127 OA 
BRANCH  14  16
HETATM   16  O   UNL     1      -7.734   8.660  64.500  1.00  0.00    -0.110 OA 
HETATM   17  C   UNL     1      -6.625   8.073  63.815  1.00  0.00    -0.067 C  
ENDBRANCH  14  16
ENDBRANCH  12  14
BRANCH  13  18
HETATM   18  C   UNL     1      -9.354  10.155  67.283  1.00  0.00    -0.173 A  
HETATM   19  C   UNL     1      -8.691  10.374  68.500  1.00  0.00    -0.135 A  
HETATM   20  C   UNL     1     -10.013   8.925  67.079  1.00  0.00    -0.300 A  
HETATM   21  C   UNL     1      -8.694   9.399  69.499  1.00  0.00    -0.162 A  
HETATM   22  C   UNL     1     -10.035   7.963  68.096  1.00  0.00    -0.180 A  
HETATM   23  N   UNL     1     -10.791   6.719  67.905  1.00  0.00    -0.249 N  
HETATM   24  C   UNL     1      -9.372   8.195  69.306  1.00  0.00    -0.151 A  
HETATM   25  O   UNL     1     -11.398   6.568  66.836  1.00  0.00    -0.330 OA 
HETATM   26  O   UNL     1     -10.791   5.896  68.834  1.00  0.00    -0.296 OA 
ENDBRANCH  13  18
ENDBRANCH   4   6
ENDBRANCH   3   4
ENDBRANCH   2   3
TORSDOF 6
ENDMDL
MODEL       52
REMARK 921   NORMALIZED FREE ENERGY PREDICTED BY IDOCK:   -4.87 KCAL/MOL
REMARK 922        TOTAL FREE ENERGY PREDICTED BY IDOCK:   -7.72 KCAL/MOL
REMARK 923 INTER-LIGAND FREE ENERGY PREDICTED BY IDOCK:   -6.53 KCAL/MOL
REMARK 924 INTRA-LIGAND FREE ENERGY PREDICTED BY IDOCK:   -1.20 KCAL/MOL
REMARK 927      BINDING AFFINITY PREDICTED BY RF-SCORE:    0.00 PKD
ROOT
HETATM    1  C   UNL     1     -13.651   7.358  71.548  1.00  0.00    -0.454 C  
HETATM    2  C   UNL     1     -12.164   7.417  71.847  1.00  0.00    -0.310 C  
ENDROOT
BRANCH   2   3
HETATM    3  O   UNL     1     -11.554   8.134  70.764  1.00  0.00    -0.283 OA 
BRANCH   3   4
HETATM    4  C   UNL     1     -10.704   9.129  71.119  1.00  0.00    -0.310 C  
HETATM    5  O   UNL     1      -9.833   9.046  71.972  1.00  0.00    -0.311 OA 
BRANCH   4   6
HETATM    6  C   UNL     1     -10.933  10.310  70.249  1.00  0.00    -0.375 C  
HETATM    7  C   UNL     1     -11.971  11.147  70.480  1.00  0.00    -0.380 C  
HETATM    8  N   UNL     1     -12.153  12.249  69.663  1.00  0.00    -0.253 NA 
HETATM    9  C   UNL     1     -13.004  11.047  71.582  1.00  0.00    -0.561 C  
HETATM   10  C   UNL     1     -11.414  12.534  68.535  1.00  0.00    -0.305 C  
HETATM   11  C   UNL     1     -11.880  13.744  67.757  1.00  0.00    -0.404 C  
HETATM   12  C   UNL     1     -10.355  11.758  68.200  1.00  0.00    -0.213 C  
HETATM   13  C   UNL     1      -9.947  10.569  69.089  1.00  0.00    -0.236 C  
BRANCH  12  14
HETATM   14  C   UNL     1      -9.634  12.050  66.933  1.00  0.00    -0.203 C  
HETATM   15  O   UNL     1      -8.529  12.573  66.877  1.00  0.00    -0.186 OA 
BRANCH  14  16
HETATM   16  O   UNL     1     -10.351  11.679  65.839  1.00  0.00    -0.231 OA 
HETATM   17  C   UNL     1      -9.587  10.941  64.881  1.00  0.00    -0.248 C  
ENDBRANCH  14  16
ENDBRANCH  12  14
BRANCH  13  18
HETATM   18  C   UNL     1      -9.705   9.299  68.265  1.00  0.00    -0.167 A  
HETATM   19  C   UNL     1     -10.760   8.649  67.605  1.00  0.00    -0.194 A  
HETATM   20  C   UNL     1      -8.401   8.781  68.136  1.00  0.00    -0.122 A  
HETATM   21  C   UNL     1     -10.521   7.518  66.821  1.00  0.00    -0.319 A  
HETATM   22  C   UNL     1      -8.165   7.663  67.326  1.00  0.00    -0.119 A  
HETATM   23  N   UNL     1      -6.792   7.179  67.134  1.00  0.00    -0.073 N  
HETATM   24  C   UNL     1      -9.224   7.026  66.672  1.00  0.00    -0.189 A  
HETATM   25  O   UNL     1      -5.877   7.795  67.699  1.00  0.00    -0.035 OA 
HETATM   26  O   UNL     1      -6.626   6.191  66.403  1.00  0.00    -0.045 OA 
ENDBRANCH  13  18
ENDBRANCH   4   6
ENDBRANCH   3   4
ENDBRANCH   2   3
TORSDOF 6
ENDMDL
MODEL       53
REMARK 921   NORMALIZED FREE ENERGY PREDICTED BY IDOCK:   -4.84 KCAL/MOL
REMARK 922        TOTAL FREE ENERGY PREDICTED BY IDOCK:   -7.68 KCAL/MOL
REMARK 923 INTER-LIGAND FREE ENERGY PREDICTED BY IDOCK:   -6.41 KCAL/MOL
REMARK 924 INTRA-LIGAND FREE ENERGY PREDICTED BY IDOCK:   -1.28 KCAL/MOL
REMARK 927      BINDING AFFINITY PREDICTED BY RF-SCORE:    0.00 PKD
ROOT
HETATM    1  C   UNL     1     -12.724  14.410  70.731  1.00  0.00    -0.427 C  
HETATM    2  C   UNL     1     -12.902  13.018  71.308  1.00  0.00    -0.281 C  
ENDROOT
BRANCH   2   3
HETATM    3  O   UNL     1     -11.851  12.208  70.763  1.00  0.00    -0.166 OA 
BRANCH   3   4
HETATM    4  C   UNL     1     -12.244  11.061  70.155  1.00  0.00    -0.344 C  
HETATM    5  O   UNL     1     -13.394  10.654  70.087  1.00  0.00     0.011 OA 
BRANCH   4   6
HETATM    6  C   UNL     1     -11.075  10.419  69.503  1.00  0.00    -0.314 C  
HETATM    7  C   UNL     1     -10.261   9.596  70.203  1.00  0.00    -0.264 C  
HETATM    8  N   UNL     1      -9.186   8.999  69.568  1.00  0.00    -0.148 NA 
HETATM    9  C   UNL     1     -10.383   9.202  71.659  1.00  0.00    -0.388 C  
HETATM   10  C   UNL     1      -8.790   9.247  68.271  1.00  0.00    -0.129 C  
HETATM   11  C   UNL     1      -7.520   8.544  67.847  1.00  0.00    -0.097 C  
HETATM   12  C   UNL     1      -9.524  10.065  67.479  1.00  0.00    -0.169 C  
HETATM   13  C   UNL     1     -10.824  10.700  68.005  1.00  0.00    -0.309 C  
BRANCH  12  14
HETATM   14  C   UNL     1      -9.020  10.372  66.114  1.00  0.00    -0.157 C  
HETATM   15  O   UNL     1      -7.973  10.962  65.886  1.00  0.00    -0.157 OA 
BRANCH  14  16
HETATM   16  O   UNL     1      -9.866   9.929  65.145  1.00  0.00    -0.306 OA 
HETATM   17  C   UNL     1      -9.749  10.650  63.915  1.00  0.00    -0.321 C  
ENDBRANCH  14  16
ENDBRANCH  12  14
BRANCH  13  18
HETATM   18  C   UNL     1     -10.889  12.201  67.698  1.00  0.00    -0.272 A  
HETATM   19  C   UNL     1     -11.969  12.753  66.993  1.00  0.00    -0.364 A  
HETATM   20  C   UNL     1      -9.864  13.056  68.151  1.00  0.00    -0.228 A  
HETATM   21  C   UNL     1     -12.038  14.128  66.757  1.00  0.00    -0.474 A  
HETATM   22  C   UNL     1      -9.954  14.437  67.935  1.00  0.00    -0.228 A  
HETATM   23  N   UNL     1      -8.923  15.328  68.480  1.00  0.00    -0.179 N  
HETATM   24  C   UNL     1     -11.037  14.975  67.232  1.00  0.00    -0.334 A  
HETATM   25  O   UNL     1      -8.001  14.817  69.131  1.00  0.00    -0.156 OA 
HETATM   26  O   UNL     1      -9.043  16.546  68.273  1.00  0.00    -0.203 OA 
ENDBRANCH  13  18
ENDBRANCH   4   6
ENDBRANCH   3   4
ENDBRANCH   2   3
TORSDOF 6
ENDMDL
MODEL       54
REMARK 921   NORMALIZED FREE ENERGY PREDICTED BY IDOCK:   -4.83 KCAL/MOL
REMARK 922        TOTAL FREE ENERGY PREDICTED BY IDOCK:   -7.67 KCAL/MOL
REMARK 923 INTER-LIGAND FREE ENERGY PREDICTED BY IDOCK:   -6.29 KCAL/MOL
REMARK 924 INTRA-LIGAND FREE ENERGY PREDICTED BY IDOCK:   -1.37 KCAL/MOL
REMARK 927      BINDING AFFINITY PREDICTED BY RF-SCORE:    0.00 PKD
ROOT
HETATM    1  C   UNL     1     -12.167  11.078  70.875  1.00  0.00    -0.471 C  
HETATM    2  C   UNL     1     -12.244  12.472  70.279  1.00  0.00    -0.267 C  
ENDROOT
BRANCH   2   3
HETATM    3  O   UNL     1     -12.075  12.324  68.862  1.00  0.00    -0.265 OA 
BRANCH   3   4
HETATM    4  C   UNL     1     -11.138  13.123  68.293  1.00  0.00    -0.266 C  
HETATM    5  O   UNL     1     -10.611  14.088  68.827  1.00  0.00    -0.247 OA 
BRANCH   4   6
HETATM    6  C   UNL     1     -10.782  12.592  66.953  1.00  0.00    -0.264 C  
HETATM    7  C   UNL     1     -11.488  12.955  65.857  1.00  0.00    -0.346 C  
HETATM    8  N   UNL     1     -11.126  12.457  64.618  1.00  0.00    -0.295 NA 
HETATM    9  C   UNL     1     -12.671  13.896  65.796  1.00  0.00    -0.503 C  
HETATM   10  C   UNL     1     -10.144  11.516  64.394  1.00  0.00    -0.282 C  
HETATM   11  C   UNL     1     -10.012  11.061  62.958  1.00  0.00    -0.333 C  
HETATM   12  C   UNL     1      -9.379  11.072  65.420  1.00  0.00    -0.244 C  
HETATM   13  C   UNL     1      -9.576  11.634  66.840  1.00  0.00    -0.199 C  
BRANCH  12  14
HETATM   14  C   UNL     1      -8.385   9.998  65.153  1.00  0.00    -0.153 C  
HETATM   15  O   UNL     1      -7.179  10.183  65.077  1.00  0.00    -0.135 OA 
BRANCH  14  16
HETATM   16  O   UNL     1      -8.977   8.784  64.988  1.00  0.00    -0.165 OA 
HETATM   17  C   UNL     1      -8.289   7.721  65.654  1.00  0.00    -0.139 C  
ENDBRANCH  14  16
ENDBRANCH  12  14
BRANCH  13  18
HETATM   18  C   UNL     1      -9.647  10.518  67.889  1.00  0.00    -0.164 A  
HETATM   19  C   UNL     1     -10.616   9.506  67.809  1.00  0.00    -0.318 A  
HETATM   20  C   UNL     1      -8.709  10.480  68.941  1.00  0.00    -0.154 A  
HETATM   21  C   UNL     1     -10.643   8.470  68.745  1.00  0.00    -0.162 A  
HETATM   22  C   UNL     1      -8.726   9.423  69.860  1.00  0.00    -0.197 A  
HETATM   23  N   UNL     1      -7.697   9.350  70.903  1.00  0.00    -0.109 N  
HETATM   24  C   UNL     1      -9.696   8.419  69.768  1.00  0.00    -0.180 A  
HETATM   25  O   UNL     1      -6.831  10.236  70.927  1.00  0.00    -0.339 OA 
HETATM   26  O   UNL     1      -7.743   8.394  71.693  1.00  0.00    -0.095 OA 
ENDBRANCH  13  18
ENDBRANCH   4   6
ENDBRANCH   3   4
ENDBRANCH   2   3
TORSDOF 6
ENDMDL
MODEL       55
REMARK 921   NORMALIZED FREE ENERGY PREDICTED BY IDOCK:   -4.82 KCAL/MOL
REMARK 922        TOTAL FREE ENERGY PREDICTED BY IDOCK:   -7.66 KCAL/MOL
REMARK 923 INTER-LIGAND FREE ENERGY PREDICTED BY IDOCK:   -6.48 KCAL/MOL
REMARK 924 INTRA-LIGAND FREE ENERGY PREDICTED BY IDOCK:   -1.18 KCAL/MOL
REMARK 927      BINDING AFFINITY PREDICTED BY RF-SCORE:    0.00 PKD
ROOT
HETATM    1  C   UNL     1     -10.412   5.409  69.861  1.00  0.00    -0.378 C  
HETATM    2  C   UNL     1     -11.490   6.471  69.966  1.00  0.00    -0.412 C  
ENDROOT
BRANCH   2   3
HETATM    3  O   UNL     1     -11.026   7.605  69.219  1.00  0.00    -0.149 OA 
BRANCH   3   4
HETATM    4  C   UNL     1     -11.032   8.789  69.881  1.00  0.00    -0.179 C  
HETATM    5  O   UNL     1     -11.988   9.264  70.474  1.00  0.00    -0.199 OA 
BRANCH   4   6
HETATM    6  C   UNL     1      -9.670   9.380  69.851  1.00  0.00    -0.236 C  
HETATM    7  C   UNL     1      -8.809   9.180  70.876  1.00  0.00    -0.233 C  
HETATM    8  N   UNL     1      -7.540   9.729  70.816  1.00  0.00    -0.304 NA 
HETATM    9  C   UNL     1      -9.051   8.379  72.137  1.00  0.00    -0.309 C  
HETATM   10  C   UNL     1      -7.084  10.573  69.827  1.00  0.00    -0.150 C  
HETATM   11  C   UNL     1      -5.691  11.120  70.048  1.00  0.00    -0.098 C  
HETATM   12  C   UNL     1      -7.865  10.853  68.756  1.00  0.00    -0.132 C  
HETATM   13  C   UNL     1      -9.256  10.208  68.615  1.00  0.00    -0.157 C  
BRANCH  12  14
HETATM   14  C   UNL     1      -7.369  11.831  67.751  1.00  0.00    -0.106 C  
HETATM   15  O   UNL     1      -6.828  11.520  66.699  1.00  0.00    -0.134 OA 
BRANCH  14  16
HETATM   16  O   UNL     1      -7.576  13.117  68.144  1.00  0.00    -0.117 OA 
HETATM   17  C   UNL     1      -6.549  14.015  67.715  1.00  0.00    -0.176 C  
ENDBRANCH  14  16
ENDBRANCH  12  14
BRANCH  13  18
HETATM   18  C   UNL     1     -10.328  11.242  68.249  1.00  0.00    -0.200 A  
HETATM   19  C   UNL     1     -10.822  12.146  69.203  1.00  0.00    -0.165 A  
HETATM   20  C   UNL     1     -10.812  11.315  66.928  1.00  0.00    -0.333 A  
HETATM   21  C   UNL     1     -11.765  13.112  68.847  1.00  0.00    -0.368 A  
HETATM   22  C   UNL     1     -11.739  12.304  66.572  1.00  0.00    -0.352 A  
HETATM   23  N   UNL     1     -12.176  12.423  65.176  1.00  0.00    -0.435 N  
HETATM   24  C   UNL     1     -12.221  13.200  67.531  1.00  0.00    -0.169 A  
HETATM   25  O   UNL     1     -11.696  11.636  64.349  1.00  0.00    -0.257 OA 
HETATM   26  O   UNL     1     -12.992  13.317  64.902  1.00  0.00    -0.727 OA 
ENDBRANCH  13  18
ENDBRANCH   4   6
ENDBRANCH   3   4
ENDBRANCH   2   3
TORSDOF 6
ENDMDL
MODEL       56
REMARK 921   NORMALIZED FREE ENERGY PREDICTED BY IDOCK:   -4.80 KCAL/MOL
REMARK 922        TOTAL FREE ENERGY PREDICTED BY IDOCK:   -7.63 KCAL/MOL
REMARK 923 INTER-LIGAND FREE ENERGY PREDICTED BY IDOCK:   -6.36 KCAL/MOL
REMARK 924 INTRA-LIGAND FREE ENERGY PREDICTED BY IDOCK:   -1.28 KCAL/MOL
REMARK 927      BINDING AFFINITY PREDICTED BY RF-SCORE:    0.00 PKD
ROOT
HETATM    1  C   UNL     1      -6.288  12.263  67.189  1.00  0.00    -0.117 C  
HETATM    2  C   UNL     1      -6.121  12.713  68.629  1.00  0.00    -0.067 C  
ENDROOT
BRANCH   2   3
HETATM    3  O   UNL     1      -5.899  14.130  68.594  1.00  0.00    -0.079 OA 
BRANCH   3   4
HETATM    4  C   UNL     1      -6.489  14.844  69.586  1.00  0.00    -0.154 C  
HETATM    5  O   UNL     1      -6.526  14.523  70.764  1.00  0.00    -0.127 OA 
BRANCH   4   6
HETATM    6  C   UNL     1      -7.005  16.122  69.036  1.00  0.00    -0.178 C  
HETATM    7  C   UNL     1      -6.493  17.306  69.445  1.00  0.00    -0.235 C  
HETATM    8  N   UNL     1      -6.981  18.483  68.905  1.00  0.00    -0.280 NA 
HETATM    9  C   UNL     1      -5.385  17.530  70.452  1.00  0.00    -0.263 C  
HETATM   10  C   UNL     1      -8.045  18.578  68.034  1.00  0.00    -0.271 C  
HETATM   11  C   UNL     1      -8.449  19.989  67.672  1.00  0.00    -0.378 C  
HETATM   12  C   UNL     1      -8.644  17.456  67.565  1.00  0.00    -0.221 C  
HETATM   13  C   UNL     1      -8.124  16.066  67.973  1.00  0.00    -0.148 C  
BRANCH  12  14
HETATM   14  C   UNL     1      -9.839  17.602  66.692  1.00  0.00    -0.309 C  
HETATM   15  O   UNL     1     -10.864  18.181  67.023  1.00  0.00    -0.303 OA 
BRANCH  14  16
HETATM   16  O   UNL     1      -9.664  17.003  65.483  1.00  0.00    -0.534 OA 
HETATM   17  C   UNL     1     -10.789  16.223  65.067  1.00  0.00    -0.320 C  
ENDBRANCH  14  16
ENDBRANCH  12  14
BRANCH  13  18
HETATM   18  C   UNL     1      -9.264  15.138  68.409  1.00  0.00    -0.189 A  
HETATM   19  C   UNL     1      -9.543  13.952  67.712  1.00  0.00    -0.222 A  
HETATM   20  C   UNL     1     -10.034  15.457  69.545  1.00  0.00    -0.266 A  
HETATM   21  C   UNL     1     -10.556  13.093  68.145  1.00  0.00    -0.257 A  
HETATM   22  C   UNL     1     -11.031  14.577  69.989  1.00  0.00    -0.059 A  
HETATM   23  N   UNL     1     -11.773  14.878  71.219  1.00  0.00    -0.331 N  
HETATM   24  C   UNL     1     -11.297  13.397  69.287  1.00  0.00    -0.314 A  
HETATM   25  O   UNL     1     -11.480  15.913  71.834  1.00  0.00    -0.406 OA 
HETATM   26  O   UNL     1     -12.642  14.070  71.581  1.00  0.00    -0.331 OA 
ENDBRANCH  13  18
ENDBRANCH   4   6
ENDBRANCH   3   4
ENDBRANCH   2   3
TORSDOF 6
ENDMDL
MODEL       57
REMARK 921   NORMALIZED FREE ENERGY PREDICTED BY IDOCK:   -4.80 KCAL/MOL
REMARK 922        TOTAL FREE ENERGY PREDICTED BY IDOCK:   -7.63 KCAL/MOL
REMARK 923 INTER-LIGAND FREE ENERGY PREDICTED BY IDOCK:   -6.28 KCAL/MOL
REMARK 924 INTRA-LIGAND FREE ENERGY PREDICTED BY IDOCK:   -1.34 KCAL/MOL
REMARK 927      BINDING AFFINITY PREDICTED BY RF-SCORE:    0.00 PKD
ROOT
HETATM    1  C   UNL     1      -5.815   8.805  66.677  1.00  0.00    -0.052 C  
HETATM    2  C   UNL     1      -6.288   8.599  65.249  1.00  0.00    -0.056 C  
ENDROOT
BRANCH   2   3
HETATM    3  O   UNL     1      -7.391   9.494  65.048  1.00  0.00    -0.102 OA 
BRANCH   3   4
HETATM    4  C   UNL     1      -8.625   8.960  65.229  1.00  0.00    -0.184 C  
HETATM    5  O   UNL     1      -8.870   7.770  65.359  1.00  0.00    -0.085 OA 
BRANCH   4   6
HETATM    6  C   UNL     1      -9.627  10.051  65.334  1.00  0.00    -0.342 C  
HETATM    7  C   UNL     1     -10.026  10.730  64.234  1.00  0.00    -0.341 C  
HETATM    8  N   UNL     1     -10.972  11.732  64.358  1.00  0.00    -0.322 NA 
HETATM    9  C   UNL     1      -9.571  10.517  62.807  1.00  0.00    -0.323 C  
HETATM   10  C   UNL     1     -11.492  12.193  65.549  1.00  0.00    -0.343 C  
HETATM   11  C   UNL     1     -12.435  13.369  65.421  1.00  0.00    -0.543 C  
HETATM   12  C   UNL     1     -11.154  11.595  66.717  1.00  0.00    -0.366 C  
HETATM   13  C   UNL     1     -10.212  10.377  66.726  1.00  0.00    -0.282 C  
BRANCH  12  14
HETATM   14  C   UNL     1     -11.672  12.172  67.986  1.00  0.00    -0.344 C  
HETATM   15  O   UNL     1     -11.505  13.334  68.330  1.00  0.00    -0.271 OA 
BRANCH  14  16
HETATM   16  O   UNL     1     -12.346  11.252  68.728  1.00  0.00    -0.518 OA 
HETATM   17  C   UNL     1     -12.040  11.313  70.124  1.00  0.00    -0.366 C  
ENDBRANCH  14  16
ENDBRANCH  12  14
BRANCH  13  18
HETATM   18  C   UNL     1      -9.107  10.521  67.779  1.00  0.00    -0.140 A  
HETATM   19  C   UNL     1      -8.147  11.541  67.691  1.00  0.00    -0.130 A  
HETATM   20  C   UNL     1      -9.062   9.636  68.876  1.00  0.00    -0.144 A  
HETATM   21  C   UNL     1      -7.172  11.688  68.680  1.00  0.00    -0.104 A  
HETATM   22  C   UNL     1      -8.098   9.808  69.878  1.00  0.00    -0.182 A  
HETATM   23  N   UNL     1      -8.108   8.932  71.056  1.00  0.00    -0.158 N  
HETATM   24  C   UNL     1      -7.148  10.830  69.779  1.00  0.00    -0.126 A  
HETATM   25  O   UNL     1      -8.991   8.065  71.125  1.00  0.00    -0.134 OA 
HETATM   26  O   UNL     1      -7.242   9.122  71.924  1.00  0.00    -0.324 OA 
ENDBRANCH  13  18
ENDBRANCH   4   6
ENDBRANCH   3   4
ENDBRANCH   2   3
TORSDOF 6
ENDMDL
MODEL       58
REMARK 921   NORMALIZED FREE ENERGY PREDICTED BY IDOCK:   -4.79 KCAL/MOL
REMARK 922        TOTAL FREE ENERGY PREDICTED BY IDOCK:   -7.62 KCAL/MOL
REMARK 923 INTER-LIGAND FREE ENERGY PREDICTED BY IDOCK:   -6.34 KCAL/MOL
REMARK 924 INTRA-LIGAND FREE ENERGY PREDICTED BY IDOCK:   -1.28 KCAL/MOL
REMARK 927      BINDING AFFINITY PREDICTED BY RF-SCORE:    0.00 PKD
ROOT
HETATM    1  C   UNL     1     -11.992  15.989  72.204  1.00  0.00    -0.629 C  
HETATM    2  C   UNL     1     -12.474  15.483  70.857  1.00  0.00    -0.440 C  
ENDROOT
BRANCH   2   3
HETATM    3  O   UNL     1     -11.377  14.771  70.268  1.00  0.00    -0.255 OA 
BRANCH   3   4
HETATM    4  C   UNL     1     -11.226  14.922  68.928  1.00  0.00    -0.269 C  
HETATM    5  O   UNL     1     -12.126  14.868  68.104  1.00  0.00    -0.243 OA 
BRANCH   4   6
HETATM    6  C   UNL     1      -9.812  15.254  68.623  1.00  0.00    -0.211 C  
HETATM    7  C   UNL     1      -9.452  16.521  68.314  1.00  0.00    -0.220 C  
HETATM    8  N   UNL     1      -8.124  16.806  68.048  1.00  0.00    -0.183 NA 
HETATM    9  C   UNL     1     -10.347  17.738  68.235  1.00  0.00    -0.387 C  
HETATM   10  C   UNL     1      -7.111  15.875  67.965  1.00  0.00    -0.130 C  
HETATM   11  C   UNL     1      -5.765  16.432  67.559  1.00  0.00    -0.177 C  
HETATM   12  C   UNL     1      -7.358  14.572  68.244  1.00  0.00    -0.120 C  
HETATM   13  C   UNL     1      -8.763  14.122  68.686  1.00  0.00    -0.126 C  
BRANCH  12  14
HETATM   14  C   UNL     1      -6.259  13.587  68.065  1.00  0.00    -0.136 C  
HETATM   15  O   UNL     1      -6.026  13.002  67.016  1.00  0.00    -0.267 OA 
BRANCH  14  16
HETATM   16  O   UNL     1      -5.547  13.401  69.209  1.00  0.00    -0.075 OA 
HETATM   17  C   UNL     1      -5.856  12.174  69.877  1.00  0.00    -0.140 C  
ENDBRANCH  14  16
ENDBRANCH  12  14
BRANCH  13  18
HETATM   18  C   UNL     1      -9.230  12.881  67.916  1.00  0.00    -0.208 A  
HETATM   19  C   UNL     1      -9.370  11.639  68.555  1.00  0.00    -0.169 A  
HETATM   20  C   UNL     1      -9.555  12.983  66.549  1.00  0.00    -0.260 A  
HETATM   21  C   UNL     1      -9.838  10.526  67.854  1.00  0.00    -0.181 A  
HETATM   22  C   UNL     1     -10.050  11.868  65.859  1.00  0.00    -0.234 A  
HETATM   23  N   UNL     1     -10.462  12.004  64.457  1.00  0.00    -0.283 N  
HETATM   24  C   UNL     1     -10.187  10.636  66.508  1.00  0.00    -0.288 A  
HETATM   25  O   UNL     1     -10.362  13.120  63.929  1.00  0.00    -0.354 OA 
HETATM   26  O   UNL     1     -10.901  10.994  63.884  1.00  0.00    -0.356 OA 
ENDBRANCH  13  18
ENDBRANCH   4   6
ENDBRANCH   3   4
ENDBRANCH   2   3
TORSDOF 6
ENDMDL
MODEL       59
REMARK 921   NORMALIZED FREE ENERGY PREDICTED BY IDOCK:   -4.77 KCAL/MOL
REMARK 922        TOTAL FREE ENERGY PREDICTED BY IDOCK:   -7.59 KCAL/MOL
REMARK 923 INTER-LIGAND FREE ENERGY PREDICTED BY IDOCK:   -6.60 KCAL/MOL
REMARK 924 INTRA-LIGAND FREE ENERGY PREDICTED BY IDOCK:   -0.99 KCAL/MOL
REMARK 927      BINDING AFFINITY PREDICTED BY RF-SCORE:    0.00 PKD
ROOT
HETATM    1  C   UNL     1     -11.460  15.305  71.146  1.00  0.00    -0.414 C  
HETATM    2  C   UNL     1     -10.468  15.554  70.025  1.00  0.00    -0.309 C  
ENDROOT
BRANCH   2   3
HETATM    3  O   UNL     1     -10.370  14.331  69.282  1.00  0.00    -0.176 OA 
BRANCH   3   4
HETATM    4  C   UNL     1      -9.240  14.175  68.548  1.00  0.00    -0.187 C  
HETATM    5  O   UNL     1      -8.116  14.502  68.899  1.00  0.00    -0.148 OA 
BRANCH   4   6
HETATM    6  C   UNL     1      -9.563  13.463  67.286  1.00  0.00    -0.234 C  
HETATM    7  C   UNL     1     -10.354  14.040  66.352  1.00  0.00    -0.289 C  
HETATM    8  N   UNL     1     -10.628  13.360  65.177  1.00  0.00    -0.326 NA 
HETATM    9  C   UNL     1     -10.999  15.407  66.410  1.00  0.00    -0.277 C  
HETATM   10  C   UNL     1     -10.242  12.067  64.898  1.00  0.00    -0.270 C  
HETATM   11  C   UNL     1     -10.756  11.517  63.586  1.00  0.00    -0.491 C  
HETATM   12  C   UNL     1      -9.456  11.387  65.767  1.00  0.00    -0.256 C  
HETATM   13  C   UNL     1      -8.958  12.060  67.060  1.00  0.00    -0.198 C  
BRANCH  12  14
HETATM   14  C   UNL     1      -9.129   9.967  65.468  1.00  0.00    -0.186 C  
HETATM   15  O   UNL     1      -8.098   9.601  64.920  1.00  0.00    -0.120 OA 
BRANCH  14  16
HETATM   16  O   UNL     1     -10.117   9.121  65.865  1.00  0.00    -0.273 OA 
HETATM   17  C   UNL     1      -9.636   7.984  66.587  1.00  0.00    -0.230 C  
ENDBRANCH  14  16
ENDBRANCH  12  14
BRANCH  13  18
HETATM   18  C   UNL     1      -9.160  11.159  68.284  1.00  0.00    -0.162 A  
HETATM   19  C   UNL     1      -8.077  10.500  68.888  1.00  0.00    -0.138 A  
HETATM   20  C   UNL     1     -10.446  11.005  68.839  1.00  0.00    -0.229 A  
HETATM   21  C   UNL     1      -8.267   9.717  70.028  1.00  0.00    -0.197 A  
HETATM   22  C   UNL     1     -10.623  10.239  69.999  1.00  0.00    -0.269 A  
HETATM   23  N   UNL     1     -11.952  10.150  70.616  1.00  0.00    -0.309 N  
HETATM   24  C   UNL     1      -9.536   9.589  70.593  1.00  0.00    -0.292 A  
HETATM   25  O   UNL     1     -12.882  10.773  70.083  1.00  0.00    -0.265 OA 
HETATM   26  O   UNL     1     -12.066   9.469  71.647  1.00  0.00    -0.354 OA 
ENDBRANCH  13  18
ENDBRANCH   4   6
ENDBRANCH   3   4
ENDBRANCH   2   3
TORSDOF 6
ENDMDL
MODEL       60
REMARK 921   NORMALIZED FREE ENERGY PREDICTED BY IDOCK:   -4.75 KCAL/MOL
REMARK 922        TOTAL FREE ENERGY PREDICTED BY IDOCK:   -7.56 KCAL/MOL
REMARK 923 INTER-LIGAND FREE ENERGY PREDICTED BY IDOCK:   -6.28 KCAL/MOL
REMARK 924 INTRA-LIGAND FREE ENERGY PREDICTED BY IDOCK:   -1.29 KCAL/MOL
REMARK 927      BINDING AFFINITY PREDICTED BY RF-SCORE:    0.00 PKD
ROOT
HETATM    1  C   UNL     1     -10.751   6.375  67.056  1.00  0.00    -0.434 C  
HETATM    2  C   UNL     1      -9.308   6.604  66.647  1.00  0.00    -0.163 C  
ENDROOT
BRANCH   2   3
HETATM    3  O   UNL     1      -9.338   7.423  65.469  1.00  0.00     0.188 OA 
BRANCH   3   4
HETATM    4  C   UNL     1      -8.657   8.594  65.547  1.00  0.00    -0.175 C  
HETATM    5  O   UNL     1      -7.443   8.713  65.474  1.00  0.00    -0.083 OA 
BRANCH   4   6
HETATM    6  C   UNL     1      -9.619   9.721  65.642  1.00  0.00    -0.329 C  
HETATM    7  C   UNL     1      -9.954  10.436  64.544  1.00  0.00    -0.331 C  
HETATM    8  N   UNL     1     -10.864  11.473  64.658  1.00  0.00    -0.317 NA 
HETATM    9  C   UNL     1      -9.458  10.235  63.129  1.00  0.00    -0.337 C  
HETATM   10  C   UNL     1     -11.407  11.930  65.840  1.00  0.00    -0.308 C  
HETATM   11  C   UNL     1     -12.298  13.144  65.705  1.00  0.00    -0.496 C  
HETATM   12  C   UNL     1     -11.132  11.296  67.005  1.00  0.00    -0.356 C  
HETATM   13  C   UNL     1     -10.239  10.042  67.020  1.00  0.00    -0.295 C  
BRANCH  12  14
HETATM   14  C   UNL     1     -11.671  11.867  68.268  1.00  0.00    -0.321 C  
HETATM   15  O   UNL     1     -12.529  11.329  68.954  1.00  0.00    -0.433 OA 
BRANCH  14  16
HETATM   16  O   UNL     1     -11.105  13.067  68.568  1.00  0.00    -0.240 OA 
HETATM   17  C   UNL     1     -11.827  13.804  69.559  1.00  0.00    -0.339 C  
ENDBRANCH  14  16
ENDBRANCH  12  14
BRANCH  13  18
HETATM   18  C   UNL     1      -9.166  10.121  68.113  1.00  0.00    -0.137 A  
HETATM   19  C   UNL     1      -8.089  11.016  68.011  1.00  0.00    -0.121 A  
HETATM   20  C   UNL     1      -9.267   9.306  69.258  1.00  0.00    -0.152 A  
HETATM   21  C   UNL     1      -7.142  11.110  69.033  1.00  0.00    -0.113 A  
HETATM   22  C   UNL     1      -8.328   9.425  70.291  1.00  0.00    -0.195 A  
HETATM   23  N   UNL     1      -8.488   8.630  71.515  1.00  0.00    -0.172 N  
HETATM   24  C   UNL     1      -7.262  10.323  70.179  1.00  0.00    -0.138 A  
HETATM   25  O   UNL     1      -9.468   7.876  71.592  1.00  0.00    -0.144 OA 
HETATM   26  O   UNL     1      -7.639   8.771  72.409  1.00  0.00    -0.335 OA 
ENDBRANCH  13  18
ENDBRANCH   4   6
ENDBRANCH   3   4
ENDBRANCH   2   3
TORSDOF 6
ENDMDL
MODEL       61
REMARK 921   NORMALIZED FREE ENERGY PREDICTED BY IDOCK:   -4.74 KCAL/MOL
REMARK 922        TOTAL FREE ENERGY PREDICTED BY IDOCK:   -7.56 KCAL/MOL
REMARK 923 INTER-LIGAND FREE ENERGY PREDICTED BY IDOCK:   -7.30 KCAL/MOL
REMARK 924 INTRA-LIGAND FREE ENERGY PREDICTED BY IDOCK:   -0.25 KCAL/MOL
REMARK 927      BINDING AFFINITY PREDICTED BY RF-SCORE:    0.00 PKD
ROOT
HETATM    1  C   UNL     1     -10.199  18.611  67.843  1.00  0.00    -0.433 C  
HETATM    2  C   UNL     1     -10.632  17.223  68.276  1.00  0.00    -0.383 C  
ENDROOT
BRANCH   2   3
HETATM    3  O   UNL     1      -9.433  16.464  68.486  1.00  0.00    -0.212 OA 
BRANCH   3   4
HETATM    4  C   UNL     1      -9.595  15.262  69.094  1.00  0.00    -0.243 C  
HETATM    5  O   UNL     1     -10.477  14.986  69.893  1.00  0.00    -0.225 OA 
BRANCH   4   6
HETATM    6  C   UNL     1      -8.589  14.304  68.572  1.00  0.00    -0.175 C  
HETATM    7  C   UNL     1      -7.266  14.570  68.670  1.00  0.00    -0.124 C  
HETATM    8  N   UNL     1      -6.349  13.653  68.189  1.00  0.00    -0.107 NA 
HETATM    9  C   UNL     1      -6.617  15.791  69.285  1.00  0.00    -0.160 C  
HETATM   10  C   UNL     1      -6.662  12.498  67.504  1.00  0.00    -0.151 C  
HETATM   11  C   UNL     1      -5.472  11.717  66.992  1.00  0.00    -0.127 C  
HETATM   12  C   UNL     1      -7.957  12.136  67.336  1.00  0.00    -0.168 C  
HETATM   13  C   UNL     1      -9.090  12.990  67.934  1.00  0.00    -0.207 C  
BRANCH  12  14
HETATM   14  C   UNL     1      -8.256  10.927  66.522  1.00  0.00    -0.157 C  
HETATM   15  O   UNL     1      -8.352  10.927  65.303  1.00  0.00    -0.133 OA 
BRANCH  14  16
HETATM   16  O   UNL     1      -8.423   9.820  67.295  1.00  0.00    -0.124 OA 
HETATM   17  C   UNL     1      -7.891   8.630  66.705  1.00  0.00    -0.097 C  
ENDBRANCH  14  16
ENDBRANCH  12  14
BRANCH  13  18
HETATM   18  C   UNL     1     -10.204  13.251  66.913  1.00  0.00    -0.250 A  
HETATM   19  C   UNL     1     -11.236  12.323  66.709  1.00  0.00    -0.371 A  
HETATM   20  C   UNL     1     -10.217  14.455  66.180  1.00  0.00    -0.317 A  
HETATM   21  C   UNL     1     -12.269  12.592  65.808  1.00  0.00    -0.427 A  
HETATM   22  C   UNL     1     -11.270  14.729  65.298  1.00  0.00    -0.366 A  
HETATM   23  N   UNL     1     -11.317  16.020  64.599  1.00  0.00    -0.391 N  
HETATM   24  C   UNL     1     -12.295  13.797  65.106  1.00  0.00    -0.476 A  
HETATM   25  O   UNL     1     -10.412  16.835  64.827  1.00  0.00    -0.532 OA 
HETATM   26  O   UNL     1     -12.271  16.226  63.833  1.00  0.00    -0.945 OA 
ENDBRANCH  13  18
ENDBRANCH   4   6
ENDBRANCH   3   4
ENDBRANCH   2   3
TORSDOF 6
ENDMDL
MODEL       62
REMARK 921   NORMALIZED FREE ENERGY PREDICTED BY IDOCK:   -4.74 KCAL/MOL
REMARK 922        TOTAL FREE ENERGY PREDICTED BY IDOCK:   -7.54 KCAL/MOL
REMARK 923 INTER-LIGAND FREE ENERGY PREDICTED BY IDOCK:   -6.39 KCAL/MOL
REMARK 924 INTRA-LIGAND FREE ENERGY PREDICTED BY IDOCK:   -1.15 KCAL/MOL
REMARK 927      BINDING AFFINITY PREDICTED BY RF-SCORE:    0.00 PKD
ROOT
HETATM    1  C   UNL     1     -12.226  14.191  66.244  1.00  0.00    -0.474 C  
HETATM    2  C   UNL     1     -11.564  12.826  66.199  1.00  0.00    -0.379 C  
ENDROOT
BRANCH   2   3
HETATM    3  O   UNL     1     -11.976  12.128  67.383  1.00  0.00    -0.563 OA 
BRANCH   3   4
HETATM    4  C   UNL     1     -11.076  12.108  68.398  1.00  0.00    -0.245 C  
HETATM    5  O   UNL     1     -10.056  12.777  68.454  1.00  0.00    -0.232 OA 
BRANCH   4   6
HETATM    6  C   UNL     1     -11.567  11.214  69.477  1.00  0.00    -0.392 C  
HETATM    7  C   UNL     1     -12.256  11.715  70.528  1.00  0.00    -0.361 C  
HETATM    8  N   UNL     1     -12.716  10.857  71.513  1.00  0.00    -0.426 NA 
HETATM    9  C   UNL     1     -12.630  13.160  70.778  1.00  0.00    -0.338 C  
HETATM   10  C   UNL     1     -12.444   9.508  71.583  1.00  0.00    -0.391 C  
HETATM   11  C   UNL     1     -12.978   8.813  72.816  1.00  0.00    -0.175 C  
HETATM   12  C   UNL     1     -11.752   8.899  70.590  1.00  0.00    -0.212 C  
HETATM   13  C   UNL     1     -11.289   9.699  69.358  1.00  0.00    -0.038 C  
BRANCH  12  14
HETATM   14  C   UNL     1     -11.410   7.460  70.741  1.00  0.00    -0.280 C  
HETATM   15  O   UNL     1     -12.020   6.549  70.198  1.00  0.00    -0.383 OA 
BRANCH  14  16
HETATM   16  O   UNL     1     -10.346   7.272  71.567  1.00  0.00    -0.202 OA 
HETATM   17  C   UNL     1      -9.288   6.518  70.968  1.00  0.00    -0.160 C  
ENDBRANCH  14  16
ENDBRANCH  12  14
BRANCH  13  18
HETATM   18  C   UNL     1      -9.817   9.425  69.023  1.00  0.00    -0.171 A  
HETATM   19  C   UNL     1      -8.785   9.879  69.858  1.00  0.00    -0.225 A  
HETATM   20  C   UNL     1      -9.486   8.679  67.874  1.00  0.00    -0.157 A  
HETATM   21  C   UNL     1      -7.451   9.585  69.565  1.00  0.00    -0.092 A  
HETATM   22  C   UNL     1      -8.148   8.365  67.603  1.00  0.00    -0.118 A  
HETATM   23  N   UNL     1      -7.818   7.520  66.448  1.00  0.00    -0.096 N  
HETATM   24  C   UNL     1      -7.128   8.822  68.444  1.00  0.00    -0.077 A  
HETATM   25  O   UNL     1      -8.753   7.102  65.750  1.00  0.00    -0.154 OA 
HETATM   26  O   UNL     1      -6.622   7.259  66.247  1.00  0.00    -0.050 OA 
ENDBRANCH  13  18
ENDBRANCH   4   6
ENDBRANCH   3   4
ENDBRANCH   2   3
TORSDOF 6
ENDMDL
MODEL       63
REMARK 921   NORMALIZED FREE ENERGY PREDICTED BY IDOCK:   -4.72 KCAL/MOL
REMARK 922        TOTAL FREE ENERGY PREDICTED BY IDOCK:   -7.52 KCAL/MOL
REMARK 923 INTER-LIGAND FREE ENERGY PREDICTED BY IDOCK:   -6.21 KCAL/MOL
REMARK 924 INTRA-LIGAND FREE ENERGY PREDICTED BY IDOCK:   -1.31 KCAL/MOL
REMARK 927      BINDING AFFINITY PREDICTED BY RF-SCORE:    0.00 PKD
ROOT
HETATM    1  C   UNL     1     -11.910  15.387  72.570  1.00  0.00    -0.564 C  
HETATM    2  C   UNL     1     -11.738  15.057  71.099  1.00  0.00    -0.337 C  
ENDROOT
BRANCH   2   3
HETATM    3  O   UNL     1     -11.390  16.283  70.440  1.00  0.00    -0.371 OA 
BRANCH   3   4
HETATM    4  C   UNL     1     -11.127  16.186  69.112  1.00  0.00    -0.329 C  
HETATM    5  O   UNL     1     -11.964  16.037  68.234  1.00  0.00    -0.163 OA 
BRANCH   4   6
HETATM    6  C   UNL     1      -9.674  16.379  68.879  1.00  0.00    -0.257 C  
HETATM    7  C   UNL     1      -9.167  17.617  68.673  1.00  0.00    -0.266 C  
HETATM    8  N   UNL     1      -7.807  17.771  68.473  1.00  0.00    -0.283 NA 
HETATM    9  C   UNL     1      -9.923  18.928  68.651  1.00  0.00    -0.470 C  
HETATM   10  C   UNL     1      -6.897  16.742  68.359  1.00  0.00    -0.160 C  
HETATM   11  C   UNL     1      -5.483  17.172  68.038  1.00  0.00    -0.122 C  
HETATM   12  C   UNL     1      -7.295  15.459  68.536  1.00  0.00    -0.116 C  
HETATM   13  C   UNL     1      -8.757  15.137  68.897  1.00  0.00    -0.205 C  
BRANCH  12  14
HETATM   14  C   UNL     1      -6.301  14.372  68.324  1.00  0.00    -0.118 C  
HETATM   15  O   UNL     1      -6.005  13.918  67.228  1.00  0.00    -0.318 OA 
BRANCH  14  16
HETATM   16  O   UNL     1      -5.768  13.932  69.495  1.00  0.00    -0.086 OA 
HETATM   17  C   UNL     1      -5.948  12.529  69.710  1.00  0.00    -0.135 C  
ENDBRANCH  14  16
ENDBRANCH  12  14
BRANCH  13  18
HETATM   18  C   UNL     1      -9.323  14.009  68.026  1.00  0.00    -0.205 A  
HETATM   19  C   UNL     1      -9.431  14.151  66.634  1.00  0.00    -0.303 A  
HETATM   20  C   UNL     1      -9.717  12.793  68.619  1.00  0.00    -0.050 A  
HETATM   21  C   UNL     1      -9.908  13.100  65.846  1.00  0.00    -0.241 A  
HETATM   22  C   UNL     1     -10.168  11.735  67.819  1.00  0.00    -0.191 A  
HETATM   23  N   UNL     1     -10.500  10.446  68.438  1.00  0.00    -0.178 N  
HETATM   24  C   UNL     1     -10.270  11.888  66.433  1.00  0.00    -0.240 A  
HETATM   25  O   UNL     1     -10.359  10.338  69.664  1.00  0.00    -0.229 OA 
HETATM   26  O   UNL     1     -10.889   9.532  67.694  1.00  0.00    -0.279 OA 
ENDBRANCH  13  18
ENDBRANCH   4   6
ENDBRANCH   3   4
ENDBRANCH   2   3
TORSDOF 6
ENDMDL
MODEL       64
REMARK 921   NORMALIZED FREE ENERGY PREDICTED BY IDOCK:   -4.70 KCAL/MOL
REMARK 922        TOTAL FREE ENERGY PREDICTED BY IDOCK:   -7.50 KCAL/MOL
REMARK 923 INTER-LIGAND FREE ENERGY PREDICTED BY IDOCK:   -6.42 KCAL/MOL
REMARK 924 INTRA-LIGAND FREE ENERGY PREDICTED BY IDOCK:   -1.08 KCAL/MOL
REMARK 927      BINDING AFFINITY PREDICTED BY RF-SCORE:    0.00 PKD
ROOT
HETATM    1  C   UNL     1     -10.974   6.415  67.319  1.00  0.00    -0.474 C  
HETATM    2  C   UNL     1     -10.242   7.744  67.324  1.00  0.00    -0.273 C  
ENDROOT
BRANCH   2   3
HETATM    3  O   UNL     1     -10.910   8.579  68.281  1.00  0.00    -0.084 OA 
BRANCH   3   4
HETATM    4  C   UNL     1     -10.105   9.260  69.134  1.00  0.00    -0.199 C  
HETATM    5  O   UNL     1      -9.142   8.793  69.724  1.00  0.00    -0.145 OA 
BRANCH   4   6
HETATM    6  C   UNL     1     -10.516  10.686  69.172  1.00  0.00    -0.245 C  
HETATM    7  C   UNL     1     -11.559  11.083  69.939  1.00  0.00    -0.337 C  
HETATM    8  N   UNL     1     -11.912  12.421  69.968  1.00  0.00    -0.331 NA 
HETATM    9  C   UNL     1     -12.424  10.220  70.831  1.00  0.00    -0.466 C  
HETATM   10  C   UNL     1     -11.352  13.409  69.188  1.00  0.00    -0.280 C  
HETATM   11  C   UNL     1     -11.987  14.774  69.334  1.00  0.00    -0.339 C  
HETATM   12  C   UNL     1     -10.307  13.124  68.374  1.00  0.00    -0.257 C  
HETATM   13  C   UNL     1      -9.714  11.704  68.333  1.00  0.00    -0.199 C  
BRANCH  12  14
HETATM   14  C   UNL     1      -9.783  14.199  67.489  1.00  0.00    -0.234 C  
HETATM   15  O   UNL     1      -8.735  14.798  67.684  1.00  0.00    -0.164 OA 
BRANCH  14  16
HETATM   16  O   UNL     1     -10.613  14.448  66.441  1.00  0.00    -0.289 OA 
HETATM   17  C   UNL     1     -10.499  15.778  65.929  1.00  0.00    -0.352 C  
ENDBRANCH  14  16
ENDBRANCH  12  14
BRANCH  13  18
HETATM   18  C   UNL     1      -9.517  11.212  66.894  1.00  0.00    -0.203 A  
HETATM   19  C   UNL     1     -10.595  11.133  65.998  1.00  0.00    -0.298 A  
HETATM   20  C   UNL     1      -8.230  10.857  66.442  1.00  0.00    -0.163 A  
HETATM   21  C   UNL     1     -10.395  10.725  64.677  1.00  0.00    -0.394 A  
HETATM   22  C   UNL     1      -8.033  10.475  65.109  1.00  0.00    -0.094 A  
HETATM   23  N   UNL     1      -6.677  10.184  64.627  1.00  0.00    -0.131 N  
HETATM   24  C   UNL     1      -9.115  10.402  64.226  1.00  0.00    -0.270 A  
HETATM   25  O   UNL     1      -5.740  10.298  65.430  1.00  0.00    -0.080 OA 
HETATM   26  O   UNL     1      -6.545   9.857  63.438  1.00  0.00    -0.115 OA 
ENDBRANCH  13  18
ENDBRANCH   4   6
ENDBRANCH   3   4
ENDBRANCH   2   3
TORSDOF 6
ENDMDL
MODEL       65
REMARK 921   NORMALIZED FREE ENERGY PREDICTED BY IDOCK:   -4.69 KCAL/MOL
REMARK 922        TOTAL FREE ENERGY PREDICTED BY IDOCK:   -7.48 KCAL/MOL
REMARK 923 INTER-LIGAND FREE ENERGY PREDICTED BY IDOCK:   -6.70 KCAL/MOL
REMARK 924 INTRA-LIGAND FREE ENERGY PREDICTED BY IDOCK:   -0.78 KCAL/MOL
REMARK 927      BINDING AFFINITY PREDICTED BY RF-SCORE:    0.00 PKD
ROOT
HETATM    1  C   UNL     1      -9.688  17.438  68.371  1.00  0.00    -0.304 C  
HETATM    2  C   UNL     1     -10.090  16.624  67.155  1.00  0.00    -0.276 C  
ENDROOT
BRANCH   2   3
HETATM    3  O   UNL     1      -9.895  15.245  67.500  1.00  0.00    -0.213 OA 
BRANCH   3   4
HETATM    4  C   UNL     1     -10.940  14.419  67.242  1.00  0.00    -0.297 C  
HETATM    5  O   UNL     1     -12.033  14.469  67.784  1.00  0.00    -0.363 OA 
BRANCH   4   6
HETATM    6  C   UNL     1     -10.582  13.500  66.132  1.00  0.00    -0.290 C  
HETATM    7  C   UNL     1     -11.052  13.713  64.881  1.00  0.00    -0.351 C  
HETATM    8  N   UNL     1     -10.691  12.849  63.862  1.00  0.00    -0.399 NA 
HETATM    9  C   UNL     1     -11.951  14.838  64.416  1.00  0.00    -0.433 C  
HETATM   10  C   UNL     1      -9.955  11.695  64.020  1.00  0.00    -0.296 C  
HETATM   11  C   UNL     1      -9.784  10.870  62.763  1.00  0.00    -0.307 C  
HETATM   12  C   UNL     1      -9.441  11.375  65.232  1.00  0.00    -0.233 C  
HETATM   13  C   UNL     1      -9.646  12.310  66.438  1.00  0.00    -0.242 C  
BRANCH  12  14
HETATM   14  C   UNL     1      -8.722  10.081  65.379  1.00  0.00    -0.159 C  
HETATM   15  O   UNL     1      -7.506   9.962  65.325  1.00  0.00    -0.118 OA 
BRANCH  14  16
HETATM   16  O   UNL     1      -9.576   9.040  65.570  1.00  0.00    -0.224 OA 
HETATM   17  C   UNL     1      -9.044   8.014  66.412  1.00  0.00    -0.183 C  
ENDBRANCH  14  16
ENDBRANCH  12  14
BRANCH  13  18
HETATM   18  C   UNL     1     -10.107  11.540  67.682  1.00  0.00    -0.202 A  
HETATM   19  C   UNL     1     -11.468  11.303  67.928  1.00  0.00    -0.360 A  
HETATM   20  C   UNL     1      -9.153  11.032  68.587  1.00  0.00    -0.174 A  
HETATM   21  C   UNL     1     -11.872  10.564  69.041  1.00  0.00    -0.183 A  
HETATM   22  C   UNL     1      -9.565  10.268  69.686  1.00  0.00    -0.162 A  
HETATM   23  N   UNL     1      -8.561   9.675  70.578  1.00  0.00    -0.174 N  
HETATM   24  C   UNL     1     -10.925  10.037  69.919  1.00  0.00    -0.339 A  
HETATM   25  O   UNL     1      -7.366   9.869  70.315  1.00  0.00    -0.143 OA 
HETATM   26  O   UNL     1      -8.967   8.999  71.536  1.00  0.00    -0.273 OA 
ENDBRANCH  13  18
ENDBRANCH   4   6
ENDBRANCH   3   4
ENDBRANCH   2   3
TORSDOF 6
ENDMDL
MODEL       66
REMARK 921   NORMALIZED FREE ENERGY PREDICTED BY IDOCK:   -4.68 KCAL/MOL
REMARK 922        TOTAL FREE ENERGY PREDICTED BY IDOCK:   -7.47 KCAL/MOL
REMARK 923 INTER-LIGAND FREE ENERGY PREDICTED BY IDOCK:   -6.01 KCAL/MOL
REMARK 924 INTRA-LIGAND FREE ENERGY PREDICTED BY IDOCK:   -1.46 KCAL/MOL
REMARK 927      BINDING AFFINITY PREDICTED BY RF-SCORE:    0.00 PKD
ROOT
HETATM    1  C   UNL     1      -7.071   8.431  69.675  1.00  0.00    -0.052 C  
HETATM    2  C   UNL     1      -6.009   9.327  69.066  1.00  0.00    -0.042 C  
ENDROOT
BRANCH   2   3
HETATM    3  O   UNL     1      -6.655  10.565  68.735  1.00  0.00    -0.051 OA 
BRANCH   3   4
HETATM    4  C   UNL     1      -6.555  10.955  67.440  1.00  0.00    -0.069 C  
HETATM    5  O   UNL     1      -5.774  10.497  66.621  1.00  0.00    -0.050 OA 
BRANCH   4   6
HETATM    6  C   UNL     1      -7.605  11.962  67.144  1.00  0.00    -0.154 C  
HETATM    7  C   UNL     1      -7.472  13.241  67.564  1.00  0.00    -0.157 C  
HETATM    8  N   UNL     1      -8.459  14.163  67.261  1.00  0.00    -0.208 NA 
HETATM    9  C   UNL     1      -6.321  13.837  68.344  1.00  0.00    -0.099 C  
HETATM   10  C   UNL     1      -9.654  13.875  66.639  1.00  0.00    -0.289 C  
HETATM   11  C   UNL     1     -10.608  15.043  66.516  1.00  0.00    -0.305 C  
HETATM   12  C   UNL     1      -9.901  12.623  66.184  1.00  0.00    -0.265 C  
HETATM   13  C   UNL     1      -8.840  11.517  66.329  1.00  0.00    -0.186 C  
BRANCH  12  14
HETATM   14  C   UNL     1     -11.234  12.332  65.591  1.00  0.00    -0.333 C  
HETATM   15  O   UNL     1     -12.265  12.226  66.240  1.00  0.00    -0.628 OA 
BRANCH  14  16
HETATM   16  O   UNL     1     -11.171  12.187  64.240  1.00  0.00    -0.309 OA 
HETATM   17  C   UNL     1     -12.100  13.016  63.535  1.00  0.00    -0.542 C  
ENDBRANCH  14  16
ENDBRANCH  12  14
BRANCH  13  18
HETATM   18  C   UNL     1      -9.442  10.221  66.886  1.00  0.00    -0.200 A  
HETATM   19  C   UNL     1      -9.421   9.031  66.142  1.00  0.00    -0.318 A  
HETATM   20  C   UNL     1     -10.003  10.205  68.179  1.00  0.00    -0.170 A  
HETATM   21  C   UNL     1      -9.933   7.847  66.678  1.00  0.00    -0.316 A  
HETATM   22  C   UNL     1     -10.489   9.008  68.720  1.00  0.00    -0.206 A  
HETATM   23  N   UNL     1     -10.998   8.985  70.096  1.00  0.00    -0.238 N  
HETATM   24  C   UNL     1     -10.461   7.828  67.969  1.00  0.00    -0.244 A  
HETATM   25  O   UNL     1     -10.970  10.041  70.743  1.00  0.00    -0.313 OA 
HETATM   26  O   UNL     1     -11.413   7.903  70.540  1.00  0.00    -0.267 OA 
ENDBRANCH  13  18
ENDBRANCH   4   6
ENDBRANCH   3   4
ENDBRANCH   2   3
TORSDOF 6
ENDMDL
MODEL       67
REMARK 921   NORMALIZED FREE ENERGY PREDICTED BY IDOCK:   -4.67 KCAL/MOL
REMARK 922        TOTAL FREE ENERGY PREDICTED BY IDOCK:   -7.46 KCAL/MOL
REMARK 923 INTER-LIGAND FREE ENERGY PREDICTED BY IDOCK:   -6.68 KCAL/MOL
REMARK 924 INTRA-LIGAND FREE ENERGY PREDICTED BY IDOCK:   -0.78 KCAL/MOL
REMARK 927      BINDING AFFINITY PREDICTED BY RF-SCORE:    0.00 PKD
ROOT
HETATM    1  C   UNL     1     -10.578  11.384  63.477  1.00  0.00    -0.468 C  
HETATM    2  C   UNL     1     -11.765  12.306  63.685  1.00  0.00    -0.504 C  
ENDROOT
BRANCH   2   3
HETATM    3  O   UNL     1     -11.919  12.466  65.102  1.00  0.00    -0.392 OA 
BRANCH   3   4
HETATM    4  C   UNL     1     -12.489  13.629  65.506  1.00  0.00    -0.503 C  
HETATM    5  O   UNL     1     -13.689  13.857  65.538  1.00  0.00    -0.389 OA 
BRANCH   4   6
HETATM    6  C   UNL     1     -11.434  14.555  65.992  1.00  0.00    -0.348 C  
HETATM    7  C   UNL     1     -11.008  15.581  65.219  1.00  0.00    -0.380 C  
HETATM    8  N   UNL     1     -10.034  16.438  65.701  1.00  0.00    -0.529 NA 
HETATM    9  C   UNL     1     -11.491  15.951  63.834  1.00  0.00     0.423 C  
HETATM   10  C   UNL     1      -9.359  16.286  66.893  1.00  0.00    -0.224 C  
HETATM   11  C   UNL     1      -8.267  17.302  67.142  1.00  0.00    -0.225 C  
HETATM   12  C   UNL     1      -9.695  15.285  67.743  1.00  0.00    -0.215 C  
HETATM   13  C   UNL     1     -10.852  14.328  67.404  1.00  0.00    -0.288 C  
BRANCH  12  14
HETATM   14  C   UNL     1      -8.889  15.105  68.981  1.00  0.00    -0.219 C  
HETATM   15  O   UNL     1      -9.297  15.354  70.107  1.00  0.00    -0.044 OA 
BRANCH  14  16
HETATM   16  O   UNL     1      -7.639  14.643  68.713  1.00  0.00    -0.124 OA 
HETATM   17  C   UNL     1      -6.723  14.819  69.798  1.00  0.00    -0.173 C  
ENDBRANCH  14  16
ENDBRANCH  12  14
BRANCH  13  18
HETATM   18  C   UNL     1     -10.459  12.862  67.620  1.00  0.00    -0.228 A  
HETATM   19  C   UNL     1      -9.449  12.260  66.853  1.00  0.00    -0.217 A  
HETATM   20  C   UNL     1     -11.096  12.103  68.622  1.00  0.00    -0.297 A  
HETATM   21  C   UNL     1      -9.069  10.936  67.088  1.00  0.00    -0.152 A  
HETATM   22  C   UNL     1     -10.691  10.785  68.870  1.00  0.00    -0.222 A  
HETATM   23  N   UNL     1     -11.304  10.030  69.969  1.00  0.00    -0.266 N  
HETATM   24  C   UNL     1      -9.681  10.197  68.101  1.00  0.00    -0.155 A  
HETATM   25  O   UNL     1     -12.166  10.599  70.653  1.00  0.00    -0.302 OA 
HETATM   26  O   UNL     1     -10.912   8.868  70.160  1.00  0.00    -0.238 OA 
ENDBRANCH  13  18
ENDBRANCH   4   6
ENDBRANCH   3   4
ENDBRANCH   2   3
TORSDOF 6
ENDMDL
MODEL       68
REMARK 921   NORMALIZED FREE ENERGY PREDICTED BY IDOCK:   -4.66 KCAL/MOL
REMARK 922        TOTAL FREE ENERGY PREDICTED BY IDOCK:   -7.44 KCAL/MOL
REMARK 923 INTER-LIGAND FREE ENERGY PREDICTED BY IDOCK:   -6.32 KCAL/MOL
REMARK 924 INTRA-LIGAND FREE ENERGY PREDICTED BY IDOCK:   -1.12 KCAL/MOL
REMARK 927      BINDING AFFINITY PREDICTED BY RF-SCORE:    0.00 PKD
ROOT
HETATM    1  C   UNL     1     -11.405   4.843  73.016  1.00  0.00    -0.354 C  
HETATM    2  C   UNL     1     -10.904   5.683  71.856  1.00  0.00    -0.242 C  
ENDROOT
BRANCH   2   3
HETATM    3  O   UNL     1     -11.589   6.942  71.932  1.00  0.00    -0.262 OA 
BRANCH   3   4
HETATM    4  C   UNL     1     -10.842   7.996  72.344  1.00  0.00    -0.327 C  
HETATM    5  O   UNL     1     -10.100   8.003  73.315  1.00  0.00    -0.310 OA 
BRANCH   4   6
HETATM    6  C   UNL     1     -10.992   9.116  71.380  1.00  0.00    -0.414 C  
HETATM    7  C   UNL     1     -12.142   9.826  71.321  1.00  0.00    -0.382 C  
HETATM    8  N   UNL     1     -12.250  10.874  70.424  1.00  0.00    -0.335 NA 
HETATM    9  C   UNL     1     -13.386   9.632  72.161  1.00  0.00    -0.545 C  
HETATM   10  C   UNL     1     -11.305  11.216  69.481  1.00  0.00    -0.290 C  
HETATM   11  C   UNL     1     -11.709  12.337  68.551  1.00  0.00    -0.381 C  
HETATM   12  C   UNL     1     -10.118  10.565  69.440  1.00  0.00    -0.233 C  
HETATM   13  C   UNL     1      -9.797   9.460  70.464  1.00  0.00    -0.331 C  
BRANCH  12  14
HETATM   14  C   UNL     1      -9.157  10.907  68.357  1.00  0.00    -0.164 C  
HETATM   15  O   UNL     1      -9.332  10.642  67.176  1.00  0.00    -0.154 OA 
BRANCH  14  16
HETATM   16  O   UNL     1      -8.053  11.540  68.835  1.00  0.00    -0.123 OA 
HETATM   17  C   UNL     1      -7.776  12.778  68.173  1.00  0.00    -0.137 C  
ENDBRANCH  14  16
ENDBRANCH  12  14
BRANCH  13  18
HETATM   18  C   UNL     1      -9.229   8.206  69.788  1.00  0.00    -0.151 A  
HETATM   19  C   UNL     1      -8.017   7.639  70.210  1.00  0.00    -0.101 A  
HETATM   20  C   UNL     1      -9.943   7.587  68.742  1.00  0.00    -0.175 A  
HETATM   21  C   UNL     1      -7.532   6.472  69.615  1.00  0.00    -0.093 A  
HETATM   22  C   UNL     1      -9.464   6.401  68.170  1.00  0.00    -0.114 A  
HETATM   23  N   UNL     1     -10.254   5.720  67.138  1.00  0.00    -0.182 N  
HETATM   24  C   UNL     1      -8.255   5.845  68.601  1.00  0.00    -0.109 A  
HETATM   25  O   UNL     1     -11.338   6.223  66.812  1.00  0.00    -0.229 OA 
HETATM   26  O   UNL     1      -9.798   4.669  66.662  1.00  0.00    -0.182 OA 
ENDBRANCH  13  18
ENDBRANCH   4   6
ENDBRANCH   3   4
ENDBRANCH   2   3
TORSDOF 6
ENDMDL
MODEL       69
REMARK 921   NORMALIZED FREE ENERGY PREDICTED BY IDOCK:   -4.63 KCAL/MOL
REMARK 922        TOTAL FREE ENERGY PREDICTED BY IDOCK:   -7.41 KCAL/MOL
REMARK 923 INTER-LIGAND FREE ENERGY PREDICTED BY IDOCK:   -6.30 KCAL/MOL
REMARK 924 INTRA-LIGAND FREE ENERGY PREDICTED BY IDOCK:   -1.11 KCAL/MOL
REMARK 927      BINDING AFFINITY PREDICTED BY RF-SCORE:    0.00 PKD
ROOT
HETATM    1  C   UNL     1      -5.808  13.551  70.365  1.00  0.00    -0.164 C  
HETATM    2  C   UNL     1      -6.764  12.596  69.674  1.00  0.00     0.085 C  
ENDROOT
BRANCH   2   3
HETATM    3  O   UNL     1      -7.601  13.393  68.824  1.00  0.00    -0.113 OA 
BRANCH   3   4
HETATM    4  C   UNL     1      -7.401  13.242  67.491  1.00  0.00    -0.152 C  
HETATM    5  O   UNL     1      -6.559  12.521  66.978  1.00  0.00    -0.112 OA 
BRANCH   4   6
HETATM    6  C   UNL     1      -8.425  14.018  66.746  1.00  0.00    -0.019 C  
HETATM    7  C   UNL     1      -8.367  15.369  66.699  1.00  0.00    -0.220 C  
HETATM    8  N   UNL     1      -9.326  16.067  65.985  1.00  0.00    -0.338 NA 
HETATM    9  C   UNL     1      -7.332  16.268  67.339  1.00  0.00    -0.193 C  
HETATM   10  C   UNL     1     -10.430  15.509  65.379  1.00  0.00    -0.405 C  
HETATM   11  C   UNL     1     -11.382  16.502  64.749  1.00  0.00    -0.078 C  
HETATM   12  C   UNL     1     -10.597  14.165  65.371  1.00  0.00    -0.358 C  
HETATM   13  C   UNL     1      -9.542  13.244  66.012  1.00  0.00    -0.174 C  
BRANCH  12  14
HETATM   14  C   UNL     1     -11.841  13.607  64.778  1.00  0.00    -0.387 C  
HETATM   15  O   UNL     1     -12.947  13.694  65.294  1.00  0.00    -0.719 OA 
BRANCH  14  16
HETATM   16  O   UNL     1     -11.605  12.974  63.597  1.00  0.00    -0.451 OA 
HETATM   17  C   UNL     1     -12.314  11.739  63.462  1.00  0.00    -0.383 C  
ENDBRANCH  14  16
ENDBRANCH  12  14
BRANCH  13  18
HETATM   18  C   UNL     1     -10.184  12.190  66.922  1.00  0.00    -0.228 A  
HETATM   19  C   UNL     1     -11.031  12.560  67.978  1.00  0.00    -0.266 A  
HETATM   20  C   UNL     1      -9.950  10.820  66.685  1.00  0.00    -0.251 A  
HETATM   21  C   UNL     1     -11.645  11.589  68.772  1.00  0.00    -0.379 A  
HETATM   22  C   UNL     1     -10.592   9.852  67.469  1.00  0.00    -0.275 A  
HETATM   23  N   UNL     1     -10.405   8.429  67.163  1.00  0.00    -0.290 N  
HETATM   24  C   UNL     1     -11.435  10.234  68.517  1.00  0.00    -0.169 A  
HETATM   25  O   UNL     1      -9.682   8.132  66.202  1.00  0.00    -0.187 OA 
HETATM   26  O   UNL     1     -10.996   7.603  67.877  1.00  0.00    -0.076 OA 
ENDBRANCH  13  18
ENDBRANCH   4   6
ENDBRANCH   3   4
ENDBRANCH   2   3
TORSDOF 6
ENDMDL
MODEL       70
REMARK 921   NORMALIZED FREE ENERGY PREDICTED BY IDOCK:   -4.63 KCAL/MOL
REMARK 922        TOTAL FREE ENERGY PREDICTED BY IDOCK:   -7.40 KCAL/MOL
REMARK 923 INTER-LIGAND FREE ENERGY PREDICTED BY IDOCK:   -6.15 KCAL/MOL
REMARK 924 INTRA-LIGAND FREE ENERGY PREDICTED BY IDOCK:   -1.25 KCAL/MOL
REMARK 927      BINDING AFFINITY PREDICTED BY RF-SCORE:    0.00 PKD
ROOT
HETATM    1  C   UNL     1      -8.859   7.317  74.400  1.00  0.00    -0.234 C  
HETATM    2  C   UNL     1     -10.045   6.418  74.105  1.00  0.00    -0.335 C  
ENDROOT
BRANCH   2   3
HETATM    3  O   UNL     1      -9.535   5.283  73.391  1.00  0.00    -0.137 OA 
BRANCH   3   4
HETATM    4  C   UNL     1     -10.445   4.584  72.668  1.00  0.00    -0.195 C  
HETATM    5  O   UNL     1     -11.512   4.163  73.089  1.00  0.00    -0.166 OA 
BRANCH   4   6
HETATM    6  C   UNL     1      -9.987   4.484  71.259  1.00  0.00    -0.258 C  
HETATM    7  C   UNL     1      -9.007   3.618  70.911  1.00  0.00    -0.094 C  
HETATM    8  N   UNL     1      -8.610   3.535  69.588  1.00  0.00    -0.064 NA 
HETATM    9  C   UNL     1      -8.261   2.663  71.817  1.00  0.00    -0.061 C  
HETATM   10  C   UNL     1      -9.059   4.347  68.569  1.00  0.00    -0.124 C  
HETATM   11  C   UNL     1      -8.391   4.121  67.231  1.00  0.00    -0.099 C  
HETATM   12  C   UNL     1     -10.033   5.260  68.804  1.00  0.00    -0.243 C  
HETATM   13  C   UNL     1     -10.670   5.378  70.201  1.00  0.00    -0.295 C  
BRANCH  12  14
HETATM   14  C   UNL     1     -10.433   6.172  67.700  1.00  0.00    -0.234 C  
HETATM   15  O   UNL     1     -11.402   5.989  66.976  1.00  0.00    -0.125 OA 
BRANCH  14  16
HETATM   16  O   UNL     1      -9.587   7.230  67.579  1.00  0.00    -0.136 OA 
HETATM   17  C   UNL     1     -10.166   8.346  66.898  1.00  0.00    -0.313 C  
ENDBRANCH  14  16
ENDBRANCH  12  14
BRANCH  13  18
HETATM   18  C   UNL     1     -10.750   6.837  70.667  1.00  0.00    -0.273 A  
HETATM   19  C   UNL     1      -9.605   7.648  70.718  1.00  0.00    -0.166 A  
HETATM   20  C   UNL     1     -11.994   7.394  71.026  1.00  0.00    -0.337 A  
HETATM   21  C   UNL     1      -9.698   8.987  71.102  1.00  0.00    -0.369 A  
HETATM   22  C   UNL     1     -12.083   8.745  71.384  1.00  0.00    -0.307 A  
HETATM   23  N   UNL     1     -13.394   9.336  71.678  1.00  0.00    -0.375 N  
HETATM   24  C   UNL     1     -10.935   9.543  71.429  1.00  0.00    -0.415 A  
HETATM   25  O   UNL     1     -14.391   8.606  71.589  1.00  0.00    -0.415 OA 
HETATM   26  O   UNL     1     -13.430  10.538  71.984  1.00  0.00    -0.379 OA 
ENDBRANCH  13  18
ENDBRANCH   4   6
ENDBRANCH   3   4
ENDBRANCH   2   3
TORSDOF 6
ENDMDL
MODEL       71
REMARK 921   NORMALIZED FREE ENERGY PREDICTED BY IDOCK:   -4.62 KCAL/MOL
REMARK 922        TOTAL FREE ENERGY PREDICTED BY IDOCK:   -7.38 KCAL/MOL
REMARK 923 INTER-LIGAND FREE ENERGY PREDICTED BY IDOCK:   -6.41 KCAL/MOL
REMARK 924 INTRA-LIGAND FREE ENERGY PREDICTED BY IDOCK:   -0.98 KCAL/MOL
REMARK 927      BINDING AFFINITY PREDICTED BY RF-SCORE:    0.00 PKD
ROOT
HETATM    1  C   UNL     1     -10.786   5.615  68.364  1.00  0.00    -0.229 C  
HETATM    2  C   UNL     1     -10.266   6.018  66.996  1.00  0.00    -0.205 C  
ENDROOT
BRANCH   2   3
HETATM    3  O   UNL     1     -10.731   7.353  66.755  1.00  0.00    -0.319 OA 
BRANCH   3   4
HETATM    4  C   UNL     1      -9.771   8.308  66.677  1.00  0.00    -0.251 C  
HETATM    5  O   UNL     1      -8.603   8.114  66.375  1.00  0.00    -0.125 OA 
BRANCH   4   6
HETATM    6  C   UNL     1     -10.376   9.640  66.926  1.00  0.00    -0.307 C  
HETATM    7  C   UNL     1     -10.340  10.603  65.975  1.00  0.00    -0.225 C  
HETATM    8  N   UNL     1     -10.925  11.832  66.227  1.00  0.00    -0.290 NA 
HETATM    9  C   UNL     1      -9.733  10.507  64.593  1.00  0.00    -0.369 C  
HETATM   10  C   UNL     1     -11.472  12.221  67.431  1.00  0.00    -0.352 C  
HETATM   11  C   UNL     1     -11.954  13.653  67.479  1.00  0.00    -0.393 C  
HETATM   12  C   UNL     1     -11.552  11.342  68.459  1.00  0.00    -0.384 C  
HETATM   13  C   UNL     1     -11.063   9.892  68.286  1.00  0.00    -0.207 C  
BRANCH  12  14
HETATM   14  C   UNL     1     -12.074  11.823  69.766  1.00  0.00    -0.269 C  
HETATM   15  O   UNL     1     -11.694  12.844  70.323  1.00  0.00    -0.243 OA 
BRANCH  14  16
HETATM   16  O   UNL     1     -13.018  10.988  70.278  1.00  0.00    -0.171 OA 
HETATM   17  C   UNL     1     -13.066  10.993  71.708  1.00  0.00    -0.449 C  
ENDBRANCH  14  16
ENDBRANCH  12  14
BRANCH  13  18
HETATM   18  C   UNL     1     -10.172   9.449  69.454  1.00  0.00    -0.214 A  
HETATM   19  C   UNL     1     -10.612   8.492  70.381  1.00  0.00    -0.242 A  
HETATM   20  C   UNL     1      -8.876   9.986  69.592  1.00  0.00    -0.217 A  
HETATM   21  C   UNL     1      -9.776   8.065  71.415  1.00  0.00    -0.205 A  
HETATM   22  C   UNL     1      -8.034   9.532  70.615  1.00  0.00    -0.117 A  
HETATM   23  N   UNL     1      -6.658  10.037  70.703  1.00  0.00    -0.112 N  
HETATM   24  C   UNL     1      -8.483   8.576  71.532  1.00  0.00    -0.221 A  
HETATM   25  O   UNL     1      -6.285  10.853  69.848  1.00  0.00    -0.085 OA 
HETATM   26  O   UNL     1      -5.942   9.604  71.619  1.00  0.00    -0.208 OA 
ENDBRANCH  13  18
ENDBRANCH   4   6
ENDBRANCH   3   4
ENDBRANCH   2   3
TORSDOF 6
ENDMDL
MODEL       72
REMARK 921   NORMALIZED FREE ENERGY PREDICTED BY IDOCK:   -4.61 KCAL/MOL
REMARK 922        TOTAL FREE ENERGY PREDICTED BY IDOCK:   -7.38 KCAL/MOL
REMARK 923 INTER-LIGAND FREE ENERGY PREDICTED BY IDOCK:   -6.20 KCAL/MOL
REMARK 924 INTRA-LIGAND FREE ENERGY PREDICTED BY IDOCK:   -1.18 KCAL/MOL
REMARK 927      BINDING AFFINITY PREDICTED BY RF-SCORE:    0.00 PKD
ROOT
HETATM    1  C   UNL     1     -11.525   5.870  72.556  1.00  0.00    -0.347 C  
HETATM    2  C   UNL     1     -11.247   6.360  71.148  1.00  0.00    -0.302 C  
ENDROOT
BRANCH   2   3
HETATM    3  O   UNL     1     -11.687   7.724  71.091  1.00  0.00    -0.279 OA 
BRANCH   3   4
HETATM    4  C   UNL     1     -10.715   8.663  71.206  1.00  0.00    -0.254 C  
HETATM    5  O   UNL     1      -9.798   8.639  72.014  1.00  0.00    -0.280 OA 
BRANCH   4   6
HETATM    6  C   UNL     1     -10.881   9.681  70.138  1.00  0.00    -0.325 C  
HETATM    7  C   UNL     1     -11.804  10.664  70.259  1.00  0.00    -0.342 C  
HETATM    8  N   UNL     1     -11.928  11.609  69.256  1.00  0.00    -0.327 NA 
HETATM    9  C   UNL     1     -12.755  10.894  71.413  1.00  0.00    -0.539 C  
HETATM   10  C   UNL     1     -11.250  11.590  68.056  1.00  0.00    -0.269 C  
HETATM   11  C   UNL     1     -11.641  12.681  67.085  1.00  0.00    -0.434 C  
HETATM   12  C   UNL     1     -10.309  10.644  67.820  1.00  0.00    -0.239 C  
HETATM   13  C   UNL     1      -9.963   9.601  68.899  1.00  0.00    -0.186 C  
BRANCH  12  14
HETATM   14  C   UNL     1      -9.658  10.608  66.483  1.00  0.00    -0.180 C  
HETATM   15  O   UNL     1     -10.180  10.148  65.478  1.00  0.00    -0.286 OA 
BRANCH  14  16
HETATM   16  O   UNL     1      -8.404  11.136  66.511  1.00  0.00    -0.157 OA 
HETATM   17  C   UNL     1      -7.381  10.189  66.195  1.00  0.00    -0.115 C  
ENDBRANCH  14  16
ENDBRANCH  12  14
BRANCH  13  18
HETATM   18  C   UNL     1      -9.922   8.180  68.323  1.00  0.00    -0.212 A  
HETATM   19  C   UNL     1     -11.034   7.629  67.668  1.00  0.00    -0.059 A  
HETATM   20  C   UNL     1      -8.742   7.416  68.421  1.00  0.00    -0.123 A  
HETATM   21  C   UNL     1     -10.970   6.350  67.109  1.00  0.00    -0.476 A  
HETATM   22  C   UNL     1      -8.677   6.145  67.834  1.00  0.00    -0.113 A  
HETATM   23  N   UNL     1      -7.419   5.390  67.872  1.00  0.00    -0.076 N  
HETATM   24  C   UNL     1      -9.792   5.607  67.183  1.00  0.00    -0.167 A  
HETATM   25  O   UNL     1      -6.443   5.917  68.424  1.00  0.00    -0.042 OA 
HETATM   26  O   UNL     1      -7.401   4.272  67.334  1.00  0.00    -0.068 OA 
ENDBRANCH  13  18
ENDBRANCH   4   6
ENDBRANCH   3   4
ENDBRANCH   2   3
TORSDOF 6
ENDMDL
MODEL       73
REMARK 921   NORMALIZED FREE ENERGY PREDICTED BY IDOCK:   -4.61 KCAL/MOL
REMARK 922        TOTAL FREE ENERGY PREDICTED BY IDOCK:   -7.37 KCAL/MOL
REMARK 923 INTER-LIGAND FREE ENERGY PREDICTED BY IDOCK:   -7.35 KCAL/MOL
REMARK 924 INTRA-LIGAND FREE ENERGY PREDICTED BY IDOCK:   -0.03 KCAL/MOL
REMARK 927      BINDING AFFINITY PREDICTED BY RF-SCORE:    0.00 PKD
ROOT
HETATM    1  C   UNL     1      -8.738   7.926  67.070  1.00  0.00    -0.132 C  
HETATM    2  C   UNL     1      -8.140   7.866  68.463  1.00  0.00    -0.123 C  
ENDROOT
BRANCH   2   3
HETATM    3  O   UNL     1      -9.119   8.416  69.356  1.00  0.00    -0.151 OA 
BRANCH   3   4
HETATM    4  C   UNL     1      -8.775   9.577  69.967  1.00  0.00    -0.221 C  
HETATM    5  O   UNL     1      -8.325   9.676  71.098  1.00  0.00    -0.221 OA 
BRANCH   4   6
HETATM    6  C   UNL     1      -8.943  10.705  69.017  1.00  0.00    -0.165 C  
HETATM    7  C   UNL     1      -7.871  11.411  68.587  1.00  0.00    -0.139 C  
HETATM    8  N   UNL     1      -8.055  12.448  67.689  1.00  0.00    -0.156 NA 
HETATM    9  C   UNL     1      -6.420  11.195  68.957  1.00  0.00    -0.066 C  
HETATM   10  C   UNL     1      -9.275  12.916  67.252  1.00  0.00    -0.208 C  
HETATM   11  C   UNL     1      -9.207  14.129  66.351  1.00  0.00    -0.209 C  
HETATM   12  C   UNL     1     -10.418  12.293  67.627  1.00  0.00    -0.230 C  
HETATM   13  C   UNL     1     -10.366  11.039  68.519  1.00  0.00    -0.204 C  
BRANCH  12  14
HETATM   14  C   UNL     1     -11.718  12.877  67.200  1.00  0.00    -0.377 C  
HETATM   15  O   UNL     1     -12.185  13.914  67.650  1.00  0.00    -0.345 OA 
BRANCH  14  16
HETATM   16  O   UNL     1     -12.335  12.115  66.257  1.00  0.00    -0.507 OA 
HETATM   17  C   UNL     1     -12.370  12.728  64.965  1.00  0.00    -0.499 C  
ENDBRANCH  14  16
ENDBRANCH  12  14
BRANCH  13  18
HETATM   18  C   UNL     1     -11.361  11.128  69.683  1.00  0.00    -0.366 A  
HETATM   19  C   UNL     1     -11.768  12.369  70.198  1.00  0.00    -0.266 A  
HETATM   20  C   UNL     1     -11.905   9.951  70.234  1.00  0.00    -0.255 A  
HETATM   21  C   UNL     1     -12.707  12.438  71.229  1.00  0.00    -0.347 A  
HETATM   22  C   UNL     1     -12.867  10.030  71.250  1.00  0.00    -0.402 A  
HETATM   23  N   UNL     1     -13.487   8.802  71.762  1.00  0.00    -0.373 N  
HETATM   24  C   UNL     1     -13.266  11.273  71.753  1.00  0.00    -0.480 A  
HETATM   25  O   UNL     1     -13.136   7.724  71.263  1.00  0.00    -0.291 OA 
HETATM   26  O   UNL     1     -14.340   8.916  72.656  1.00  0.00    -0.613 OA 
ENDBRANCH  13  18
ENDBRANCH   4   6
ENDBRANCH   3   4
ENDBRANCH   2   3
TORSDOF 6
ENDMDL
MODEL       74
REMARK 921   NORMALIZED FREE ENERGY PREDICTED BY IDOCK:   -4.57 KCAL/MOL
REMARK 922        TOTAL FREE ENERGY PREDICTED BY IDOCK:   -7.32 KCAL/MOL
REMARK 923 INTER-LIGAND FREE ENERGY PREDICTED BY IDOCK:   -6.02 KCAL/MOL
REMARK 924 INTRA-LIGAND FREE ENERGY PREDICTED BY IDOCK:   -1.30 KCAL/MOL
REMARK 927      BINDING AFFINITY PREDICTED BY RF-SCORE:    0.00 PKD
ROOT
HETATM    1  C   UNL     1      -7.300   6.103  69.441  1.00  0.00    -0.091 C  
HETATM    2  C   UNL     1      -8.010   5.642  68.181  1.00  0.00    -0.097 C  
ENDROOT
BRANCH   2   3
HETATM    3  O   UNL     1      -8.222   6.810  67.376  1.00  0.00    -0.119 OA 
BRANCH   3   4
HETATM    4  C   UNL     1      -9.472   6.959  66.870  1.00  0.00    -0.158 C  
HETATM    5  O   UNL     1     -10.295   6.065  66.741  1.00  0.00    -0.200 OA 
BRANCH   4   6
HETATM    6  C   UNL     1      -9.721   8.393  66.580  1.00  0.00    -0.330 C  
HETATM    7  C   UNL     1      -9.213   8.970  65.466  1.00  0.00    -0.198 C  
HETATM    8  N   UNL     1      -9.473  10.306  65.212  1.00  0.00    -0.218 NA 
HETATM    9  C   UNL     1      -8.372   8.314  64.393  1.00  0.00    -0.082 C  
HETATM   10  C   UNL     1     -10.138  11.163  66.062  1.00  0.00    -0.244 C  
HETATM   11  C   UNL     1     -10.201  12.601  65.597  1.00  0.00    -0.290 C  
HETATM   12  C   UNL     1     -10.680  10.697  67.213  1.00  0.00    -0.338 C  
HETATM   13  C   UNL     1     -10.589   9.202  67.569  1.00  0.00    -0.317 C  
BRANCH  12  14
HETATM   14  C   UNL     1     -11.319  11.668  68.141  1.00  0.00    -0.292 C  
HETATM   15  O   UNL     1     -12.514  11.686  68.400  1.00  0.00    -0.261 OA 
BRANCH  14  16
HETATM   16  O   UNL     1     -10.418  12.545  68.661  1.00  0.00    -0.230 OA 
HETATM   17  C   UNL     1     -10.993  13.804  69.022  1.00  0.00    -0.243 C  
ENDBRANCH  14  16
ENDBRANCH  12  14
BRANCH  13  18
HETATM   18  C   UNL     1     -10.132   8.990  69.018  1.00  0.00    -0.204 A  
HETATM   19  C   UNL     1      -8.905   9.496  69.475  1.00  0.00    -0.185 A  
HETATM   20  C   UNL     1     -10.964   8.302  69.923  1.00  0.00    -0.166 A  
HETATM   21  C   UNL     1      -8.520   9.334  70.807  1.00  0.00    -0.244 A  
HETATM   22  C   UNL     1     -10.583   8.168  71.265  1.00  0.00    -0.214 A  
HETATM   23  N   UNL     1     -11.492   7.520  72.218  1.00  0.00    -0.287 N  
HETATM   24  C   UNL     1      -9.359   8.678  71.708  1.00  0.00    -0.343 A  
HETATM   25  O   UNL     1     -12.585   7.117  71.795  1.00  0.00    -0.335 OA 
HETATM   26  O   UNL     1     -11.120   7.428  73.399  1.00  0.00    -0.340 OA 
ENDBRANCH  13  18
ENDBRANCH   4   6
ENDBRANCH   3   4
ENDBRANCH   2   3
TORSDOF 6
ENDMDL
MODEL       75
REMARK 921   NORMALIZED FREE ENERGY PREDICTED BY IDOCK:   -4.57 KCAL/MOL
REMARK 922        TOTAL FREE ENERGY PREDICTED BY IDOCK:   -7.32 KCAL/MOL
REMARK 923 INTER-LIGAND FREE ENERGY PREDICTED BY IDOCK:   -6.20 KCAL/MOL
REMARK 924 INTRA-LIGAND FREE ENERGY PREDICTED BY IDOCK:   -1.13 KCAL/MOL
REMARK 927      BINDING AFFINITY PREDICTED BY RF-SCORE:    0.00 PKD
ROOT
HETATM    1  C   UNL     1      -7.859  17.018  66.151  1.00  0.00    -0.295 C  
HETATM    2  C   UNL     1      -8.689  15.937  66.818  1.00  0.00    -0.269 C  
ENDROOT
BRANCH   2   3
HETATM    3  O   UNL     1      -7.880  14.753  66.843  1.00  0.00    -0.128 OA 
BRANCH   3   4
HETATM    4  C   UNL     1      -7.629  14.236  68.072  1.00  0.00    -0.142 C  
HETATM    5  O   UNL     1      -7.405  14.886  69.082  1.00  0.00    -0.135 OA 
BRANCH   4   6
HETATM    6  C   UNL     1      -7.757  12.758  68.023  1.00  0.00    -0.137 C  
HETATM    7  C   UNL     1      -6.700  11.984  67.684  1.00  0.00    -0.109 C  
HETATM    8  N   UNL     1      -6.843  10.608  67.661  1.00  0.00    -0.073 NA 
HETATM    9  C   UNL     1      -5.303  12.442  67.328  1.00  0.00    -0.072 C  
HETATM   10  C   UNL     1      -8.025   9.927  67.858  1.00  0.00    -0.104 C  
HETATM   11  C   UNL     1      -7.935   8.428  67.678  1.00  0.00    -0.110 C  
HETATM   12  C   UNL     1      -9.152  10.600  68.192  1.00  0.00    -0.148 C  
HETATM   13  C   UNL     1      -9.119  12.127  68.387  1.00  0.00    -0.151 C  
BRANCH  12  14
HETATM   14  C   UNL     1     -10.423   9.839  68.317  1.00  0.00    -0.216 C  
HETATM   15  O   UNL     1     -11.143   9.546  67.372  1.00  0.00    -0.148 OA 
BRANCH  14  16
HETATM   16  O   UNL     1     -10.701   9.516  69.608  1.00  0.00    -0.223 OA 
HETATM   17  C   UNL     1     -11.647  10.395  70.223  1.00  0.00    -0.327 C  
ENDBRANCH  14  16
ENDBRANCH  12  14
BRANCH  13  18
HETATM   18  C   UNL     1     -10.272  12.819  67.649  1.00  0.00    -0.219 A  
HETATM   19  C   UNL     1     -11.182  13.642  68.330  1.00  0.00    -0.306 A  
HETATM   20  C   UNL     1     -10.414  12.655  66.256  1.00  0.00    -0.270 A  
HETATM   21  C   UNL     1     -12.201  14.301  67.640  1.00  0.00    -0.215 A  
HETATM   22  C   UNL     1     -11.422  13.341  65.567  1.00  0.00    -0.311 A  
HETATM   23  N   UNL     1     -11.512  13.228  64.106  1.00  0.00    -0.389 N  
HETATM   24  C   UNL     1     -12.321  14.160  66.257  1.00  0.00    -0.451 A  
HETATM   25  O   UNL     1     -10.673  12.524  63.527  1.00  0.00    -0.435 OA 
HETATM   26  O   UNL     1     -12.415  13.857  63.533  1.00  0.00    -0.810 OA 
ENDBRANCH  13  18
ENDBRANCH   4   6
ENDBRANCH   3   4
ENDBRANCH   2   3
TORSDOF 6
ENDMDL
MODEL       76
REMARK 921   NORMALIZED FREE ENERGY PREDICTED BY IDOCK:   -4.57 KCAL/MOL
REMARK 922        TOTAL FREE ENERGY PREDICTED BY IDOCK:   -7.32 KCAL/MOL
REMARK 923 INTER-LIGAND FREE ENERGY PREDICTED BY IDOCK:   -6.59 KCAL/MOL
REMARK 924 INTRA-LIGAND FREE ENERGY PREDICTED BY IDOCK:   -0.73 KCAL/MOL
REMARK 927      BINDING AFFINITY PREDICTED BY RF-SCORE:    0.00 PKD
ROOT
HETATM    1  C   UNL     1     -12.189  14.111  68.030  1.00  0.00    -0.181 C  
HETATM    2  C   UNL     1     -11.024  13.698  68.910  1.00  0.00    -0.249 C  
ENDROOT
BRANCH   2   3
HETATM    3  O   UNL     1     -10.041  13.114  68.045  1.00  0.00    -0.219 OA 
BRANCH   3   4
HETATM    4  C   UNL     1     -10.079  11.762  67.935  1.00  0.00    -0.186 C  
HETATM    5  O   UNL     1     -10.916  11.034  68.445  1.00  0.00    -0.195 OA 
BRANCH   4   6
HETATM    6  C   UNL     1      -8.998  11.309  67.023  1.00  0.00    -0.154 C  
HETATM    7  C   UNL     1      -7.712  11.275  67.441  1.00  0.00    -0.128 C  
HETATM    8  N   UNL     1      -6.726  10.833  66.576  1.00  0.00    -0.117 NA 
HETATM    9  C   UNL     1      -7.178  11.655  68.805  1.00  0.00    -0.116 C  
HETATM   10  C   UNL     1      -6.917  10.508  65.251  1.00  0.00    -0.045 C  
HETATM   11  C   UNL     1      -5.658  10.153  64.493  1.00  0.00    -0.119 C  
HETATM   12  C   UNL     1      -8.164  10.517  64.720  1.00  0.00    -0.100 C  
HETATM   13  C   UNL     1      -9.383  10.859  65.597  1.00  0.00    -0.236 C  
BRANCH  12  14
HETATM   14  C   UNL     1      -8.319  10.239  63.267  1.00  0.00    -0.168 C  
HETATM   15  O   UNL     1      -7.875  10.955  62.380  1.00  0.00    -0.170 OA 
BRANCH  14  16
HETATM   16  O   UNL     1      -9.026   9.100  63.038  1.00  0.00    -0.174 OA 
HETATM   17  C   UNL     1      -8.204   7.933  62.932  1.00  0.00    -0.067 C  
ENDBRANCH  14  16
ENDBRANCH  12  14
BRANCH  13  18
HETATM   18  C   UNL     1     -10.304  11.879  64.917  1.00  0.00    -0.328 A  
HETATM   19  C   UNL     1     -11.424  11.468  64.177  1.00  0.00    -0.299 A  
HETATM   20  C   UNL     1     -10.048  13.259  65.053  1.00  0.00    -0.247 A  
HETATM   21  C   UNL     1     -12.280  12.408  63.599  1.00  0.00    -0.653 A  
HETATM   22  C   UNL     1     -10.926  14.195  64.493  1.00  0.00    -0.328 A  
HETATM   23  N   UNL     1     -10.696  15.629  64.709  1.00  0.00    -0.374 N  
HETATM   24  C   UNL     1     -12.040  13.773  63.761  1.00  0.00    -0.385 A  
HETATM   25  O   UNL     1      -9.721  15.962  65.397  1.00  0.00    -0.397 OA 
HETATM   26  O   UNL     1     -11.501  16.425  64.203  1.00  0.00    -0.951 OA 
ENDBRANCH  13  18
ENDBRANCH   4   6
ENDBRANCH   3   4
ENDBRANCH   2   3
TORSDOF 6
ENDMDL
MODEL       77
REMARK 921   NORMALIZED FREE ENERGY PREDICTED BY IDOCK:   -4.56 KCAL/MOL
REMARK 922        TOTAL FREE ENERGY PREDICTED BY IDOCK:   -7.30 KCAL/MOL
REMARK 923 INTER-LIGAND FREE ENERGY PREDICTED BY IDOCK:   -6.03 KCAL/MOL
REMARK 924 INTRA-LIGAND FREE ENERGY PREDICTED BY IDOCK:   -1.27 KCAL/MOL
REMARK 927      BINDING AFFINITY PREDICTED BY RF-SCORE:    0.00 PKD
ROOT
HETATM    1  C   UNL     1     -12.342  12.499  63.551  1.00  0.00    -0.623 C  
HETATM    2  C   UNL     1     -12.765  12.934  64.941  1.00  0.00    -0.403 C  
ENDROOT
BRANCH   2   3
HETATM    3  O   UNL     1     -12.038  14.135  65.236  1.00  0.00    -0.370 OA 
BRANCH   3   4
HETATM    4  C   UNL     1     -11.814  14.381  66.551  1.00  0.00    -0.390 C  
HETATM    5  O   UNL     1     -12.628  14.226  67.450  1.00  0.00    -0.054 OA 
BRANCH   4   6
HETATM    6  C   UNL     1     -10.398  14.783  66.746  1.00  0.00    -0.268 C  
HETATM    7  C   UNL     1      -9.962  15.996  66.333  1.00  0.00    -0.295 C  
HETATM    8  N   UNL     1      -8.641  16.351  66.541  1.00  0.00    -0.263 NA 
HETATM    9  C   UNL     1     -10.770  17.083  65.659  1.00  0.00    -0.150 C  
HETATM   10  C   UNL     1      -7.665  15.524  67.053  1.00  0.00    -0.210 C  
HETATM   11  C   UNL     1      -6.275  16.118  67.082  1.00  0.00    -0.135 C  
HETATM   12  C   UNL     1      -7.985  14.281  67.489  1.00  0.00    -0.203 C  
HETATM   13  C   UNL     1      -9.444  13.791  67.447  1.00  0.00    -0.224 C  
BRANCH  12  14
HETATM   14  C   UNL     1      -6.891  13.390  67.960  1.00  0.00    -0.132 C  
HETATM   15  O   UNL     1      -5.948  13.035  67.265  1.00  0.00    -0.319 OA 
BRANCH  14  16
HETATM   16  O   UNL     1      -7.067  13.004  69.252  1.00  0.00    -0.032 OA 
HETATM   17  C   UNL     1      -5.915  13.222  70.072  1.00  0.00    -0.134 C  
ENDBRANCH  14  16
ENDBRANCH  12  14
BRANCH  13  18
HETATM   18  C   UNL     1      -9.554  12.386  66.843  1.00  0.00    -0.219 A  
HETATM   19  C   UNL     1      -9.985  11.295  67.614  1.00  0.00    -0.197 A  
HETATM   20  C   UNL     1      -9.248  12.179  65.483  1.00  0.00     0.099 A  
HETATM   21  C   UNL     1     -10.123  10.029  67.042  1.00  0.00    -0.274 A  
HETATM   22  C   UNL     1      -9.415  10.911  64.910  1.00  0.00    -0.235 A  
HETATM   23  N   UNL     1      -9.171  10.723  63.475  1.00  0.00    -0.234 N  
HETATM   24  C   UNL     1      -9.847   9.833  65.689  1.00  0.00    -0.371 A  
HETATM   25  O   UNL     1      -8.829  11.712  62.811  1.00  0.00    -0.239 OA 
HETATM   26  O   UNL     1      -9.338   9.587  63.005  1.00  0.00    -0.155 OA 
ENDBRANCH  13  18
ENDBRANCH   4   6
ENDBRANCH   3   4
ENDBRANCH   2   3
TORSDOF 6
ENDMDL
MODEL       78
REMARK 921   NORMALIZED FREE ENERGY PREDICTED BY IDOCK:   -4.54 KCAL/MOL
REMARK 922        TOTAL FREE ENERGY PREDICTED BY IDOCK:   -7.29 KCAL/MOL
REMARK 923 INTER-LIGAND FREE ENERGY PREDICTED BY IDOCK:   -6.16 KCAL/MOL
REMARK 924 INTRA-LIGAND FREE ENERGY PREDICTED BY IDOCK:   -1.13 KCAL/MOL
REMARK 927      BINDING AFFINITY PREDICTED BY RF-SCORE:    0.00 PKD
ROOT
HETATM    1  C   UNL     1     -12.607  11.069  71.138  1.00  0.00    -0.522 C  
HETATM    2  C   UNL     1     -11.994  11.015  69.751  1.00  0.00    -0.356 C  
ENDROOT
BRANCH   2   3
HETATM    3  O   UNL     1     -12.013  12.355  69.239  1.00  0.00    -0.298 OA 
BRANCH   3   4
HETATM    4  C   UNL     1     -11.590  12.504  67.959  1.00  0.00    -0.342 C  
HETATM    5  O   UNL     1     -12.228  12.199  66.962  1.00  0.00    -0.522 OA 
BRANCH   4   6
HETATM    6  C   UNL     1     -10.268  13.180  67.949  1.00  0.00    -0.233 C  
HETATM    7  C   UNL     1     -10.184  14.529  67.907  1.00  0.00    -0.231 C  
HETATM    8  N   UNL     1      -8.939  15.134  67.915  1.00  0.00    -0.172 NA 
HETATM    9  C   UNL     1     -11.325  15.521  67.872  1.00  0.00    -0.309 C  
HETATM   10  C   UNL     1      -7.731  14.472  67.857  1.00  0.00    -0.140 C  
HETATM   11  C   UNL     1      -6.516  15.368  67.773  1.00  0.00    -0.183 C  
HETATM   12  C   UNL     1      -7.695  13.118  67.883  1.00  0.00    -0.147 C  
HETATM   13  C   UNL     1      -8.997  12.305  68.008  1.00  0.00    -0.190 C  
BRANCH  12  14
HETATM   14  C   UNL     1      -6.380  12.440  67.737  1.00  0.00    -0.109 C  
HETATM   15  O   UNL     1      -5.665  12.534  66.748  1.00  0.00    -0.275 OA 
BRANCH  14  16
HETATM   16  O   UNL     1      -6.067  11.690  68.828  1.00  0.00    -0.047 OA 
HETATM   17  C   UNL     1      -5.600  12.466  69.935  1.00  0.00    -0.113 C  
ENDBRANCH  14  16
ENDBRANCH  12  14
BRANCH  13  18
HETATM   18  C   UNL     1      -9.055  11.163  66.986  1.00  0.00    -0.158 A  
HETATM   19  C   UNL     1      -9.097   9.821  67.397  1.00  0.00    -0.148 A  
HETATM   20  C   UNL     1      -9.096  11.454  65.608  1.00  0.00    -0.173 A  
HETATM   21  C   UNL     1      -9.193   8.792  66.458  1.00  0.00    -0.228 A  
HETATM   22  C   UNL     1      -9.220  10.417  64.674  1.00  0.00    -0.240 A  
HETATM   23  N   UNL     1      -9.343  10.735  63.246  1.00  0.00    -0.271 N  
HETATM   24  C   UNL     1      -9.263   9.084  65.096  1.00  0.00    -0.159 A  
HETATM   25  O   UNL     1      -9.341  11.929  62.916  1.00  0.00    -0.331 OA 
HETATM   26  O   UNL     1      -9.459   9.788  62.452  1.00  0.00    -0.259 OA 
ENDBRANCH  13  18
ENDBRANCH   4   6
ENDBRANCH   3   4
ENDBRANCH   2   3
TORSDOF 6
ENDMDL
MODEL       79
REMARK 921   NORMALIZED FREE ENERGY PREDICTED BY IDOCK:   -4.53 KCAL/MOL
REMARK 922        TOTAL FREE ENERGY PREDICTED BY IDOCK:   -7.27 KCAL/MOL
REMARK 923 INTER-LIGAND FREE ENERGY PREDICTED BY IDOCK:   -6.35 KCAL/MOL
REMARK 924 INTRA-LIGAND FREE ENERGY PREDICTED BY IDOCK:   -0.92 KCAL/MOL
REMARK 927      BINDING AFFINITY PREDICTED BY RF-SCORE:    0.00 PKD
ROOT
HETATM    1  C   UNL     1      -7.830  16.190  66.866  1.00  0.00    -0.283 C  
HETATM    2  C   UNL     1      -8.986  15.751  65.987  1.00  0.00    -0.287 C  
ENDROOT
BRANCH   2   3
HETATM    3  O   UNL     1      -9.436  14.488  66.498  1.00  0.00    -0.264 OA 
BRANCH   3   4
HETATM    4  C   UNL     1     -10.768  14.251  66.398  1.00  0.00    -0.297 C  
HETATM    5  O   UNL     1     -11.403  14.207  65.355  1.00  0.00    -0.308 OA 
BRANCH   4   6
HETATM    6  C   UNL     1     -11.323  13.963  67.744  1.00  0.00    -0.335 C  
HETATM    7  C   UNL     1     -11.533  14.962  68.632  1.00  0.00    -0.306 C  
HETATM    8  N   UNL     1     -12.066  14.668  69.875  1.00  0.00    -0.319 NA 
HETATM    9  C   UNL     1     -11.270  16.439  68.434  1.00  0.00    -0.324 C  
HETATM   10  C   UNL     1     -12.318  13.400  70.353  1.00  0.00    -0.312 C  
HETATM   11  C   UNL     1     -12.804  13.343  71.784  1.00  0.00    -0.385 C  
HETATM   12  C   UNL     1     -12.134  12.321  69.554  1.00  0.00    -0.260 C  
HETATM   13  C   UNL     1     -11.671  12.500  68.096  1.00  0.00    -0.400 C  
BRANCH  12  14
HETATM   14  C   UNL     1     -12.340  10.966  70.132  1.00  0.00    -0.322 C  
HETATM   15  O   UNL     1     -13.390  10.344  70.063  1.00  0.00     0.035 OA 
BRANCH  14  16
HETATM   16  O   UNL     1     -11.225  10.503  70.758  1.00  0.00    -0.300 OA 
HETATM   17  C   UNL     1     -11.312   9.124  71.128  1.00  0.00    -0.322 C  
ENDBRANCH  14  16
ENDBRANCH  12  14
BRANCH  13  18
HETATM   18  C   UNL     1     -10.520  11.550  67.745  1.00  0.00    -0.216 A  
HETATM   19  C   UNL     1     -10.696  10.504  66.826  1.00  0.00    -0.252 A  
HETATM   20  C   UNL     1      -9.250  11.738  68.327  1.00  0.00    -0.188 A  
HETATM   21  C   UNL     1      -9.629   9.672  66.481  1.00  0.00    -0.252 A  
HETATM   22  C   UNL     1      -8.178  10.916  67.956  1.00  0.00    -0.121 A  
HETATM   23  N   UNL     1      -6.842  11.170  68.507  1.00  0.00    -0.062 N  
HETATM   24  C   UNL     1      -8.366   9.878  67.037  1.00  0.00    -0.121 A  
HETATM   25  O   UNL     1      -6.708  12.123  69.287  1.00  0.00    -0.105 OA 
HETATM   26  O   UNL     1      -5.918  10.424  68.147  1.00  0.00    -0.044 OA 
ENDBRANCH  13  18
ENDBRANCH   4   6
ENDBRANCH   3   4
ENDBRANCH   2   3
TORSDOF 6
ENDMDL
MODEL       80
REMARK 921   NORMALIZED FREE ENERGY PREDICTED BY IDOCK:   -4.52 KCAL/MOL
REMARK 922        TOTAL FREE ENERGY PREDICTED BY IDOCK:   -7.25 KCAL/MOL
REMARK 923 INTER-LIGAND FREE ENERGY PREDICTED BY IDOCK:   -6.00 KCAL/MOL
REMARK 924 INTRA-LIGAND FREE ENERGY PREDICTED BY IDOCK:   -1.25 KCAL/MOL
REMARK 927      BINDING AFFINITY PREDICTED BY RF-SCORE:    0.00 PKD
ROOT
HETATM    1  C   UNL     1     -12.497  13.583  71.254  1.00  0.00    -0.388 C  
HETATM    2  C   UNL     1     -12.280  13.261  69.787  1.00  0.00    -0.222 C  
ENDROOT
BRANCH   2   3
HETATM    3  O   UNL     1     -12.123  14.516  69.108  1.00  0.00    -0.308 OA 
BRANCH   3   4
HETATM    4  C   UNL     1     -11.657  14.444  67.836  1.00  0.00    -0.345 C  
HETATM    5  O   UNL     1     -12.342  14.262  66.841  1.00  0.00    -0.408 OA 
BRANCH   4   6
HETATM    6  C   UNL     1     -10.197  14.713  67.827  1.00  0.00    -0.229 C  
HETATM    7  C   UNL     1      -9.728  15.968  67.637  1.00  0.00    -0.224 C  
HETATM    8  N   UNL     1      -8.363  16.194  67.648  1.00  0.00    -0.149 NA 
HETATM    9  C   UNL     1     -10.537  17.229  67.423  1.00  0.00    -0.303 C  
HETATM   10  C   UNL     1      -7.395  15.216  67.736  1.00  0.00    -0.164 C  
HETATM   11  C   UNL     1      -5.972  15.715  67.622  1.00  0.00    -0.159 C  
HETATM   12  C   UNL     1      -7.749  13.921  67.917  1.00  0.00    -0.161 C  
HETATM   13  C   UNL     1      -9.232  13.530  68.059  1.00  0.00    -0.209 C  
BRANCH  12  14
HETATM   14  C   UNL     1      -6.680  12.887  67.926  1.00  0.00    -0.123 C  
HETATM   15  O   UNL     1      -6.149  12.441  66.919  1.00  0.00    -0.244 OA 
BRANCH  14  16
HETATM   16  O   UNL     1      -6.369  12.485  69.188  1.00  0.00    -0.083 OA 
HETATM   17  C   UNL     1      -5.173  11.703  69.256  1.00  0.00    -0.048 C  
ENDBRANCH  14  16
ENDBRANCH  12  14
BRANCH  13  18
HETATM   18  C   UNL     1      -9.591  12.332  67.171  1.00  0.00    -0.200 A  
HETATM   19  C   UNL     1      -9.544  12.424  65.772  1.00  0.00    -0.164 A  
HETATM   20  C   UNL     1      -9.947  11.102  67.761  1.00  0.00    -0.193 A  
HETATM   21  C   UNL     1      -9.831  11.313  64.975  1.00  0.00    -0.307 A  
HETATM   22  C   UNL     1     -10.207   9.986  66.956  1.00  0.00    -0.237 A  
HETATM   23  N   UNL     1     -10.498   8.690  67.580  1.00  0.00    -0.253 N  
HETATM   24  C   UNL     1     -10.155  10.090  65.562  1.00  0.00    -0.325 A  
HETATM   25  O   UNL     1     -10.496   8.630  68.818  1.00  0.00    -0.214 OA 
HETATM   26  O   UNL     1     -10.715   7.724  66.832  1.00  0.00    -0.345 OA 
ENDBRANCH  13  18
ENDBRANCH   4   6
ENDBRANCH   3   4
ENDBRANCH   2   3
TORSDOF 6
ENDMDL
MODEL       81
REMARK 921   NORMALIZED FREE ENERGY PREDICTED BY IDOCK:   -4.49 KCAL/MOL
REMARK 922        TOTAL FREE ENERGY PREDICTED BY IDOCK:   -7.21 KCAL/MOL
REMARK 923 INTER-LIGAND FREE ENERGY PREDICTED BY IDOCK:   -6.56 KCAL/MOL
REMARK 924 INTRA-LIGAND FREE ENERGY PREDICTED BY IDOCK:   -0.65 KCAL/MOL
REMARK 927      BINDING AFFINITY PREDICTED BY RF-SCORE:    0.00 PKD
ROOT
HETATM    1  C   UNL     1      -9.904  19.669  68.578  1.00  0.00    -0.519 C  
HETATM    2  C   UNL     1     -10.692  18.562  67.902  1.00  0.00    -0.298 C  
ENDROOT
BRANCH   2   3
HETATM    3  O   UNL     1      -9.912  17.365  68.027  1.00  0.00    -0.275 OA 
BRANCH   3   4
HETATM    4  C   UNL     1      -9.563  16.763  66.863  1.00  0.00    -0.245 C  
HETATM    5  O   UNL     1      -9.875  17.147  65.746  1.00  0.00    -0.530 OA 
BRANCH   4   6
HETATM    6  C   UNL     1      -8.666  15.615  67.148  1.00  0.00    -0.233 C  
HETATM    7  C   UNL     1      -7.327  15.730  66.987  1.00  0.00    -0.191 C  
HETATM    8  N   UNL     1      -6.511  14.649  67.274  1.00  0.00    -0.250 NA 
HETATM    9  C   UNL     1      -6.557  16.949  66.531  1.00  0.00    -0.213 C  
HETATM   10  C   UNL     1      -6.952  13.390  67.624  1.00  0.00    -0.162 C  
HETATM   11  C   UNL     1      -5.861  12.355  67.785  1.00  0.00    -0.110 C  
HETATM   12  C   UNL     1      -8.274  13.157  67.803  1.00  0.00    -0.168 C  
HETATM   13  C   UNL     1      -9.296  14.298  67.650  1.00  0.00    -0.201 C  
BRANCH  12  14
HETATM   14  C   UNL     1      -8.716  11.768  68.101  1.00  0.00    -0.168 C  
HETATM   15  O   UNL     1      -9.202  11.416  69.166  1.00  0.00    -0.009 OA 
BRANCH  14  16
HETATM   16  O   UNL     1      -8.504  10.929  67.051  1.00  0.00    -0.129 OA 
HETATM   17  C   UNL     1      -9.487   9.895  66.943  1.00  0.00    -0.163 C  
ENDBRANCH  14  16
ENDBRANCH  12  14
BRANCH  13  18
HETATM   18  C   UNL     1     -10.488  13.880  66.780  1.00  0.00    -0.270 A  
HETATM   19  C   UNL     1     -11.803  14.215  67.139  1.00  0.00    -0.454 A  
HETATM   20  C   UNL     1     -10.270  13.172  65.581  1.00  0.00    -0.294 A  
HETATM   21  C   UNL     1     -12.877  13.867  66.317  1.00  0.00    -0.083 A  
HETATM   22  C   UNL     1     -11.350  12.851  64.748  1.00  0.00    -0.315 A  
HETATM   23  N   UNL     1     -11.105  12.185  63.463  1.00  0.00    -0.441 N  
HETATM   24  C   UNL     1     -12.655  13.192  65.117  1.00  0.00    -0.525 A  
HETATM   25  O   UNL     1      -9.931  11.935  63.155  1.00  0.00    -0.422 OA 
HETATM   26  O   UNL     1     -12.087  11.924  62.752  1.00  0.00     0.110 OA 
ENDBRANCH  13  18
ENDBRANCH   4   6
ENDBRANCH   3   4
ENDBRANCH   2   3
TORSDOF 6
ENDMDL
MODEL       82
REMARK 921   NORMALIZED FREE ENERGY PREDICTED BY IDOCK:   -4.48 KCAL/MOL
REMARK 922        TOTAL FREE ENERGY PREDICTED BY IDOCK:   -7.20 KCAL/MOL
REMARK 923 INTER-LIGAND FREE ENERGY PREDICTED BY IDOCK:   -5.75 KCAL/MOL
REMARK 924 INTRA-LIGAND FREE ENERGY PREDICTED BY IDOCK:   -1.45 KCAL/MOL
REMARK 927      BINDING AFFINITY PREDICTED BY RF-SCORE:    0.00 PKD
ROOT
HETATM    1  C   UNL     1      -9.754   7.093  66.557  1.00  0.00    -0.199 C  
HETATM    2  C   UNL     1      -9.333   8.515  66.235  1.00  0.00    -0.224 C  
ENDROOT
BRANCH   2   3
HETATM    3  O   UNL     1     -10.289   9.381  66.862  1.00  0.00    -0.242 OA 
BRANCH   3   4
HETATM    4  C   UNL     1      -9.855  10.037  67.967  1.00  0.00    -0.142 C  
HETATM    5  O   UNL     1      -8.840  10.713  68.036  1.00  0.00    -0.126 OA 
BRANCH   4   6
HETATM    6  C   UNL     1     -10.851   9.884  69.057  1.00  0.00    -0.242 C  
HETATM    7  C   UNL     1     -11.736  10.871  69.327  1.00  0.00    -0.324 C  
HETATM    8  N   UNL     1     -12.664  10.697  70.339  1.00  0.00    -0.315 NA 
HETATM    9  C   UNL     1     -11.870  12.204  68.622  1.00  0.00    -0.358 C  
HETATM   10  C   UNL     1     -12.713   9.619  71.197  1.00  0.00    -0.320 C  
HETATM   11  C   UNL     1     -13.760   9.716  72.284  1.00  0.00    -0.384 C  
HETATM   12  C   UNL     1     -11.867   8.574  71.028  1.00  0.00    -0.290 C  
HETATM   13  C   UNL     1     -10.864   8.564  69.860  1.00  0.00    -0.205 C  
BRANCH  12  14
HETATM   14  C   UNL     1     -11.897   7.468  72.022  1.00  0.00    -0.294 C  
HETATM   15  O   UNL     1     -12.442   6.390  71.832  1.00  0.00    -0.337 OA 
BRANCH  14  16
HETATM   16  O   UNL     1     -11.256   7.801  73.175  1.00  0.00    -0.402 OA 
HETATM   17  C   UNL     1     -10.472   6.734  73.717  1.00  0.00    -0.354 C  
ENDBRANCH  14  16
ENDBRANCH  12  14
BRANCH  13  18
HETATM   18  C   UNL     1      -9.454   8.178  70.324  1.00  0.00    -0.170 A  
HETATM   19  C   UNL     1      -8.667   9.065  71.074  1.00  0.00    -0.280 A  
HETATM   20  C   UNL     1      -8.941   6.900  70.024  1.00  0.00    -0.142 A  
HETATM   21  C   UNL     1      -7.402   8.686  71.529  1.00  0.00    -0.118 A  
HETATM   22  C   UNL     1      -7.683   6.517  70.507  1.00  0.00    -0.105 A  
HETATM   23  N   UNL     1      -7.191   5.157  70.258  1.00  0.00    -0.057 N  
HETATM   24  C   UNL     1      -6.909   7.410  71.255  1.00  0.00    -0.050 A  
HETATM   25  O   UNL     1      -7.923   4.382  69.626  1.00  0.00    -0.057 OA 
HETATM   26  O   UNL     1      -6.075   4.855  70.709  1.00  0.00    -0.017 OA 
ENDBRANCH  13  18
ENDBRANCH   4   6
ENDBRANCH   3   4
ENDBRANCH   2   3
TORSDOF 6
ENDMDL
MODEL       83
REMARK 921   NORMALIZED FREE ENERGY PREDICTED BY IDOCK:   -4.46 KCAL/MOL
REMARK 922        TOTAL FREE ENERGY PREDICTED BY IDOCK:   -7.17 KCAL/MOL
REMARK 923 INTER-LIGAND FREE ENERGY PREDICTED BY IDOCK:   -6.21 KCAL/MOL
REMARK 924 INTRA-LIGAND FREE ENERGY PREDICTED BY IDOCK:   -0.96 KCAL/MOL
REMARK 927      BINDING AFFINITY PREDICTED BY RF-SCORE:    0.00 PKD
ROOT
HETATM    1  C   UNL     1     -12.492  12.232  63.480  1.00  0.00    -0.642 C  
HETATM    2  C   UNL     1     -12.639  12.605  64.943  1.00  0.00    -0.450 C  
ENDROOT
BRANCH   2   3
HETATM    3  O   UNL     1     -11.430  12.194  65.597  1.00  0.00    -0.347 OA 
BRANCH   3   4
HETATM    4  C   UNL     1     -11.322  12.534  66.906  1.00  0.00    -0.326 C  
HETATM    5  O   UNL     1     -12.252  12.618  67.695  1.00  0.00    -0.367 OA 
BRANCH   4   6
HETATM    6  C   UNL     1      -9.890  12.700  67.258  1.00  0.00    -0.206 C  
HETATM    7  C   UNL     1      -9.176  13.741  66.771  1.00  0.00    -0.244 C  
HETATM    8  N   UNL     1      -7.845  13.881  67.127  1.00  0.00    -0.093 NA 
HETATM    9  C   UNL     1      -9.664  14.843  65.856  1.00  0.00    -0.366 C  
HETATM   10  C   UNL     1      -7.123  12.977  67.875  1.00  0.00    -0.128 C  
HETATM   11  C   UNL     1      -5.657  13.311  68.038  1.00  0.00    -0.113 C  
HETATM   12  C   UNL     1      -7.733  11.890  68.407  1.00  0.00    -0.131 C  
HETATM   13  C   UNL     1      -9.243  11.668  68.208  1.00  0.00    -0.187 C  
BRANCH  12  14
HETATM   14  C   UNL     1      -6.902  10.897  69.139  1.00  0.00    -0.086 C  
HETATM   15  O   UNL     1      -7.010  10.660  70.334  1.00  0.00    -0.276 OA 
BRANCH  14  16
HETATM   16  O   UNL     1      -5.997  10.289  68.326  1.00  0.00    -0.041 OA 
HETATM   17  C   UNL     1      -5.982   8.865  68.456  1.00  0.00    -0.045 C  
ENDBRANCH  14  16
ENDBRANCH  12  14
BRANCH  13  18
HETATM   18  C   UNL     1      -9.554  10.232  67.770  1.00  0.00    -0.171 A  
HETATM   19  C   UNL     1      -9.218   9.774  66.487  1.00  0.00    -0.194 A  
HETATM   20  C   UNL     1     -10.162   9.337  68.674  1.00  0.00    -0.220 A  
HETATM   21  C   UNL     1      -9.466   8.451  66.115  1.00  0.00    -0.263 A  
HETATM   22  C   UNL     1     -10.383   8.004  68.303  1.00  0.00    -0.197 A  
HETATM   23  N   UNL     1     -10.942   7.060  69.277  1.00  0.00    -0.209 N  
HETATM   24  C   UNL     1     -10.041   7.560  67.021  1.00  0.00    -0.332 A  
HETATM   25  O   UNL     1     -11.194   7.483  70.415  1.00  0.00    -0.266 OA 
HETATM   26  O   UNL     1     -11.115   5.887  68.911  1.00  0.00    -0.315 OA 
ENDBRANCH  13  18
ENDBRANCH   4   6
ENDBRANCH   3   4
ENDBRANCH   2   3
TORSDOF 6
ENDMDL
MODEL       84
REMARK 921   NORMALIZED FREE ENERGY PREDICTED BY IDOCK:   -4.46 KCAL/MOL
REMARK 922        TOTAL FREE ENERGY PREDICTED BY IDOCK:   -7.17 KCAL/MOL
REMARK 923 INTER-LIGAND FREE ENERGY PREDICTED BY IDOCK:   -5.85 KCAL/MOL
REMARK 924 INTRA-LIGAND FREE ENERGY PREDICTED BY IDOCK:   -1.32 KCAL/MOL
REMARK 927      BINDING AFFINITY PREDICTED BY RF-SCORE:    0.00 PKD
ROOT
HETATM    1  C   UNL     1     -12.846  10.597  70.814  1.00  0.00    -0.439 C  
HETATM    2  C   UNL     1     -11.638  10.987  69.982  1.00  0.00    -0.344 C  
ENDROOT
BRANCH   2   3
HETATM    3  O   UNL     1     -12.099  11.929  69.003  1.00  0.00    -0.284 OA 
BRANCH   3   4
HETATM    4  C   UNL     1     -11.567  11.797  67.762  1.00  0.00    -0.304 C  
HETATM    5  O   UNL     1     -11.767  10.861  67.002  1.00  0.00    -0.330 OA 
BRANCH   4   6
HETATM    6  C   UNL     1     -10.777  13.009  67.429  1.00  0.00    -0.256 C  
HETATM    7  C   UNL     1     -11.279  13.953  66.600  1.00  0.00    -0.320 C  
HETATM    8  N   UNL     1     -10.528  15.081  66.318  1.00  0.00    -0.294 NA 
HETATM    9  C   UNL     1     -12.629  13.954  65.917  1.00  0.00    -0.498 C  
HETATM   10  C   UNL     1      -9.232  15.298  66.734  1.00  0.00    -0.250 C  
HETATM   11  C   UNL     1      -8.596  16.564  66.205  1.00  0.00    -0.367 C  
HETATM   12  C   UNL     1      -8.624  14.413  67.560  1.00  0.00    -0.199 C  
HETATM   13  C   UNL     1      -9.381  13.173  68.069  1.00  0.00    -0.219 C  
BRANCH  12  14
HETATM   14  C   UNL     1      -7.199  14.642  67.921  1.00  0.00    -0.159 C  
HETATM   15  O   UNL     1      -6.251  14.279  67.238  1.00  0.00    -0.301 OA 
BRANCH  14  16
HETATM   16  O   UNL     1      -7.071  15.292  69.108  1.00  0.00    -0.129 OA 
HETATM   17  C   UNL     1      -6.451  14.501  70.126  1.00  0.00    -0.156 C  
ENDBRANCH  14  16
ENDBRANCH  12  14
BRANCH  13  18
HETATM   18  C   UNL     1      -8.544  11.896  67.922  1.00  0.00    -0.162 A  
HETATM   19  C   UNL     1      -8.069  11.205  69.048  1.00  0.00    -0.078 A  
HETATM   20  C   UNL     1      -8.265  11.381  66.640  1.00  0.00    -0.163 A  
HETATM   21  C   UNL     1      -7.345  10.020  68.903  1.00  0.00    -0.080 A  
HETATM   22  C   UNL     1      -7.562  10.177  66.504  1.00  0.00    -0.109 A  
HETATM   23  N   UNL     1      -7.346   9.608  65.169  1.00  0.00    -0.109 N  
HETATM   24  C   UNL     1      -7.095   9.497  67.634  1.00  0.00    -0.081 A  
HETATM   25  O   UNL     1      -7.810  10.219  64.196  1.00  0.00    -0.153 OA 
HETATM   26  O   UNL     1      -6.725   8.536  65.092  1.00  0.00    -0.063 OA 
ENDBRANCH  13  18
ENDBRANCH   4   6
ENDBRANCH   3   4
ENDBRANCH   2   3
TORSDOF 6
ENDMDL
MODEL       85
REMARK 921   NORMALIZED FREE ENERGY PREDICTED BY IDOCK:   -4.44 KCAL/MOL
REMARK 922        TOTAL FREE ENERGY PREDICTED BY IDOCK:   -7.15 KCAL/MOL
REMARK 923 INTER-LIGAND FREE ENERGY PREDICTED BY IDOCK:   -5.92 KCAL/MOL
REMARK 924 INTRA-LIGAND FREE ENERGY PREDICTED BY IDOCK:   -1.22 KCAL/MOL
REMARK 927      BINDING AFFINITY PREDICTED BY RF-SCORE:    0.00 PKD
ROOT
HETATM    1  C   UNL     1     -12.949  13.728  65.827  1.00  0.00    -0.310 C  
HETATM    2  C   UNL     1     -12.657  12.879  64.604  1.00  0.00    -0.391 C  
ENDROOT
BRANCH   2   3
HETATM    3  O   UNL     1     -11.599  11.981  64.968  1.00  0.00    -0.318 OA 
BRANCH   3   4
HETATM    4  C   UNL     1     -10.343  12.488  64.890  1.00  0.00    -0.300 C  
HETATM    5  O   UNL     1     -10.047  13.580  64.430  1.00  0.00    -0.339 OA 
BRANCH   4   6
HETATM    6  C   UNL     1      -9.389  11.548  65.533  1.00  0.00    -0.203 C  
HETATM    7  C   UNL     1      -8.955  10.448  64.875  1.00  0.00    -0.199 C  
HETATM    8  N   UNL     1      -8.055   9.597  65.491  1.00  0.00    -0.118 NA 
HETATM    9  C   UNL     1      -9.324  10.009  63.474  1.00  0.00    -0.301 C  
HETATM   10  C   UNL     1      -7.618   9.708  66.794  1.00  0.00    -0.098 C  
HETATM   11  C   UNL     1      -6.714   8.590  67.261  1.00  0.00    -0.063 C  
HETATM   12  C   UNL     1      -7.997  10.765  67.552  1.00  0.00    -0.110 C  
HETATM   13  C   UNL     1      -8.893  11.869  66.959  1.00  0.00    -0.190 C  
BRANCH  12  14
HETATM   14  C   UNL     1      -7.571  10.807  68.976  1.00  0.00    -0.126 C  
HETATM   15  O   UNL     1      -6.712  11.561  69.413  1.00  0.00    -0.106 OA 
BRANCH  14  16
HETATM   16  O   UNL     1      -8.240   9.899  69.736  1.00  0.00    -0.151 OA 
HETATM   17  C   UNL     1      -7.414   9.257  70.712  1.00  0.00    -0.128 C  
ENDBRANCH  14  16
ENDBRANCH  12  14
BRANCH  13  18
HETATM   18  C   UNL     1     -10.058  12.217  67.893  1.00  0.00    -0.200 A  
HETATM   19  C   UNL     1     -10.984  11.242  68.296  1.00  0.00    -0.275 A  
HETATM   20  C   UNL     1     -10.196  13.531  68.386  1.00  0.00    -0.245 A  
HETATM   21  C   UNL     1     -12.015  11.562  69.181  1.00  0.00    -0.386 A  
HETATM   22  C   UNL     1     -11.217  13.837  69.295  1.00  0.00    -0.242 A  
HETATM   23  N   UNL     1     -11.304  15.187  69.864  1.00  0.00    -0.266 N  
HETATM   24  C   UNL     1     -12.132  12.855  69.690  1.00  0.00    -0.290 A  
HETATM   25  O   UNL     1     -10.451  16.017  69.519  1.00  0.00    -0.244 OA 
HETATM   26  O   UNL     1     -12.218  15.415  70.671  1.00  0.00    -0.326 OA 
ENDBRANCH  13  18
ENDBRANCH   4   6
ENDBRANCH   3   4
ENDBRANCH   2   3
TORSDOF 6
ENDMDL
MODEL       86
REMARK 921   NORMALIZED FREE ENERGY PREDICTED BY IDOCK:   -4.43 KCAL/MOL
REMARK 922        TOTAL FREE ENERGY PREDICTED BY IDOCK:   -7.13 KCAL/MOL
REMARK 923 INTER-LIGAND FREE ENERGY PREDICTED BY IDOCK:   -6.05 KCAL/MOL
REMARK 924 INTRA-LIGAND FREE ENERGY PREDICTED BY IDOCK:   -1.08 KCAL/MOL
REMARK 927      BINDING AFFINITY PREDICTED BY RF-SCORE:    0.00 PKD
ROOT
HETATM    1  C   UNL     1      -9.629  16.791  68.122  1.00  0.00    -0.242 C  
HETATM    2  C   UNL     1      -9.273  15.530  67.357  1.00  0.00    -0.202 C  
ENDROOT
BRANCH   2   3
HETATM    3  O   UNL     1      -8.736  14.606  68.314  1.00  0.00    -0.160 OA 
BRANCH   3   4
HETATM    4  C   UNL     1      -7.789  13.754  67.846  1.00  0.00    -0.159 C  
HETATM    5  O   UNL     1      -6.940  14.029  67.012  1.00  0.00    -0.021 OA 
BRANCH   4   6
HETATM    6  C   UNL     1      -7.886  12.461  68.568  1.00  0.00    -0.112 C  
HETATM    7  C   UNL     1      -6.876  12.038  69.364  1.00  0.00    -0.028 C  
HETATM    8  N   UNL     1      -6.998  10.836  70.038  1.00  0.00    -0.151 NA 
HETATM    9  C   UNL     1      -5.571  12.749  69.649  1.00  0.00    -0.096 C  
HETATM   10  C   UNL     1      -8.040   9.945  69.895  1.00  0.00    -0.188 C  
HETATM   11  C   UNL     1      -7.885   8.653  70.666  1.00  0.00    -0.101 C  
HETATM   12  C   UNL     1      -9.102  10.258  69.114  1.00  0.00    -0.199 C  
HETATM   13  C   UNL     1      -9.172  11.622  68.404  1.00  0.00    -0.182 C  
BRANCH  12  14
HETATM   14  C   UNL     1     -10.167   9.238  68.922  1.00  0.00    -0.202 C  
HETATM   15  O   UNL     1     -11.283   9.310  69.417  1.00  0.00    -0.107 OA 
BRANCH  14  16
HETATM   16  O   UNL     1      -9.751   8.207  68.139  1.00  0.00    -0.154 OA 
HETATM   17  C   UNL     1     -10.726   7.796  67.175  1.00  0.00    -0.267 C  
ENDBRANCH  14  16
ENDBRANCH  12  14
BRANCH  13  18
HETATM   18  C   UNL     1      -9.560  11.475  66.927  1.00  0.00    -0.203 A  
HETATM   19  C   UNL     1      -8.795  10.690  66.050  1.00  0.00    -0.187 A  
HETATM   20  C   UNL     1     -10.719  12.110  66.437  1.00  0.00    -0.292 A  
HETATM   21  C   UNL     1      -9.182  10.528  64.718  1.00  0.00    -0.266 A  
HETATM   22  C   UNL     1     -11.115  11.920  65.107  1.00  0.00    -0.305 A  
HETATM   23  N   UNL     1     -12.366  12.519  64.628  1.00  0.00    -0.471 N  
HETATM   24  C   UNL     1     -10.345  11.134  64.243  1.00  0.00    -0.413 A  
HETATM   25  O   UNL     1     -13.041  13.175  65.435  1.00  0.00    -0.618 OA 
HETATM   26  O   UNL     1     -12.686  12.321  63.446  1.00  0.00    -0.727 OA 
ENDBRANCH  13  18
ENDBRANCH   4   6
ENDBRANCH   3   4
ENDBRANCH   2   3
TORSDOF 6
ENDMDL
MODEL       87
REMARK 921   NORMALIZED FREE ENERGY PREDICTED BY IDOCK:   -4.43 KCAL/MOL
REMARK 922        TOTAL FREE ENERGY PREDICTED BY IDOCK:   -7.13 KCAL/MOL
REMARK 923 INTER-LIGAND FREE ENERGY PREDICTED BY IDOCK:   -5.90 KCAL/MOL
REMARK 924 INTRA-LIGAND FREE ENERGY PREDICTED BY IDOCK:   -1.22 KCAL/MOL
REMARK 927      BINDING AFFINITY PREDICTED BY RF-SCORE:    0.00 PKD
ROOT
HETATM    1  C   UNL     1     -12.977  10.606  71.012  1.00  0.00    -0.456 C  
HETATM    2  C   UNL     1     -11.709  10.967  70.260  1.00  0.00    -0.347 C  
ENDROOT
BRANCH   2   3
HETATM    3  O   UNL     1     -12.095  11.863  69.208  1.00  0.00    -0.282 OA 
BRANCH   3   4
HETATM    4  C   UNL     1     -11.506  11.650  68.005  1.00  0.00    -0.315 C  
HETATM    5  O   UNL     1     -11.658  10.658  67.308  1.00  0.00    -0.392 OA 
BRANCH   4   6
HETATM    6  C   UNL     1     -10.716  12.847  67.621  1.00  0.00    -0.237 C  
HETATM    7  C   UNL     1     -11.241  13.785  66.799  1.00  0.00    -0.316 C  
HETATM    8  N   UNL     1     -10.489  14.899  66.468  1.00  0.00    -0.289 NA 
HETATM    9  C   UNL     1     -12.619  13.792  66.174  1.00  0.00    -0.423 C  
HETATM   10  C   UNL     1      -9.174  15.106  66.825  1.00  0.00    -0.254 C  
HETATM   11  C   UNL     1      -8.547  16.356  66.250  1.00  0.00    -0.375 C  
HETATM   12  C   UNL     1      -8.542  14.226  67.639  1.00  0.00    -0.186 C  
HETATM   13  C   UNL     1      -9.292  13.003  68.198  1.00  0.00    -0.217 C  
BRANCH  12  14
HETATM   14  C   UNL     1      -7.101  14.442  67.935  1.00  0.00    -0.159 C  
HETATM   15  O   UNL     1      -6.186  14.002  67.252  1.00  0.00    -0.304 OA 
BRANCH  14  16
HETATM   16  O   UNL     1      -6.916  15.178  69.064  1.00  0.00    -0.113 OA 
HETATM   17  C   UNL     1      -6.358  14.428  70.146  1.00  0.00    -0.158 C  
ENDBRANCH  14  16
ENDBRANCH  12  14
BRANCH  13  18
HETATM   18  C   UNL     1      -8.477  11.714  68.036  1.00  0.00    -0.151 A  
HETATM   19  C   UNL     1      -8.039  11.285  66.773  1.00  0.00    -0.159 A  
HETATM   20  C   UNL     1      -8.132  10.953  69.171  1.00  0.00    -0.104 A  
HETATM   21  C   UNL     1      -7.260  10.133  66.644  1.00  0.00    -0.105 A  
HETATM   22  C   UNL     1      -7.328   9.814  69.035  1.00  0.00    -0.078 A  
HETATM   23  N   UNL     1      -6.908   9.074  70.231  1.00  0.00    -0.044 N  
HETATM   24  C   UNL     1      -6.896   9.398  67.772  1.00  0.00    -0.079 A  
HETATM   25  O   UNL     1      -7.279   9.497  71.335  1.00  0.00    -0.330 OA 
HETATM   26  O   UNL     1      -6.190   8.075  70.068  1.00  0.00    -0.032 OA 
ENDBRANCH  13  18
ENDBRANCH   4   6
ENDBRANCH   3   4
ENDBRANCH   2   3
TORSDOF 6
ENDMDL
MODEL       88
REMARK 921   NORMALIZED FREE ENERGY PREDICTED BY IDOCK:   -4.43 KCAL/MOL
REMARK 922        TOTAL FREE ENERGY PREDICTED BY IDOCK:   -7.13 KCAL/MOL
REMARK 923 INTER-LIGAND FREE ENERGY PREDICTED BY IDOCK:   -5.86 KCAL/MOL
REMARK 924 INTRA-LIGAND FREE ENERGY PREDICTED BY IDOCK:   -1.27 KCAL/MOL
REMARK 927      BINDING AFFINITY PREDICTED BY RF-SCORE:    0.00 PKD
ROOT
HETATM    1  C   UNL     1     -10.613   7.315  68.114  1.00  0.00    -0.228 C  
HETATM    2  C   UNL     1      -9.839   7.513  66.824  1.00  0.00    -0.225 C  
ENDROOT
BRANCH   2   3
HETATM    3  O   UNL     1     -10.340   8.716  66.223  1.00  0.00    -0.214 OA 
BRANCH   3   4
HETATM    4  C   UNL     1      -9.411   9.517  65.644  1.00  0.00    -0.261 C  
HETATM    5  O   UNL     1      -8.412   9.132  65.055  1.00  0.00    -0.151 OA 
BRANCH   4   6
HETATM    6  C   UNL     1      -9.841  10.934  65.754  1.00  0.00    -0.286 C  
HETATM    7  C   UNL     1     -10.121  11.658  64.646  1.00  0.00    -0.262 C  
HETATM    8  N   UNL     1     -10.534  12.973  64.778  1.00  0.00    -0.346 NA 
HETATM    9  C   UNL     1     -10.061  11.197  63.207  1.00  0.00    -0.426 C  
HETATM   10  C   UNL     1     -10.593  13.673  65.964  1.00  0.00    -0.290 C  
HETATM   11  C   UNL     1     -10.978  15.129  65.826  1.00  0.00    -0.350 C  
HETATM   12  C   UNL     1     -10.323  13.051  67.137  1.00  0.00    -0.243 C  
HETATM   13  C   UNL     1      -9.978  11.551  67.163  1.00  0.00    -0.222 C  
BRANCH  12  14
HETATM   14  C   UNL     1     -10.319  13.860  68.385  1.00  0.00    -0.249 C  
HETATM   15  O   UNL     1      -9.372  14.536  68.762  1.00  0.00    -0.204 OA 
BRANCH  14  16
HETATM   16  O   UNL     1     -11.490  13.752  69.068  1.00  0.00    -0.265 OA 
HETATM   17  C   UNL     1     -12.018  15.011  69.495  1.00  0.00    -0.313 C  
ENDBRANCH  14  16
ENDBRANCH  12  14
BRANCH  13  18
HETATM   18  C   UNL     1      -8.739  11.268  68.022  1.00  0.00    -0.144 A  
HETATM   19  C   UNL     1      -7.512  11.897  67.759  1.00  0.00    -0.121 A  
HETATM   20  C   UNL     1      -8.829  10.384  69.116  1.00  0.00    -0.180 A  
HETATM   21  C   UNL     1      -6.403  11.664  68.574  1.00  0.00    -0.052 A  
HETATM   22  C   UNL     1      -7.719  10.177  69.946  1.00  0.00    -0.160 A  
HETATM   23  N   UNL     1      -7.845   9.318  71.129  1.00  0.00    -0.078 N  
HETATM   24  C   UNL     1      -6.503  10.812  69.674  1.00  0.00    -0.103 A  
HETATM   25  O   UNL     1      -8.950   8.805  71.358  1.00  0.00    -0.199 OA 
HETATM   26  O   UNL     1      -6.841   9.166  71.842  1.00  0.00    -0.288 OA 
ENDBRANCH  13  18
ENDBRANCH   4   6
ENDBRANCH   3   4
ENDBRANCH   2   3
TORSDOF 6
ENDMDL
MODEL       89
REMARK 921   NORMALIZED FREE ENERGY PREDICTED BY IDOCK:   -4.42 KCAL/MOL
REMARK 922        TOTAL FREE ENERGY PREDICTED BY IDOCK:   -7.11 KCAL/MOL
REMARK 923 INTER-LIGAND FREE ENERGY PREDICTED BY IDOCK:   -5.84 KCAL/MOL
REMARK 924 INTRA-LIGAND FREE ENERGY PREDICTED BY IDOCK:   -1.27 KCAL/MOL
REMARK 927      BINDING AFFINITY PREDICTED BY RF-SCORE:    0.00 PKD
ROOT
HETATM    1  C   UNL     1      -5.214   7.972  67.677  1.00  0.00    -0.033 C  
HETATM    2  C   UNL     1      -6.249   8.403  66.653  1.00  0.00    -0.054 C  
ENDROOT
BRANCH   2   3
HETATM    3  O   UNL     1      -7.314   7.444  66.716  1.00  0.00    -0.087 OA 
BRANCH   3   4
HETATM    4  C   UNL     1      -8.560   7.932  66.489  1.00  0.00    -0.142 C  
HETATM    5  O   UNL     1      -8.942   8.440  65.446  1.00  0.00    -0.151 OA 
BRANCH   4   6
HETATM    6  C   UNL     1      -9.417   7.670  67.672  1.00  0.00    -0.165 C  
HETATM    7  C   UNL     1     -10.350   6.689  67.645  1.00  0.00    -0.199 C  
HETATM    8  N   UNL     1     -11.125   6.456  68.768  1.00  0.00    -0.334 NA 
HETATM    9  C   UNL     1     -10.663   5.750  66.501  1.00  0.00    -0.274 C  
HETATM   10  C   UNL     1     -11.111   7.216  69.917  1.00  0.00    -0.235 C  
HETATM   11  C   UNL     1     -12.130   6.815  70.960  1.00  0.00    -0.426 C  
HETATM   12  C   UNL     1     -10.225   8.232  70.051  1.00  0.00    -0.202 C  
HETATM   13  C   UNL     1      -9.204   8.529  68.937  1.00  0.00    -0.146 C  
BRANCH  12  14
HETATM   14  C   UNL     1     -10.295   9.080  71.272  1.00  0.00    -0.313 C  
HETATM   15  O   UNL     1     -11.286   9.712  71.611  1.00  0.00    -0.367 OA 
BRANCH  14  16
HETATM   16  O   UNL     1      -9.124   9.080  71.962  1.00  0.00    -0.375 OA 
HETATM   17  C   UNL     1      -9.062   8.075  72.978  1.00  0.00    -0.265 C  
ENDBRANCH  14  16
ENDBRANCH  12  14
BRANCH  13  18
HETATM   18  C   UNL     1      -9.153  10.024  68.597  1.00  0.00    -0.139 A  
HETATM   19  C   UNL     1      -8.030  10.804  68.916  1.00  0.00    -0.143 A  
HETATM   20  C   UNL     1     -10.235  10.630  67.927  1.00  0.00    -0.206 A  
HETATM   21  C   UNL     1      -7.978  12.154  68.562  1.00  0.00    -0.119 A  
HETATM   22  C   UNL     1     -10.163  11.978  67.551  1.00  0.00    -0.198 A  
HETATM   23  N   UNL     1     -11.259  12.579  66.783  1.00  0.00    -0.280 N  
HETATM   24  C   UNL     1      -9.037  12.744  67.873  1.00  0.00    -0.204 A  
HETATM   25  O   UNL     1     -12.221  11.857  66.484  1.00  0.00    -0.483 OA 
HETATM   26  O   UNL     1     -11.154  13.773  66.464  1.00  0.00    -0.300 OA 
ENDBRANCH  13  18
ENDBRANCH   4   6
ENDBRANCH   3   4
ENDBRANCH   2   3
TORSDOF 6
ENDMDL
MODEL       90
REMARK 921   NORMALIZED FREE ENERGY PREDICTED BY IDOCK:   -4.41 KCAL/MOL
REMARK 922        TOTAL FREE ENERGY PREDICTED BY IDOCK:   -7.10 KCAL/MOL
REMARK 923 INTER-LIGAND FREE ENERGY PREDICTED BY IDOCK:   -7.25 KCAL/MOL
REMARK 924 INTRA-LIGAND FREE ENERGY PREDICTED BY IDOCK:    0.14 KCAL/MOL
REMARK 927      BINDING AFFINITY PREDICTED BY RF-SCORE:    0.00 PKD
ROOT
HETATM    1  C   UNL     1     -10.069  14.030  68.383  1.00  0.00    -0.236 C  
HETATM    2  C   UNL     1      -9.307  12.718  68.330  1.00  0.00    -0.194 C  
ENDROOT
BRANCH   2   3
HETATM    3  O   UNL     1      -9.966  11.899  67.353  1.00  0.00    -0.188 OA 
BRANCH   3   4
HETATM    4  C   UNL     1     -10.865  11.008  67.841  1.00  0.00    -0.237 C  
HETATM    5  O   UNL     1     -12.079  11.099  67.738  1.00  0.00    -0.606 OA 
BRANCH   4   6
HETATM    6  C   UNL     1     -10.146   9.855  68.440  1.00  0.00    -0.189 C  
HETATM    7  C   UNL     1      -9.660   8.864  67.658  1.00  0.00    -0.148 C  
HETATM    8  N   UNL     1      -8.980   7.808  68.241  1.00  0.00    -0.132 NA 
HETATM    9  C   UNL     1      -9.745   8.755  66.151  1.00  0.00    -0.320 C  
HETATM   10  C   UNL     1      -8.830   7.609  69.596  1.00  0.00    -0.140 C  
HETATM   11  C   UNL     1      -8.133   6.323  69.979  1.00  0.00    -0.120 C  
HETATM   12  C   UNL     1      -9.288   8.533  70.475  1.00  0.00    -0.192 C  
HETATM   13  C   UNL     1      -9.950   9.829  69.971  1.00  0.00    -0.299 C  
BRANCH  12  14
HETATM   14  C   UNL     1      -9.180   8.244  71.930  1.00  0.00    -0.208 C  
HETATM   15  O   UNL     1      -8.431   8.836  72.694  1.00  0.00    -0.413 OA 
BRANCH  14  16
HETATM   16  O   UNL     1     -10.005   7.232  72.312  1.00  0.00    -0.166 OA 
HETATM   17  C   UNL     1      -9.927   6.931  73.708  1.00  0.00    -0.312 C  
ENDBRANCH  14  16
ENDBRANCH  12  14
BRANCH  13  18
HETATM   18  C   UNL     1     -11.263  10.120  70.709  1.00  0.00    -0.414 A  
HETATM   19  C   UNL     1     -12.045   9.082  71.238  1.00  0.00    -0.375 A  
HETATM   20  C   UNL     1     -11.686  11.452  70.891  1.00  0.00     0.087 A  
HETATM   21  C   UNL     1     -13.216   9.362  71.946  1.00  0.00    -0.507 A  
HETATM   22  C   UNL     1     -12.847  11.726  71.626  1.00  0.00    -0.328 A  
HETATM   23  N   UNL     1     -13.236  13.118  71.879  1.00  0.00    -0.437 N  
HETATM   24  C   UNL     1     -13.617  10.683  72.149  1.00  0.00    -0.129 A  
HETATM   25  O   UNL     1     -12.506  14.015  71.432  1.00  0.00    -0.346 OA 
HETATM   26  O   UNL     1     -14.267  13.319  72.540  1.00  0.00    -0.697 OA 
ENDBRANCH  13  18
ENDBRANCH   4   6
ENDBRANCH   3   4
ENDBRANCH   2   3
TORSDOF 6
ENDMDL
MODEL       91
REMARK 921   NORMALIZED FREE ENERGY PREDICTED BY IDOCK:   -4.38 KCAL/MOL
REMARK 922        TOTAL FREE ENERGY PREDICTED BY IDOCK:   -7.07 KCAL/MOL
REMARK 923 INTER-LIGAND FREE ENERGY PREDICTED BY IDOCK:   -6.50 KCAL/MOL
REMARK 924 INTRA-LIGAND FREE ENERGY PREDICTED BY IDOCK:   -0.57 KCAL/MOL
REMARK 927      BINDING AFFINITY PREDICTED BY RF-SCORE:    0.00 PKD
ROOT
HETATM    1  C   UNL     1      -9.427  10.044  62.673  1.00  0.00    -0.232 C  
HETATM    2  C   UNL     1      -8.292  10.579  63.526  1.00  0.00    -0.113 C  
ENDROOT
BRANCH   2   3
HETATM    3  O   UNL     1      -8.833  10.811  64.834  1.00  0.00    -0.192 OA 
BRANCH   3   4
HETATM    4  C   UNL     1      -8.024  10.485  65.873  1.00  0.00    -0.154 C  
HETATM    5  O   UNL     1      -6.885  10.896  66.040  1.00  0.00    -0.129 OA 
BRANCH   4   6
HETATM    6  C   UNL     1      -8.766   9.623  66.827  1.00  0.00    -0.144 C  
HETATM    7  C   UNL     1      -8.960   8.310  66.564  1.00  0.00    -0.156 C  
HETATM    8  N   UNL     1      -9.642   7.525  67.478  1.00  0.00    -0.137 NA 
HETATM    9  C   UNL     1      -8.489   7.536  65.352  1.00  0.00    -0.105 C  
HETATM   10  C   UNL     1     -10.254   7.987  68.623  1.00  0.00    -0.206 C  
HETATM   11  C   UNL     1     -11.024   6.943  69.400  1.00  0.00    -0.274 C  
HETATM   12  C   UNL     1     -10.136   9.289  68.981  1.00  0.00    -0.207 C  
HETATM   13  C   UNL     1      -9.293  10.258  68.133  1.00  0.00    -0.144 C  
BRANCH  12  14
HETATM   14  C   UNL     1     -10.878   9.765  70.179  1.00  0.00    -0.291 C  
HETATM   15  O   UNL     1     -10.450   9.697  71.323  1.00  0.00    -0.301 OA 
BRANCH  14  16
HETATM   16  O   UNL     1     -12.096  10.277  69.856  1.00  0.00    -0.206 OA 
HETATM   17  C   UNL     1     -12.660  11.095  70.885  1.00  0.00    -0.386 C  
ENDBRANCH  14  16
ENDBRANCH  12  14
BRANCH  13  18
HETATM   18  C   UNL     1     -10.041  11.569  67.856  1.00  0.00    -0.202 A  
HETATM   19  C   UNL     1      -9.823  12.710  68.645  1.00  0.00    -0.077 A  
HETATM   20  C   UNL     1     -10.943  11.649  66.777  1.00  0.00    -0.341 A  
HETATM   21  C   UNL     1     -10.477  13.909  68.356  1.00  0.00    -0.250 A  
HETATM   22  C   UNL     1     -11.574  12.864  66.478  1.00  0.00    -0.371 A  
HETATM   23  N   UNL     1     -12.450  12.959  65.304  1.00  0.00    -0.501 N  
HETATM   24  C   UNL     1     -11.348  13.994  67.269  1.00  0.00    -0.350 A  
HETATM   25  O   UNL     1     -12.594  11.946  64.604  1.00  0.00    -0.307 OA 
HETATM   26  O   UNL     1     -12.984  14.054  65.069  1.00  0.00    -0.728 OA 
ENDBRANCH  13  18
ENDBRANCH   4   6
ENDBRANCH   3   4
ENDBRANCH   2   3
TORSDOF 6
ENDMDL
MODEL       92
REMARK 921   NORMALIZED FREE ENERGY PREDICTED BY IDOCK:   -4.38 KCAL/MOL
REMARK 922        TOTAL FREE ENERGY PREDICTED BY IDOCK:   -7.06 KCAL/MOL
REMARK 923 INTER-LIGAND FREE ENERGY PREDICTED BY IDOCK:   -7.82 KCAL/MOL
REMARK 924 INTRA-LIGAND FREE ENERGY PREDICTED BY IDOCK:    0.76 KCAL/MOL
REMARK 927      BINDING AFFINITY PREDICTED BY RF-SCORE:    0.00 PKD
ROOT
HETATM    1  C   UNL     1      -6.758  17.447  67.055  1.00  0.00    -0.218 C  
HETATM    2  C   UNL     1      -7.755  17.897  66.003  1.00  0.00    -0.181 C  
ENDROOT
BRANCH   2   3
HETATM    3  O   UNL     1      -8.800  16.914  65.978  1.00  0.00    -0.464 OA 
BRANCH   3   4
HETATM    4  C   UNL     1     -10.043  17.367  66.275  1.00  0.00    -0.322 C  
HETATM    5  O   UNL     1     -10.765  18.001  65.521  1.00  0.00    -0.597 OA 
BRANCH   4   6
HETATM    6  C   UNL     1     -10.432  16.895  67.628  1.00  0.00    -0.332 C  
HETATM    7  C   UNL     1     -10.172  17.647  68.723  1.00  0.00    -0.373 C  
HETATM    8  N   UNL     1     -10.558  17.190  69.971  1.00  0.00     0.102 NA 
HETATM    9  C   UNL     1      -9.497  19.001  68.768  1.00  0.00    -0.433 C  
HETATM   10  C   UNL     1     -11.112  15.955  70.230  1.00  0.00    -0.373 C  
HETATM   11  C   UNL     1     -11.350  15.657  71.693  1.00  0.00    -0.446 C  
HETATM   12  C   UNL     1     -11.407  15.113  69.210  1.00  0.00    -0.313 C  
HETATM   13  C   UNL     1     -11.156  15.536  67.751  1.00  0.00    -0.315 C  
BRANCH  12  14
HETATM   14  C   UNL     1     -11.928  13.758  69.536  1.00  0.00    -0.345 C  
HETATM   15  O   UNL     1     -12.037  13.320  70.673  1.00  0.00    -0.348 OA 
BRANCH  14  16
HETATM   16  O   UNL     1     -12.258  13.056  68.419  1.00  0.00    -0.223 OA 
HETATM   17  C   UNL     1     -11.906  11.671  68.494  1.00  0.00    -0.292 C  
ENDBRANCH  14  16
ENDBRANCH  12  14
BRANCH  13  18
HETATM   18  C   UNL     1     -10.433  14.441  66.958  1.00  0.00    -0.268 A  
HETATM   19  C   UNL     1      -9.289  13.809  67.468  1.00  0.00    -0.222 A  
HETATM   20  C   UNL     1     -10.934  14.035  65.704  1.00  0.00    -0.300 A  
HETATM   21  C   UNL     1      -8.665  12.783  66.756  1.00  0.00    -0.125 A  
HETATM   22  C   UNL     1     -10.318  12.986  65.009  1.00  0.00    -0.318 A  
HETATM   23  N   UNL     1     -10.893  12.516  63.743  1.00  0.00    -0.426 N  
HETATM   24  C   UNL     1      -9.179  12.362  65.529  1.00  0.00     0.211 A  
HETATM   25  O   UNL     1     -11.925  13.068  63.335  1.00  0.00    -0.542 OA 
HETATM   26  O   UNL     1     -10.322  11.580  63.162  1.00  0.00    -0.361 OA 
ENDBRANCH  13  18
ENDBRANCH   4   6
ENDBRANCH   3   4
ENDBRANCH   2   3
TORSDOF 6
ENDMDL
MODEL       93
REMARK 921   NORMALIZED FREE ENERGY PREDICTED BY IDOCK:   -4.37 KCAL/MOL
REMARK 922        TOTAL FREE ENERGY PREDICTED BY IDOCK:   -7.05 KCAL/MOL
REMARK 923 INTER-LIGAND FREE ENERGY PREDICTED BY IDOCK:   -5.96 KCAL/MOL
REMARK 924 INTRA-LIGAND FREE ENERGY PREDICTED BY IDOCK:   -1.09 KCAL/MOL
REMARK 927      BINDING AFFINITY PREDICTED BY RF-SCORE:    0.00 PKD
ROOT
HETATM    1  C   UNL     1     -14.402   8.858  72.297  1.00  0.00    -0.418 C  
HETATM    2  C   UNL     1     -12.910   8.971  72.040  1.00  0.00    -0.401 C  
ENDROOT
BRANCH   2   3
HETATM    3  O   UNL     1     -12.445   7.651  71.728  1.00  0.00    -0.309 OA 
BRANCH   3   4
HETATM    4  C   UNL     1     -11.186   7.356  72.141  1.00  0.00    -0.262 C  
HETATM    5  O   UNL     1     -10.599   7.898  73.065  1.00  0.00    -0.346 OA 
BRANCH   4   6
HETATM    6  C   UNL     1     -10.664   6.209  71.356  1.00  0.00    -0.308 C  
HETATM    7  C   UNL     1     -10.356   5.040  71.963  1.00  0.00    -0.213 C  
HETATM    8  N   UNL     1      -9.885   3.982  71.206  1.00  0.00    -0.186 NA 
HETATM    9  C   UNL     1     -10.483   4.707  73.434  1.00  0.00    -0.266 C  
HETATM   10  C   UNL     1      -9.592   4.035  69.860  1.00  0.00    -0.211 C  
HETATM   11  C   UNL     1      -8.991   2.770  69.288  1.00  0.00    -0.171 C  
HETATM   12  C   UNL     1      -9.849   5.160  69.150  1.00  0.00    -0.257 C  
HETATM   13  C   UNL     1     -10.499   6.379  69.830  1.00  0.00    -0.266 C  
BRANCH  12  14
HETATM   14  C   UNL     1      -9.444   5.205  67.720  1.00  0.00    -0.128 C  
HETATM   15  O   UNL     1      -8.284   5.276  67.337  1.00  0.00    -0.104 OA 
BRANCH  14  16
HETATM   16  O   UNL     1     -10.516   5.171  66.884  1.00  0.00    -0.242 OA 
HETATM   17  C   UNL     1     -10.233   4.564  65.620  1.00  0.00    -0.253 C  
ENDBRANCH  14  16
ENDBRANCH  12  14
BRANCH  13  18
HETATM   18  C   UNL     1      -9.764   7.680  69.486  1.00  0.00    -0.168 A  
HETATM   19  C   UNL     1      -8.424   7.877  69.856  1.00  0.00    -0.127 A  
HETATM   20  C   UNL     1     -10.425   8.692  68.762  1.00  0.00    -0.209 A  
HETATM   21  C   UNL     1      -7.751   9.048  69.500  1.00  0.00    -0.082 A  
HETATM   22  C   UNL     1      -9.736   9.852  68.385  1.00  0.00    -0.149 A  
HETATM   23  N   UNL     1     -10.409  10.864  67.562  1.00  0.00    -0.193 N  
HETATM   24  C   UNL     1      -8.400  10.035  68.758  1.00  0.00    -0.121 A  
HETATM   25  O   UNL     1     -11.580  10.646  67.219  1.00  0.00    -0.392 OA 
HETATM   26  O   UNL     1      -9.761  11.873  67.243  1.00  0.00    -0.182 OA 
ENDBRANCH  13  18
ENDBRANCH   4   6
ENDBRANCH   3   4
ENDBRANCH   2   3
TORSDOF 6
ENDMDL
MODEL       94
REMARK 921   NORMALIZED FREE ENERGY PREDICTED BY IDOCK:   -4.36 KCAL/MOL
REMARK 922        TOTAL FREE ENERGY PREDICTED BY IDOCK:   -7.04 KCAL/MOL
REMARK 923 INTER-LIGAND FREE ENERGY PREDICTED BY IDOCK:   -6.00 KCAL/MOL
REMARK 924 INTRA-LIGAND FREE ENERGY PREDICTED BY IDOCK:   -1.04 KCAL/MOL
REMARK 927      BINDING AFFINITY PREDICTED BY RF-SCORE:    0.00 PKD
ROOT
HETATM    1  C   UNL     1      -9.732   9.232  65.802  1.00  0.00    -0.339 C  
HETATM    2  C   UNL     1     -10.483   8.924  67.083  1.00  0.00    -0.274 C  
ENDROOT
BRANCH   2   3
HETATM    3  O   UNL     1      -9.727   7.920  67.774  1.00  0.00    -0.146 OA 
BRANCH   3   4
HETATM    4  C   UNL     1     -10.454   6.977  68.425  1.00  0.00    -0.201 C  
HETATM    5  O   UNL     1     -11.508   6.501  68.033  1.00  0.00    -0.145 OA 
BRANCH   4   6
HETATM    6  C   UNL     1      -9.726   6.545  69.644  1.00  0.00    -0.167 C  
HETATM    7  C   UNL     1      -9.263   5.278  69.759  1.00  0.00    -0.126 C  
HETATM    8  N   UNL     1      -8.575   4.905  70.900  1.00  0.00    -0.113 NA 
HETATM    9  C   UNL     1      -9.386   4.160  68.747  1.00  0.00    -0.222 C  
HETATM   10  C   UNL     1      -8.394   5.696  72.015  1.00  0.00    -0.122 C  
HETATM   11  C   UNL     1      -7.694   5.017  73.171  1.00  0.00    -0.093 C  
HETATM   12  C   UNL     1      -8.825   6.980  72.017  1.00  0.00    -0.133 C  
HETATM   13  C   UNL     1      -9.493   7.581  70.766  1.00  0.00    -0.163 C  
BRANCH  12  14
HETATM   14  C   UNL     1      -8.684   7.775  73.266  1.00  0.00    -0.207 C  
HETATM   15  O   UNL     1      -9.333   7.575  74.283  1.00  0.00    -0.195 OA 
BRANCH  14  16
HETATM   16  O   UNL     1      -7.755   8.761  73.142  1.00  0.00    -0.385 OA 
HETATM   17  C   UNL     1      -6.467   8.395  73.645  1.00  0.00    -0.114 C  
ENDBRANCH  14  16
ENDBRANCH  12  14
BRANCH  13  18
HETATM   18  C   UNL     1     -10.786   8.328  71.116  1.00  0.00    -0.276 A  
HETATM   19  C   UNL     1     -11.808   7.708  71.852  1.00  0.00    -0.332 A  
HETATM   20  C   UNL     1     -10.951   9.671  70.721  1.00  0.00    -0.397 A  
HETATM   21  C   UNL     1     -12.962   8.412  72.202  1.00  0.00    -0.370 A  
HETATM   22  C   UNL     1     -12.100  10.378  71.099  1.00  0.00    -0.386 A  
HETATM   23  N   UNL     1     -12.226  11.799  70.752  1.00  0.00    -0.371 N  
HETATM   24  C   UNL     1     -13.109   9.750  71.835  1.00  0.00    -0.544 A  
HETATM   25  O   UNL     1     -11.292  12.330  70.135  1.00  0.00    -0.055 OA 
HETATM   26  O   UNL     1     -13.255  12.392  71.112  1.00  0.00    -0.125 OA 
ENDBRANCH  13  18
ENDBRANCH   4   6
ENDBRANCH   3   4
ENDBRANCH   2   3
TORSDOF 6
ENDMDL
MODEL       95
REMARK 921   NORMALIZED FREE ENERGY PREDICTED BY IDOCK:   -4.36 KCAL/MOL
REMARK 922        TOTAL FREE ENERGY PREDICTED BY IDOCK:   -7.04 KCAL/MOL
REMARK 923 INTER-LIGAND FREE ENERGY PREDICTED BY IDOCK:   -5.78 KCAL/MOL
REMARK 924 INTRA-LIGAND FREE ENERGY PREDICTED BY IDOCK:   -1.26 KCAL/MOL
REMARK 927      BINDING AFFINITY PREDICTED BY RF-SCORE:    0.00 PKD
ROOT
HETATM    1  C   UNL     1     -10.087  10.682  65.517  1.00  0.00    -0.343 C  
HETATM    2  C   UNL     1     -10.407   9.752  66.672  1.00  0.00    -0.206 C  
ENDROOT
BRANCH   2   3
HETATM    3  O   UNL     1      -9.795   8.490  66.368  1.00  0.00    -0.253 OA 
BRANCH   3   4
HETATM    4  C   UNL     1     -10.184   7.444  67.138  1.00  0.00    -0.277 C  
HETATM    5  O   UNL     1     -11.235   6.832  67.022  1.00  0.00    -0.393 OA 
BRANCH   4   6
HETATM    6  C   UNL     1      -9.097   7.097  68.088  1.00  0.00    -0.133 C  
HETATM    7  C   UNL     1      -8.182   6.150  67.772  1.00  0.00    -0.117 C  
HETATM    8  N   UNL     1      -7.170   5.856  68.669  1.00  0.00    -0.081 NA 
HETATM    9  C   UNL     1      -8.099   5.341  66.497  1.00  0.00    -0.108 C  
HETATM   10  C   UNL     1      -7.055   6.379  69.940  1.00  0.00    -0.072 C  
HETATM   11  C   UNL     1      -5.916   5.817  70.760  1.00  0.00    -0.029 C  
HETATM   12  C   UNL     1      -7.923   7.327  70.367  1.00  0.00    -0.104 C  
HETATM   13  C   UNL     1      -9.026   7.855  69.431  1.00  0.00    -0.145 C  
BRANCH  12  14
HETATM   14  C   UNL     1      -7.816   7.806  71.771  1.00  0.00    -0.090 C  
HETATM   15  O   UNL     1      -7.300   8.866  72.097  1.00  0.00    -0.320 OA 
BRANCH  14  16
HETATM   16  O   UNL     1      -8.349   6.921  72.655  1.00  0.00    -0.110 OA 
HETATM   17  C   UNL     1      -9.033   7.547  73.745  1.00  0.00    -0.248 C  
ENDBRANCH  14  16
ENDBRANCH  12  14
BRANCH  13  18
HETATM   18  C   UNL     1     -10.392   7.891  70.127  1.00  0.00    -0.215 A  
HETATM   19  C   UNL     1     -11.039   6.710  70.522  1.00  0.00    -0.359 A  
HETATM   20  C   UNL     1     -11.007   9.129  70.405  1.00  0.00    -0.290 A  
HETATM   21  C   UNL     1     -12.262   6.758  71.194  1.00  0.00    -0.413 A  
HETATM   22  C   UNL     1     -12.221   9.170  71.103  1.00  0.00    -0.285 A  
HETATM   23  N   UNL     1     -12.812  10.465  71.459  1.00  0.00    -0.426 N  
HETATM   24  C   UNL     1     -12.854   7.985  71.494  1.00  0.00    -0.331 A  
HETATM   25  O   UNL     1     -12.201  11.491  71.130  1.00  0.00    -0.301 OA 
HETATM   26  O   UNL     1     -13.884  10.458  72.084  1.00  0.00    -0.127 OA 
ENDBRANCH  13  18
ENDBRANCH   4   6
ENDBRANCH   3   4
ENDBRANCH   2   3
TORSDOF 6
ENDMDL
MODEL       96
REMARK 921   NORMALIZED FREE ENERGY PREDICTED BY IDOCK:   -4.28 KCAL/MOL
REMARK 922        TOTAL FREE ENERGY PREDICTED BY IDOCK:   -6.93 KCAL/MOL
REMARK 923 INTER-LIGAND FREE ENERGY PREDICTED BY IDOCK:   -6.07 KCAL/MOL
REMARK 924 INTRA-LIGAND FREE ENERGY PREDICTED BY IDOCK:   -0.86 KCAL/MOL
REMARK 927      BINDING AFFINITY PREDICTED BY RF-SCORE:    0.00 PKD
ROOT
HETATM    1  C   UNL     1     -11.849  13.554  69.291  1.00  0.00    -0.392 C  
HETATM    2  C   UNL     1     -12.278  12.282  69.998  1.00  0.00    -0.196 C  
ENDROOT
BRANCH   2   3
HETATM    3  O   UNL     1     -11.942  11.193  69.127  1.00  0.00    -0.330 OA 
BRANCH   3   4
HETATM    4  C   UNL     1     -10.928  10.395  69.544  1.00  0.00    -0.262 C  
HETATM    5  O   UNL     1     -10.567  10.256  70.703  1.00  0.00    -0.214 OA 
BRANCH   4   6
HETATM    6  C   UNL     1     -10.381   9.643  68.386  1.00  0.00    -0.233 C  
HETATM    7  C   UNL     1     -10.133   8.316  68.480  1.00  0.00    -0.197 C  
HETATM    8  N   UNL     1      -9.637   7.637  67.381  1.00  0.00    -0.141 NA 
HETATM    9  C   UNL     1     -10.354   7.422  69.681  1.00  0.00    -0.226 C  
HETATM   10  C   UNL     1      -9.262   8.217  66.189  1.00  0.00    -0.192 C  
HETATM   11  C   UNL     1      -8.652   7.269  65.182  1.00  0.00     0.044 C  
HETATM   12  C   UNL     1      -9.455   9.543  65.986  1.00  0.00    -0.294 C  
HETATM   13  C   UNL     1     -10.122  10.409  67.071  1.00  0.00    -0.264 C  
BRANCH  12  14
HETATM   14  C   UNL     1      -8.963  10.146  64.719  1.00  0.00    -0.203 C  
HETATM   15  O   UNL     1      -7.793  10.428  64.501  1.00  0.00    -0.141 OA 
BRANCH  14  16
HETATM   16  O   UNL     1      -9.971  10.362  63.831  1.00  0.00    -0.315 OA 
HETATM   17  C   UNL     1     -10.090  11.729  63.427  1.00  0.00    -0.446 C  
ENDBRANCH  14  16
ENDBRANCH  12  14
BRANCH  13  18
HETATM   18  C   UNL     1      -9.342  11.706  67.321  1.00  0.00    -0.170 A  
HETATM   19  C   UNL     1      -8.219  11.728  68.163  1.00  0.00    -0.153 A  
HETATM   20  C   UNL     1      -9.734  12.897  66.678  1.00  0.00    -0.254 A  
HETATM   21  C   UNL     1      -7.491  12.905  68.349  1.00  0.00    -0.124 A  
HETATM   22  C   UNL     1      -8.982  14.067  66.848  1.00  0.00    -0.227 A  
HETATM   23  N   UNL     1      -9.351  15.282  66.111  1.00  0.00    -0.311 N  
HETATM   24  C   UNL     1      -7.864  14.076  67.688  1.00  0.00    -0.185 A  
HETATM   25  O   UNL     1     -10.324  15.223  65.347  1.00  0.00    -0.340 OA 
HETATM   26  O   UNL     1      -8.655  16.295  66.284  1.00  0.00    -0.299 OA 
ENDBRANCH  13  18
ENDBRANCH   4   6
ENDBRANCH   3   4
ENDBRANCH   2   3
TORSDOF 6
ENDMDL
MODEL       97
REMARK 921   NORMALIZED FREE ENERGY PREDICTED BY IDOCK:   -4.28 KCAL/MOL
REMARK 922        TOTAL FREE ENERGY PREDICTED BY IDOCK:   -6.93 KCAL/MOL
REMARK 923 INTER-LIGAND FREE ENERGY PREDICTED BY IDOCK:   -5.58 KCAL/MOL
REMARK 924 INTRA-LIGAND FREE ENERGY PREDICTED BY IDOCK:   -1.35 KCAL/MOL
REMARK 927      BINDING AFFINITY PREDICTED BY RF-SCORE:    0.00 PKD
ROOT
HETATM    1  C   UNL     1      -8.638   5.574  66.673  1.00  0.00    -0.116 C  
HETATM    2  C   UNL     1      -8.851   6.941  66.051  1.00  0.00    -0.136 C  
ENDROOT
BRANCH   2   3
HETATM    3  O   UNL     1      -9.730   7.660  66.928  1.00  0.00    -0.181 OA 
BRANCH   3   4
HETATM    4  C   UNL     1      -9.131   8.512  67.796  1.00  0.00    -0.135 C  
HETATM    5  O   UNL     1      -7.971   8.890  67.730  1.00  0.00    -0.101 OA 
BRANCH   4   6
HETATM    6  C   UNL     1     -10.125   8.988  68.790  1.00  0.00    -0.214 C  
HETATM    7  C   UNL     1     -10.535  10.278  68.792  1.00  0.00    -0.203 C  
HETATM    8  N   UNL     1     -11.475  10.692  69.720  1.00  0.00    -0.277 NA 
HETATM    9  C   UNL     1     -10.098  11.383  67.856  1.00  0.00    -0.198 C  
HETATM   10  C   UNL     1     -11.979   9.918  70.743  1.00  0.00    -0.323 C  
HETATM   11  C   UNL     1     -12.917  10.638  71.685  1.00  0.00    -0.582 C  
HETATM   12  C   UNL     1     -11.629   8.613  70.846  1.00  0.00    -0.307 C  
HETATM   13  C   UNL     1     -10.693   7.972  69.805  1.00  0.00    -0.231 C  
BRANCH  12  14
HETATM   14  C   UNL     1     -12.129   7.833  72.010  1.00  0.00    -0.311 C  
HETATM   15  O   UNL     1     -11.785   8.031  73.167  1.00  0.00    -0.268 OA 
BRANCH  14  16
HETATM   16  O   UNL     1     -13.007   6.864  71.636  1.00  0.00    -0.370 OA 
HETATM   17  C   UNL     1     -14.367   7.306  71.616  1.00  0.00    -0.421 C  
ENDBRANCH  14  16
ENDBRANCH  12  14
BRANCH  13  18
HETATM   18  C   UNL     1      -9.574   7.160  70.470  1.00  0.00    -0.169 A  
HETATM   19  C   UNL     1      -9.490   5.769  70.308  1.00  0.00    -0.196 A  
HETATM   20  C   UNL     1      -8.591   7.816  71.238  1.00  0.00    -0.127 A  
HETATM   21  C   UNL     1      -8.442   5.046  70.883  1.00  0.00    -0.124 A  
HETATM   22  C   UNL     1      -7.528   7.088  71.788  1.00  0.00    -0.087 A  
HETATM   23  N   UNL     1      -6.466   7.791  72.518  1.00  0.00    -0.060 N  
HETATM   24  C   UNL     1      -7.454   5.702  71.617  1.00  0.00    -0.093 A  
HETATM   25  O   UNL     1      -6.546   9.024  72.614  1.00  0.00    -0.305 OA 
HETATM   26  O   UNL     1      -5.538   7.111  72.984  1.00  0.00    -0.041 OA 
ENDBRANCH  13  18
ENDBRANCH   4   6
ENDBRANCH   3   4
ENDBRANCH   2   3
TORSDOF 6
ENDMDL
MODEL       98
REMARK 921   NORMALIZED FREE ENERGY PREDICTED BY IDOCK:   -4.27 KCAL/MOL
REMARK 922        TOTAL FREE ENERGY PREDICTED BY IDOCK:   -6.91 KCAL/MOL
REMARK 923 INTER-LIGAND FREE ENERGY PREDICTED BY IDOCK:   -5.61 KCAL/MOL
REMARK 924 INTRA-LIGAND FREE ENERGY PREDICTED BY IDOCK:   -1.30 KCAL/MOL
REMARK 927      BINDING AFFINITY PREDICTED BY RF-SCORE:    0.00 PKD
ROOT
HETATM    1  C   UNL     1      -6.924  12.376  67.495  1.00  0.00    -0.142 C  
HETATM    2  C   UNL     1      -7.735  11.421  66.639  1.00  0.00    -0.129 C  
ENDROOT
BRANCH   2   3
HETATM    3  O   UNL     1      -9.106  11.825  66.756  1.00  0.00    -0.182 OA 
BRANCH   3   4
HETATM    4  C   UNL     1     -10.023  10.827  66.691  1.00  0.00    -0.206 C  
HETATM    5  O   UNL     1     -10.152  10.044  65.762  1.00  0.00    -0.273 OA 
BRANCH   4   6
HETATM    6  C   UNL     1     -10.788  10.774  67.962  1.00  0.00    -0.302 C  
HETATM    7  C   UNL     1     -11.597  11.796  68.324  1.00  0.00    -0.308 C  
HETATM    8  N   UNL     1     -12.311  11.714  69.507  1.00  0.00    -0.157 NA 
HETATM    9  C   UNL     1     -11.857  13.077  67.562  1.00  0.00    -0.408 C  
HETATM   10  C   UNL     1     -12.199  10.702  70.436  1.00  0.00    -0.345 C  
HETATM   11  C   UNL     1     -13.012  10.899  71.695  1.00  0.00    -0.569 C  
HETATM   12  C   UNL     1     -11.408   9.631  70.184  1.00  0.00    -0.275 C  
HETATM   13  C   UNL     1     -10.652   9.516  68.848  1.00  0.00    -0.239 C  
BRANCH  12  14
HETATM   14  C   UNL     1     -11.251   8.600  71.245  1.00  0.00    -0.276 C  
HETATM   15  O   UNL     1     -10.567   8.747  72.248  1.00  0.00    -0.337 OA 
BRANCH  14  16
HETATM   16  O   UNL     1     -11.947   7.466  70.962  1.00  0.00    -0.304 OA 
HETATM   17  C   UNL     1     -11.369   6.288  71.531  1.00  0.00    -0.296 C  
ENDBRANCH  14  16
ENDBRANCH  12  14
BRANCH  13  18
HETATM   18  C   UNL     1      -9.182   9.134  69.057  1.00  0.00    -0.143 A  
HETATM   19  C   UNL     1      -8.344   9.897  69.885  1.00  0.00    -0.200 A  
HETATM   20  C   UNL     1      -8.659   7.982  68.436  1.00  0.00    -0.127 A  
HETATM   21  C   UNL     1      -7.018   9.515  70.103  1.00  0.00    -0.092 A  
HETATM   22  C   UNL     1      -7.336   7.591  68.681  1.00  0.00    -0.095 A  
HETATM   23  N   UNL     1      -6.825   6.346  68.093  1.00  0.00    -0.068 N  
HETATM   24  C   UNL     1      -6.512   8.358  69.510  1.00  0.00    -0.040 A  
HETATM   25  O   UNL     1      -7.599   5.674  67.397  1.00  0.00    -0.087 OA 
HETATM   26  O   UNL     1      -5.651   6.031  68.341  1.00  0.00    -0.010 OA 
ENDBRANCH  13  18
ENDBRANCH   4   6
ENDBRANCH   3   4
ENDBRANCH   2   3
TORSDOF 6
ENDMDL
MODEL       99
REMARK 921   NORMALIZED FREE ENERGY PREDICTED BY IDOCK:   -4.26 KCAL/MOL
REMARK 922        TOTAL FREE ENERGY PREDICTED BY IDOCK:   -6.90 KCAL/MOL
REMARK 923 INTER-LIGAND FREE ENERGY PREDICTED BY IDOCK:   -5.55 KCAL/MOL
REMARK 924 INTRA-LIGAND FREE ENERGY PREDICTED BY IDOCK:   -1.35 KCAL/MOL
REMARK 927      BINDING AFFINITY PREDICTED BY RF-SCORE:    0.00 PKD
ROOT
HETATM    1  C   UNL     1     -10.768   9.574  67.933  1.00  0.00    -0.285 C  
HETATM    2  C   UNL     1     -10.506   8.521  66.872  1.00  0.00    -0.275 C  
ENDROOT
BRANCH   2   3
HETATM    3  O   UNL     1     -10.409   7.263  67.555  1.00  0.00    -0.197 OA 
BRANCH   3   4
HETATM    4  C   UNL     1      -9.152   6.800  67.765  1.00  0.00    -0.117 C  
HETATM    5  O   UNL     1      -8.126   7.331  67.367  1.00  0.00    -0.110 OA 
BRANCH   4   6
HETATM    6  C   UNL     1      -9.205   5.596  68.632  1.00  0.00    -0.134 C  
HETATM    7  C   UNL     1      -9.480   4.379  68.106  1.00  0.00    -0.152 C  
HETATM    8  N   UNL     1      -9.509   3.271  68.934  1.00  0.00    -0.161 NA 
HETATM    9  C   UNL     1      -9.755   4.045  66.656  1.00  0.00    -0.215 C  
HETATM   10  C   UNL     1      -9.380   3.298  70.306  1.00  0.00    -0.172 C  
HETATM   11  C   UNL     1      -9.552   1.960  70.990  1.00  0.00    -0.197 C  
HETATM   12  C   UNL     1      -9.114   4.464  70.942  1.00  0.00    -0.186 C  
HETATM   13  C   UNL     1      -8.921   5.764  70.140  1.00  0.00    -0.148 C  
BRANCH  12  14
HETATM   14  C   UNL     1      -9.063   4.467  72.429  1.00  0.00    -0.120 C  
HETATM   15  O   UNL     1      -8.040   4.627  73.080  1.00  0.00    -0.098 OA 
BRANCH  14  16
HETATM   16  O   UNL     1     -10.288   4.257  72.982  1.00  0.00    -0.158 OA 
HETATM   17  C   UNL     1     -10.512   5.019  74.172  1.00  0.00    -0.288 C  
ENDBRANCH  14  16
ENDBRANCH  12  14
BRANCH  13  18
HETATM   18  C   UNL     1      -9.727   6.925  70.736  1.00  0.00    -0.176 A  
HETATM   19  C   UNL     1      -9.105   8.129  71.104  1.00  0.00    -0.183 A  
HETATM   20  C   UNL     1     -11.122   6.804  70.896  1.00  0.00    -0.322 A  
HETATM   21  C   UNL     1      -9.856   9.194  71.605  1.00  0.00    -0.295 A  
HETATM   22  C   UNL     1     -11.871   7.886  71.373  1.00  0.00    -0.299 A  
HETATM   23  N   UNL     1     -13.333   7.778  71.460  1.00  0.00    -0.340 N  
HETATM   24  C   UNL     1     -11.240   9.081  71.734  1.00  0.00    -0.448 A  
HETATM   25  O   UNL     1     -13.858   6.717  71.093  1.00  0.00    -0.070 OA 
HETATM   26  O   UNL     1     -13.961   8.762  71.881  1.00  0.00    -0.403 OA 
ENDBRANCH  13  18
ENDBRANCH   4   6
ENDBRANCH   3   4
ENDBRANCH   2   3
TORSDOF 6
ENDMDL
MODEL      100
REMARK 921   NORMALIZED FREE ENERGY PREDICTED BY IDOCK:   -4.25 KCAL/MOL
REMARK 922        TOTAL FREE ENERGY PREDICTED BY IDOCK:   -6.89 KCAL/MOL
REMARK 923 INTER-LIGAND FREE ENERGY PREDICTED BY IDOCK:   -5.70 KCAL/MOL
REMARK 924 INTRA-LIGAND FREE ENERGY PREDICTED BY IDOCK:   -1.19 KCAL/MOL
REMARK 927      BINDING AFFINITY PREDICTED BY RF-SCORE:    0.00 PKD
ROOT
HETATM    1  C   UNL     1     -12.729  13.501  71.257  1.00  0.00    -0.432 C  
HETATM    2  C   UNL     1     -12.208  12.280  70.521  1.00  0.00    -0.300 C  
ENDROOT
BRANCH   2   3
HETATM    3  O   UNL     1     -11.544  12.761  69.344  1.00  0.00    -0.282 OA 
BRANCH   3   4
HETATM    4  C   UNL     1     -11.184  11.815  68.441  1.00  0.00    -0.251 C  
HETATM    5  O   UNL     1     -11.940  11.260  67.657  1.00  0.00    -0.634 OA 
BRANCH   4   6
HETATM    6  C   UNL     1      -9.713  11.619  68.487  1.00  0.00    -0.187 C  
HETATM    7  C   UNL     1      -8.904  12.263  67.615  1.00  0.00    -0.175 C  
HETATM    8  N   UNL     1      -7.535  12.075  67.690  1.00  0.00    -0.121 NA 
HETATM    9  C   UNL     1      -9.312  13.229  66.523  1.00  0.00    -0.221 C  
HETATM   10  C   UNL     1      -6.898  11.187  68.529  1.00  0.00    -0.065 C  
HETATM   11  C   UNL     1      -5.400  11.096  68.344  1.00  0.00    -0.043 C  
HETATM   12  C   UNL     1      -7.610  10.479  69.439  1.00  0.00    -0.145 C  
HETATM   13  C   UNL     1      -9.131  10.680  69.566  1.00  0.00     0.016 C  
BRANCH  12  14
HETATM   14  C   UNL     1      -6.898   9.473  70.271  1.00  0.00    -0.092 C  
HETATM   15  O   UNL     1      -6.660   9.612  71.462  1.00  0.00    -0.306 OA 
BRANCH  14  16
HETATM   16  O   UNL     1      -6.530   8.381  69.548  1.00  0.00    -0.039 OA 
HETATM   17  C   UNL     1      -6.846   7.142  70.189  1.00  0.00    -0.060 C  
ENDBRANCH  14  16
ENDBRANCH  12  14
BRANCH  13  18
HETATM   18  C   UNL     1      -9.880   9.342  69.608  1.00  0.00    -0.205 A  
HETATM   19  C   UNL     1      -9.798   8.430  68.544  1.00  0.00    -0.186 A  
HETATM   20  C   UNL     1     -10.643   8.999  70.742  1.00  0.00    -0.300 A  
HETATM   21  C   UNL     1     -10.449   7.197  68.612  1.00  0.00    -0.218 A  
HETATM   22  C   UNL     1     -11.271   7.748  70.813  1.00  0.00    -0.271 A  
HETATM   23  N   UNL     1     -11.996   7.367  72.031  1.00  0.00    -0.294 N  
HETATM   24  C   UNL     1     -11.180   6.847  69.747  1.00  0.00    -0.315 A  
HETATM   25  O   UNL     1     -12.020   8.176  72.969  1.00  0.00    -0.269 OA 
HETATM   26  O   UNL     1     -12.531   6.248  72.058  1.00  0.00    -0.306 OA 
ENDBRANCH  13  18
ENDBRANCH   4   6
ENDBRANCH   3   4
ENDBRANCH   2   3
TORSDOF 6
ENDMDL
MODEL      101
REMARK 921   NORMALIZED FREE ENERGY PREDICTED BY IDOCK:   -4.22 KCAL/MOL
REMARK 922        TOTAL FREE ENERGY PREDICTED BY IDOCK:   -6.85 KCAL/MOL
REMARK 923 INTER-LIGAND FREE ENERGY PREDICTED BY IDOCK:   -5.90 KCAL/MOL
REMARK 924 INTRA-LIGAND FREE ENERGY PREDICTED BY IDOCK:   -0.95 KCAL/MOL
REMARK 927      BINDING AFFINITY PREDICTED BY RF-SCORE:    0.00 PKD
ROOT
HETATM    1  C   UNL     1      -7.994  16.336  66.532  1.00  0.00    -0.326 C  
HETATM    2  C   UNL     1      -9.325  15.811  66.026  1.00  0.00    -0.349 C  
ENDROOT
BRANCH   2   3
HETATM    3  O   UNL     1      -9.248  14.379  66.072  1.00  0.00    -0.190 OA 
BRANCH   3   4
HETATM    4  C   UNL     1     -10.385  13.716  65.745  1.00  0.00    -0.298 C  
HETATM    5  O   UNL     1     -10.985  13.819  64.686  1.00  0.00    -0.367 OA 
BRANCH   4   6
HETATM    6  C   UNL     1     -10.742  12.775  66.837  1.00  0.00    -0.272 C  
HETATM    7  C   UNL     1     -11.338  13.223  67.966  1.00  0.00    -0.291 C  
HETATM    8  N   UNL     1     -11.673  12.322  68.962  1.00  0.00    -0.309 NA 
HETATM    9  C   UNL     1     -11.728  14.647  68.297  1.00  0.00    -0.359 C  
HETATM   10  C   UNL     1     -11.358  10.981  68.962  1.00  0.00    -0.277 C  
HETATM   11  C   UNL     1     -11.747  10.233  70.217  1.00  0.00    -0.388 C  
HETATM   12  C   UNL     1     -10.749  10.424  67.886  1.00  0.00    -0.307 C  
HETATM   13  C   UNL     1     -10.432  11.275  66.642  1.00  0.00    -0.292 C  
BRANCH  12  14
HETATM   14  C   UNL     1     -10.353   8.993  67.957  1.00  0.00    -0.224 C  
HETATM   15  O   UNL     1     -10.981   8.080  67.438  1.00  0.00    -0.151 OA 
BRANCH  14  16
HETATM   16  O   UNL     1      -9.213   8.813  68.678  1.00  0.00    -0.141 OA 
HETATM   17  C   UNL     1      -9.107   7.510  69.258  1.00  0.00    -0.138 C  
ENDBRANCH  14  16
ENDBRANCH  12  14
BRANCH  13  18
HETATM   18  C   UNL     1      -8.994  11.057  66.157  1.00  0.00    -0.203 A  
HETATM   19  C   UNL     1      -7.897  11.508  66.908  1.00  0.00    -0.163 A  
HETATM   20  C   UNL     1      -8.756  10.368  64.950  1.00  0.00    -0.197 A  
HETATM   21  C   UNL     1      -6.591  11.265  66.476  1.00  0.00    -0.108 A  
HETATM   22  C   UNL     1      -7.443  10.105  64.539  1.00  0.00    -0.127 A  
HETATM   23  N   UNL     1      -7.206   9.317  63.323  1.00  0.00    -0.092 N  
HETATM   24  C   UNL     1      -6.358  10.558  65.297  1.00  0.00    -0.080 A  
HETATM   25  O   UNL     1      -8.193   8.901  62.701  1.00  0.00    -0.167 OA 
HETATM   26  O   UNL     1      -6.028   9.100  62.997  1.00  0.00    -0.088 OA 
ENDBRANCH  13  18
ENDBRANCH   4   6
ENDBRANCH   3   4
ENDBRANCH   2   3
TORSDOF 6
ENDMDL
MODEL      102
REMARK 921   NORMALIZED FREE ENERGY PREDICTED BY IDOCK:   -4.19 KCAL/MOL
REMARK 922        TOTAL FREE ENERGY PREDICTED BY IDOCK:   -6.81 KCAL/MOL
REMARK 923 INTER-LIGAND FREE ENERGY PREDICTED BY IDOCK:   -5.46 KCAL/MOL
REMARK 924 INTRA-LIGAND FREE ENERGY PREDICTED BY IDOCK:   -1.35 KCAL/MOL
REMARK 927      BINDING AFFINITY PREDICTED BY RF-SCORE:    0.00 PKD
ROOT
HETATM    1  C   UNL     1      -8.064   7.995  73.465  1.00  0.00    -0.255 C  
HETATM    2  C   UNL     1      -9.571   7.893  73.318  1.00  0.00    -0.285 C  
ENDROOT
BRANCH   2   3
HETATM    3  O   UNL     1      -9.866   6.516  73.045  1.00  0.00    -0.160 OA 
BRANCH   3   4
HETATM    4  C   UNL     1     -10.917   6.290  72.218  1.00  0.00    -0.259 C  
HETATM    5  O   UNL     1     -12.042   6.745  72.362  1.00  0.00    -0.206 OA 
BRANCH   4   6
HETATM    6  C   UNL     1     -10.469   5.478  71.059  1.00  0.00    -0.314 C  
HETATM    7  C   UNL     1     -10.005   4.220  71.236  1.00  0.00    -0.160 C  
HETATM    8  N   UNL     1      -9.608   3.479  70.137  1.00  0.00    -0.179 NA 
HETATM    9  C   UNL     1      -9.872   3.464  72.541  1.00  0.00    -0.218 C  
HETATM   10  C   UNL     1      -9.541   3.948  68.842  1.00  0.00    -0.130 C  
HETATM   11  C   UNL     1      -8.976   2.970  67.837  1.00  0.00    -0.191 C  
HETATM   12  C   UNL     1      -9.971   5.199  68.548  1.00  0.00    -0.221 C  
HETATM   13  C   UNL     1     -10.566   6.098  69.648  1.00  0.00    -0.347 C  
BRANCH  12  14
HETATM   14  C   UNL     1      -9.808   5.697  67.156  1.00  0.00    -0.149 C  
HETATM   15  O   UNL     1     -10.712   5.741  66.333  1.00  0.00    -0.237 OA 
BRANCH  14  16
HETATM   16  O   UNL     1      -8.531   6.086  66.899  1.00  0.00    -0.109 OA 
HETATM   17  C   UNL     1      -8.447   7.310  66.163  1.00  0.00    -0.142 C  
ENDBRANCH  14  16
ENDBRANCH  12  14
BRANCH  13  18
HETATM   18  C   UNL     1      -9.967   7.509  69.613  1.00  0.00    -0.184 A  
HETATM   19  C   UNL     1      -8.604   7.727  69.867  1.00  0.00    -0.137 A  
HETATM   20  C   UNL     1     -10.784   8.613  69.295  1.00  0.00    -0.151 A  
HETATM   21  C   UNL     1      -8.061   9.011  69.790  1.00  0.00    -0.109 A  
HETATM   22  C   UNL     1     -10.227   9.894  69.193  1.00  0.00    -0.205 A  
HETATM   23  N   UNL     1     -11.069  11.023  68.782  1.00  0.00    -0.217 N  
HETATM   24  C   UNL     1      -8.866  10.097  69.445  1.00  0.00    -0.197 A  
HETATM   25  O   UNL     1     -12.261  10.795  68.528  1.00  0.00    -0.470 OA 
HETATM   26  O   UNL     1     -10.536  12.140  68.696  1.00  0.00    -0.228 OA 
ENDBRANCH  13  18
ENDBRANCH   4   6
ENDBRANCH   3   4
ENDBRANCH   2   3
TORSDOF 6
ENDMDL
MODEL      103
REMARK 921   NORMALIZED FREE ENERGY PREDICTED BY IDOCK:   -4.18 KCAL/MOL
REMARK 922        TOTAL FREE ENERGY PREDICTED BY IDOCK:   -6.80 KCAL/MOL
REMARK 923 INTER-LIGAND FREE ENERGY PREDICTED BY IDOCK:   -5.62 KCAL/MOL
REMARK 924 INTRA-LIGAND FREE ENERGY PREDICTED BY IDOCK:   -1.18 KCAL/MOL
REMARK 927      BINDING AFFINITY PREDICTED BY RF-SCORE:    0.00 PKD
ROOT
HETATM    1  C   UNL     1      -9.341  10.096  62.935  1.00  0.00    -0.320 C  
HETATM    2  C   UNL     1      -8.694  10.192  64.304  1.00  0.00    -0.205 C  
ENDROOT
BRANCH   2   3
HETATM    3  O   UNL     1      -9.116   9.036  65.041  1.00  0.00    -0.197 OA 
BRANCH   3   4
HETATM    4  C   UNL     1      -8.284   8.633  66.034  1.00  0.00    -0.127 C  
HETATM    5  O   UNL     1      -7.068   8.753  66.031  1.00  0.00    -0.081 OA 
BRANCH   4   6
HETATM    6  C   UNL     1      -9.085   8.106  67.167  1.00  0.00    -0.163 C  
HETATM    7  C   UNL     1      -9.568   6.842  67.142  1.00  0.00    -0.147 C  
HETATM    8  N   UNL     1     -10.299   6.370  68.218  1.00  0.00    -0.171 NA 
HETATM    9  C   UNL     1      -9.392   5.813  66.047  1.00  0.00    -0.134 C  
HETATM   10  C   UNL     1     -10.683   7.120  69.309  1.00  0.00    -0.215 C  
HETATM   11  C   UNL     1     -11.566   6.397  70.301  1.00  0.00    -0.451 C  
HETATM   12  C   UNL     1     -10.266   8.403  69.436  1.00  0.00    -0.208 C  
HETATM   13  C   UNL     1      -9.334   9.028  68.381  1.00  0.00    -0.143 C  
BRANCH  12  14
HETATM   14  C   UNL     1     -10.768   9.203  70.585  1.00  0.00    -0.254 C  
HETATM   15  O   UNL     1     -10.148   9.372  71.626  1.00  0.00    -0.256 OA 
BRANCH  14  16
HETATM   16  O   UNL     1     -12.005   9.716  70.349  1.00  0.00    -0.216 OA 
HETATM   17  C   UNL     1     -12.172  11.047  70.844  1.00  0.00    -0.367 C  
ENDBRANCH  14  16
ENDBRANCH  12  14
BRANCH  13  18
HETATM   18  C   UNL     1      -9.823  10.413  67.941  1.00  0.00    -0.176 A  
HETATM   19  C   UNL     1     -11.070  10.581  67.320  1.00  0.00    -0.284 A  
HETATM   20  C   UNL     1      -9.026  11.550  68.186  1.00  0.00    -0.172 A  
HETATM   21  C   UNL     1     -11.523  11.853  66.964  1.00  0.00    -0.384 A  
HETATM   22  C   UNL     1      -9.499  12.825  67.850  1.00  0.00    -0.208 A  
HETATM   23  N   UNL     1      -8.698  14.009  68.181  1.00  0.00    -0.173 N  
HETATM   24  C   UNL     1     -10.745  12.979  67.233  1.00  0.00    -0.261 A  
HETATM   25  O   UNL     1      -7.618  13.834  68.763  1.00  0.00    -0.132 OA 
HETATM   26  O   UNL     1      -9.156  15.121  67.874  1.00  0.00    -0.176 OA 
ENDBRANCH  13  18
ENDBRANCH   4   6
ENDBRANCH   3   4
ENDBRANCH   2   3
TORSDOF 6
ENDMDL
MODEL      104
REMARK 921   NORMALIZED FREE ENERGY PREDICTED BY IDOCK:   -4.12 KCAL/MOL
REMARK 922        TOTAL FREE ENERGY PREDICTED BY IDOCK:   -6.71 KCAL/MOL
REMARK 923 INTER-LIGAND FREE ENERGY PREDICTED BY IDOCK:   -6.02 KCAL/MOL
REMARK 924 INTRA-LIGAND FREE ENERGY PREDICTED BY IDOCK:   -0.69 KCAL/MOL
REMARK 927      BINDING AFFINITY PREDICTED BY RF-SCORE:    0.00 PKD
ROOT
HETATM    1  C   UNL     1     -12.965  13.922  65.647  1.00  0.00    -0.361 C  
HETATM    2  C   UNL     1     -12.748  12.634  64.874  1.00  0.00    -0.370 C  
ENDROOT
BRANCH   2   3
HETATM    3  O   UNL     1     -11.609  11.989  65.461  1.00  0.00    -0.350 OA 
BRANCH   3   4
HETATM    4  C   UNL     1     -10.400  12.495  65.113  1.00  0.00    -0.289 C  
HETATM    5  O   UNL     1     -10.219  13.503  64.446  1.00  0.00    -0.399 OA 
BRANCH   4   6
HETATM    6  C   UNL     1      -9.325  11.688  65.743  1.00  0.00    -0.220 C  
HETATM    7  C   UNL     1      -8.853  10.574  65.136  1.00  0.00    -0.190 C  
HETATM    8  N   UNL     1      -7.840   9.848  65.738  1.00  0.00    -0.117 NA 
HETATM    9  C   UNL     1      -9.290   9.995  63.809  1.00  0.00    -0.307 C  
HETATM   10  C   UNL     1      -7.315  10.099  66.988  1.00  0.00    -0.091 C  
HETATM   11  C   UNL     1      -6.287   9.095  67.461  1.00  0.00    -0.063 C  
HETATM   12  C   UNL     1      -7.721  11.182  67.693  1.00  0.00    -0.113 C  
HETATM   13  C   UNL     1      -8.749  12.161  67.095  1.00  0.00    -0.190 C  
BRANCH  12  14
HETATM   14  C   UNL     1      -7.191  11.374  69.069  1.00  0.00    -0.118 C  
HETATM   15  O   UNL     1      -7.329  10.564  69.976  1.00  0.00    -0.154 OA 
BRANCH  14  16
HETATM   16  O   UNL     1      -6.544  12.562  69.207  1.00  0.00    -0.102 OA 
HETATM   17  C   UNL     1      -5.330  12.464  69.956  1.00  0.00    -0.103 C  
ENDBRANCH  14  16
ENDBRANCH  12  14
BRANCH  13  18
HETATM   18  C   UNL     1      -9.864  12.495  68.094  1.00  0.00    -0.221 A  
HETATM   19  C   UNL     1     -10.296  13.816  68.287  1.00  0.00    -0.247 A  
HETATM   20  C   UNL     1     -10.493  11.460  68.816  1.00  0.00    -0.228 A  
HETATM   21  C   UNL     1     -11.342  14.102  69.167  1.00  0.00    -0.318 A  
HETATM   22  C   UNL     1     -11.560  11.752  69.676  1.00  0.00    -0.323 A  
HETATM   23  N   UNL     1     -12.261  10.660  70.362  1.00  0.00    -0.318 N  
HETATM   24  C   UNL     1     -11.982  13.073  69.858  1.00  0.00    -0.381 A  
HETATM   25  O   UNL     1     -11.882   9.501  70.144  1.00  0.00    -0.142 OA 
HETATM   26  O   UNL     1     -13.205  10.960  71.109  1.00  0.00    -0.302 OA 
ENDBRANCH  13  18
ENDBRANCH   4   6
ENDBRANCH   3   4
ENDBRANCH   2   3
TORSDOF 6
ENDMDL
MODEL      105
REMARK 921   NORMALIZED FREE ENERGY PREDICTED BY IDOCK:   -4.10 KCAL/MOL
REMARK 922        TOTAL FREE ENERGY PREDICTED BY IDOCK:   -6.69 KCAL/MOL
REMARK 923 INTER-LIGAND FREE ENERGY PREDICTED BY IDOCK:   -5.65 KCAL/MOL
REMARK 924 INTRA-LIGAND FREE ENERGY PREDICTED BY IDOCK:   -1.04 KCAL/MOL
REMARK 927      BINDING AFFINITY PREDICTED BY RF-SCORE:    0.00 PKD
ROOT
HETATM    1  C   UNL     1     -10.371  14.989  66.955  1.00  0.00    -0.269 C  
HETATM    2  C   UNL     1      -9.846  13.629  66.536  1.00  0.00    -0.293 C  
ENDROOT
BRANCH   2   3
HETATM    3  O   UNL     1     -10.256  12.699  67.548  1.00  0.00    -0.211 OA 
BRANCH   3   4
HETATM    4  C   UNL     1     -11.260  11.855  67.202  1.00  0.00    -0.319 C  
HETATM    5  O   UNL     1     -12.135  12.093  66.384  1.00  0.00    -0.630 OA 
BRANCH   4   6
HETATM    6  C   UNL     1     -11.082  10.559  67.904  1.00  0.00    -0.367 C  
HETATM    7  C   UNL     1     -11.266  10.467  69.241  1.00  0.00    -0.262 C  
HETATM    8  N   UNL     1     -11.108   9.244  69.869  1.00  0.00    -0.217 NA 
HETATM    9  C   UNL     1     -11.662  11.575  70.193  1.00  0.00    -0.395 C  
HETATM   10  C   UNL     1     -10.668   8.088  69.260  1.00  0.00    -0.129 C  
HETATM   11  C   UNL     1     -10.481   6.909  70.189  1.00  0.00    -0.233 C  
HETATM   12  C   UNL     1     -10.441   8.065  67.925  1.00  0.00    -0.259 C  
HETATM   13  C   UNL     1     -10.701   9.318  67.067  1.00  0.00    -0.199 C  
BRANCH  12  14
HETATM   14  C   UNL     1      -9.889   6.824  67.319  1.00  0.00    -0.145 C  
HETATM   15  O   UNL     1     -10.527   6.071  66.597  1.00  0.00    -0.232 OA 
BRANCH  14  16
HETATM   16  O   UNL     1      -8.592   6.615  67.673  1.00  0.00    -0.120 OA 
HETATM   17  C   UNL     1      -7.767   6.193  66.584  1.00  0.00    -0.103 C  
ENDBRANCH  14  16
ENDBRANCH  12  14
BRANCH  13  18
HETATM   18  C   UNL     1      -9.528   9.615  66.125  1.00  0.00    -0.274 A  
HETATM   19  C   UNL     1      -9.644   9.430  64.739  1.00  0.00     0.024 A  
HETATM   20  C   UNL     1      -8.316  10.111  66.646  1.00  0.00    -0.123 A  
HETATM   21  C   UNL     1      -8.584   9.746  63.887  1.00  0.00    -0.208 A  
HETATM   22  C   UNL     1      -7.267  10.451  65.782  1.00  0.00    -0.143 A  
HETATM   23  N   UNL     1      -6.039  11.043  66.327  1.00  0.00    -0.137 N  
HETATM   24  C   UNL     1      -7.396  10.264  64.402  1.00  0.00    -0.075 A  
HETATM   25  O   UNL     1      -5.978  11.229  67.550  1.00  0.00    -0.048 OA 
HETATM   26  O   UNL     1      -5.136  11.337  65.527  1.00  0.00    -0.281 OA 
ENDBRANCH  13  18
ENDBRANCH   4   6
ENDBRANCH   3   4
ENDBRANCH   2   3
TORSDOF 6
ENDMDL
MODEL      106
REMARK 921   NORMALIZED FREE ENERGY PREDICTED BY IDOCK:   -4.08 KCAL/MOL
REMARK 922        TOTAL FREE ENERGY PREDICTED BY IDOCK:   -6.65 KCAL/MOL
REMARK 923 INTER-LIGAND FREE ENERGY PREDICTED BY IDOCK:   -6.23 KCAL/MOL
REMARK 924 INTRA-LIGAND FREE ENERGY PREDICTED BY IDOCK:   -0.43 KCAL/MOL
REMARK 927      BINDING AFFINITY PREDICTED BY RF-SCORE:    0.00 PKD
ROOT
HETATM    1  C   UNL     1      -7.783  15.906  66.964  1.00  0.00    -0.268 C  
HETATM    2  C   UNL     1      -8.714  14.767  66.592  1.00  0.00    -0.194 C  
ENDROOT
BRANCH   2   3
HETATM    3  O   UNL     1      -8.157  13.575  67.164  1.00  0.00    -0.163 OA 
BRANCH   3   4
HETATM    4  C   UNL     1      -8.979  12.874  67.984  1.00  0.00    -0.196 C  
HETATM    5  O   UNL     1      -9.941  13.331  68.582  1.00  0.00    -0.210 OA 
BRANCH   4   6
HETATM    6  C   UNL     1      -8.587  11.442  67.971  1.00  0.00    -0.147 C  
HETATM    7  C   UNL     1      -7.478  11.024  68.623  1.00  0.00    -0.112 C  
HETATM    8  N   UNL     1      -7.144   9.681  68.608  1.00  0.00    -0.071 NA 
HETATM    9  C   UNL     1      -6.513  11.867  69.427  1.00  0.00    -0.119 C  
HETATM   10  C   UNL     1      -7.796   8.707  67.884  1.00  0.00    -0.103 C  
HETATM   11  C   UNL     1      -7.170   7.332  67.956  1.00  0.00    -0.091 C  
HETATM   12  C   UNL     1      -8.915   9.013  67.183  1.00  0.00    -0.144 C  
HETATM   13  C   UNL     1      -9.487  10.442  67.212  1.00  0.00    -0.176 C  
BRANCH  12  14
HETATM   14  C   UNL     1      -9.543   7.952  66.351  1.00  0.00    -0.181 C  
HETATM   15  O   UNL     1      -8.993   7.406  65.405  1.00  0.00     0.014 OA 
BRANCH  14  16
HETATM   16  O   UNL     1     -10.810   7.669  66.756  1.00  0.00    -0.274 OA 
HETATM   17  C   UNL     1     -10.896   6.502  67.580  1.00  0.00    -0.352 C  
ENDBRANCH  14  16
ENDBRANCH  12  14
BRANCH  13  18
HETATM   18  C   UNL     1      -9.824  10.948  65.804  1.00  0.00    -0.286 A  
HETATM   19  C   UNL     1      -9.056  10.567  64.692  1.00  0.00    -0.248 A  
HETATM   20  C   UNL     1     -10.939  11.787  65.606  1.00  0.00    -0.348 A  
HETATM   21  C   UNL     1      -9.399  10.999  63.409  1.00  0.00    -0.296 A  
HETATM   22  C   UNL     1     -11.292  12.193  64.313  1.00  0.00    -0.360 A  
HETATM   23  N   UNL     1     -12.500  13.001  64.108  1.00  0.00    -0.330 N  
HETATM   24  C   UNL     1     -10.520  11.806  63.213  1.00  0.00    -0.439 A  
HETATM   25  O   UNL     1     -13.179  13.290  65.103  1.00  0.00    -0.658 OA 
HETATM   26  O   UNL     1     -12.782  13.334  62.946  1.00  0.00    -0.473 OA 
ENDBRANCH  13  18
ENDBRANCH   4   6
ENDBRANCH   3   4
ENDBRANCH   2   3
TORSDOF 6
ENDMDL
MODEL      107
REMARK 921   NORMALIZED FREE ENERGY PREDICTED BY IDOCK:   -4.07 KCAL/MOL
REMARK 922        TOTAL FREE ENERGY PREDICTED BY IDOCK:   -6.65 KCAL/MOL
REMARK 923 INTER-LIGAND FREE ENERGY PREDICTED BY IDOCK:   -7.42 KCAL/MOL
REMARK 924 INTRA-LIGAND FREE ENERGY PREDICTED BY IDOCK:    0.77 KCAL/MOL
REMARK 927      BINDING AFFINITY PREDICTED BY RF-SCORE:    0.00 PKD
ROOT
HETATM    1  C   UNL     1      -8.870  16.389  68.000  1.00  0.00    -0.184 C  
HETATM    2  C   UNL     1     -10.124  15.674  68.467  1.00  0.00    -0.211 C  
ENDROOT
BRANCH   2   3
HETATM    3  O   UNL     1     -10.437  14.695  67.467  1.00  0.00    -0.244 OA 
BRANCH   3   4
HETATM    4  C   UNL     1     -11.579  13.990  67.668  1.00  0.00    -0.354 C  
HETATM    5  O   UNL     1     -12.703  14.464  67.728  1.00  0.00     0.281 OA 
BRANCH   4   6
HETATM    6  C   UNL     1     -11.264  12.540  67.714  1.00  0.00    -0.318 C  
HETATM    7  C   UNL     1     -11.326  11.785  66.593  1.00  0.00    -0.316 C  
HETATM    8  N   UNL     1     -11.013  10.438  66.660  1.00  0.00    -0.074 NA 
HETATM    9  C   UNL     1     -11.692  12.240  65.197  1.00  0.00    -0.414 C  
HETATM   10  C   UNL     1     -10.731   9.743  67.817  1.00  0.00    -0.272 C  
HETATM   11  C   UNL     1     -10.523   8.257  67.633  1.00  0.00    -0.303 C  
HETATM   12  C   UNL     1     -10.652  10.396  69.001  1.00  0.00    -0.247 C  
HETATM   13  C   UNL     1     -10.846  11.922  69.066  1.00  0.00    -0.235 C  
BRANCH  12  14
HETATM   14  C   UNL     1     -10.426   9.599  70.237  1.00  0.00    -0.283 C  
HETATM   15  O   UNL     1      -9.388   9.614  70.883  1.00  0.00    -0.169 OA 
BRANCH  14  16
HETATM   16  O   UNL     1     -11.508   8.840  70.560  1.00  0.00    -0.262 OA 
HETATM   17  C   UNL     1     -11.321   8.060  71.744  1.00  0.00    -0.270 C  
ENDBRANCH  14  16
ENDBRANCH  12  14
BRANCH  13  18
HETATM   18  C   UNL     1     -11.809  12.326  70.189  1.00  0.00    -0.352 A  
HETATM   19  C   UNL     1     -12.658  11.385  70.792  1.00  0.00    -0.409 A  
HETATM   20  C   UNL     1     -11.831  13.657  70.651  1.00  0.00    -0.232 A  
HETATM   21  C   UNL     1     -13.500  11.756  71.843  1.00  0.00    -0.278 A  
HETATM   22  C   UNL     1     -12.658  14.015  71.724  1.00  0.00    -0.287 A  
HETATM   23  N   UNL     1     -12.614  15.384  72.252  1.00  0.00    -0.343 N  
HETATM   24  C   UNL     1     -13.498  13.067  72.318  1.00  0.00    -0.645 A  
HETATM   25  O   UNL     1     -11.828  16.183  71.725  1.00  0.00    -0.472 OA 
HETATM   26  O   UNL     1     -13.357  15.658  73.207  1.00  0.00    -0.522 OA 
ENDBRANCH  13  18
ENDBRANCH   4   6
ENDBRANCH   3   4
ENDBRANCH   2   3
TORSDOF 6
ENDMDL
MODEL      108
REMARK 921   NORMALIZED FREE ENERGY PREDICTED BY IDOCK:   -4.07 KCAL/MOL
REMARK 922        TOTAL FREE ENERGY PREDICTED BY IDOCK:   -6.64 KCAL/MOL
REMARK 923 INTER-LIGAND FREE ENERGY PREDICTED BY IDOCK:   -5.95 KCAL/MOL
REMARK 924 INTRA-LIGAND FREE ENERGY PREDICTED BY IDOCK:   -0.69 KCAL/MOL
REMARK 927      BINDING AFFINITY PREDICTED BY RF-SCORE:    0.00 PKD
ROOT
HETATM    1  C   UNL     1      -9.238  13.174  68.593  1.00  0.00     0.026 C  
HETATM    2  C   UNL     1      -9.414  13.194  67.086  1.00  0.00    -0.239 C  
ENDROOT
BRANCH   2   3
HETATM    3  O   UNL     1     -10.802  12.942  66.829  1.00  0.00    -0.262 OA 
BRANCH   3   4
HETATM    4  C   UNL     1     -11.165  11.636  66.777  1.00  0.00    -0.308 C  
HETATM    5  O   UNL     1     -12.030  11.113  67.464  1.00  0.00    -0.580 OA 
BRANCH   4   6
HETATM    6  C   UNL     1     -10.415  10.957  65.691  1.00  0.00    -0.274 C  
HETATM    7  C   UNL     1     -10.728  11.178  64.393  1.00  0.00    -0.318 C  
HETATM    8  N   UNL     1     -10.003  10.543  63.400  1.00  0.00    -0.266 NA 
HETATM    9  C   UNL     1     -11.809  12.087  63.850  1.00  0.00    -0.543 C  
HETATM   10  C   UNL     1      -9.023   9.597  63.611  1.00  0.00    -0.216 C  
HETATM   11  C   UNL     1      -8.453   8.978  62.354  1.00  0.00    -0.213 C  
HETATM   12  C   UNL     1      -8.634   9.288  64.871  1.00  0.00    -0.204 C  
HETATM   13  C   UNL     1      -9.258  10.011  66.080  1.00  0.00    -0.204 C  
BRANCH  12  14
HETATM   14  C   UNL     1      -7.632   8.205  65.060  1.00  0.00    -0.096 C  
HETATM   15  O   UNL     1      -6.485   8.390  65.441  1.00  0.00    -0.054 OA 
BRANCH  14  16
HETATM   16  O   UNL     1      -8.137   6.982  64.747  1.00  0.00    -0.128 OA 
HETATM   17  C   UNL     1      -7.396   5.898  65.314  1.00  0.00    -0.076 C  
ENDBRANCH  14  16
ENDBRANCH  12  14
BRANCH  13  18
HETATM   18  C   UNL     1      -9.684   9.024  67.174  1.00  0.00    -0.237 A  
HETATM   19  C   UNL     1     -10.459   7.894  66.871  1.00  0.00    -0.388 A  
HETATM   20  C   UNL     1      -9.272   9.230  68.506  1.00  0.00    -0.135 A  
HETATM   21  C   UNL     1     -10.805   6.979  67.869  1.00  0.00    -0.252 A  
HETATM   22  C   UNL     1      -9.600   8.294  69.495  1.00  0.00    -0.171 A  
HETATM   23  N   UNL     1      -9.098   8.476  70.863  1.00  0.00    -0.158 N  
HETATM   24  C   UNL     1     -10.371   7.171  69.181  1.00  0.00    -0.205 A  
HETATM   25  O   UNL     1      -8.385   9.463  71.092  1.00  0.00    -0.310 OA 
HETATM   26  O   UNL     1      -9.405   7.621  71.708  1.00  0.00    -0.142 OA 
ENDBRANCH  13  18
ENDBRANCH   4   6
ENDBRANCH   3   4
ENDBRANCH   2   3
TORSDOF 6
ENDMDL
MODEL      109
REMARK 921   NORMALIZED FREE ENERGY PREDICTED BY IDOCK:   -4.06 KCAL/MOL
REMARK 922        TOTAL FREE ENERGY PREDICTED BY IDOCK:   -6.63 KCAL/MOL
REMARK 923 INTER-LIGAND FREE ENERGY PREDICTED BY IDOCK:   -6.06 KCAL/MOL
REMARK 924 INTRA-LIGAND FREE ENERGY PREDICTED BY IDOCK:   -0.57 KCAL/MOL
REMARK 927      BINDING AFFINITY PREDICTED BY RF-SCORE:    0.00 PKD
ROOT
HETATM    1  C   UNL     1     -12.049  14.392  70.971  1.00  0.00    -0.417 C  
HETATM    2  C   UNL     1     -11.758  13.373  69.885  1.00  0.00    -0.267 C  
ENDROOT
BRANCH   2   3
HETATM    3  O   UNL     1     -11.964  12.078  70.468  1.00  0.00    -0.351 OA 
BRANCH   3   4
HETATM    4  C   UNL     1     -12.102  11.051  69.592  1.00  0.00    -0.340 C  
HETATM    5  O   UNL     1     -12.297  11.166  68.392  1.00  0.00    -0.556 OA 
BRANCH   4   6
HETATM    6  C   UNL     1     -11.887   9.764  70.301  1.00  0.00    -0.208 C  
HETATM    7  C   UNL     1     -12.445   9.543  71.513  1.00  0.00    -0.376 C  
HETATM    8  N   UNL     1     -12.241   8.328  72.145  1.00  0.00    -0.344 NA 
HETATM    9  C   UNL     1     -13.326  10.484  72.306  1.00  0.00    -0.211 C  
HETATM   10  C   UNL     1     -11.414   7.324  71.691  1.00  0.00    -0.265 C  
HETATM   11  C   UNL     1     -11.284   6.137  72.619  1.00  0.00    -0.312 C  
HETATM   12  C   UNL     1     -10.793   7.442  70.493  1.00  0.00    -0.259 C  
HETATM   13  C   UNL     1     -11.028   8.682  69.611  1.00  0.00    -0.099 C  
BRANCH  12  14
HETATM   14  C   UNL     1      -9.845   6.374  70.076  1.00  0.00    -0.168 C  
HETATM   15  O   UNL     1      -8.657   6.358  70.367  1.00  0.00    -0.138 OA 
BRANCH  14  16
HETATM   16  O   UNL     1     -10.452   5.419  69.320  1.00  0.00    -0.256 OA 
HETATM   17  C   UNL     1     -10.177   5.542  67.921  1.00  0.00    -0.181 C  
ENDBRANCH  14  16
ENDBRANCH  12  14
BRANCH  13  18
HETATM   18  C   UNL     1      -9.710   9.263  69.084  1.00  0.00    -0.164 A  
HETATM   19  C   UNL     1      -8.733   9.760  69.960  1.00  0.00    -0.237 A  
HETATM   20  C   UNL     1      -9.453   9.278  67.698  1.00  0.00    -0.156 A  
HETATM   21  C   UNL     1      -7.519  10.246  69.471  1.00  0.00    -0.142 A  
HETATM   22  C   UNL     1      -8.221   9.742  67.217  1.00  0.00    -0.117 A  
HETATM   23  N   UNL     1      -7.931   9.678  65.780  1.00  0.00    -0.107 N  
HETATM   24  C   UNL     1      -7.255  10.232  68.101  1.00  0.00    -0.084 A  
HETATM   25  O   UNL     1      -8.797   9.200  65.034  1.00  0.00    -0.190 OA 
HETATM   26  O   UNL     1      -6.826  10.093  65.396  1.00  0.00    -0.116 OA 
ENDBRANCH  13  18
ENDBRANCH   4   6
ENDBRANCH   3   4
ENDBRANCH   2   3
TORSDOF 6
ENDMDL
MODEL      110
REMARK 921   NORMALIZED FREE ENERGY PREDICTED BY IDOCK:   -4.06 KCAL/MOL
REMARK 922        TOTAL FREE ENERGY PREDICTED BY IDOCK:   -6.63 KCAL/MOL
REMARK 923 INTER-LIGAND FREE ENERGY PREDICTED BY IDOCK:   -5.46 KCAL/MOL
REMARK 924 INTRA-LIGAND FREE ENERGY PREDICTED BY IDOCK:   -1.17 KCAL/MOL
REMARK 927      BINDING AFFINITY PREDICTED BY RF-SCORE:    0.00 PKD
ROOT
HETATM    1  C   UNL     1      -9.369   5.022  66.953  1.00  0.00    -0.134 C  
HETATM    2  C   UNL     1      -9.232   6.493  66.608  1.00  0.00    -0.153 C  
ENDROOT
BRANCH   2   3
HETATM    3  O   UNL     1      -7.905   6.884  66.987  1.00  0.00    -0.107 OA 
BRANCH   3   4
HETATM    4  C   UNL     1      -7.768   7.363  68.249  1.00  0.00    -0.120 C  
HETATM    5  O   UNL     1      -7.260   6.762  69.184  1.00  0.00    -0.085 OA 
BRANCH   4   6
HETATM    6  C   UNL     1      -8.249   8.767  68.301  1.00  0.00    -0.118 C  
HETATM    7  C   UNL     1      -7.392   9.796  68.108  1.00  0.00    -0.080 C  
HETATM    8  N   UNL     1      -7.869  11.095  68.147  1.00  0.00    -0.112 NA 
HETATM    9  C   UNL     1      -5.909   9.717  67.822  1.00  0.00    -0.044 C  
HETATM   10  C   UNL     1      -9.157  11.461  68.473  1.00  0.00    -0.169 C  
HETATM   11  C   UNL     1      -9.399  12.952  68.544  1.00  0.00    -0.075 C  
HETATM   12  C   UNL     1     -10.099  10.512  68.696  1.00  0.00    -0.190 C  
HETATM   13  C   UNL     1      -9.750   9.019  68.559  1.00  0.00    -0.171 C  
BRANCH  12  14
HETATM   14  C   UNL     1     -11.456  10.946  69.125  1.00  0.00    -0.303 C  
HETATM   15  O   UNL     1     -12.399  11.102  68.362  1.00  0.00    -0.556 OA 
BRANCH  14  16
HETATM   16  O   UNL     1     -11.523  11.162  70.466  1.00  0.00    -0.269 OA 
HETATM   17  C   UNL     1     -12.771  10.768  71.043  1.00  0.00    -0.415 C  
ENDBRANCH  14  16
ENDBRANCH  12  14
BRANCH  13  18
HETATM   18  C   UNL     1     -10.258   8.204  69.755  1.00  0.00    -0.203 A  
HETATM   19  C   UNL     1     -11.268   7.242  69.603  1.00  0.00    -0.109 A  
HETATM   20  C   UNL     1      -9.688   8.397  71.029  1.00  0.00    -0.218 A  
HETATM   21  C   UNL     1     -11.691   6.476  70.691  1.00  0.00    -0.436 A  
HETATM   22  C   UNL     1     -10.099   7.605  72.110  1.00  0.00    -0.196 A  
HETATM   23  N   UNL     1      -9.443   7.757  73.414  1.00  0.00    -0.274 N  
HETATM   24  C   UNL     1     -11.105   6.648  71.945  1.00  0.00    -0.289 A  
HETATM   25  O   UNL     1      -8.529   8.588  73.510  1.00  0.00    -0.365 OA 
HETATM   26  O   UNL     1      -9.831   7.032  74.343  1.00  0.00    -0.270 OA 
ENDBRANCH  13  18
ENDBRANCH   4   6
ENDBRANCH   3   4
ENDBRANCH   2   3
TORSDOF 6
ENDMDL
MODEL      111
REMARK 921   NORMALIZED FREE ENERGY PREDICTED BY IDOCK:   -4.03 KCAL/MOL
REMARK 922        TOTAL FREE ENERGY PREDICTED BY IDOCK:   -6.59 KCAL/MOL
REMARK 923 INTER-LIGAND FREE ENERGY PREDICTED BY IDOCK:   -5.23 KCAL/MOL
REMARK 924 INTRA-LIGAND FREE ENERGY PREDICTED BY IDOCK:   -1.36 KCAL/MOL
REMARK 927      BINDING AFFINITY PREDICTED BY RF-SCORE:    0.00 PKD
ROOT
HETATM    1  C   UNL     1      -9.755   3.991  67.231  1.00  0.00    -0.199 C  
HETATM    2  C   UNL     1      -9.612   4.904  66.028  1.00  0.00    -0.176 C  
ENDROOT
BRANCH   2   3
HETATM    3  O   UNL     1     -10.155   6.176  66.409  1.00  0.00    -0.145 OA 
BRANCH   3   4
HETATM    4  C   UNL     1      -9.262   7.081  66.882  1.00  0.00    -0.150 C  
HETATM    5  O   UNL     1      -8.057   7.060  66.678  1.00  0.00    -0.106 OA 
BRANCH   4   6
HETATM    6  C   UNL     1      -9.983   8.156  67.609  1.00  0.00    -0.240 C  
HETATM    7  C   UNL     1     -10.229   9.346  67.015  1.00  0.00    -0.255 C  
HETATM    8  N   UNL     1     -10.917  10.325  67.711  1.00  0.00    -0.297 NA 
HETATM    9  C   UNL     1      -9.852   9.769  65.612  1.00  0.00    -0.371 C  
HETATM   10  C   UNL     1     -11.302  10.241  69.032  1.00  0.00    -0.180 C  
HETATM   11  C   UNL     1     -11.950  11.490  69.588  1.00  0.00    -0.407 C  
HETATM   12  C   UNL     1     -11.097   9.099  69.730  1.00  0.00    -0.140 C  
HETATM   13  C   UNL     1     -10.461   7.872  69.050  1.00  0.00    -0.210 C  
BRANCH  12  14
HETATM   14  C   UNL     1     -11.453   9.075  71.174  1.00  0.00    -0.308 C  
HETATM   15  O   UNL     1     -10.664   9.310  72.079  1.00  0.00    -0.295 OA 
BRANCH  14  16
HETATM   16  O   UNL     1     -12.758   8.749  71.374  1.00  0.00    -0.313 OA 
HETATM   17  C   UNL     1     -12.961   7.361  71.651  1.00  0.00    -0.366 C  
ENDBRANCH  14  16
ENDBRANCH  12  14
BRANCH  13  18
HETATM   18  C   UNL     1      -9.340   7.267  69.904  1.00  0.00    -0.154 A  
HETATM   19  C   UNL     1      -8.139   7.959  70.124  1.00  0.00    -0.116 A  
HETATM   20  C   UNL     1      -9.519   6.005  70.507  1.00  0.00    -0.191 A  
HETATM   21  C   UNL     1      -7.143   7.416  70.938  1.00  0.00    -0.063 A  
HETATM   22  C   UNL     1      -8.527   5.480  71.345  1.00  0.00    -0.127 A  
HETATM   23  N   UNL     1      -8.755   4.204  72.033  1.00  0.00    -0.105 N  
HETATM   24  C   UNL     1      -7.335   6.181  71.558  1.00  0.00    -0.089 A  
HETATM   25  O   UNL     1      -9.840   3.633  71.850  1.00  0.00    -0.159 OA 
HETATM   26  O   UNL     1      -7.855   3.777  72.772  1.00  0.00    -0.070 OA 
ENDBRANCH  13  18
ENDBRANCH   4   6
ENDBRANCH   3   4
ENDBRANCH   2   3
TORSDOF 6
ENDMDL
MODEL      112
REMARK 921   NORMALIZED FREE ENERGY PREDICTED BY IDOCK:   -4.01 KCAL/MOL
REMARK 922        TOTAL FREE ENERGY PREDICTED BY IDOCK:   -6.56 KCAL/MOL
REMARK 923 INTER-LIGAND FREE ENERGY PREDICTED BY IDOCK:   -6.47 KCAL/MOL
REMARK 924 INTRA-LIGAND FREE ENERGY PREDICTED BY IDOCK:   -0.09 KCAL/MOL
REMARK 927      BINDING AFFINITY PREDICTED BY RF-SCORE:    0.00 PKD
ROOT
HETATM    1  C   UNL     1      -6.352  17.176  68.709  1.00  0.00    -0.175 C  
HETATM    2  C   UNL     1      -5.598  16.027  68.065  1.00  0.00    -0.119 C  
ENDROOT
BRANCH   2   3
HETATM    3  O   UNL     1      -6.583  15.079  67.631  1.00  0.00    -0.160 OA 
BRANCH   3   4
HETATM    4  C   UNL     1      -6.779  14.015  68.449  1.00  0.00    -0.099 C  
HETATM    5  O   UNL     1      -6.330  13.898  69.579  1.00  0.00    -0.108 OA 
BRANCH   4   6
HETATM    6  C   UNL     1      -7.700  13.051  67.795  1.00  0.00    -0.151 C  
HETATM    7  C   UNL     1      -7.221  12.088  66.973  1.00  0.00    -0.096 C  
HETATM    8  N   UNL     1      -8.100  11.193  66.389  1.00  0.00    -0.166 NA 
HETATM    9  C   UNL     1      -5.777  11.831  66.603  1.00  0.00    -0.057 C  
HETATM   10  C   UNL     1      -9.474  11.249  66.484  1.00  0.00    -0.193 C  
HETATM   11  C   UNL     1     -10.213  10.213  65.666  1.00  0.00    -0.288 C  
HETATM   12  C   UNL     1     -10.065  12.180  67.271  1.00  0.00    -0.214 C  
HETATM   13  C   UNL     1      -9.211  13.164  68.092  1.00  0.00    -0.215 C  
BRANCH  12  14
HETATM   14  C   UNL     1     -11.551  12.259  67.284  1.00  0.00    -0.357 C  
HETATM   15  O   UNL     1     -12.269  11.558  67.982  1.00  0.00    -0.582 OA 
BRANCH  14  16
HETATM   16  O   UNL     1     -12.019  13.197  66.418  1.00  0.00    -0.384 OA 
HETATM   17  C   UNL     1     -12.515  12.644  65.195  1.00  0.00    -0.463 C  
ENDBRANCH  14  16
ENDBRANCH  12  14
BRANCH  13  18
HETATM   18  C   UNL     1      -9.706  14.607  67.942  1.00  0.00    -0.216 A  
HETATM   19  C   UNL     1      -9.786  15.467  69.049  1.00  0.00    -0.235 A  
HETATM   20  C   UNL     1     -10.062  15.100  66.671  1.00  0.00    -0.271 A  
HETATM   21  C   UNL     1     -10.197  16.793  68.893  1.00  0.00    -0.304 A  
HETATM   22  C   UNL     1     -10.447  16.439  66.518  1.00  0.00    -0.282 A  
HETATM   23  N   UNL     1     -10.738  16.964  65.179  1.00  0.00    -0.222 N  
HETATM   24  C   UNL     1     -10.521  17.286  67.629  1.00  0.00    -0.363 A  
HETATM   25  O   UNL     1     -10.622  16.193  64.216  1.00  0.00    -0.212 OA 
HETATM   26  O   UNL     1     -11.068  18.157  65.086  1.00  0.00    -0.540 OA 
ENDBRANCH  13  18
ENDBRANCH   4   6
ENDBRANCH   3   4
ENDBRANCH   2   3
TORSDOF 6
ENDMDL
MODEL      113
REMARK 921   NORMALIZED FREE ENERGY PREDICTED BY IDOCK:   -4.00 KCAL/MOL
REMARK 922        TOTAL FREE ENERGY PREDICTED BY IDOCK:   -6.55 KCAL/MOL
REMARK 923 INTER-LIGAND FREE ENERGY PREDICTED BY IDOCK:   -6.73 KCAL/MOL
REMARK 924 INTRA-LIGAND FREE ENERGY PREDICTED BY IDOCK:    0.17 KCAL/MOL
REMARK 927      BINDING AFFINITY PREDICTED BY RF-SCORE:    0.00 PKD
ROOT
HETATM    1  C   UNL     1      -9.020   4.700  72.498  1.00  0.00    -0.132 C  
HETATM    2  C   UNL     1      -8.418   5.822  71.674  1.00  0.00    -0.128 C  
ENDROOT
BRANCH   2   3
HETATM    3  O   UNL     1      -9.483   6.740  71.386  1.00  0.00    -0.161 OA 
BRANCH   3   4
HETATM    4  C   UNL     1      -9.347   7.984  71.910  1.00  0.00    -0.167 C  
HETATM    5  O   UNL     1      -9.357   8.256  73.101  1.00  0.00    -0.261 OA 
BRANCH   4   6
HETATM    6  C   UNL     1      -9.093   8.956  70.818  1.00  0.00    -0.260 C  
HETATM    7  C   UNL     1      -7.853   9.459  70.616  1.00  0.00    -0.151 C  
HETATM    8  N   UNL     1      -7.640  10.353  69.581  1.00  0.00    -0.158 NA 
HETATM    9  C   UNL     1      -6.596   9.146  71.397  1.00  0.00    -0.059 C  
HETATM   10  C   UNL     1      -8.622  10.878  68.768  1.00  0.00    -0.159 C  
HETATM   11  C   UNL     1      -8.143  11.915  67.777  1.00  0.00    -0.146 C  
HETATM   12  C   UNL     1      -9.904  10.455  68.887  1.00  0.00    -0.206 C  
HETATM   13  C   UNL     1     -10.273   9.363  69.908  1.00  0.00    -0.247 C  
BRANCH  12  14
HETATM   14  C   UNL     1     -10.947  11.104  68.048  1.00  0.00    -0.252 C  
HETATM   15  O   UNL     1     -11.658  10.505  67.253  1.00  0.00    -0.327 OA 
BRANCH  14  16
HETATM   16  O   UNL     1     -11.010  12.446  68.260  1.00  0.00    -0.212 OA 
HETATM   17  C   UNL     1     -11.933  13.114  67.395  1.00  0.00    -0.327 C  
ENDBRANCH  14  16
ENDBRANCH  12  14
BRANCH  13  18
HETATM   18  C   UNL     1     -11.508   9.748  70.731  1.00  0.00    -0.417 A  
HETATM   19  C   UNL     1     -12.300   8.772  71.355  1.00  0.00    -0.353 A  
HETATM   20  C   UNL     1     -11.848  11.106  70.895  1.00  0.00    -0.237 A  
HETATM   21  C   UNL     1     -13.397   9.138  72.138  1.00  0.00    -0.525 A  
HETATM   22  C   UNL     1     -12.934  11.467  71.704  1.00  0.00    -0.418 A  
HETATM   23  N   UNL     1     -13.231  12.886  71.933  1.00  0.00    -0.445 N  
HETATM   24  C   UNL     1     -13.714  10.484  72.322  1.00  0.00     0.052 A  
HETATM   25  O   UNL     1     -12.493  13.726  71.400  1.00  0.00    -0.351 OA 
HETATM   26  O   UNL     1     -14.196  13.163  72.662  1.00  0.00    -0.677 OA 
ENDBRANCH  13  18
ENDBRANCH   4   6
ENDBRANCH   3   4
ENDBRANCH   2   3
TORSDOF 6
ENDMDL
MODEL      114
REMARK 921   NORMALIZED FREE ENERGY PREDICTED BY IDOCK:   -3.98 KCAL/MOL
REMARK 922        TOTAL FREE ENERGY PREDICTED BY IDOCK:   -6.53 KCAL/MOL
REMARK 923 INTER-LIGAND FREE ENERGY PREDICTED BY IDOCK:   -5.13 KCAL/MOL
REMARK 924 INTRA-LIGAND FREE ENERGY PREDICTED BY IDOCK:   -1.39 KCAL/MOL
REMARK 927      BINDING AFFINITY PREDICTED BY RF-SCORE:    0.00 PKD
ROOT
HETATM    1  C   UNL     1     -10.745   9.818  68.469  1.00  0.00    -0.252 C  
HETATM    2  C   UNL     1     -10.575   9.065  67.163  1.00  0.00    -0.220 C  
ENDROOT
BRANCH   2   3
HETATM    3  O   UNL     1     -10.476   7.674  67.498  1.00  0.00    -0.233 OA 
BRANCH   3   4
HETATM    4  C   UNL     1      -9.220   7.162  67.526  1.00  0.00    -0.125 C  
HETATM    5  O   UNL     1      -8.212   7.736  67.141  1.00  0.00    -0.115 OA 
BRANCH   4   6
HETATM    6  C   UNL     1      -9.243   5.830  68.180  1.00  0.00    -0.110 C  
HETATM    7  C   UNL     1      -9.660   4.735  67.503  1.00  0.00    -0.158 C  
HETATM    8  N   UNL     1      -9.657   3.502  68.132  1.00  0.00    -0.147 NA 
HETATM    9  C   UNL     1     -10.137   4.668  66.068  1.00  0.00    -0.287 C  
HETATM   10  C   UNL     1      -9.355   3.287  69.459  1.00  0.00    -0.165 C  
HETATM   11  C   UNL     1      -9.527   1.860  69.929  1.00  0.00    -0.127 C  
HETATM   12  C   UNL     1      -8.935   4.313  70.238  1.00  0.00    -0.147 C  
HETATM   13  C   UNL     1      -8.760   5.723  69.643  1.00  0.00    -0.122 C  
BRANCH  12  14
HETATM   14  C   UNL     1      -8.697   4.056  71.684  1.00  0.00    -0.106 C  
HETATM   15  O   UNL     1      -9.544   3.621  72.452  1.00  0.00    -0.125 OA 
BRANCH  14  16
HETATM   16  O   UNL     1      -7.429   4.374  72.057  1.00  0.00    -0.070 OA 
HETATM   17  C   UNL     1      -7.348   4.951  73.364  1.00  0.00    -0.087 C  
ENDBRANCH  14  16
ENDBRANCH  12  14
BRANCH  13  18
HETATM   18  C   UNL     1      -9.407   6.796  70.527  1.00  0.00    -0.162 A  
HETATM   19  C   UNL     1      -8.643   7.829  71.093  1.00  0.00    -0.135 A  
HETATM   20  C   UNL     1     -10.797   6.773  70.758  1.00  0.00    -0.291 A  
HETATM   21  C   UNL     1      -9.250   8.826  71.860  1.00  0.00    -0.320 A  
HETATM   22  C   UNL     1     -11.402   7.792  71.506  1.00  0.00    -0.255 A  
HETATM   23  N   UNL     1     -12.860   7.803  71.674  1.00  0.00    -0.334 N  
HETATM   24  C   UNL     1     -10.630   8.816  72.063  1.00  0.00    -0.414 A  
HETATM   25  O   UNL     1     -13.513   6.900  71.132  1.00  0.00    -0.226 OA 
HETATM   26  O   UNL     1     -13.357   8.726  72.337  1.00  0.00    -0.400 OA 
ENDBRANCH  13  18
ENDBRANCH   4   6
ENDBRANCH   3   4
ENDBRANCH   2   3
TORSDOF 6
ENDMDL
MODEL      115
REMARK 921   NORMALIZED FREE ENERGY PREDICTED BY IDOCK:   -3.97 KCAL/MOL
REMARK 922        TOTAL FREE ENERGY PREDICTED BY IDOCK:   -6.51 KCAL/MOL
REMARK 923 INTER-LIGAND FREE ENERGY PREDICTED BY IDOCK:   -5.46 KCAL/MOL
REMARK 924 INTRA-LIGAND FREE ENERGY PREDICTED BY IDOCK:   -1.05 KCAL/MOL
REMARK 927      BINDING AFFINITY PREDICTED BY RF-SCORE:    0.00 PKD
ROOT
HETATM    1  C   UNL     1     -10.745  15.767  69.962  1.00  0.00    -0.347 C  
HETATM    2  C   UNL     1     -10.704  15.290  68.522  1.00  0.00    -0.247 C  
ENDROOT
BRANCH   2   3
HETATM    3  O   UNL     1      -9.934  14.080  68.510  1.00  0.00    -0.228 OA 
BRANCH   3   4
HETATM    4  C   UNL     1     -10.638  12.934  68.335  1.00  0.00    -0.253 C  
HETATM    5  O   UNL     1     -11.468  12.487  69.112  1.00  0.00    -0.270 OA 
BRANCH   4   6
HETATM    6  C   UNL     1     -10.313  12.350  67.009  1.00  0.00    -0.235 C  
HETATM    7  C   UNL     1     -11.145  12.524  65.956  1.00  0.00    -0.294 C  
HETATM    8  N   UNL     1     -10.810  11.982  64.728  1.00  0.00    -0.295 NA 
HETATM    9  C   UNL     1     -12.451  13.287  65.933  1.00  0.00    -0.433 C  
HETATM   10  C   UNL     1      -9.724  11.169  64.485  1.00  0.00    -0.265 C  
HETATM   11  C   UNL     1      -9.638  10.621  63.078  1.00  0.00    -0.379 C  
HETATM   12  C   UNL     1      -8.828  10.917  65.470  1.00  0.00    -0.199 C  
HETATM   13  C   UNL     1      -8.994  11.560  66.859  1.00  0.00    -0.179 C  
BRANCH  12  14
HETATM   14  C   UNL     1      -7.715   9.970  65.193  1.00  0.00    -0.137 C  
HETATM   15  O   UNL     1      -7.815   8.753  65.263  1.00  0.00    -0.100 OA 
BRANCH  14  16
HETATM   16  O   UNL     1      -6.565  10.617  64.862  1.00  0.00    -0.044 OA 
HETATM   17  C   UNL     1      -5.637  10.717  65.946  1.00  0.00    -0.141 C  
ENDBRANCH  14  16
ENDBRANCH  12  14
BRANCH  13  18
HETATM   18  C   UNL     1      -8.826  10.532  67.985  1.00  0.00    -0.131 A  
HETATM   19  C   UNL     1      -7.949  10.764  69.056  1.00  0.00    -0.137 A  
HETATM   20  C   UNL     1      -9.582   9.343  67.970  1.00  0.00    -0.156 A  
HETATM   21  C   UNL     1      -7.836   9.840  70.097  1.00  0.00    -0.196 A  
HETATM   22  C   UNL     1      -9.484   8.434  69.032  1.00  0.00    -0.151 A  
HETATM   23  N   UNL     1     -10.334   7.238  69.047  1.00  0.00    -0.201 N  
HETATM   24  C   UNL     1      -8.607   8.678  70.094  1.00  0.00    -0.138 A  
HETATM   25  O   UNL     1     -11.126   7.078  68.108  1.00  0.00    -0.133 OA 
HETATM   26  O   UNL     1     -10.222   6.462  70.009  1.00  0.00    -0.171 OA 
ENDBRANCH  13  18
ENDBRANCH   4   6
ENDBRANCH   3   4
ENDBRANCH   2   3
TORSDOF 6
ENDMDL
MODEL      116
REMARK 921   NORMALIZED FREE ENERGY PREDICTED BY IDOCK:   -3.97 KCAL/MOL
REMARK 922        TOTAL FREE ENERGY PREDICTED BY IDOCK:   -6.51 KCAL/MOL
REMARK 923 INTER-LIGAND FREE ENERGY PREDICTED BY IDOCK:   -5.43 KCAL/MOL
REMARK 924 INTRA-LIGAND FREE ENERGY PREDICTED BY IDOCK:   -1.08 KCAL/MOL
REMARK 927      BINDING AFFINITY PREDICTED BY RF-SCORE:    0.00 PKD
ROOT
HETATM    1  C   UNL     1     -10.993   6.397  67.208  1.00  0.00    -0.474 C  
HETATM    2  C   UNL     1      -9.970   7.329  67.831  1.00  0.00    -0.158 C  
ENDROOT
BRANCH   2   3
HETATM    3  O   UNL     1     -10.413   8.667  67.562  1.00  0.00    -0.255 OA 
BRANCH   3   4
HETATM    4  C   UNL     1     -10.502   9.487  68.639  1.00  0.00    -0.211 C  
HETATM    5  O   UNL     1     -11.525   9.731  69.261  1.00  0.00    -0.085 OA 
BRANCH   4   6
HETATM    6  C   UNL     1      -9.148   9.974  69.004  1.00  0.00    -0.172 C  
HETATM    7  C   UNL     1      -8.584   9.625  70.183  1.00  0.00    -0.214 C  
HETATM    8  N   UNL     1      -7.314  10.081  70.492  1.00  0.00    -0.298 NA 
HETATM    9  C   UNL     1      -9.176   8.742  71.260  1.00  0.00    -0.309 C  
HETATM   10  C   UNL     1      -6.580  10.968  69.734  1.00  0.00    -0.143 C  
HETATM   11  C   UNL     1      -5.261  11.388  70.343  1.00  0.00    -0.102 C  
HETATM   12  C   UNL     1      -7.051  11.394  68.537  1.00  0.00    -0.085 C  
HETATM   13  C   UNL     1      -8.394  10.869  67.996  1.00  0.00    -0.122 C  
BRANCH  12  14
HETATM   14  C   UNL     1      -6.269  12.413  67.788  1.00  0.00    -0.111 C  
HETATM   15  O   UNL     1      -5.612  12.172  66.784  1.00  0.00    -0.301 OA 
BRANCH  14  16
HETATM   16  O   UNL     1      -6.357  13.645  68.357  1.00  0.00    -0.081 OA 
HETATM   17  C   UNL     1      -5.251  14.496  68.043  1.00  0.00    -0.102 C  
ENDBRANCH  14  16
ENDBRANCH  12  14
BRANCH  13  18
HETATM   18  C   UNL     1      -9.284  12.008  67.483  1.00  0.00    -0.180 A  
HETATM   19  C   UNL     1      -9.633  12.103  66.127  1.00  0.00    -0.250 A  
HETATM   20  C   UNL     1      -9.790  12.966  68.385  1.00  0.00    -0.197 A  
HETATM   21  C   UNL     1     -10.480  13.120  65.680  1.00  0.00    -0.290 A  
HETATM   22  C   UNL     1     -10.660  13.966  67.933  1.00  0.00    -0.245 A  
HETATM   23  N   UNL     1     -11.245  14.910  68.893  1.00  0.00    -0.254 N  
HETATM   24  C   UNL     1     -11.002  14.049  66.579  1.00  0.00    -0.306 A  
HETATM   25  O   UNL     1     -10.948  14.779  70.089  1.00  0.00    -0.213 OA 
HETATM   26  O   UNL     1     -12.017  15.776  68.453  1.00  0.00    -0.269 OA 
ENDBRANCH  13  18
ENDBRANCH   4   6
ENDBRANCH   3   4
ENDBRANCH   2   3
TORSDOF 6
ENDMDL
MODEL      117
REMARK 921   NORMALIZED FREE ENERGY PREDICTED BY IDOCK:   -3.96 KCAL/MOL
REMARK 922        TOTAL FREE ENERGY PREDICTED BY IDOCK:   -6.50 KCAL/MOL
REMARK 923 INTER-LIGAND FREE ENERGY PREDICTED BY IDOCK:   -5.16 KCAL/MOL
REMARK 924 INTRA-LIGAND FREE ENERGY PREDICTED BY IDOCK:   -1.33 KCAL/MOL
REMARK 927      BINDING AFFINITY PREDICTED BY RF-SCORE:    0.00 PKD
ROOT
HETATM    1  C   UNL     1      -8.414   7.602  74.136  1.00  0.00    -0.290 C  
HETATM    2  C   UNL     1      -9.794   7.104  73.746  1.00  0.00    -0.313 C  
ENDROOT
BRANCH   2   3
HETATM    3  O   UNL     1      -9.619   5.785  73.211  1.00  0.00    -0.143 OA 
BRANCH   3   4
HETATM    4  C   UNL     1     -10.684   5.273  72.544  1.00  0.00    -0.236 C  
HETATM    5  O   UNL     1     -11.846   5.326  72.919  1.00  0.00    -0.271 OA 
BRANCH   4   6
HETATM    6  C   UNL     1     -10.234   4.717  71.243  1.00  0.00    -0.229 C  
HETATM    7  C   UNL     1      -9.618   3.514  71.183  1.00  0.00    -0.170 C  
HETATM    8  N   UNL     1      -9.222   3.012  69.956  1.00  0.00    -0.133 NA 
HETATM    9  C   UNL     1      -9.305   2.583  72.334  1.00  0.00    -0.146 C  
HETATM   10  C   UNL     1      -9.305   3.686  68.756  1.00  0.00    -0.165 C  
HETATM   11  C   UNL     1      -8.708   2.958  67.573  1.00  0.00    -0.142 C  
HETATM   12  C   UNL     1      -9.894   4.905  68.698  1.00  0.00    -0.221 C  
HETATM   13  C   UNL     1     -10.504   5.537  69.963  1.00  0.00    -0.373 C  
BRANCH  12  14
HETATM   14  C   UNL     1      -9.891   5.634  67.402  1.00  0.00    -0.143 C  
HETATM   15  O   UNL     1     -10.830   5.643  66.618  1.00  0.00    -0.292 OA 
BRANCH  14  16
HETATM   16  O   UNL     1      -8.716   6.282  67.183  1.00  0.00    -0.110 OA 
HETATM   17  C   UNL     1      -8.884   7.612  66.683  1.00  0.00    -0.142 C  
ENDBRANCH  14  16
ENDBRANCH  12  14
BRANCH  13  18
HETATM   18  C   UNL     1     -10.073   6.999  70.132  1.00  0.00    -0.197 A  
HETATM   19  C   UNL     1     -11.020   8.031  70.217  1.00  0.00    -0.242 A  
HETATM   20  C   UNL     1      -8.704   7.321  70.233  1.00  0.00    -0.147 A  
HETATM   21  C   UNL     1     -10.616   9.354  70.415  1.00  0.00    -0.316 A  
HETATM   22  C   UNL     1      -8.309   8.646  70.459  1.00  0.00    -0.140 A  
HETATM   23  N   UNL     1      -6.887   8.960  70.644  1.00  0.00    -0.049 N  
HETATM   24  C   UNL     1      -9.263   9.666  70.544  1.00  0.00    -0.212 A  
HETATM   25  O   UNL     1      -6.077   8.024  70.601  1.00  0.00    -0.033 OA 
HETATM   26  O   UNL     1      -6.579  10.145  70.849  1.00  0.00    -0.310 OA 
ENDBRANCH  13  18
ENDBRANCH   4   6
ENDBRANCH   3   4
ENDBRANCH   2   3
TORSDOF 6
ENDMDL
MODEL      118
REMARK 921   NORMALIZED FREE ENERGY PREDICTED BY IDOCK:   -3.94 KCAL/MOL
REMARK 922        TOTAL FREE ENERGY PREDICTED BY IDOCK:   -6.47 KCAL/MOL
REMARK 923 INTER-LIGAND FREE ENERGY PREDICTED BY IDOCK:   -5.77 KCAL/MOL
REMARK 924 INTRA-LIGAND FREE ENERGY PREDICTED BY IDOCK:   -0.71 KCAL/MOL
REMARK 927      BINDING AFFINITY PREDICTED BY RF-SCORE:    0.00 PKD
ROOT
HETATM    1  C   UNL     1      -6.094  12.200  67.072  1.00  0.00    -0.097 C  
HETATM    2  C   UNL     1      -6.587  12.843  68.355  1.00  0.00    -0.085 C  
ENDROOT
BRANCH   2   3
HETATM    3  O   UNL     1      -6.110  14.196  68.347  1.00  0.00    -0.085 OA 
BRANCH   3   4
HETATM    4  C   UNL     1      -6.570  14.990  69.347  1.00  0.00    -0.143 C  
HETATM    5  O   UNL     1      -7.002  14.597  70.421  1.00  0.00    -0.042 OA 
BRANCH   4   6
HETATM    6  C   UNL     1      -6.383  16.414  68.974  1.00  0.00    -0.164 C  
HETATM    7  C   UNL     1      -5.750  17.269  69.811  1.00  0.00    -0.227 C  
HETATM    8  N   UNL     1      -5.575  18.589  69.432  1.00  0.00    -0.212 NA 
HETATM    9  C   UNL     1      -5.156  16.957  71.167  1.00  0.00    -0.111 C  
HETATM   10  C   UNL     1      -6.090  19.164  68.291  1.00  0.00    -0.222 C  
HETATM   11  C   UNL     1      -5.845  20.650  68.159  1.00  0.00    -0.332 C  
HETATM   12  C   UNL     1      -6.753  18.405  67.385  1.00  0.00    -0.204 C  
HETATM   13  C   UNL     1      -6.912  16.889  67.603  1.00  0.00    -0.156 C  
BRANCH  12  14
HETATM   14  C   UNL     1      -7.363  19.077  66.206  1.00  0.00    -0.260 C  
HETATM   15  O   UNL     1      -8.424  19.685  66.236  1.00  0.00    -0.341 OA 
BRANCH  14  16
HETATM   16  O   UNL     1      -6.609  18.927  65.085  1.00  0.00    -0.441 OA 
HETATM   17  C   UNL     1      -6.204  20.169  64.501  1.00  0.00    -0.277 C  
ENDBRANCH  14  16
ENDBRANCH  12  14
BRANCH  13  18
HETATM   18  C   UNL     1      -8.356  16.429  67.369  1.00  0.00    -0.183 A  
HETATM   19  C   UNL     1      -8.771  15.945  66.119  1.00  0.00    -0.328 A  
HETATM   20  C   UNL     1      -9.284  16.462  68.429  1.00  0.00    -0.217 A  
HETATM   21  C   UNL     1     -10.077  15.488  65.930  1.00  0.00    -0.374 A  
HETATM   22  C   UNL     1     -10.585  15.976  68.239  1.00  0.00    -0.283 A  
HETATM   23  N   UNL     1     -11.520  15.939  69.370  1.00  0.00    -0.340 N  
HETATM   24  C   UNL     1     -10.986  15.494  66.989  1.00  0.00    -0.283 A  
HETATM   25  O   UNL     1     -11.115  16.338  70.471  1.00  0.00    -0.348 OA 
HETATM   26  O   UNL     1     -12.660  15.495  69.161  1.00  0.00    -0.013 OA 
ENDBRANCH  13  18
ENDBRANCH   4   6
ENDBRANCH   3   4
ENDBRANCH   2   3
TORSDOF 6
ENDMDL
MODEL      119
REMARK 921   NORMALIZED FREE ENERGY PREDICTED BY IDOCK:   -3.91 KCAL/MOL
REMARK 922        TOTAL FREE ENERGY PREDICTED BY IDOCK:   -6.43 KCAL/MOL
REMARK 923 INTER-LIGAND FREE ENERGY PREDICTED BY IDOCK:   -5.31 KCAL/MOL
REMARK 924 INTRA-LIGAND FREE ENERGY PREDICTED BY IDOCK:   -1.12 KCAL/MOL
REMARK 927      BINDING AFFINITY PREDICTED BY RF-SCORE:    0.00 PKD
ROOT
HETATM    1  C   UNL     1     -10.411  11.774  63.476  1.00  0.00    -0.500 C  
HETATM    2  C   UNL     1      -9.837  10.436  63.902  1.00  0.00    -0.267 C  
ENDROOT
BRANCH   2   3
HETATM    3  O   UNL     1     -10.044  10.330  65.318  1.00  0.00    -0.303 OA 
BRANCH   3   4
HETATM    4  C   UNL     1      -8.986   9.876  66.036  1.00  0.00    -0.149 C  
HETATM    5  O   UNL     1      -7.844   9.760  65.619  1.00  0.00    -0.107 OA 
BRANCH   4   6
HETATM    6  C   UNL     1      -9.410   9.627  67.437  1.00  0.00    -0.155 C  
HETATM    7  C   UNL     1      -9.249  10.579  68.386  1.00  0.00    -0.154 C  
HETATM    8  N   UNL     1      -9.666  10.327  69.681  1.00  0.00    -0.216 NA 
HETATM    9  C   UNL     1      -8.662  11.962  68.210  1.00  0.00    -0.170 C  
HETATM   10  C   UNL     1     -10.154   9.122  70.140  1.00  0.00    -0.202 C  
HETATM   11  C   UNL     1     -10.443   9.074  71.624  1.00  0.00    -0.426 C  
HETATM   12  C   UNL     1     -10.348   8.093  69.280  1.00  0.00    -0.222 C  
HETATM   13  C   UNL     1     -10.054   8.266  67.778  1.00  0.00    -0.262 C  
BRANCH  12  14
HETATM   14  C   UNL     1     -10.799   6.786  69.827  1.00  0.00    -0.272 C  
HETATM   15  O   UNL     1     -11.958   6.394  69.800  1.00  0.00    -0.257 OA 
BRANCH  14  16
HETATM   16  O   UNL     1      -9.774   6.079  70.373  1.00  0.00    -0.165 OA 
HETATM   17  C   UNL     1     -10.173   5.256  71.472  1.00  0.00    -0.212 C  
ENDBRANCH  14  16
ENDBRANCH  12  14
BRANCH  13  18
HETATM   18  C   UNL     1      -9.228   7.100  67.223  1.00  0.00    -0.145 A  
HETATM   19  C   UNL     1      -7.892   6.907  67.607  1.00  0.00    -0.112 A  
HETATM   20  C   UNL     1      -9.819   6.181  66.332  1.00  0.00    -0.141 A  
HETATM   21  C   UNL     1      -7.163   5.817  67.128  1.00  0.00    -0.075 A  
HETATM   22  C   UNL     1      -9.090   5.074  65.878  1.00  0.00    -0.150 A  
HETATM   23  N   UNL     1      -9.738   4.080  65.014  1.00  0.00    -0.184 N  
HETATM   24  C   UNL     1      -7.759   4.893  66.270  1.00  0.00    -0.092 A  
HETATM   25  O   UNL     1     -10.929   4.256  64.722  1.00  0.00    -0.249 OA 
HETATM   26  O   UNL     1      -9.060   3.111  64.640  1.00  0.00    -0.125 OA 
ENDBRANCH  13  18
ENDBRANCH   4   6
ENDBRANCH   3   4
ENDBRANCH   2   3
TORSDOF 6
ENDMDL
MODEL      120
REMARK 921   NORMALIZED FREE ENERGY PREDICTED BY IDOCK:   -3.91 KCAL/MOL
REMARK 922        TOTAL FREE ENERGY PREDICTED BY IDOCK:   -6.43 KCAL/MOL
REMARK 923 INTER-LIGAND FREE ENERGY PREDICTED BY IDOCK:   -5.25 KCAL/MOL
REMARK 924 INTRA-LIGAND FREE ENERGY PREDICTED BY IDOCK:   -1.18 KCAL/MOL
REMARK 927      BINDING AFFINITY PREDICTED BY RF-SCORE:    0.00 PKD
ROOT
HETATM    1  C   UNL     1      -9.804  16.664  65.539  1.00  0.00    -0.014 C  
HETATM    2  C   UNL     1     -11.169  16.339  64.963  1.00  0.00    -0.176 C  
ENDROOT
BRANCH   2   3
HETATM    3  O   UNL     1     -11.151  14.946  64.619  1.00  0.00    -0.372 OA 
BRANCH   3   4
HETATM    4  C   UNL     1     -11.681  14.104  65.540  1.00  0.00    -0.344 C  
HETATM    5  O   UNL     1     -12.796  14.202  66.030  1.00  0.00    -0.425 OA 
BRANCH   4   6
HETATM    6  C   UNL     1     -10.735  12.989  65.796  1.00  0.00    -0.291 C  
HETATM    7  C   UNL     1     -10.927  11.776  65.227  1.00  0.00    -0.295 C  
HETATM    8  N   UNL     1     -10.021  10.759  65.470  1.00  0.00    -0.248 NA 
HETATM    9  C   UNL     1     -12.047  11.365  64.297  1.00  0.00     0.239 C  
HETATM   10  C   UNL     1      -8.959  10.831  66.345  1.00  0.00    -0.166 C  
HETATM   11  C   UNL     1      -8.179   9.546  66.508  1.00  0.00    -0.119 C  
HETATM   12  C   UNL     1      -8.677  11.994  66.980  1.00  0.00    -0.188 C  
HETATM   13  C   UNL     1      -9.518  13.255  66.709  1.00  0.00    -0.257 C  
BRANCH  12  14
HETATM   14  C   UNL     1      -7.573  12.009  67.977  1.00  0.00    -0.120 C  
HETATM   15  O   UNL     1      -7.647  11.509  69.090  1.00  0.00    -0.097 OA 
BRANCH  14  16
HETATM   16  O   UNL     1      -6.472  12.658  67.510  1.00  0.00    -0.133 OA 
HETATM   17  C   UNL     1      -5.530  12.988  68.534  1.00  0.00    -0.066 C  
ENDBRANCH  14  16
ENDBRANCH  12  14
BRANCH  13  18
HETATM   18  C   UNL     1      -9.935  13.951  68.010  1.00  0.00    -0.241 A  
HETATM   19  C   UNL     1      -9.442  15.222  68.345  1.00  0.00    -0.206 A  
HETATM   20  C   UNL     1     -10.851  13.326  68.879  1.00  0.00    -0.245 A  
HETATM   21  C   UNL     1      -9.862  15.864  69.511  1.00  0.00    -0.268 A  
HETATM   22  C   UNL     1     -11.289  13.988  70.034  1.00  0.00    -0.100 A  
HETATM   23  N   UNL     1     -12.303  13.363  70.890  1.00  0.00    -0.375 N  
HETATM   24  C   UNL     1     -10.791  15.255  70.355  1.00  0.00    -0.293 A  
HETATM   25  O   UNL     1     -12.749  12.258  70.550  1.00  0.00    -0.125 OA 
HETATM   26  O   UNL     1     -12.670  13.986  71.899  1.00  0.00    -0.326 OA 
ENDBRANCH  13  18
ENDBRANCH   4   6
ENDBRANCH   3   4
ENDBRANCH   2   3
TORSDOF 6
ENDMDL
MODEL      121
REMARK 921   NORMALIZED FREE ENERGY PREDICTED BY IDOCK:   -3.89 KCAL/MOL
REMARK 922        TOTAL FREE ENERGY PREDICTED BY IDOCK:   -6.40 KCAL/MOL
REMARK 923 INTER-LIGAND FREE ENERGY PREDICTED BY IDOCK:   -4.98 KCAL/MOL
REMARK 924 INTRA-LIGAND FREE ENERGY PREDICTED BY IDOCK:   -1.43 KCAL/MOL
REMARK 927      BINDING AFFINITY PREDICTED BY RF-SCORE:    0.00 PKD
ROOT
HETATM    1  C   UNL     1      -9.705   5.708  67.180  1.00  0.00    -0.151 C  
HETATM    2  C   UNL     1      -8.653   6.689  66.695  1.00  0.00    -0.123 C  
ENDROOT
BRANCH   2   3
HETATM    3  O   UNL     1      -9.138   8.002  67.010  1.00  0.00    -0.135 OA 
BRANCH   3   4
HETATM    4  C   UNL     1      -8.620   8.570  68.128  1.00  0.00    -0.138 C  
HETATM    5  O   UNL     1      -7.544   8.287  68.633  1.00  0.00    -0.095 OA 
BRANCH   4   6
HETATM    6  C   UNL     1      -9.519   9.655  68.594  1.00  0.00    -0.147 C  
HETATM    7  C   UNL     1      -9.174  10.954  68.435  1.00  0.00    -0.168 C  
HETATM    8  N   UNL     1     -10.037  11.946  68.865  1.00  0.00    -0.109 NA 
HETATM    9  C   UNL     1      -7.914  11.498  67.799  1.00  0.00    -0.128 C  
HETATM   10  C   UNL     1     -11.212  11.735  69.556  1.00  0.00    -0.195 C  
HETATM   11  C   UNL     1     -11.923  12.993  70.004  1.00  0.00    -0.383 C  
HETATM   12  C   UNL     1     -11.652  10.474  69.782  1.00  0.00    -0.368 C  
HETATM   13  C   UNL     1     -10.864   9.265  69.246  1.00  0.00    -0.170 C  
BRANCH  12  14
HETATM   14  C   UNL     1     -12.880  10.287  70.600  1.00  0.00    -0.285 C  
HETATM   15  O   UNL     1     -14.003  10.159  70.133  1.00  0.00     0.566 OA 
BRANCH  14  16
HETATM   16  O   UNL     1     -12.611  10.287  71.933  1.00  0.00    -0.400 OA 
HETATM   17  C   UNL     1     -13.236   9.212  72.640  1.00  0.00    -0.296 C  
ENDBRANCH  14  16
ENDBRANCH  12  14
BRANCH  13  18
HETATM   18  C   UNL     1     -10.674   8.188  70.321  1.00  0.00    -0.235 A  
HETATM   19  C   UNL     1     -11.290   6.931  70.209  1.00  0.00    -0.373 A  
HETATM   20  C   UNL     1      -9.845   8.442  71.432  1.00  0.00    -0.259 A  
HETATM   21  C   UNL     1     -11.074   5.944  71.172  1.00  0.00    -0.305 A  
HETATM   22  C   UNL     1      -9.613   7.437  72.380  1.00  0.00    -0.153 A  
HETATM   23  N   UNL     1      -8.685   7.685  73.490  1.00  0.00    -0.190 N  
HETATM   24  C   UNL     1     -10.231   6.189  72.256  1.00  0.00    -0.210 A  
HETATM   25  O   UNL     1      -8.127   8.790  73.544  1.00  0.00    -0.396 OA 
HETATM   26  O   UNL     1      -8.500   6.766  74.304  1.00  0.00    -0.132 OA 
ENDBRANCH  13  18
ENDBRANCH   4   6
ENDBRANCH   3   4
ENDBRANCH   2   3
TORSDOF 6
ENDMDL
MODEL      122
REMARK 921   NORMALIZED FREE ENERGY PREDICTED BY IDOCK:   -3.89 KCAL/MOL
REMARK 922        TOTAL FREE ENERGY PREDICTED BY IDOCK:   -6.40 KCAL/MOL
REMARK 923 INTER-LIGAND FREE ENERGY PREDICTED BY IDOCK:   -5.51 KCAL/MOL
REMARK 924 INTRA-LIGAND FREE ENERGY PREDICTED BY IDOCK:   -0.89 KCAL/MOL
REMARK 927      BINDING AFFINITY PREDICTED BY RF-SCORE:    0.00 PKD
ROOT
HETATM    1  C   UNL     1      -8.941   6.647  67.356  1.00  0.00    -0.114 C  
HETATM    2  C   UNL     1      -8.008   7.582  68.102  1.00  0.00    -0.123 C  
ENDROOT
BRANCH   2   3
HETATM    3  O   UNL     1      -8.724   8.809  68.299  1.00  0.00    -0.133 OA 
BRANCH   3   4
HETATM    4  C   UNL     1      -8.120   9.928  67.824  1.00  0.00    -0.109 C  
HETATM    5  O   UNL     1      -7.248  10.560  68.400  1.00  0.00    -0.076 OA 
BRANCH   4   6
HETATM    6  C   UNL     1      -8.618  10.216  66.455  1.00  0.00    -0.132 C  
HETATM    7  C   UNL     1      -7.933   9.790  65.369  1.00  0.00    -0.125 C  
HETATM    8  N   UNL     1      -8.427  10.059  64.104  1.00  0.00    -0.163 NA 
HETATM    9  C   UNL     1      -6.643   8.999  65.347  1.00  0.00    -0.068 C  
HETATM   10  C   UNL     1      -9.534  10.833  63.830  1.00  0.00    -0.283 C  
HETATM   11  C   UNL     1      -9.804  11.061  62.360  1.00  0.00     0.062 C  
HETATM   12  C   UNL     1     -10.290  11.323  64.842  1.00  0.00    -0.362 C  
HETATM   13  C   UNL     1      -9.942  10.996  66.305  1.00  0.00    -0.269 C  
BRANCH  12  14
HETATM   14  C   UNL     1     -11.428  12.221  64.507  1.00  0.00    -0.341 C  
HETATM   15  O   UNL     1     -12.603  11.880  64.539  1.00  0.00    -0.293 OA 
BRANCH  14  16
HETATM   16  O   UNL     1     -11.010  13.464  64.148  1.00  0.00    -0.378 OA 
HETATM   17  C   UNL     1     -11.873  14.509  64.606  1.00  0.00    -0.453 C  
ENDBRANCH  14  16
ENDBRANCH  12  14
BRANCH  13  18
HETATM   18  C   UNL     1      -9.957  12.250  67.187  1.00  0.00    -0.213 A  
HETATM   19  C   UNL     1      -9.237  13.400  66.828  1.00  0.00    -0.242 A  
HETATM   20  C   UNL     1     -10.728  12.271  68.367  1.00  0.00    -0.255 A  
HETATM   21  C   UNL     1      -9.293  14.551  67.617  1.00  0.00    -0.202 A  
HETATM   22  C   UNL     1     -10.801  13.438  69.138  1.00  0.00    -0.114 A  
HETATM   23  N   UNL     1     -11.670  13.476  70.321  1.00  0.00    -0.229 N  
HETATM   24  C   UNL     1     -10.080  14.578  68.769  1.00  0.00    -0.239 A  
HETATM   25  O   UNL     1     -12.323  12.459  70.593  1.00  0.00    -0.351 OA 
HETATM   26  O   UNL     1     -11.712  14.531  70.973  1.00  0.00    -0.300 OA 
ENDBRANCH  13  18
ENDBRANCH   4   6
ENDBRANCH   3   4
ENDBRANCH   2   3
TORSDOF 6
ENDMDL
MODEL      123
REMARK 921   NORMALIZED FREE ENERGY PREDICTED BY IDOCK:   -3.79 KCAL/MOL
REMARK 922        TOTAL FREE ENERGY PREDICTED BY IDOCK:   -6.27 KCAL/MOL
REMARK 923 INTER-LIGAND FREE ENERGY PREDICTED BY IDOCK:   -5.73 KCAL/MOL
REMARK 924 INTRA-LIGAND FREE ENERGY PREDICTED BY IDOCK:   -0.54 KCAL/MOL
REMARK 927      BINDING AFFINITY PREDICTED BY RF-SCORE:    0.00 PKD
ROOT
HETATM    1  C   UNL     1     -12.274  16.198  72.171  1.00  0.00    -0.549 C  
HETATM    2  C   UNL     1     -11.951  15.476  70.876  1.00  0.00    -0.375 C  
ENDROOT
BRANCH   2   3
HETATM    3  O   UNL     1     -10.858  16.183  70.272  1.00  0.00    -0.330 OA 
BRANCH   3   4
HETATM    4  C   UNL     1     -10.925  16.332  68.925  1.00  0.00    -0.334 C  
HETATM    5  O   UNL     1     -11.850  15.965  68.217  1.00  0.00    -0.277 OA 
BRANCH   4   6
HETATM    6  C   UNL     1      -9.741  17.092  68.452  1.00  0.00    -0.279 C  
HETATM    7  C   UNL     1      -9.880  18.336  67.939  1.00  0.00    -0.317 C  
HETATM    8  N   UNL     1      -8.757  19.029  67.520  1.00  0.00    -0.287 NA 
HETATM    9  C   UNL     1     -11.160  19.124  67.772  1.00  0.00    -0.116 C  
HETATM   10  C   UNL     1      -7.477  18.520  67.477  1.00  0.00    -0.220 C  
HETATM   11  C   UNL     1      -6.442  19.446  66.879  1.00  0.00    -0.194 C  
HETATM   12  C   UNL     1      -7.221  17.278  67.955  1.00  0.00    -0.192 C  
HETATM   13  C   UNL     1      -8.349  16.435  68.579  1.00  0.00    -0.202 C  
BRANCH  12  14
HETATM   14  C   UNL     1      -5.844  16.734  67.817  1.00  0.00    -0.134 C  
HETATM   15  O   UNL     1      -5.319  16.459  66.748  1.00  0.00    -0.348 OA 
BRANCH  14  16
HETATM   16  O   UNL     1      -5.238  16.566  69.023  1.00  0.00    -0.116 OA 
HETATM   17  C   UNL     1      -5.471  17.647  69.932  1.00  0.00    -0.230 C  
ENDBRANCH  14  16
ENDBRANCH  12  14
BRANCH  13  18
HETATM   18  C   UNL     1      -8.354  15.001  68.033  1.00  0.00    -0.148 A  
HETATM   19  C   UNL     1      -7.802  13.942  68.770  1.00  0.00    -0.079 A  
HETATM   20  C   UNL     1      -8.946  14.726  66.784  1.00  0.00    -0.292 A  
HETATM   21  C   UNL     1      -7.852  12.634  68.282  1.00  0.00    -0.144 A  
HETATM   22  C   UNL     1      -9.016  13.408  66.315  1.00  0.00     0.132 A  
HETATM   23  N   UNL     1      -9.706  13.122  65.052  1.00  0.00    -0.004 N  
HETATM   24  C   UNL     1      -8.464  12.361  67.059  1.00  0.00    -0.170 A  
HETATM   25  O   UNL     1     -10.217  14.072  64.441  1.00  0.00    -0.310 OA 
HETATM   26  O   UNL     1      -9.753  11.940  64.675  1.00  0.00    -0.212 OA 
ENDBRANCH  13  18
ENDBRANCH   4   6
ENDBRANCH   3   4
ENDBRANCH   2   3
TORSDOF 6
ENDMDL
MODEL      124
REMARK 921   NORMALIZED FREE ENERGY PREDICTED BY IDOCK:   -3.79 KCAL/MOL
REMARK 922        TOTAL FREE ENERGY PREDICTED BY IDOCK:   -6.27 KCAL/MOL
REMARK 923 INTER-LIGAND FREE ENERGY PREDICTED BY IDOCK:   -5.71 KCAL/MOL
REMARK 924 INTRA-LIGAND FREE ENERGY PREDICTED BY IDOCK:   -0.56 KCAL/MOL
REMARK 927      BINDING AFFINITY PREDICTED BY RF-SCORE:    0.00 PKD
ROOT
HETATM    1  C   UNL     1     -11.796  10.632  69.992  1.00  0.00    -0.403 C  
HETATM    2  C   UNL     1     -11.278  10.045  68.692  1.00  0.00    -0.121 C  
ENDROOT
BRANCH   2   3
HETATM    3  O   UNL     1     -11.781  10.875  67.636  1.00  0.00    -0.566 OA 
BRANCH   3   4
HETATM    4  C   UNL     1     -10.878  11.240  66.692  1.00  0.00    -0.273 C  
HETATM    5  O   UNL     1     -10.283  10.476  65.947  1.00  0.00    -0.253 OA 
BRANCH   4   6
HETATM    6  C   UNL     1     -10.788  12.721  66.638  1.00  0.00    -0.288 C  
HETATM    7  C   UNL     1     -11.416  13.415  65.661  1.00  0.00    -0.316 C  
HETATM    8  N   UNL     1     -11.329  14.797  65.643  1.00  0.00    -0.345 NA 
HETATM    9  C   UNL     1     -12.262  12.859  64.536  1.00  0.00    -0.489 C  
HETATM   10  C   UNL     1     -10.556  15.557  66.494  1.00  0.00    -0.307 C  
HETATM   11  C   UNL     1     -10.554  17.040  66.200  1.00  0.00    -0.194 C  
HETATM   12  C   UNL     1      -9.874  14.966  67.505  1.00  0.00    -0.217 C  
HETATM   13  C   UNL     1      -9.979  13.447  67.735  1.00  0.00    -0.233 C  
BRANCH  12  14
HETATM   14  C   UNL     1      -8.987  15.810  68.351  1.00  0.00    -0.187 C  
HETATM   15  O   UNL     1      -8.090  16.516  67.913  1.00  0.00    -0.159 OA 
BRANCH  14  16
HETATM   16  O   UNL     1      -9.283  15.695  69.673  1.00  0.00    -0.277 OA 
HETATM   17  C   UNL     1     -10.498  16.353  70.044  1.00  0.00    -0.131 C  
ENDBRANCH  14  16
ENDBRANCH  12  14
BRANCH  13  18
HETATM   18  C   UNL     1      -8.600  12.806  67.932  1.00  0.00    -0.181 A  
HETATM   19  C   UNL     1      -7.475  13.271  67.234  1.00  0.00    -0.069 A  
HETATM   20  C   UNL     1      -8.442  11.747  68.849  1.00  0.00     0.093 A  
HETATM   21  C   UNL     1      -6.217  12.707  67.455  1.00  0.00    -0.149 A  
HETATM   22  C   UNL     1      -7.172  11.205  69.085  1.00  0.00    -0.123 A  
HETATM   23  N   UNL     1      -7.004  10.159  70.100  1.00  0.00    -0.144 N  
HETATM   24  C   UNL     1      -6.058  11.680  68.384  1.00  0.00    -0.049 A  
HETATM   25  O   UNL     1      -8.008   9.793  70.727  1.00  0.00    -0.288 OA 
HETATM   26  O   UNL     1      -5.862   9.711  70.284  1.00  0.00    -0.042 OA 
ENDBRANCH  13  18
ENDBRANCH   4   6
ENDBRANCH   3   4
ENDBRANCH   2   3
TORSDOF 6
ENDMDL
MODEL      125
REMARK 921   NORMALIZED FREE ENERGY PREDICTED BY IDOCK:   -3.75 KCAL/MOL
REMARK 922        TOTAL FREE ENERGY PREDICTED BY IDOCK:   -6.22 KCAL/MOL
REMARK 923 INTER-LIGAND FREE ENERGY PREDICTED BY IDOCK:   -5.33 KCAL/MOL
REMARK 924 INTRA-LIGAND FREE ENERGY PREDICTED BY IDOCK:   -0.89 KCAL/MOL
REMARK 927      BINDING AFFINITY PREDICTED BY RF-SCORE:    0.00 PKD
ROOT
HETATM    1  C   UNL     1      -7.597   4.535  66.410  1.00  0.00    -0.090 C  
HETATM    2  C   UNL     1      -7.739   5.725  67.341  1.00  0.00    -0.097 C  
ENDROOT
BRANCH   2   3
HETATM    3  O   UNL     1      -8.607   6.660  66.684  1.00  0.00    -0.115 OA 
BRANCH   3   4
HETATM    4  C   UNL     1      -9.931   6.516  66.940  1.00  0.00    -0.173 C  
HETATM    5  O   UNL     1     -10.624   5.575  66.581  1.00  0.00    -0.274 OA 
BRANCH   4   6
HETATM    6  C   UNL     1     -10.394   7.632  67.803  1.00  0.00    -0.282 C  
HETATM    7  C   UNL     1     -10.378   8.906  67.350  1.00  0.00    -0.269 C  
HETATM    8  N   UNL     1     -10.829   9.926  68.170  1.00  0.00    -0.246 NA 
HETATM    9  C   UNL     1      -9.931   9.393  65.989  1.00  0.00    -0.352 C  
HETATM   10  C   UNL     1     -11.212   9.780  69.486  1.00  0.00    -0.142 C  
HETATM   11  C   UNL     1     -11.565  11.068  70.194  1.00  0.00    -0.421 C  
HETATM   12  C   UNL     1     -11.255   8.548  70.049  1.00  0.00    -0.086 C  
HETATM   13  C   UNL     1     -10.909   7.298  69.220  1.00  0.00    -0.177 C  
BRANCH  12  14
HETATM   14  C   UNL     1     -11.595   8.440  71.494  1.00  0.00    -0.284 C  
HETATM   15  O   UNL     1     -10.839   8.757  72.402  1.00  0.00    -0.320 OA 
BRANCH  14  16
HETATM   16  O   UNL     1     -12.842   7.936  71.689  1.00  0.00    -0.321 OA 
HETATM   17  C   UNL     1     -13.765   8.890  72.222  1.00  0.00    -0.471 C  
ENDBRANCH  14  16
ENDBRANCH  12  14
BRANCH  13  18
HETATM   18  C   UNL     1      -9.940   6.372  69.966  1.00  0.00    -0.200 A  
HETATM   19  C   UNL     1     -10.225   5.008  70.137  1.00  0.00    -0.329 A  
HETATM   20  C   UNL     1      -8.726   6.882  70.467  1.00  0.00    -0.150 A  
HETATM   21  C   UNL     1      -9.315   4.166  70.780  1.00  0.00    -0.223 A  
HETATM   22  C   UNL     1      -7.806   6.025  71.086  1.00  0.00    -0.111 A  
HETATM   23  N   UNL     1      -6.510   6.550  71.532  1.00  0.00    -0.046 N  
HETATM   24  C   UNL     1      -8.100   4.668  71.249  1.00  0.00    -0.096 A  
HETATM   25  O   UNL     1      -6.270   7.749  71.334  1.00  0.00    -0.035 OA 
HETATM   26  O   UNL     1      -5.720   5.757  72.069  1.00  0.00    -0.021 OA 
ENDBRANCH  13  18
ENDBRANCH   4   6
ENDBRANCH   3   4
ENDBRANCH   2   3
TORSDOF 6
ENDMDL
MODEL      126
REMARK 921   NORMALIZED FREE ENERGY PREDICTED BY IDOCK:   -3.75 KCAL/MOL
REMARK 922        TOTAL FREE ENERGY PREDICTED BY IDOCK:   -6.22 KCAL/MOL
REMARK 923 INTER-LIGAND FREE ENERGY PREDICTED BY IDOCK:   -5.44 KCAL/MOL
REMARK 924 INTRA-LIGAND FREE ENERGY PREDICTED BY IDOCK:   -0.78 KCAL/MOL
REMARK 927      BINDING AFFINITY PREDICTED BY RF-SCORE:    0.00 PKD
ROOT
HETATM    1  C   UNL     1      -6.703   6.771  68.677  1.00  0.00    -0.064 C  
HETATM    2  C   UNL     1      -6.985   6.234  67.286  1.00  0.00    -0.072 C  
ENDROOT
BRANCH   2   3
HETATM    3  O   UNL     1      -7.414   7.350  66.493  1.00  0.00    -0.081 OA 
BRANCH   3   4
HETATM    4  C   UNL     1      -8.692   7.297  66.042  1.00  0.00    -0.151 C  
HETATM    5  O   UNL     1      -9.414   6.312  66.073  1.00  0.00    -0.109 OA 
BRANCH   4   6
HETATM    6  C   UNL     1      -9.113   8.646  65.587  1.00  0.00    -0.221 C  
HETATM    7  C   UNL     1      -8.654   9.155  64.420  1.00  0.00    -0.181 C  
HETATM    8  N   UNL     1      -9.074  10.409  64.011  1.00  0.00    -0.220 NA 
HETATM    9  C   UNL     1      -7.709   8.497  63.439  1.00  0.00    -0.139 C  
HETATM   10  C   UNL     1      -9.864  11.264  64.750  1.00  0.00    -0.266 C  
HETATM   11  C   UNL     1     -10.096  12.620  64.123  1.00  0.00    -0.293 C  
HETATM   12  C   UNL     1     -10.372  10.864  65.941  1.00  0.00    -0.310 C  
HETATM   13  C   UNL     1     -10.101   9.442  66.467  1.00  0.00    -0.332 C  
BRANCH  12  14
HETATM   14  C   UNL     1     -11.152  11.843  66.744  1.00  0.00    -0.308 C  
HETATM   15  O   UNL     1     -12.272  12.236  66.449  1.00  0.00    -0.613 OA 
BRANCH  14  16
HETATM   16  O   UNL     1     -10.468  12.261  67.843  1.00  0.00    -0.204 OA 
HETATM   17  C   UNL     1      -9.793  13.507  67.653  1.00  0.00    -0.228 C  
ENDBRANCH  14  16
ENDBRANCH  12  14
BRANCH  13  18
HETATM   18  C   UNL     1      -9.659   9.455  67.935  1.00  0.00    -0.155 A  
HETATM   19  C   UNL     1     -10.451   8.873  68.938  1.00  0.00    -0.225 A  
HETATM   20  C   UNL     1      -8.424  10.032  68.293  1.00  0.00    -0.111 A  
HETATM   21  C   UNL     1     -10.017   8.852  70.265  1.00  0.00    -0.214 A  
HETATM   22  C   UNL     1      -7.984   9.982  69.622  1.00  0.00    -0.170 A  
HETATM   23  N   UNL     1      -6.661  10.514  69.970  1.00  0.00    -0.130 N  
HETATM   24  C   UNL     1      -8.781   9.398  70.611  1.00  0.00    -0.263 A  
HETATM   25  O   UNL     1      -5.968  10.987  69.059  1.00  0.00    -0.040 OA 
HETATM   26  O   UNL     1      -6.305  10.445  71.157  1.00  0.00    -0.339 OA 
ENDBRANCH  13  18
ENDBRANCH   4   6
ENDBRANCH   3   4
ENDBRANCH   2   3
TORSDOF 6
ENDMDL
MODEL      127
REMARK 921   NORMALIZED FREE ENERGY PREDICTED BY IDOCK:   -3.75 KCAL/MOL
REMARK 922        TOTAL FREE ENERGY PREDICTED BY IDOCK:   -6.21 KCAL/MOL
REMARK 923 INTER-LIGAND FREE ENERGY PREDICTED BY IDOCK:   -5.35 KCAL/MOL
REMARK 924 INTRA-LIGAND FREE ENERGY PREDICTED BY IDOCK:   -0.86 KCAL/MOL
REMARK 927      BINDING AFFINITY PREDICTED BY RF-SCORE:    0.00 PKD
ROOT
HETATM    1  C   UNL     1     -12.033  13.418  68.780  1.00  0.00    -0.359 C  
HETATM    2  C   UNL     1     -12.035  12.291  69.797  1.00  0.00    -0.295 C  
ENDROOT
BRANCH   2   3
HETATM    3  O   UNL     1     -11.888  11.070  69.059  1.00  0.00    -0.310 OA 
BRANCH   3   4
HETATM    4  C   UNL     1     -10.974  10.193  69.545  1.00  0.00    -0.256 C  
HETATM    5  O   UNL     1     -10.712  10.025  70.727  1.00  0.00    -0.303 OA 
BRANCH   4   6
HETATM    6  C   UNL     1     -10.404   9.401  68.427  1.00  0.00    -0.238 C  
HETATM    7  C   UNL     1     -10.323   8.052  68.507  1.00  0.00    -0.199 C  
HETATM    8  N   UNL     1      -9.802   7.336  67.444  1.00  0.00    -0.147 NA 
HETATM    9  C   UNL     1     -10.769   7.172  69.654  1.00  0.00    -0.256 C  
HETATM   10  C   UNL     1      -9.243   7.887  66.311  1.00  0.00    -0.178 C  
HETATM   11  C   UNL     1      -8.649   6.889  65.342  1.00  0.00    -0.054 C  
HETATM   12  C   UNL     1      -9.258   9.230  66.128  1.00  0.00    -0.249 C  
HETATM   13  C   UNL     1      -9.925  10.152  67.165  1.00  0.00    -0.243 C  
BRANCH  12  14
HETATM   14  C   UNL     1      -8.573   9.791  64.932  1.00  0.00    -0.167 C  
HETATM   15  O   UNL     1      -7.430  10.225  64.937  1.00  0.00    -0.143 OA 
BRANCH  14  16
HETATM   16  O   UNL     1      -9.373   9.776  63.832  1.00  0.00    -0.261 OA 
HETATM   17  C   UNL     1      -9.575  11.071  63.259  1.00  0.00    -0.345 C  
ENDBRANCH  14  16
ENDBRANCH  12  14
BRANCH  13  18
HETATM   18  C   UNL     1      -9.029  11.342  67.528  1.00  0.00    -0.140 A  
HETATM   19  C   UNL     1      -9.207  12.597  66.924  1.00  0.00    -0.216 A  
HETATM   20  C   UNL     1      -8.024  11.193  68.504  1.00  0.00    -0.143 A  
HETATM   21  C   UNL     1      -8.413  13.684  67.294  1.00  0.00    -0.203 A  
HETATM   22  C   UNL     1      -7.250  12.296  68.890  1.00  0.00    -0.069 A  
HETATM   23  N   UNL     1      -6.260  12.150  69.964  1.00  0.00    -0.133 N  
HETATM   24  C   UNL     1      -7.438  13.541  68.282  1.00  0.00    -0.122 A  
HETATM   25  O   UNL     1      -6.151  11.041  70.505  1.00  0.00    -0.204 OA 
HETATM   26  O   UNL     1      -5.601  13.152  70.281  1.00  0.00    -0.115 OA 
ENDBRANCH  13  18
ENDBRANCH   4   6
ENDBRANCH   3   4
ENDBRANCH   2   3
TORSDOF 6
ENDMDL
MODEL      128
REMARK 921   NORMALIZED FREE ENERGY PREDICTED BY IDOCK:   -3.74 KCAL/MOL
REMARK 922        TOTAL FREE ENERGY PREDICTED BY IDOCK:   -6.20 KCAL/MOL
REMARK 923 INTER-LIGAND FREE ENERGY PREDICTED BY IDOCK:   -5.17 KCAL/MOL
REMARK 924 INTRA-LIGAND FREE ENERGY PREDICTED BY IDOCK:   -1.02 KCAL/MOL
REMARK 927      BINDING AFFINITY PREDICTED BY RF-SCORE:    0.00 PKD
ROOT
HETATM    1  C   UNL     1     -11.946  12.658  67.483  1.00  0.00    -0.314 C  
HETATM    2  C   UNL     1     -11.816  11.646  68.606  1.00  0.00    -0.308 C  
ENDROOT
BRANCH   2   3
HETATM    3  O   UNL     1     -11.164  10.495  68.050  1.00  0.00    -0.289 OA 
BRANCH   3   4
HETATM    4  C   UNL     1      -9.809  10.544  68.017  1.00  0.00    -0.147 C  
HETATM    5  O   UNL     1      -9.117  11.392  68.560  1.00  0.00    -0.173 OA 
BRANCH   4   6
HETATM    6  C   UNL     1      -9.288   9.356  67.294  1.00  0.00    -0.159 C  
HETATM    7  C   UNL     1      -9.296   9.313  65.942  1.00  0.00    -0.236 C  
HETATM    8  N   UNL     1      -8.790   8.200  65.293  1.00  0.00    -0.062 NA 
HETATM    9  C   UNL     1      -9.788  10.382  64.991  1.00  0.00    -0.384 C  
HETATM   10  C   UNL     1      -8.358   7.047  65.910  1.00  0.00    -0.141 C  
HETATM   11  C   UNL     1      -7.948   5.935  64.971  1.00  0.00    -0.123 C  
HETATM   12  C   UNL     1      -8.317   6.972  67.263  1.00  0.00    -0.122 C  
HETATM   13  C   UNL     1      -8.722   8.183  68.124  1.00  0.00    -0.136 C  
BRANCH  12  14
HETATM   14  C   UNL     1      -7.921   5.683  67.891  1.00  0.00    -0.097 C  
HETATM   15  O   UNL     1      -8.610   4.673  67.878  1.00  0.00    -0.102 OA 
BRANCH  14  16
HETATM   16  O   UNL     1      -6.705   5.762  68.495  1.00  0.00    -0.053 OA 
HETATM   17  C   UNL     1      -5.827   4.687  68.147  1.00  0.00    -0.022 C  
ENDBRANCH  14  16
ENDBRANCH  12  14
BRANCH  13  18
HETATM   18  C   UNL     1      -9.679   7.782  69.253  1.00  0.00    -0.165 A  
HETATM   19  C   UNL     1     -10.870   7.089  68.985  1.00  0.00    -0.212 A  
HETATM   20  C   UNL     1      -9.353   8.084  70.591  1.00  0.00    -0.162 A  
HETATM   21  C   UNL     1     -11.712   6.691  70.026  1.00  0.00    -0.378 A  
HETATM   22  C   UNL     1     -10.189   7.657  71.631  1.00  0.00    -0.185 A  
HETATM   23  N   UNL     1      -9.802   7.906  73.025  1.00  0.00    -0.274 N  
HETATM   24  C   UNL     1     -11.372   6.965  71.351  1.00  0.00    -0.308 A  
HETATM   25  O   UNL     1      -8.727   8.486  73.232  1.00  0.00    -0.337 OA 
HETATM   26  O   UNL     1     -10.566   7.505  73.916  1.00  0.00    -0.279 OA 
ENDBRANCH  13  18
ENDBRANCH   4   6
ENDBRANCH   3   4
ENDBRANCH   2   3
TORSDOF 6
ENDMDL
MODEL      129
REMARK 921   NORMALIZED FREE ENERGY PREDICTED BY IDOCK:   -3.73 KCAL/MOL
REMARK 922        TOTAL FREE ENERGY PREDICTED BY IDOCK:   -6.19 KCAL/MOL
REMARK 923 INTER-LIGAND FREE ENERGY PREDICTED BY IDOCK:   -4.90 KCAL/MOL
REMARK 924 INTRA-LIGAND FREE ENERGY PREDICTED BY IDOCK:   -1.29 KCAL/MOL
REMARK 927      BINDING AFFINITY PREDICTED BY RF-SCORE:    0.00 PKD
ROOT
HETATM    1  C   UNL     1      -6.141  10.672  69.822  1.00  0.00    -0.074 C  
HETATM    2  C   UNL     1      -5.633  12.102  69.844  1.00  0.00    -0.112 C  
ENDROOT
BRANCH   2   3
HETATM    3  O   UNL     1      -6.700  12.926  69.351  1.00  0.00    -0.094 OA 
BRANCH   3   4
HETATM    4  C   UNL     1      -6.676  13.188  68.020  1.00  0.00    -0.119 C  
HETATM    5  O   UNL     1      -5.730  12.982  67.274  1.00  0.00    -0.334 OA 
BRANCH   4   6
HETATM    6  C   UNL     1      -8.009  13.680  67.588  1.00  0.00    -0.180 C  
HETATM    7  C   UNL     1      -8.424  14.925  67.916  1.00  0.00    -0.153 C  
HETATM    8  N   UNL     1      -9.665  15.364  67.488  1.00  0.00    -0.208 NA 
HETATM    9  C   UNL     1      -7.668  15.966  68.713  1.00  0.00    -0.181 C  
HETATM   10  C   UNL     1     -10.595  14.595  66.822  1.00  0.00    -0.288 C  
HETATM   11  C   UNL     1     -11.916  15.281  66.556  1.00  0.00     0.290 C  
HETATM   12  C   UNL     1     -10.292  13.328  66.451  1.00  0.00    -0.286 C  
HETATM   13  C   UNL     1      -8.897  12.743  66.741  1.00  0.00    -0.161 C  
BRANCH  12  14
HETATM   14  C   UNL     1     -11.349  12.504  65.807  1.00  0.00    -0.336 C  
HETATM   15  O   UNL     1     -12.372  12.138  66.369  1.00  0.00    -0.489 OA 
BRANCH  14  16
HETATM   16  O   UNL     1     -11.041  12.193  64.519  1.00  0.00    -0.300 OA 
HETATM   17  C   UNL     1     -11.891  12.830  63.561  1.00  0.00    -0.546 C  
ENDBRANCH  14  16
ENDBRANCH  12  14
BRANCH  13  18
HETATM   18  C   UNL     1      -8.985  11.343  67.360  1.00  0.00    -0.154 A  
HETATM   19  C   UNL     1      -9.454  11.155  68.670  1.00  0.00    -0.196 A  
HETATM   20  C   UNL     1      -8.620  10.213  66.600  1.00  0.00    -0.130 A  
HETATM   21  C   UNL     1      -9.571   9.872  69.207  1.00  0.00    -0.215 A  
HETATM   22  C   UNL     1      -8.766   8.928  67.137  1.00  0.00    -0.120 A  
HETATM   23  N   UNL     1      -8.460   7.754  66.310  1.00  0.00    -0.133 N  
HETATM   24  C   UNL     1      -9.236   8.754  68.443  1.00  0.00    -0.137 A  
HETATM   25  O   UNL     1      -8.084   7.949  65.145  1.00  0.00    -0.131 OA 
HETATM   26  O   UNL     1      -8.609   6.633  66.820  1.00  0.00    -0.113 OA 
ENDBRANCH  13  18
ENDBRANCH   4   6
ENDBRANCH   3   4
ENDBRANCH   2   3
TORSDOF 6
ENDMDL
MODEL      130
REMARK 921   NORMALIZED FREE ENERGY PREDICTED BY IDOCK:   -3.72 KCAL/MOL
REMARK 922        TOTAL FREE ENERGY PREDICTED BY IDOCK:   -6.18 KCAL/MOL
REMARK 923 INTER-LIGAND FREE ENERGY PREDICTED BY IDOCK:   -5.83 KCAL/MOL
REMARK 924 INTRA-LIGAND FREE ENERGY PREDICTED BY IDOCK:   -0.35 KCAL/MOL
REMARK 927      BINDING AFFINITY PREDICTED BY RF-SCORE:    0.00 PKD
ROOT
HETATM    1  C   UNL     1     -10.463  14.019  64.725  1.00  0.00    -0.445 C  
HETATM    2  C   UNL     1      -9.837  12.852  65.465  1.00  0.00    -0.146 C  
ENDROOT
BRANCH   2   3
HETATM    3  O   UNL     1     -10.607  12.661  66.661  1.00  0.00    -0.245 OA 
BRANCH   3   4
HETATM    4  C   UNL     1      -9.903  12.642  67.820  1.00  0.00    -0.212 C  
HETATM    5  O   UNL     1      -8.691  12.515  67.910  1.00  0.00    -0.162 OA 
BRANCH   4   6
HETATM    6  C   UNL     1     -10.820  12.892  68.960  1.00  0.00    -0.188 C  
HETATM    7  C   UNL     1     -11.835  12.038  69.229  1.00  0.00    -0.318 C  
HETATM    8  N   UNL     1     -12.666  12.286  70.307  1.00  0.00     0.081 NA 
HETATM    9  C   UNL     1     -12.192  10.771  68.483  1.00  0.00     0.311 C  
HETATM   10  C   UNL     1     -12.623  13.410  71.104  1.00  0.00    -0.345 C  
HETATM   11  C   UNL     1     -13.708  13.490  72.154  1.00  0.00    -0.654 C  
HETATM   12  C   UNL     1     -11.654  14.339  70.919  1.00  0.00    -0.146 C  
HETATM   13  C   UNL     1     -10.573  14.136  69.841  1.00  0.00     0.292 C  
BRANCH  12  14
HETATM   14  C   UNL     1     -11.689  15.576  71.745  1.00  0.00    -0.432 C  
HETATM   15  O   UNL     1     -11.773  16.706  71.285  1.00  0.00    -0.202 OA 
BRANCH  14  16
HETATM   16  O   UNL     1     -11.605  15.305  73.075  1.00  0.00    -0.425 OA 
HETATM   17  C   UNL     1     -12.387  16.187  73.886  1.00  0.00    -0.569 C  
ENDBRANCH  14  16
ENDBRANCH  12  14
BRANCH  13  18
HETATM   18  C   UNL     1     -10.377  15.396  68.989  1.00  0.00    -0.243 A  
HETATM   19  C   UNL     1     -11.368  15.832  68.097  1.00  0.00    -0.337 A  
HETATM   20  C   UNL     1      -9.195  16.154  69.117  1.00  0.00    -0.246 A  
HETATM   21  C   UNL     1     -11.196  17.005  67.358  1.00  0.00     0.194 A  
HETATM   22  C   UNL     1      -9.042  17.343  68.394  1.00  0.00    -0.274 A  
HETATM   23  N   UNL     1      -7.843  18.167  68.594  1.00  0.00    -0.305 N  
HETATM   24  C   UNL     1     -10.038  17.768  67.509  1.00  0.00    -0.340 A  
HETATM   25  O   UNL     1      -7.002  17.777  69.416  1.00  0.00    -0.205 OA 
HETATM   26  O   UNL     1      -7.749  19.217  67.939  1.00  0.00    -0.268 OA 
ENDBRANCH  13  18
ENDBRANCH   4   6
ENDBRANCH   3   4
ENDBRANCH   2   3
TORSDOF 6
ENDMDL
MODEL      131
REMARK 921   NORMALIZED FREE ENERGY PREDICTED BY IDOCK:   -3.72 KCAL/MOL
REMARK 922        TOTAL FREE ENERGY PREDICTED BY IDOCK:   -6.18 KCAL/MOL
REMARK 923 INTER-LIGAND FREE ENERGY PREDICTED BY IDOCK:   -5.23 KCAL/MOL
REMARK 924 INTRA-LIGAND FREE ENERGY PREDICTED BY IDOCK:   -0.95 KCAL/MOL
REMARK 927      BINDING AFFINITY PREDICTED BY RF-SCORE:    0.00 PKD
ROOT
HETATM    1  C   UNL     1     -12.032  13.113  67.868  1.00  0.00    -0.347 C  
HETATM    2  C   UNL     1     -11.928  11.752  68.530  1.00  0.00    -0.215 C  
ENDROOT
BRANCH   2   3
HETATM    3  O   UNL     1     -11.294  10.880  67.584  1.00  0.00    -0.372 OA 
BRANCH   3   4
HETATM    4  C   UNL     1      -9.940  10.946  67.535  1.00  0.00    -0.174 C  
HETATM    5  O   UNL     1      -9.222  11.403  68.411  1.00  0.00    -0.173 OA 
BRANCH   4   6
HETATM    6  C   UNL     1      -9.457  10.295  66.292  1.00  0.00    -0.223 C  
HETATM    7  C   UNL     1      -9.750  10.819  65.079  1.00  0.00    -0.269 C  
HETATM    8  N   UNL     1      -9.274  10.200  63.937  1.00  0.00    -0.262 NA 
HETATM    9  C   UNL     1     -10.553  12.067  64.787  1.00  0.00    -0.340 C  
HETATM   10  C   UNL     1      -8.591   9.003  63.905  1.00  0.00    -0.132 C  
HETATM   11  C   UNL     1      -8.271   8.487  62.520  1.00  0.00    -0.189 C  
HETATM   12  C   UNL     1      -8.252   8.381  65.061  1.00  0.00    -0.155 C  
HETATM   13  C   UNL     1      -8.597   9.018  66.419  1.00  0.00    -0.136 C  
BRANCH  12  14
HETATM   14  C   UNL     1      -7.587   7.053  64.984  1.00  0.00    -0.104 C  
HETATM   15  O   UNL     1      -6.377   6.886  65.047  1.00  0.00    -0.038 OA 
BRANCH  14  16
HETATM   16  O   UNL     1      -8.483   6.042  64.822  1.00  0.00    -0.121 OA 
HETATM   17  C   UNL     1      -8.070   5.064  63.864  1.00  0.00    -0.119 C  
ENDBRANCH  14  16
ENDBRANCH  12  14
BRANCH  13  18
HETATM   18  C   UNL     1      -9.237   8.004  67.376  1.00  0.00    -0.155 A  
HETATM   19  C   UNL     1     -10.480   7.419  67.090  1.00  0.00    -0.403 A  
HETATM   20  C   UNL     1      -8.560   7.624  68.552  1.00  0.00    -0.129 A  
HETATM   21  C   UNL     1     -11.032   6.465  67.947  1.00  0.00    -0.416 A  
HETATM   22  C   UNL     1      -9.108   6.646  69.393  1.00  0.00    -0.143 A  
HETATM   23  N   UNL     1      -8.359   6.198  70.573  1.00  0.00    -0.127 N  
HETATM   24  C   UNL     1     -10.347   6.069  69.095  1.00  0.00    -0.289 A  
HETATM   25  O   UNL     1      -7.247   6.704  70.780  1.00  0.00    -0.067 OA 
HETATM   26  O   UNL     1      -8.875   5.324  71.287  1.00  0.00    -0.133 OA 
ENDBRANCH  13  18
ENDBRANCH   4   6
ENDBRANCH   3   4
ENDBRANCH   2   3
TORSDOF 6
ENDMDL
MODEL      132
REMARK 921   NORMALIZED FREE ENERGY PREDICTED BY IDOCK:   -3.69 KCAL/MOL
REMARK 922        TOTAL FREE ENERGY PREDICTED BY IDOCK:   -6.13 KCAL/MOL
REMARK 923 INTER-LIGAND FREE ENERGY PREDICTED BY IDOCK:   -5.06 KCAL/MOL
REMARK 924 INTRA-LIGAND FREE ENERGY PREDICTED BY IDOCK:   -1.08 KCAL/MOL
REMARK 927      BINDING AFFINITY PREDICTED BY RF-SCORE:    0.00 PKD
ROOT
HETATM    1  C   UNL     1     -10.951   9.489  67.839  1.00  0.00    -0.172 C  
HETATM    2  C   UNL     1      -9.781   8.983  67.015  1.00  0.00    -0.189 C  
ENDROOT
BRANCH   2   3
HETATM    3  O   UNL     1      -8.764   8.584  67.945  1.00  0.00    -0.136 OA 
BRANCH   3   4
HETATM    4  C   UNL     1      -8.226   9.579  68.695  1.00  0.00    -0.112 C  
HETATM    5  O   UNL     1      -8.358  10.775  68.483  1.00  0.00    -0.123 OA 
BRANCH   4   6
HETATM    6  C   UNL     1      -7.528   8.993  69.867  1.00  0.00    -0.065 C  
HETATM    7  C   UNL     1      -6.257   8.542  69.757  1.00  0.00    -0.035 C  
HETATM    8  N   UNL     1      -5.623   8.015  70.869  1.00  0.00    -0.029 NA 
HETATM    9  C   UNL     1      -5.380   8.554  68.525  1.00  0.00    -0.033 C  
HETATM   10  C   UNL     1      -6.214   7.804  72.097  1.00  0.00    -0.040 C  
HETATM   11  C   UNL     1      -5.335   7.118  73.118  1.00  0.00    -0.038 C  
HETATM   12  C   UNL     1      -7.489   8.207  72.318  1.00  0.00    -0.139 C  
HETATM   13  C   UNL     1      -8.280   8.932  71.214  1.00  0.00    -0.207 C  
BRANCH  12  14
HETATM   14  C   UNL     1      -8.117   7.888  73.628  1.00  0.00    -0.196 C  
HETATM   15  O   UNL     1      -8.263   8.697  74.533  1.00  0.00    -0.218 OA 
BRANCH  14  16
HETATM   16  O   UNL     1      -8.501   6.586  73.707  1.00  0.00    -0.120 OA 
HETATM   17  C   UNL     1      -9.863   6.418  74.110  1.00  0.00    -0.279 C  
ENDBRANCH  14  16
ENDBRANCH  12  14
BRANCH  13  18
HETATM   18  C   UNL     1      -9.687   8.344  71.043  1.00  0.00    -0.218 A  
HETATM   19  C   UNL     1      -9.879   7.064  70.502  1.00  0.00    -0.184 A  
HETATM   20  C   UNL     1     -10.812   9.082  71.462  1.00  0.00    -0.416 A  
HETATM   21  C   UNL     1     -11.162   6.522  70.392  1.00  0.00    -0.414 A  
HETATM   22  C   UNL     1     -12.093   8.521  71.374  1.00  0.00    -0.303 A  
HETATM   23  N   UNL     1     -13.250   9.264  71.886  1.00  0.00    -0.391 N  
HETATM   24  C   UNL     1     -12.271   7.243  70.834  1.00  0.00    -0.308 A  
HETATM   25  O   UNL     1     -13.046  10.376  72.393  1.00  0.00    -0.301 OA 
HETATM   26  O   UNL     1     -14.366   8.729  71.796  1.00  0.00    -0.387 OA 
ENDBRANCH  13  18
ENDBRANCH   4   6
ENDBRANCH   3   4
ENDBRANCH   2   3
TORSDOF 6
ENDMDL
MODEL      133
REMARK 921   NORMALIZED FREE ENERGY PREDICTED BY IDOCK:   -3.69 KCAL/MOL
REMARK 922        TOTAL FREE ENERGY PREDICTED BY IDOCK:   -6.13 KCAL/MOL
REMARK 923 INTER-LIGAND FREE ENERGY PREDICTED BY IDOCK:   -5.16 KCAL/MOL
REMARK 924 INTRA-LIGAND FREE ENERGY PREDICTED BY IDOCK:   -0.97 KCAL/MOL
REMARK 927      BINDING AFFINITY PREDICTED BY RF-SCORE:    0.00 PKD
ROOT
HETATM    1  C   UNL     1     -12.212   6.683  71.172  1.00  0.00    -0.357 C  
HETATM    2  C   UNL     1     -11.285   7.137  70.059  1.00  0.00    -0.238 C  
ENDROOT
BRANCH   2   3
HETATM    3  O   UNL     1     -11.506   8.544  69.887  1.00  0.00    -0.035 OA 
BRANCH   3   4
HETATM    4  C   UNL     1     -10.854   9.354  70.758  1.00  0.00    -0.305 C  
HETATM    5  O   UNL     1      -9.815   9.078  71.340  1.00  0.00    -0.278 OA 
BRANCH   4   6
HETATM    6  C   UNL     1     -11.546  10.666  70.827  1.00  0.00    -0.388 C  
HETATM    7  C   UNL     1     -12.728  10.789  71.473  1.00  0.00    -0.431 C  
HETATM    8  N   UNL     1     -13.345  12.026  71.536  1.00  0.00    -0.159 NA 
HETATM    9  C   UNL     1     -13.500   9.704  72.192  1.00  0.00    -0.516 C  
HETATM   10  C   UNL     1     -12.908  13.167  70.897  1.00  0.00    -0.159 C  
HETATM   11  C   UNL     1     -13.817  14.366  71.040  1.00  0.00    -0.136 C  
HETATM   12  C   UNL     1     -11.740  13.158  70.210  1.00  0.00    -0.203 C  
HETATM   13  C   UNL     1     -10.872  11.886  70.162  1.00  0.00     0.825 C  
BRANCH  12  14
HETATM   14  C   UNL     1     -11.343  14.384  69.468  1.00  0.00    -0.276 C  
HETATM   15  O   UNL     1     -11.762  14.679  68.357  1.00  0.00    -0.304 OA 
BRANCH  14  16
HETATM   16  O   UNL     1     -10.449  15.136  70.163  1.00  0.00    -0.248 OA 
HETATM   17  C   UNL     1      -9.356  15.601  69.366  1.00  0.00    -0.279 C  
ENDBRANCH  14  16
ENDBRANCH  12  14
BRANCH  13  18
HETATM   18  C   UNL     1     -10.414  11.565  68.734  1.00  0.00    -0.227 A  
HETATM   19  C   UNL     1     -11.337  11.452  67.683  1.00  0.00    -0.359 A  
HETATM   20  C   UNL     1      -9.042  11.406  68.455  1.00  0.00    -0.169 A  
HETATM   21  C   UNL     1     -10.904  11.202  66.379  1.00  0.00    -0.284 A  
HETATM   22  C   UNL     1      -8.613  11.183  67.140  1.00  0.00    -0.139 A  
HETATM   23  N   UNL     1      -7.178  11.099  66.847  1.00  0.00    -0.130 N  
HETATM   24  C   UNL     1      -9.543  11.075  66.101  1.00  0.00    -0.240 A  
HETATM   25  O   UNL     1      -6.385  11.240  67.789  1.00  0.00    -0.053 OA 
HETATM   26  O   UNL     1      -6.839  10.908  65.669  1.00  0.00    -0.070 OA 
ENDBRANCH  13  18
ENDBRANCH   4   6
ENDBRANCH   3   4
ENDBRANCH   2   3
TORSDOF 6
ENDMDL
MODEL      134
REMARK 921   NORMALIZED FREE ENERGY PREDICTED BY IDOCK:   -3.64 KCAL/MOL
REMARK 922        TOTAL FREE ENERGY PREDICTED BY IDOCK:   -6.06 KCAL/MOL
REMARK 923 INTER-LIGAND FREE ENERGY PREDICTED BY IDOCK:   -5.02 KCAL/MOL
REMARK 924 INTRA-LIGAND FREE ENERGY PREDICTED BY IDOCK:   -1.04 KCAL/MOL
REMARK 927      BINDING AFFINITY PREDICTED BY RF-SCORE:    0.00 PKD
ROOT
HETATM    1  C   UNL     1      -5.672   9.791  69.943  1.00  0.00    -0.041 C  
HETATM    2  C   UNL     1      -5.913  11.256  69.629  1.00  0.00    -0.090 C  
ENDROOT
BRANCH   2   3
HETATM    3  O   UNL     1      -6.979  11.302  68.670  1.00  0.00    -0.071 OA 
BRANCH   3   4
HETATM    4  C   UNL     1      -6.885  12.276  67.731  1.00  0.00    -0.109 C  
HETATM    5  O   UNL     1      -5.906  12.497  67.034  1.00  0.00    -0.304 OA 
BRANCH   4   6
HETATM    6  C   UNL     1      -8.188  12.977  67.612  1.00  0.00    -0.171 C  
HETATM    7  C   UNL     1      -8.546  13.925  68.510  1.00  0.00    -0.137 C  
HETATM    8  N   UNL     1      -9.760  14.574  68.367  1.00  0.00    -0.218 NA 
HETATM    9  C   UNL     1      -7.749  14.412  69.700  1.00  0.00     0.220 C  
HETATM   10  C   UNL     1     -10.720  14.269  67.426  1.00  0.00    -0.282 C  
HETATM   11  C   UNL     1     -12.005  15.058  67.547  1.00  0.00    -0.078 C  
HETATM   12  C   UNL     1     -10.475  13.328  66.482  1.00  0.00    -0.282 C  
HETATM   13  C   UNL     1      -9.113  12.612  66.430  1.00  0.00    -0.114 C  
BRANCH  12  14
HETATM   14  C   UNL     1     -11.565  12.971  65.536  1.00  0.00    -0.347 C  
HETATM   15  O   UNL     1     -12.510  12.249  65.819  1.00  0.00    -0.564 OA 
BRANCH  14  16
HETATM   16  O   UNL     1     -11.382  13.534  64.311  1.00  0.00    -0.380 OA 
HETATM   17  C   UNL     1     -12.346  14.543  63.999  1.00  0.00    -0.170 C  
ENDBRANCH  14  16
ENDBRANCH  12  14
BRANCH  13  18
HETATM   18  C   UNL     1      -9.275  11.093  66.294  1.00  0.00    -0.211 A  
HETATM   19  C   UNL     1      -8.869  10.420  65.130  1.00  0.00    -0.207 A  
HETATM   20  C   UNL     1      -9.812  10.345  67.360  1.00  0.00    -0.210 A  
HETATM   21  C   UNL     1      -8.982   9.032  65.035  1.00  0.00    -0.198 A  
HETATM   22  C   UNL     1      -9.896   8.949  67.267  1.00  0.00    -0.199 A  
HETATM   23  N   UNL     1     -10.382   8.172  68.413  1.00  0.00    -0.208 N  
HETATM   24  C   UNL     1      -9.487   8.291  66.103  1.00  0.00    -0.241 A  
HETATM   25  O   UNL     1     -10.697   8.789  69.441  1.00  0.00    -0.224 OA 
HETATM   26  O   UNL     1     -10.434   6.938  68.293  1.00  0.00    -0.183 OA 
ENDBRANCH  13  18
ENDBRANCH   4   6
ENDBRANCH   3   4
ENDBRANCH   2   3
TORSDOF 6
ENDMDL
MODEL      135
REMARK 921   NORMALIZED FREE ENERGY PREDICTED BY IDOCK:   -3.62 KCAL/MOL
REMARK 922        TOTAL FREE ENERGY PREDICTED BY IDOCK:   -6.03 KCAL/MOL
REMARK 923 INTER-LIGAND FREE ENERGY PREDICTED BY IDOCK:   -4.99 KCAL/MOL
REMARK 924 INTRA-LIGAND FREE ENERGY PREDICTED BY IDOCK:   -1.05 KCAL/MOL
REMARK 927      BINDING AFFINITY PREDICTED BY RF-SCORE:    0.00 PKD
ROOT
HETATM    1  C   UNL     1      -6.199   5.920  74.004  1.00  0.00    -0.065 C  
HETATM    2  C   UNL     1      -7.140   5.529  72.879  1.00  0.00    -0.089 C  
ENDROOT
BRANCH   2   3
HETATM    3  O   UNL     1      -8.337   6.300  73.056  1.00  0.00    -0.117 OA 
BRANCH   3   4
HETATM    4  C   UNL     1      -8.284   7.581  72.614  1.00  0.00    -0.112 C  
HETATM    5  O   UNL     1      -8.237   8.574  73.324  1.00  0.00    -0.374 OA 
BRANCH   4   6
HETATM    6  C   UNL     1      -8.201   7.590  71.132  1.00  0.00    -0.101 C  
HETATM    7  C   UNL     1      -7.095   8.054  70.505  1.00  0.00    -0.045 C  
HETATM    8  N   UNL     1      -7.038   8.037  69.123  1.00  0.00    -0.067 NA 
HETATM    9  C   UNL     1      -5.837   8.599  71.145  1.00  0.00    -0.038 C  
HETATM   10  C   UNL     1      -8.072   7.675  68.287  1.00  0.00    -0.124 C  
HETATM   11  C   UNL     1      -7.789   7.842  66.811  1.00  0.00    -0.103 C  
HETATM   12  C   UNL     1      -9.233   7.204  68.804  1.00  0.00    -0.136 C  
HETATM   13  C   UNL     1      -9.399   7.039  70.326  1.00  0.00    -0.159 C  
BRANCH  12  14
HETATM   14  C   UNL     1     -10.354   6.901  67.874  1.00  0.00    -0.195 C  
HETATM   15  O   UNL     1     -10.902   7.734  67.166  1.00  0.00    -0.313 OA 
BRANCH  14  16
HETATM   16  O   UNL     1     -10.708   5.589  67.912  1.00  0.00    -0.190 OA 
HETATM   17  C   UNL     1      -9.788   4.732  67.229  1.00  0.00    -0.184 C  
ENDBRANCH  14  16
ENDBRANCH  12  14
BRANCH  13  18
HETATM   18  C   UNL     1     -10.725   7.629  70.821  1.00  0.00    -0.231 A  
HETATM   19  C   UNL     1     -11.657   6.842  71.515  1.00  0.00    -0.344 A  
HETATM   20  C   UNL     1     -11.013   8.992  70.605  1.00  0.00    -0.308 A  
HETATM   21  C   UNL     1     -12.842   7.400  71.999  1.00  0.00    -0.217 A  
HETATM   22  C   UNL     1     -12.191   9.551  71.117  1.00  0.00    -0.338 A  
HETATM   23  N   UNL     1     -12.444  10.988  70.957  1.00  0.00    -0.389 N  
HETATM   24  C   UNL     1     -13.110   8.756  71.809  1.00  0.00    -0.406 A  
HETATM   25  O   UNL     1     -11.587  11.666  70.373  1.00  0.00    -0.257 OA 
HETATM   26  O   UNL     1     -13.495  11.445  71.431  1.00  0.00    -0.086 OA 
ENDBRANCH  13  18
ENDBRANCH   4   6
ENDBRANCH   3   4
ENDBRANCH   2   3
TORSDOF 6
ENDMDL
MODEL      136
REMARK 921   NORMALIZED FREE ENERGY PREDICTED BY IDOCK:   -3.61 KCAL/MOL
REMARK 922        TOTAL FREE ENERGY PREDICTED BY IDOCK:   -6.03 KCAL/MOL
REMARK 923 INTER-LIGAND FREE ENERGY PREDICTED BY IDOCK:   -5.01 KCAL/MOL
REMARK 924 INTRA-LIGAND FREE ENERGY PREDICTED BY IDOCK:   -1.02 KCAL/MOL
REMARK 927      BINDING AFFINITY PREDICTED BY RF-SCORE:    0.00 PKD
ROOT
HETATM    1  C   UNL     1     -10.897  20.002  65.481  1.00  0.00    -0.179 C  
HETATM    2  C   UNL     1     -10.576  19.538  66.889  1.00  0.00    -0.490 C  
ENDROOT
BRANCH   2   3
HETATM    3  O   UNL     1      -9.409  18.709  66.794  1.00  0.00    -0.288 OA 
BRANCH   3   4
HETATM    4  C   UNL     1      -8.669  18.599  67.925  1.00  0.00    -0.288 C  
HETATM    5  O   UNL     1      -8.768  19.317  68.908  1.00  0.00    -0.362 OA 
BRANCH   4   6
HETATM    6  C   UNL     1      -7.780  17.414  67.822  1.00  0.00    -0.200 C  
HETATM    7  C   UNL     1      -6.725  17.415  66.975  1.00  0.00    -0.183 C  
HETATM    8  N   UNL     1      -5.903  16.303  66.910  1.00  0.00    -0.333 NA 
HETATM    9  C   UNL     1      -6.285  18.532  66.055  1.00  0.00    -0.241 C  
HETATM   10  C   UNL     1      -6.119  15.114  67.573  1.00  0.00    -0.019 C  
HETATM   11  C   UNL     1      -5.129  14.016  67.252  1.00  0.00     0.586 C  
HETATM   12  C   UNL     1      -7.153  14.995  68.440  1.00  0.00    -0.108 C  
HETATM   13  C   UNL     1      -8.079  16.194  68.720  1.00  0.00    -0.218 C  
BRANCH  12  14
HETATM   14  C   UNL     1      -7.400  13.672  69.074  1.00  0.00    -0.014 C  
HETATM   15  O   UNL     1      -7.929  12.727  68.505  1.00  0.00    -0.144 OA 
BRANCH  14  16
HETATM   16  O   UNL     1      -6.981  13.638  70.367  1.00  0.00     0.420 OA 
HETATM   17  C   UNL     1      -5.884  12.747  70.585  1.00  0.00    -0.095 C  
ENDBRANCH  14  16
ENDBRANCH  12  14
BRANCH  13  18
HETATM   18  C   UNL     1      -9.559  15.797  68.651  1.00  0.00    -0.207 A  
HETATM   19  C   UNL     1     -10.092  15.172  67.513  1.00  0.00    -0.232 A  
HETATM   20  C   UNL     1     -10.401  16.032  69.757  1.00  0.00    -0.265 A  
HETATM   21  C   UNL     1     -11.431  14.776  67.480  1.00  0.00    -0.369 A  
HETATM   22  C   UNL     1     -11.736  15.607  69.726  1.00  0.00    -0.357 A  
HETATM   23  N   UNL     1     -12.583  15.783  70.911  1.00  0.00    -0.436 N  
HETATM   24  C   UNL     1     -12.255  14.984  68.586  1.00  0.00    -0.085 A  
HETATM   25  O   UNL     1     -12.075  16.303  71.914  1.00  0.00    -0.471 OA 
HETATM   26  O   UNL     1     -13.757  15.387  70.845  1.00  0.00    -0.432 OA 
ENDBRANCH  13  18
ENDBRANCH   4   6
ENDBRANCH   3   4
ENDBRANCH   2   3
TORSDOF 6
ENDMDL
MODEL      137
REMARK 921   NORMALIZED FREE ENERGY PREDICTED BY IDOCK:   -3.60 KCAL/MOL
REMARK 922        TOTAL FREE ENERGY PREDICTED BY IDOCK:   -6.01 KCAL/MOL
REMARK 923 INTER-LIGAND FREE ENERGY PREDICTED BY IDOCK:   -4.94 KCAL/MOL
REMARK 924 INTRA-LIGAND FREE ENERGY PREDICTED BY IDOCK:   -1.07 KCAL/MOL
REMARK 927      BINDING AFFINITY PREDICTED BY RF-SCORE:    0.00 PKD
ROOT
HETATM    1  C   UNL     1      -9.960   8.283  72.333  1.00  0.00    -0.379 C  
HETATM    2  C   UNL     1     -10.234   9.356  71.296  1.00  0.00    -0.270 C  
ENDROOT
BRANCH   2   3
HETATM    3  O   UNL     1      -9.430   9.037  70.151  1.00  0.00    -0.171 OA 
BRANCH   3   4
HETATM    4  C   UNL     1     -10.054   8.340  69.168  1.00  0.00    -0.202 C  
HETATM    5  O   UNL     1     -11.248   8.084  69.130  1.00  0.00     0.105 OA 
BRANCH   4   6
HETATM    6  C   UNL     1      -9.080   8.014  68.097  1.00  0.00    -0.134 C  
HETATM    7  C   UNL     1      -8.108   7.095  68.305  1.00  0.00    -0.124 C  
HETATM    8  N   UNL     1      -7.222   6.798  67.284  1.00  0.00    -0.083 NA 
HETATM    9  C   UNL     1      -7.858   6.290  69.561  1.00  0.00    -0.101 C  
HETATM   10  C   UNL     1      -7.166   7.442  66.066  1.00  0.00    -0.070 C  
HETATM   11  C   UNL     1      -6.037   7.000  65.162  1.00  0.00    -0.037 C  
HETATM   12  C   UNL     1      -8.083   8.388  65.753  1.00  0.00    -0.117 C  
HETATM   13  C   UNL     1      -9.216   8.733  66.737  1.00  0.00    -0.211 C  
BRANCH  12  14
HETATM   14  C   UNL     1      -7.940   9.116  64.463  1.00  0.00    -0.127 C  
HETATM   15  O   UNL     1      -8.591   8.866  63.459  1.00  0.00    -0.177 OA 
BRANCH  14  16
HETATM   16  O   UNL     1      -6.990  10.087  64.528  1.00  0.00    -0.130 OA 
HETATM   17  C   UNL     1      -6.217  10.206  63.330  1.00  0.00    -0.141 C  
ENDBRANCH  14  16
ENDBRANCH  12  14
BRANCH  13  18
HETATM   18  C   UNL     1      -9.369  10.249  66.918  1.00  0.00    -0.183 A  
HETATM   19  C   UNL     1      -8.384  11.007  67.569  1.00  0.00    -0.118 A  
HETATM   20  C   UNL     1     -10.503  10.907  66.400  1.00  0.00    -0.307 A  
HETATM   21  C   UNL     1      -8.514  12.392  67.689  1.00  0.00    -0.169 A  
HETATM   22  C   UNL     1     -10.613  12.300  66.500  1.00  0.00    -0.234 A  
HETATM   23  N   UNL     1     -11.758  12.985  65.888  1.00  0.00    -0.373 N  
HETATM   24  C   UNL     1      -9.623  13.045  67.150  1.00  0.00    -0.230 A  
HETATM   25  O   UNL     1     -12.593  12.295  65.287  1.00  0.00    -0.583 OA 
HETATM   26  O   UNL     1     -11.814  14.220  65.992  1.00  0.00    -0.369 OA 
ENDBRANCH  13  18
ENDBRANCH   4   6
ENDBRANCH   3   4
ENDBRANCH   2   3
TORSDOF 6
ENDMDL
MODEL      138
REMARK 921   NORMALIZED FREE ENERGY PREDICTED BY IDOCK:   -3.57 KCAL/MOL
REMARK 922        TOTAL FREE ENERGY PREDICTED BY IDOCK:   -5.97 KCAL/MOL
REMARK 923 INTER-LIGAND FREE ENERGY PREDICTED BY IDOCK:   -5.15 KCAL/MOL
REMARK 924 INTRA-LIGAND FREE ENERGY PREDICTED BY IDOCK:   -0.82 KCAL/MOL
REMARK 927      BINDING AFFINITY PREDICTED BY RF-SCORE:    0.00 PKD
ROOT
HETATM    1  C   UNL     1      -6.777  11.935  69.230  1.00  0.00    -0.099 C  
HETATM    2  C   UNL     1      -7.460  10.994  68.255  1.00  0.00    -0.092 C  
ENDROOT
BRANCH   2   3
HETATM    3  O   UNL     1      -8.683  11.629  67.857  1.00  0.00    -0.142 OA 
BRANCH   3   4
HETATM    4  C   UNL     1      -9.712  10.796  67.561  1.00  0.00    -0.166 C  
HETATM    5  O   UNL     1      -9.847  10.183  66.513  1.00  0.00    -0.193 OA 
BRANCH   4   6
HETATM    6  C   UNL     1     -10.603  10.671  68.742  1.00  0.00    -0.234 C  
HETATM    7  C   UNL     1     -11.148  11.770  69.314  1.00  0.00    -0.218 C  
HETATM    8  N   UNL     1     -11.987  11.624  70.405  1.00  0.00    -0.370 NA 
HETATM    9  C   UNL     1     -10.972  13.211  68.889  1.00  0.00    -0.270 C  
HETATM   10  C   UNL     1     -12.253  10.436  71.052  1.00  0.00    -0.393 C  
HETATM   11  C   UNL     1     -13.123  10.561  72.283  1.00  0.00    -0.242 C  
HETATM   12  C   UNL     1     -11.751   9.272  70.573  1.00  0.00    -0.225 C  
HETATM   13  C   UNL     1     -10.906   9.258  69.286  1.00  0.00    -0.170 C  
BRANCH  12  14
HETATM   14  C   UNL     1     -11.993   8.024  71.345  1.00  0.00    -0.298 C  
HETATM   15  O   UNL     1     -12.855   7.202  71.067  1.00  0.00    -0.341 OA 
BRANCH  14  16
HETATM   16  O   UNL     1     -11.150   7.908  72.406  1.00  0.00    -0.278 OA 
HETATM   17  C   UNL     1     -10.905   6.553  72.792  1.00  0.00    -0.249 C  
ENDBRANCH  14  16
ENDBRANCH  12  14
BRANCH  13  18
HETATM   18  C   UNL     1      -9.622   8.437  69.458  1.00  0.00    -0.170 A  
HETATM   19  C   UNL     1      -9.294   7.405  68.565  1.00  0.00    -0.141 A  
HETATM   20  C   UNL     1      -8.734   8.733  70.512  1.00  0.00    -0.196 A  
HETATM   21  C   UNL     1      -8.101   6.693  68.707  1.00  0.00    -0.119 A  
HETATM   22  C   UNL     1      -7.526   8.032  70.630  1.00  0.00    -0.068 A  
HETATM   23  N   UNL     1      -6.571   8.401  71.682  1.00  0.00    -0.061 N  
HETATM   24  C   UNL     1      -7.210   7.007  69.733  1.00  0.00    -0.079 A  
HETATM   25  O   UNL     1      -6.870   9.341  72.433  1.00  0.00    -0.302 OA 
HETATM   26  O   UNL     1      -5.510   7.761  71.749  1.00  0.00    -0.035 OA 
ENDBRANCH  13  18
ENDBRANCH   4   6
ENDBRANCH   3   4
ENDBRANCH   2   3
TORSDOF 6
ENDMDL
MODEL      139
REMARK 921   NORMALIZED FREE ENERGY PREDICTED BY IDOCK:   -3.52 KCAL/MOL
REMARK 922        TOTAL FREE ENERGY PREDICTED BY IDOCK:   -5.90 KCAL/MOL
REMARK 923 INTER-LIGAND FREE ENERGY PREDICTED BY IDOCK:   -4.60 KCAL/MOL
REMARK 924 INTRA-LIGAND FREE ENERGY PREDICTED BY IDOCK:   -1.30 KCAL/MOL
REMARK 927      BINDING AFFINITY PREDICTED BY RF-SCORE:    0.00 PKD
ROOT
HETATM    1  C   UNL     1      -6.132  10.105  70.497  1.00  0.00    -0.108 C  
HETATM    2  C   UNL     1      -5.551  10.217  69.099  1.00  0.00    -0.037 C  
ENDROOT
BRANCH   2   3
HETATM    3  O   UNL     1      -6.126   9.153  68.328  1.00  0.00    -0.051 OA 
BRANCH   3   4
HETATM    4  C   UNL     1      -7.245   9.469  67.629  1.00  0.00    -0.082 C  
HETATM    5  O   UNL     1      -7.576  10.596  67.293  1.00  0.00    -0.096 OA 
BRANCH   4   6
HETATM    6  C   UNL     1      -7.963   8.225  67.254  1.00  0.00    -0.105 C  
HETATM    7  C   UNL     1      -8.034   7.832  65.961  1.00  0.00    -0.108 C  
HETATM    8  N   UNL     1      -8.696   6.660  65.640  1.00  0.00    -0.123 NA 
HETATM    9  C   UNL     1      -7.439   8.527  64.756  1.00  0.00    -0.095 C  
HETATM   10  C   UNL     1      -9.402   5.877  66.527  1.00  0.00    -0.153 C  
HETATM   11  C   UNL     1     -10.124   4.701  65.906  1.00  0.00    -0.280 C  
HETATM   12  C   UNL     1      -9.410   6.180  67.848  1.00  0.00    -0.113 C  
HETATM   13  C   UNL     1      -8.607   7.383  68.377  1.00  0.00    -0.124 C  
BRANCH  12  14
HETATM   14  C   UNL     1     -10.250   5.358  68.760  1.00  0.00    -0.182 C  
HETATM   15  O   UNL     1     -11.408   5.623  69.051  1.00  0.00     0.008 OA 
BRANCH  14  16
HETATM   16  O   UNL     1      -9.574   4.282  69.245  1.00  0.00    -0.171 OA 
HETATM   17  C   UNL     1      -9.742   4.092  70.653  1.00  0.00    -0.203 C  
ENDBRANCH  14  16
ENDBRANCH  12  14
BRANCH  13  18
HETATM   18  C   UNL     1      -9.444   8.254  69.321  1.00  0.00    -0.155 A  
HETATM   19  C   UNL     1      -9.270   8.193  70.713  1.00  0.00    -0.165 A  
HETATM   20  C   UNL     1     -10.388   9.157  68.793  1.00  0.00    -0.235 A  
HETATM   21  C   UNL     1     -10.007   9.023  71.560  1.00  0.00    -0.391 A  
HETATM   22  C   UNL     1     -11.104  10.006  69.647  1.00  0.00    -0.259 A  
HETATM   23  N   UNL     1     -12.026  10.999  69.082  1.00  0.00    -0.344 N  
HETATM   24  C   UNL     1     -10.920   9.937  71.032  1.00  0.00    -0.360 A  
HETATM   25  O   UNL     1     -12.132  11.056  67.849  1.00  0.00    -0.600 OA 
HETATM   26  O   UNL     1     -12.635  11.736  69.873  1.00  0.00    -0.062 OA 
ENDBRANCH  13  18
ENDBRANCH   4   6
ENDBRANCH   3   4
ENDBRANCH   2   3
TORSDOF 6
ENDMDL
MODEL      140
REMARK 921   NORMALIZED FREE ENERGY PREDICTED BY IDOCK:   -3.51 KCAL/MOL
REMARK 922        TOTAL FREE ENERGY PREDICTED BY IDOCK:   -5.90 KCAL/MOL
REMARK 923 INTER-LIGAND FREE ENERGY PREDICTED BY IDOCK:   -4.64 KCAL/MOL
REMARK 924 INTRA-LIGAND FREE ENERGY PREDICTED BY IDOCK:   -1.25 KCAL/MOL
REMARK 927      BINDING AFFINITY PREDICTED BY RF-SCORE:    0.00 PKD
ROOT
HETATM    1  C   UNL     1     -11.833  11.584  68.392  1.00  0.00    -0.353 C  
HETATM    2  C   UNL     1     -12.035  11.377  69.882  1.00  0.00    -0.359 C  
ENDROOT
BRANCH   2   3
HETATM    3  O   UNL     1     -12.393   9.999  70.062  1.00  0.00    -0.084 OA 
BRANCH   3   4
HETATM    4  C   UNL     1     -11.581   9.280  70.875  1.00  0.00    -0.301 C  
HETATM    5  O   UNL     1     -11.335   9.542  72.043  1.00  0.00    -0.236 OA 
BRANCH   4   6
HETATM    6  C   UNL     1     -11.106   8.070  70.157  1.00  0.00    -0.191 C  
HETATM    7  C   UNL     1     -11.528   6.839  70.526  1.00  0.00    -0.360 C  
HETATM    8  N   UNL     1     -11.082   5.729  69.830  1.00  0.00    -0.342 NA 
HETATM    9  C   UNL     1     -12.488   6.492  71.643  1.00  0.00    -0.271 C  
HETATM   10  C   UNL     1     -10.137   5.746  68.826  1.00  0.00    -0.177 C  
HETATM   11  C   UNL     1      -9.746   4.385  68.296  1.00  0.00    -0.171 C  
HETATM   12  C   UNL     1      -9.636   6.923  68.382  1.00  0.00    -0.126 C  
HETATM   13  C   UNL     1     -10.136   8.256  68.969  1.00  0.00    -0.208 C  
BRANCH  12  14
HETATM   14  C   UNL     1      -8.561   6.895  67.354  1.00  0.00    -0.121 C  
HETATM   15  O   UNL     1      -8.750   7.063  66.158  1.00  0.00    -0.137 OA 
BRANCH  14  16
HETATM   16  O   UNL     1      -7.340   6.648  67.900  1.00  0.00    -0.091 OA 
HETATM   17  C   UNL     1      -6.425   6.029  66.990  1.00  0.00    -0.050 C  
ENDBRANCH  14  16
ENDBRANCH  12  14
BRANCH  13  18
HETATM   18  C   UNL     1      -8.975   9.188  69.334  1.00  0.00    -0.147 A  
HETATM   19  C   UNL     1      -8.145   8.920  70.435  1.00  0.00    -0.133 A  
HETATM   20  C   UNL     1      -8.707  10.322  68.541  1.00  0.00    -0.130 A  
HETATM   21  C   UNL     1      -7.064   9.752  70.731  1.00  0.00    -0.040 A  
HETATM   22  C   UNL     1      -7.604  11.137  68.829  1.00  0.00    -0.129 A  
HETATM   23  N   UNL     1      -7.287  12.269  67.950  1.00  0.00    -0.100 N  
HETATM   24  C   UNL     1      -6.784  10.857  69.927  1.00  0.00    -0.147 A  
HETATM   25  O   UNL     1      -8.014  12.459  66.965  1.00  0.00    -0.167 OA 
HETATM   26  O   UNL     1      -6.297  12.961  68.236  1.00  0.00    -0.071 OA 
ENDBRANCH  13  18
ENDBRANCH   4   6
ENDBRANCH   3   4
ENDBRANCH   2   3
TORSDOF 6
ENDMDL
MODEL      141
REMARK 921   NORMALIZED FREE ENERGY PREDICTED BY IDOCK:   -3.47 KCAL/MOL
REMARK 922        TOTAL FREE ENERGY PREDICTED BY IDOCK:   -5.84 KCAL/MOL
REMARK 923 INTER-LIGAND FREE ENERGY PREDICTED BY IDOCK:   -4.76 KCAL/MOL
REMARK 924 INTRA-LIGAND FREE ENERGY PREDICTED BY IDOCK:   -1.08 KCAL/MOL
REMARK 927      BINDING AFFINITY PREDICTED BY RF-SCORE:    0.00 PKD
ROOT
HETATM    1  C   UNL     1     -11.728  12.646  69.285  1.00  0.00    -0.379 C  
HETATM    2  C   UNL     1     -12.131  11.622  70.330  1.00  0.00    -0.373 C  
ENDROOT
BRANCH   2   3
HETATM    3  O   UNL     1     -11.955  10.331  69.732  1.00  0.00    -0.202 OA 
BRANCH   3   4
HETATM    4  C   UNL     1     -11.235   9.438  70.456  1.00  0.00    -0.275 C  
HETATM    5  O   UNL     1     -11.060   9.483  71.664  1.00  0.00    -0.371 OA 
BRANCH   4   6
HETATM    6  C   UNL     1     -10.767   8.343  69.569  1.00  0.00    -0.181 C  
HETATM    7  C   UNL     1     -11.119   7.060  69.812  1.00  0.00    -0.241 C  
HETATM    8  N   UNL     1     -10.681   6.060  68.960  1.00  0.00    -0.292 NA 
HETATM    9  C   UNL     1     -11.989   6.542  70.936  1.00  0.00    -0.353 C  
HETATM   10  C   UNL     1      -9.807   6.237  67.909  1.00  0.00    -0.124 C  
HETATM   11  C   UNL     1      -9.403   4.966  67.195  1.00  0.00    -0.139 C  
HETATM   12  C   UNL     1      -9.379   7.479  67.580  1.00  0.00    -0.151 C  
HETATM   13  C   UNL     1      -9.886   8.710  68.354  1.00  0.00    -0.189 C  
BRANCH  12  14
HETATM   14  C   UNL     1      -8.374   7.619  66.492  1.00  0.00    -0.129 C  
HETATM   15  O   UNL     1      -8.641   7.979  65.354  1.00  0.00    -0.158 OA 
BRANCH  14  16
HETATM   16  O   UNL     1      -7.122   7.288  66.907  1.00  0.00    -0.081 OA 
HETATM   17  C   UNL     1      -6.292   6.779  65.859  1.00  0.00    -0.049 C  
ENDBRANCH  14  16
ENDBRANCH  12  14
BRANCH  13  18
HETATM   18  C   UNL     1      -8.736   9.642  68.756  1.00  0.00    -0.126 A  
HETATM   19  C   UNL     1      -8.455  10.807  68.025  1.00  0.00    -0.124 A  
HETATM   20  C   UNL     1      -7.959   9.349  69.895  1.00  0.00    -0.132 A  
HETATM   21  C   UNL     1      -7.434  11.670  68.427  1.00  0.00    -0.107 A  
HETATM   22  C   UNL     1      -6.955  10.235  70.307  1.00  0.00    -0.129 A  
HETATM   23  N   UNL     1      -6.205   9.962  71.539  1.00  0.00     0.128 N  
HETATM   24  C   UNL     1      -6.686  11.393  69.571  1.00  0.00    -0.119 A  
HETATM   25  O   UNL     1      -6.500   8.947  72.185  1.00  0.00    -0.161 OA 
HETATM   26  O   UNL     1      -5.329  10.775  71.873  1.00  0.00    -0.305 OA 
ENDBRANCH  13  18
ENDBRANCH   4   6
ENDBRANCH   3   4
ENDBRANCH   2   3
TORSDOF 6
ENDMDL
MODEL      142
REMARK 921   NORMALIZED FREE ENERGY PREDICTED BY IDOCK:   -3.47 KCAL/MOL
REMARK 922        TOTAL FREE ENERGY PREDICTED BY IDOCK:   -5.84 KCAL/MOL
REMARK 923 INTER-LIGAND FREE ENERGY PREDICTED BY IDOCK:   -5.39 KCAL/MOL
REMARK 924 INTRA-LIGAND FREE ENERGY PREDICTED BY IDOCK:   -0.44 KCAL/MOL
REMARK 927      BINDING AFFINITY PREDICTED BY RF-SCORE:    0.00 PKD
ROOT
HETATM    1  C   UNL     1      -6.235   6.935  69.119  1.00  0.00    -0.027 C  
HETATM    2  C   UNL     1      -7.384   7.913  69.282  1.00  0.00    -0.082 C  
ENDROOT
BRANCH   2   3
HETATM    3  O   UNL     1      -6.864   9.214  68.976  1.00  0.00    -0.054 OA 
BRANCH   3   4
HETATM    4  C   UNL     1      -7.372  10.240  69.704  1.00  0.00    -0.150 C  
HETATM    5  O   UNL     1      -7.315  10.340  70.920  1.00  0.00    -0.141 OA 
BRANCH   4   6
HETATM    6  C   UNL     1      -7.930  11.268  68.790  1.00  0.00    -0.137 C  
HETATM    7  C   UNL     1      -7.326  12.471  68.654  1.00  0.00    -0.099 C  
HETATM    8  N   UNL     1      -7.858  13.406  67.784  1.00  0.00    -0.143 NA 
HETATM    9  C   UNL     1      -6.069  12.951  69.346  1.00  0.00    -0.109 C  
HETATM   10  C   UNL     1      -9.042  13.267  67.092  1.00  0.00    -0.231 C  
HETATM   11  C   UNL     1      -9.456  14.477  66.286  1.00  0.00    -0.310 C  
HETATM   12  C   UNL     1      -9.739  12.107  67.162  1.00  0.00    -0.203 C  
HETATM   13  C   UNL     1      -9.203  10.922  67.987  1.00  0.00    -0.156 C  
BRANCH  12  14
HETATM   14  C   UNL     1     -11.052  12.024  66.467  1.00  0.00    -0.314 C  
HETATM   15  O   UNL     1     -12.129  12.231  67.009  1.00  0.00    -0.575 OA 
BRANCH  14  16
HETATM   16  O   UNL     1     -10.916  11.680  65.158  1.00  0.00    -0.294 OA 
HETATM   17  C   UNL     1     -11.801  12.392  64.289  1.00  0.00    -0.398 C  
ENDBRANCH  14  16
ENDBRANCH  12  14
BRANCH  13  18
HETATM   18  C   UNL     1     -10.288  10.319  68.887  1.00  0.00    -0.221 A  
HETATM   19  C   UNL     1     -10.482   8.931  68.963  1.00  0.00    -0.231 A  
HETATM   20  C   UNL     1     -11.092  11.163  69.680  1.00  0.00    -0.297 A  
HETATM   21  C   UNL     1     -11.444   8.392  69.819  1.00  0.00     0.251 A  
HETATM   22  C   UNL     1     -12.036  10.612  70.557  1.00  0.00    -0.355 A  
HETATM   23  N   UNL     1     -12.813  11.494  71.437  1.00  0.00    -0.418 N  
HETATM   24  C   UNL     1     -12.218   9.227  70.624  1.00  0.00    -0.101 A  
HETATM   25  O   UNL     1     -12.594  12.712  71.376  1.00  0.00    -0.314 OA 
HETATM   26  O   UNL     1     -13.633  10.967  72.204  1.00  0.00    -0.280 OA 
ENDBRANCH  13  18
ENDBRANCH   4   6
ENDBRANCH   3   4
ENDBRANCH   2   3
TORSDOF 6
ENDMDL
MODEL      143
REMARK 921   NORMALIZED FREE ENERGY PREDICTED BY IDOCK:   -3.47 KCAL/MOL
REMARK 922        TOTAL FREE ENERGY PREDICTED BY IDOCK:   -5.83 KCAL/MOL
REMARK 923 INTER-LIGAND FREE ENERGY PREDICTED BY IDOCK:   -5.16 KCAL/MOL
REMARK 924 INTRA-LIGAND FREE ENERGY PREDICTED BY IDOCK:   -0.67 KCAL/MOL
REMARK 927      BINDING AFFINITY PREDICTED BY RF-SCORE:    0.00 PKD
ROOT
HETATM    1  C   UNL     1      -5.219  12.710  68.664  1.00  0.00    -0.056 C  
HETATM    2  C   UNL     1      -5.414  12.137  67.273  1.00  0.00    -0.124 C  
ENDROOT
BRANCH   2   3
HETATM    3  O   UNL     1      -6.730  12.518  66.850  1.00  0.00    -0.037 OA 
BRANCH   3   4
HETATM    4  C   UNL     1      -7.749  11.770  67.343  1.00  0.00    -0.151 C  
HETATM    5  O   UNL     1      -7.623  10.788  68.060  1.00  0.00    -0.089 OA 
BRANCH   4   6
HETATM    6  C   UNL     1      -9.045  12.379  66.954  1.00  0.00    -0.211 C  
HETATM    7  C   UNL     1      -9.678  11.991  65.823  1.00  0.00    -0.235 C  
HETATM    8  N   UNL     1     -10.894  12.565  65.492  1.00  0.00    -0.271 NA 
HETATM    9  C   UNL     1      -9.225  10.945  64.829  1.00  0.00    -0.227 C  
HETATM   10  C   UNL     1     -11.496  13.602  66.171  1.00  0.00    -0.325 C  
HETATM   11  C   UNL     1     -12.772  14.118  65.545  1.00  0.00    -0.468 C  
HETATM   12  C   UNL     1     -10.945  14.079  67.313  1.00  0.00    -0.303 C  
HETATM   13  C   UNL     1      -9.660  13.450  67.882  1.00  0.00    -0.216 C  
BRANCH  12  14
HETATM   14  C   UNL     1     -11.581  15.252  67.972  1.00  0.00    -0.312 C  
HETATM   15  O   UNL     1     -11.482  16.402  67.569  1.00  0.00    -0.003 OA 
BRANCH  14  16
HETATM   16  O   UNL     1     -12.277  14.896  69.085  1.00  0.00    -0.250 OA 
HETATM   17  C   UNL     1     -11.993  15.719  70.220  1.00  0.00    -0.361 C  
ENDBRANCH  14  16
ENDBRANCH  12  14
BRANCH  13  18
HETATM   18  C   UNL     1      -8.627  14.517  68.267  1.00  0.00    -0.171 A  
HETATM   19  C   UNL     1      -7.961  14.472  69.501  1.00  0.00     0.137 A  
HETATM   20  C   UNL     1      -8.313  15.551  67.361  1.00  0.00    -0.202 A  
HETATM   21  C   UNL     1      -6.991  15.424  69.823  1.00  0.00    -0.152 A  
HETATM   22  C   UNL     1      -7.320  16.486  67.680  1.00  0.00    -0.138 A  
HETATM   23  N   UNL     1      -6.942  17.510  66.698  1.00  0.00    -0.204 N  
HETATM   24  C   UNL     1      -6.661  16.428  68.913  1.00  0.00    -0.174 A  
HETATM   25  O   UNL     1      -7.521  17.503  65.603  1.00  0.00    -0.462 OA 
HETATM   26  O   UNL     1      -6.053  18.315  67.017  1.00  0.00    -0.156 OA 
ENDBRANCH  13  18
ENDBRANCH   4   6
ENDBRANCH   3   4
ENDBRANCH   2   3
TORSDOF 6
ENDMDL
MODEL      144
REMARK 921   NORMALIZED FREE ENERGY PREDICTED BY IDOCK:   -3.42 KCAL/MOL
REMARK 922        TOTAL FREE ENERGY PREDICTED BY IDOCK:   -5.76 KCAL/MOL
REMARK 923 INTER-LIGAND FREE ENERGY PREDICTED BY IDOCK:   -5.60 KCAL/MOL
REMARK 924 INTRA-LIGAND FREE ENERGY PREDICTED BY IDOCK:   -0.16 KCAL/MOL
REMARK 927      BINDING AFFINITY PREDICTED BY RF-SCORE:    0.00 PKD
ROOT
HETATM    1  C   UNL     1      -6.714   9.623  70.520  1.00  0.00    -0.119 C  
HETATM    2  C   UNL     1      -7.031  10.232  69.166  1.00  0.00    -0.066 C  
ENDROOT
BRANCH   2   3
HETATM    3  O   UNL     1      -8.091  11.176  69.378  1.00  0.00    -0.019 OA 
BRANCH   3   4
HETATM    4  C   UNL     1      -9.348  10.667  69.353  1.00  0.00    -0.059 C  
HETATM    5  O   UNL     1      -9.756   9.755  70.055  1.00  0.00    -0.229 OA 
BRANCH   4   6
HETATM    6  C   UNL     1     -10.180  11.450  68.405  1.00  0.00    -0.206 C  
HETATM    7  C   UNL     1     -11.320  12.049  68.820  1.00  0.00    -0.278 C  
HETATM    8  N   UNL     1     -12.070  12.786  67.919  1.00  0.00    -0.289 NA 
HETATM    9  C   UNL     1     -11.908  12.041  70.215  1.00  0.00    -0.356 C  
HETATM   10  C   UNL     1     -11.815  12.889  66.569  1.00  0.00    -0.407 C  
HETATM   11  C   UNL     1     -12.845  13.670  65.783  1.00  0.00    -0.390 C  
HETATM   12  C   UNL     1     -10.706  12.319  66.039  1.00  0.00    -0.296 C  
HETATM   13  C   UNL     1      -9.703  11.577  66.942  1.00  0.00    -0.205 C  
BRANCH  12  14
HETATM   14  C   UNL     1     -10.508  12.384  64.566  1.00  0.00    -0.325 C  
HETATM   15  O   UNL     1      -9.843  13.240  64.000  1.00  0.00    -0.155 OA 
BRANCH  14  16
HETATM   16  O   UNL     1     -11.166  11.385  63.919  1.00  0.00    -0.386 OA 
HETATM   17  C   UNL     1     -12.269  11.845  63.134  1.00  0.00    -0.226 C  
ENDBRANCH  14  16
ENDBRANCH  12  14
BRANCH  13  18
HETATM   18  C   UNL     1      -9.314  10.214  66.358  1.00  0.00    -0.209 A  
HETATM   19  C   UNL     1      -8.204  10.076  65.510  1.00  0.00    -0.146 A  
HETATM   20  C   UNL     1     -10.059   9.066  66.696  1.00  0.00    -0.355 A  
HETATM   21  C   UNL     1      -7.834   8.821  65.020  1.00  0.00    -0.111 A  
HETATM   22  C   UNL     1      -9.665   7.808  66.222  1.00  0.00    -0.079 A  
HETATM   23  N   UNL     1     -10.399   6.609  66.643  1.00  0.00    -0.180 N  
HETATM   24  C   UNL     1      -8.556   7.683  65.379  1.00  0.00    -0.074 A  
HETATM   25  O   UNL     1     -11.352   6.756  67.422  1.00  0.00    -0.274 OA 
HETATM   26  O   UNL     1     -10.014   5.513  66.207  1.00  0.00    -0.163 OA 
ENDBRANCH  13  18
ENDBRANCH   4   6
ENDBRANCH   3   4
ENDBRANCH   2   3
TORSDOF 6
ENDMDL
MODEL      145
REMARK 921   NORMALIZED FREE ENERGY PREDICTED BY IDOCK:   -3.41 KCAL/MOL
REMARK 922        TOTAL FREE ENERGY PREDICTED BY IDOCK:   -5.76 KCAL/MOL
REMARK 923 INTER-LIGAND FREE ENERGY PREDICTED BY IDOCK:   -4.69 KCAL/MOL
REMARK 924 INTRA-LIGAND FREE ENERGY PREDICTED BY IDOCK:   -1.07 KCAL/MOL
REMARK 927      BINDING AFFINITY PREDICTED BY RF-SCORE:    0.00 PKD
ROOT
HETATM    1  C   UNL     1      -8.941   2.259  66.784  1.00  0.00    -0.136 C  
HETATM    2  C   UNL     1      -9.100   3.546  67.573  1.00  0.00    -0.167 C  
ENDROOT
BRANCH   2   3
HETATM    3  O   UNL     1      -8.843   4.623  66.661  1.00  0.00    -0.111 OA 
BRANCH   3   4
HETATM    4  C   UNL     1      -9.898   5.432  66.391  1.00  0.00    -0.176 C  
HETATM    5  O   UNL     1     -11.032   5.055  66.139  1.00  0.00    -0.242 OA 
BRANCH   4   6
HETATM    6  C   UNL     1      -9.485   6.850  66.538  1.00  0.00    -0.199 C  
HETATM    7  C   UNL     1      -8.550   7.385  65.718  1.00  0.00    -0.136 C  
HETATM    8  N   UNL     1      -8.194   8.714  65.867  1.00  0.00    -0.116 NA 
HETATM    9  C   UNL     1      -7.817   6.697  64.587  1.00  0.00    -0.116 C  
HETATM   10  C   UNL     1      -8.640   9.550  66.868  1.00  0.00    -0.128 C  
HETATM   11  C   UNL     1      -8.020  10.930  66.869  1.00  0.00    -0.138 C  
HETATM   12  C   UNL     1      -9.570   9.118  67.753  1.00  0.00    -0.173 C  
HETATM   13  C   UNL     1     -10.162   7.701  67.634  1.00  0.00    -0.277 C  
BRANCH  12  14
HETATM   14  C   UNL     1      -9.964  10.022  68.867  1.00  0.00    -0.192 C  
HETATM   15  O   UNL     1      -9.379  10.085  69.939  1.00  0.00    -0.220 OA 
BRANCH  14  16
HETATM   16  O   UNL     1     -11.062  10.763  68.558  1.00  0.00    -0.223 OA 
HETATM   17  C   UNL     1     -11.752  11.262  69.707  1.00  0.00    -0.349 C  
ENDBRANCH  14  16
ENDBRANCH  12  14
BRANCH  13  18
HETATM   18  C   UNL     1     -10.170   6.973  68.984  1.00  0.00    -0.191 A  
HETATM   19  C   UNL     1     -11.374   6.658  69.632  1.00  0.00    -0.387 A  
HETATM   20  C   UNL     1      -8.954   6.583  69.580  1.00  0.00    -0.137 A  
HETATM   21  C   UNL     1     -11.370   5.956  70.840  1.00  0.00    -0.218 A  
HETATM   22  C   UNL     1      -8.960   5.856  70.777  1.00  0.00    -0.149 A  
HETATM   23  N   UNL     1      -7.692   5.384  71.348  1.00  0.00    -0.105 N  
HETATM   24  C   UNL     1     -10.167   5.546  71.412  1.00  0.00    -0.275 A  
HETATM   25  O   UNL     1      -6.648   5.644  70.734  1.00  0.00    -0.040 OA 
HETATM   26  O   UNL     1      -7.741   4.737  72.405  1.00  0.00    -0.087 OA 
ENDBRANCH  13  18
ENDBRANCH   4   6
ENDBRANCH   3   4
ENDBRANCH   2   3
TORSDOF 6
ENDMDL
MODEL      146
REMARK 921   NORMALIZED FREE ENERGY PREDICTED BY IDOCK:   -3.40 KCAL/MOL
REMARK 922        TOTAL FREE ENERGY PREDICTED BY IDOCK:   -5.74 KCAL/MOL
REMARK 923 INTER-LIGAND FREE ENERGY PREDICTED BY IDOCK:   -5.26 KCAL/MOL
REMARK 924 INTRA-LIGAND FREE ENERGY PREDICTED BY IDOCK:   -0.48 KCAL/MOL
REMARK 927      BINDING AFFINITY PREDICTED BY RF-SCORE:    0.00 PKD
ROOT
HETATM    1  C   UNL     1      -6.356  13.534  69.750  1.00  0.00    -0.087 C  
HETATM    2  C   UNL     1      -7.617  12.865  69.237  1.00  0.00     0.388 C  
ENDROOT
BRANCH   2   3
HETATM    3  O   UNL     1      -8.344  13.862  68.506  1.00  0.00    -0.155 OA 
BRANCH   3   4
HETATM    4  C   UNL     1      -7.914  14.097  67.241  1.00  0.00    -0.150 C  
HETATM    5  O   UNL     1      -6.761  13.985  66.853  1.00  0.00     0.187 OA 
BRANCH   4   6
HETATM    6  C   UNL     1      -9.075  14.424  66.375  1.00  0.00    -0.192 C  
HETATM    7  C   UNL     1      -9.469  15.707  66.205  1.00  0.00    -0.319 C  
HETATM    8  N   UNL     1     -10.545  15.986  65.381  1.00  0.00    -0.426 NA 
HETATM    9  C   UNL     1      -8.848  16.947  66.810  1.00  0.00    -0.262 C  
HETATM   10  C   UNL     1     -11.347  15.043  64.773  1.00  0.00    -0.406 C  
HETATM   11  C   UNL     1     -12.523  15.606  64.006  1.00  0.00     0.364 C  
HETATM   12  C   UNL     1     -11.054  13.725  64.884  1.00  0.00    -0.364 C  
HETATM   13  C   UNL     1      -9.806  13.266  65.661  1.00  0.00    -0.177 C  
BRANCH  12  14
HETATM   14  C   UNL     1     -11.988  12.737  64.282  1.00  0.00    -0.405 C  
HETATM   15  O   UNL     1     -13.019  12.353  64.818  1.00  0.00    -0.786 OA 
BRANCH  14  16
HETATM   16  O   UNL     1     -11.557  12.298  63.069  1.00  0.00    -0.257 OA 
HETATM   17  C   UNL     1     -10.706  11.151  63.149  1.00  0.00    -0.010 C  
ENDBRANCH  14  16
ENDBRANCH  12  14
BRANCH  13  18
HETATM   18  C   UNL     1     -10.130  12.124  66.631  1.00  0.00    -0.218 A  
HETATM   19  C   UNL     1      -9.579  10.844  66.458  1.00  0.00    -0.224 A  
HETATM   20  C   UNL     1     -10.971  12.358  67.738  1.00  0.00    -0.267 A  
HETATM   21  C   UNL     1      -9.847   9.824  67.373  1.00  0.00    -0.219 A  
HETATM   22  C   UNL     1     -11.212  11.337  68.666  1.00  0.00    -0.250 A  
HETATM   23  N   UNL     1     -12.024  11.613  69.857  1.00  0.00    -0.332 N  
HETATM   24  C   UNL     1     -10.656  10.067  68.483  1.00  0.00    -0.245 A  
HETATM   25  O   UNL     1     -12.466  12.761  70.004  1.00  0.00    -0.145 OA 
HETATM   26  O   UNL     1     -12.207  10.683  70.659  1.00  0.00    -0.302 OA 
ENDBRANCH  13  18
ENDBRANCH   4   6
ENDBRANCH   3   4
ENDBRANCH   2   3
TORSDOF 6
ENDMDL
MODEL      147
REMARK 921   NORMALIZED FREE ENERGY PREDICTED BY IDOCK:   -3.39 KCAL/MOL
REMARK 922        TOTAL FREE ENERGY PREDICTED BY IDOCK:   -5.73 KCAL/MOL
REMARK 923 INTER-LIGAND FREE ENERGY PREDICTED BY IDOCK:   -4.95 KCAL/MOL
REMARK 924 INTRA-LIGAND FREE ENERGY PREDICTED BY IDOCK:   -0.78 KCAL/MOL
REMARK 927      BINDING AFFINITY PREDICTED BY RF-SCORE:    0.00 PKD
ROOT
HETATM    1  C   UNL     1     -10.018   6.337  66.477  1.00  0.00    -0.172 C  
HETATM    2  C   UNL     1      -8.823   7.272  66.435  1.00  0.00    -0.149 C  
ENDROOT
BRANCH   2   3
HETATM    3  O   UNL     1      -9.346   8.608  66.422  1.00  0.00    -0.178 OA 
BRANCH   3   4
HETATM    4  C   UNL     1      -9.742   9.099  67.623  1.00  0.00    -0.159 C  
HETATM    5  O   UNL     1     -10.832   8.907  68.141  1.00  0.00    -0.136 OA 
BRANCH   4   6
HETATM    6  C   UNL     1      -8.616   9.830  68.255  1.00  0.00    -0.119 C  
HETATM    7  C   UNL     1      -8.008   9.339  69.359  1.00  0.00    -0.099 C  
HETATM    8  N   UNL     1      -6.950  10.034  69.920  1.00  0.00    -0.100 NA 
HETATM    9  C   UNL     1      -8.330   8.055  70.092  1.00  0.00    -0.126 C  
HETATM   10  C   UNL     1      -6.504  11.272  69.510  1.00  0.00    -0.119 C  
HETATM   11  C   UNL     1      -5.398  11.863  70.356  1.00  0.00    -0.131 C  
HETATM   12  C   UNL     1      -7.048  11.865  68.421  1.00  0.00    -0.086 C  
HETATM   13  C   UNL     1      -8.146  11.152  67.610  1.00  0.00    -0.117 C  
BRANCH  12  14
HETATM   14  C   UNL     1      -6.596  13.235  68.059  1.00  0.00    -0.129 C  
HETATM   15  O   UNL     1      -5.877  13.490  67.102  1.00  0.00    -0.275 OA 
BRANCH  14  16
HETATM   16  O   UNL     1      -7.065  14.173  68.924  1.00  0.00    -0.102 OA 
HETATM   17  C   UNL     1      -6.070  15.114  69.338  1.00  0.00    -0.112 C  
ENDBRANCH  14  16
ENDBRANCH  12  14
BRANCH  13  18
HETATM   18  C   UNL     1      -9.328  12.083  67.314  1.00  0.00    -0.180 A  
HETATM   19  C   UNL     1      -9.992  12.767  68.345  1.00  0.00    -0.210 A  
HETATM   20  C   UNL     1      -9.747  12.286  65.984  1.00  0.00    -0.254 A  
HETATM   21  C   UNL     1     -11.039  13.645  68.059  1.00  0.00    -0.285 A  
HETATM   22  C   UNL     1     -10.781  13.190  65.703  1.00  0.00    -0.280 A  
HETATM   23  N   UNL     1     -11.156  13.455  64.309  1.00  0.00    -0.382 N  
HETATM   24  C   UNL     1     -11.432  13.866  66.739  1.00  0.00    -0.369 A  
HETATM   25  O   UNL     1     -10.528  12.866  63.417  1.00  0.00    -0.223 OA 
HETATM   26  O   UNL     1     -12.071  14.267  64.102  1.00  0.00    -0.463 OA 
ENDBRANCH  13  18
ENDBRANCH   4   6
ENDBRANCH   3   4
ENDBRANCH   2   3
TORSDOF 6
ENDMDL
MODEL      148
REMARK 921   NORMALIZED FREE ENERGY PREDICTED BY IDOCK:   -3.38 KCAL/MOL
REMARK 922        TOTAL FREE ENERGY PREDICTED BY IDOCK:   -5.72 KCAL/MOL
REMARK 923 INTER-LIGAND FREE ENERGY PREDICTED BY IDOCK:   -5.62 KCAL/MOL
REMARK 924 INTRA-LIGAND FREE ENERGY PREDICTED BY IDOCK:   -0.10 KCAL/MOL
REMARK 927      BINDING AFFINITY PREDICTED BY RF-SCORE:    0.00 PKD
ROOT
HETATM    1  C   UNL     1     -12.714  12.151  71.418  1.00  0.00    -0.368 C  
HETATM    2  C   UNL     1     -12.190  10.742  71.206  1.00  0.00    -0.321 C  
ENDROOT
BRANCH   2   3
HETATM    3  O   UNL     1     -11.160  10.831  70.211  1.00  0.00    -0.276 OA 
BRANCH   3   4
HETATM    4  C   UNL     1     -11.580  10.785  68.922  1.00  0.00    -0.291 C  
HETATM    5  O   UNL     1     -12.503  11.434  68.454  1.00  0.00    -0.379 OA 
BRANCH   4   6
HETATM    6  C   UNL     1     -10.688   9.891  68.142  1.00  0.00    -0.279 C  
HETATM    7  C   UNL     1     -10.310   8.690  68.638  1.00  0.00    -0.193 C  
HETATM    8  N   UNL     1      -9.489   7.869  67.884  1.00  0.00    -0.143 NA 
HETATM    9  C   UNL     1     -10.698   8.081  69.967  1.00  0.00    -0.244 C  
HETATM   10  C   UNL     1      -8.917   8.208  66.676  1.00  0.00    -0.152 C  
HETATM   11  C   UNL     1      -7.975   7.173  66.104  1.00  0.00    -0.112 C  
HETATM   12  C   UNL     1      -9.216   9.392  66.089  1.00  0.00    -0.241 C  
HETATM   13  C   UNL     1     -10.220  10.357  66.746  1.00  0.00    -0.282 C  
BRANCH  12  14
HETATM   14  C   UNL     1      -8.516   9.756  64.828  1.00  0.00    -0.164 C  
HETATM   15  O   UNL     1      -9.011   9.655  63.715  1.00  0.00    -0.230 OA 
BRANCH  14  16
HETATM   16  O   UNL     1      -7.252  10.205  65.057  1.00  0.00    -0.135 OA 
HETATM   17  C   UNL     1      -6.311   9.780  64.067  1.00  0.00    -0.118 C  
ENDBRANCH  14  16
ENDBRANCH  12  14
BRANCH  13  18
HETATM   18  C   UNL     1      -9.686  11.794  66.785  1.00  0.00    -0.213 A  
HETATM   19  C   UNL     1     -10.259  12.805  65.998  1.00  0.00    -0.290 A  
HETATM   20  C   UNL     1      -8.618  12.124  67.644  1.00  0.00    -0.166 A  
HETATM   21  C   UNL     1      -9.792  14.119  66.075  1.00  0.00    -0.329 A  
HETATM   22  C   UNL     1      -8.173  13.449  67.735  1.00  0.00    -0.172 A  
HETATM   23  N   UNL     1      -7.115  13.798  68.691  1.00  0.00    -0.099 N  
HETATM   24  C   UNL     1      -8.755  14.448  66.947  1.00  0.00    -0.218 A  
HETATM   25  O   UNL     1      -6.653  12.892  69.400  1.00  0.00    -0.109 OA 
HETATM   26  O   UNL     1      -6.755  14.984  68.746  1.00  0.00    -0.093 OA 
ENDBRANCH  13  18
ENDBRANCH   4   6
ENDBRANCH   3   4
ENDBRANCH   2   3
TORSDOF 6
ENDMDL
MODEL      149
REMARK 921   NORMALIZED FREE ENERGY PREDICTED BY IDOCK:   -3.36 KCAL/MOL
REMARK 922        TOTAL FREE ENERGY PREDICTED BY IDOCK:   -5.68 KCAL/MOL
REMARK 923 INTER-LIGAND FREE ENERGY PREDICTED BY IDOCK:   -4.48 KCAL/MOL
REMARK 924 INTRA-LIGAND FREE ENERGY PREDICTED BY IDOCK:   -1.20 KCAL/MOL
REMARK 927      BINDING AFFINITY PREDICTED BY RF-SCORE:    0.00 PKD
ROOT
HETATM    1  C   UNL     1      -5.451   9.441  70.060  1.00  0.00    -0.031 C  
HETATM    2  C   UNL     1      -5.220   9.557  68.565  1.00  0.00    -0.033 C  
ENDROOT
BRANCH   2   3
HETATM    3  O   UNL     1      -5.817   8.398  67.965  1.00  0.00    -0.040 OA 
BRANCH   3   4
HETATM    4  C   UNL     1      -6.907   8.628  67.191  1.00  0.00    -0.067 C  
HETATM    5  O   UNL     1      -6.884   9.040  66.041  1.00  0.00    -0.078 OA 
BRANCH   4   6
HETATM    6  C   UNL     1      -8.130   8.217  67.924  1.00  0.00    -0.127 C  
HETATM    7  C   UNL     1      -8.642   6.974  67.769  1.00  0.00    -0.122 C  
HETATM    8  N   UNL     1      -9.776   6.611  68.476  1.00  0.00    -0.130 NA 
HETATM    9  C   UNL     1      -8.104   5.861  66.897  1.00  0.00    -0.102 C  
HETATM   10  C   UNL     1     -10.520   7.453  69.274  1.00  0.00    -0.220 C  
HETATM   11  C   UNL     1     -11.774   6.839  69.854  1.00  0.00    -0.279 C  
HETATM   12  C   UNL     1     -10.107   8.725  69.492  1.00  0.00    -0.202 C  
HETATM   13  C   UNL     1      -8.790   9.235  68.879  1.00  0.00    -0.135 C  
BRANCH  12  14
HETATM   14  C   UNL     1     -10.979   9.626  70.293  1.00  0.00    -0.285 C  
HETATM   15  O   UNL     1     -10.939   9.714  71.512  1.00  0.00    -0.348 OA 
BRANCH  14  16
HETATM   16  O   UNL     1     -11.837  10.335  69.511  1.00  0.00    -0.184 OA 
HETATM   17  C   UNL     1     -11.932  11.714  69.875  1.00  0.00    -0.340 C  
ENDBRANCH  14  16
ENDBRANCH  12  14
BRANCH  13  18
HETATM   18  C   UNL     1      -8.968  10.602  68.207  1.00  0.00    -0.143 A  
HETATM   19  C   UNL     1      -8.288  11.737  68.676  1.00  0.00    -0.079 A  
HETATM   20  C   UNL     1      -9.804  10.727  67.079  1.00  0.00    -0.221 A  
HETATM   21  C   UNL     1      -8.424  12.966  68.028  1.00  0.00    -0.178 A  
HETATM   22  C   UNL     1      -9.913  11.958  66.419  1.00  0.00    -0.213 A  
HETATM   23  N   UNL     1     -10.723  12.060  65.199  1.00  0.00    -0.278 N  
HETATM   24  C   UNL     1      -9.229  13.081  66.895  1.00  0.00    -0.236 A  
HETATM   25  O   UNL     1     -11.281  11.033  64.787  1.00  0.00    -0.084 OA 
HETATM   26  O   UNL     1     -10.788  13.166  64.640  1.00  0.00    -0.325 OA 
ENDBRANCH  13  18
ENDBRANCH   4   6
ENDBRANCH   3   4
ENDBRANCH   2   3
TORSDOF 6
ENDMDL
MODEL      150
REMARK 921   NORMALIZED FREE ENERGY PREDICTED BY IDOCK:   -3.27 KCAL/MOL
REMARK 922        TOTAL FREE ENERGY PREDICTED BY IDOCK:   -5.57 KCAL/MOL
REMARK 923 INTER-LIGAND FREE ENERGY PREDICTED BY IDOCK:   -4.55 KCAL/MOL
REMARK 924 INTRA-LIGAND FREE ENERGY PREDICTED BY IDOCK:   -1.02 KCAL/MOL
REMARK 927      BINDING AFFINITY PREDICTED BY RF-SCORE:    0.00 PKD
ROOT
HETATM    1  C   UNL     1     -10.320   2.985  72.151  1.00  0.00    -0.063 C  
HETATM    2  C   UNL     1      -9.712   3.497  70.858  1.00  0.00    -0.143 C  
ENDROOT
BRANCH   2   3
HETATM    3  O   UNL     1     -10.124   4.865  70.722  1.00  0.00    -0.223 OA 
BRANCH   3   4
HETATM    4  C   UNL     1      -9.149   5.794  70.881  1.00  0.00    -0.145 C  
HETATM    5  O   UNL     1      -7.970   5.553  71.093  1.00  0.00    -0.105 OA 
BRANCH   4   6
HETATM    6  C   UNL     1      -9.716   7.149  70.666  1.00  0.00    -0.175 C  
HETATM    7  C   UNL     1     -10.618   7.664  71.533  1.00  0.00    -0.212 C  
HETATM    8  N   UNL     1     -11.120   8.936  71.317  1.00  0.00    -0.272 NA 
HETATM    9  C   UNL     1     -11.168   7.013  72.783  1.00  0.00    -0.294 C  
HETATM   10  C   UNL     1     -10.858   9.719  70.213  1.00  0.00    -0.301 C  
HETATM   11  C   UNL     1     -11.612  11.029  70.167  1.00  0.00    -0.421 C  
HETATM   12  C   UNL     1      -9.977   9.299  69.274  1.00  0.00    -0.180 C  
HETATM   13  C   UNL     1      -9.235   7.960  69.443  1.00  0.00    -0.145 C  
BRANCH  12  14
HETATM   14  C   UNL     1      -9.782  10.134  68.058  1.00  0.00    -0.142 C  
HETATM   15  O   UNL     1      -8.762  10.762  67.813  1.00  0.00    -0.128 OA 
BRANCH  14  16
HETATM   16  O   UNL     1     -10.879  10.129  67.255  1.00  0.00    -0.271 OA 
HETATM   17  C   UNL     1     -10.963  11.273  66.400  1.00  0.00    -0.227 C  
ENDBRANCH  14  16
ENDBRANCH  12  14
BRANCH  13  18
HETATM   18  C   UNL     1      -9.280   7.119  68.161  1.00  0.00    -0.131 A  
HETATM   19  C   UNL     1     -10.487   6.587  67.682  1.00  0.00    -0.284 A  
HETATM   20  C   UNL     1      -8.099   6.895  67.425  1.00  0.00    -0.115 A  
HETATM   21  C   UNL     1     -10.522   5.860  66.490  1.00  0.00    -0.251 A  
HETATM   22  C   UNL     1      -8.147   6.189  66.217  1.00  0.00    -0.113 A  
HETATM   23  N   UNL     1      -6.926   6.029  65.418  1.00  0.00    -0.062 N  
HETATM   24  C   UNL     1      -9.357   5.665  65.749  1.00  0.00    -0.078 A  
HETATM   25  O   UNL     1      -5.882   6.542  65.846  1.00  0.00    -0.021 OA 
HETATM   26  O   UNL     1      -7.012   5.403  64.350  1.00  0.00    -0.047 OA 
ENDBRANCH  13  18
ENDBRANCH   4   6
ENDBRANCH   3   4
ENDBRANCH   2   3
TORSDOF 6
ENDMDL
MODEL      151
REMARK 921   NORMALIZED FREE ENERGY PREDICTED BY IDOCK:   -3.26 KCAL/MOL
REMARK 922        TOTAL FREE ENERGY PREDICTED BY IDOCK:   -5.55 KCAL/MOL
REMARK 923 INTER-LIGAND FREE ENERGY PREDICTED BY IDOCK:   -5.18 KCAL/MOL
REMARK 924 INTRA-LIGAND FREE ENERGY PREDICTED BY IDOCK:   -0.38 KCAL/MOL
REMARK 927      BINDING AFFINITY PREDICTED BY RF-SCORE:    0.00 PKD
ROOT
HETATM    1  C   UNL     1      -9.746   3.575  74.397  1.00  0.00    -0.148 C  
HETATM    2  C   UNL     1      -9.703   4.116  72.980  1.00  0.00    -0.129 C  
ENDROOT
BRANCH   2   3
HETATM    3  O   UNL     1     -10.724   5.120  72.890  1.00  0.00    -0.213 OA 
BRANCH   3   4
HETATM    4  C   UNL     1     -10.339   6.383  73.203  1.00  0.00    -0.226 C  
HETATM    5  O   UNL     1     -10.434   6.900  74.306  1.00  0.00    -0.312 OA 
BRANCH   4   6
HETATM    6  C   UNL     1      -9.699   7.013  72.020  1.00  0.00    -0.166 C  
HETATM    7  C   UNL     1      -8.387   7.343  72.039  1.00  0.00    -0.106 C  
HETATM    8  N   UNL     1      -7.812   7.915  70.918  1.00  0.00    -0.086 NA 
HETATM    9  C   UNL     1      -7.405   7.142  73.173  1.00  0.00    -0.077 C  
HETATM   10  C   UNL     1      -8.491   8.289  69.778  1.00  0.00    -0.128 C  
HETATM   11  C   UNL     1      -7.649   8.989  68.735  1.00  0.00    -0.087 C  
HETATM   12  C   UNL     1      -9.813   8.018  69.652  1.00  0.00    -0.184 C  
HETATM   13  C   UNL     1     -10.564   7.263  70.765  1.00  0.00    -0.237 C  
BRANCH  12  14
HETATM   14  C   UNL     1     -10.526   8.508  68.443  1.00  0.00    -0.171 C  
HETATM   15  O   UNL     1     -10.887   9.666  68.282  1.00  0.00    -0.231 OA 
BRANCH  14  16
HETATM   16  O   UNL     1     -10.743   7.515  67.540  1.00  0.00    -0.256 OA 
HETATM   17  C   UNL     1      -9.894   7.595  66.392  1.00  0.00    -0.104 C  
ENDBRANCH  14  16
ENDBRANCH  12  14
BRANCH  13  18
HETATM   18  C   UNL     1     -11.887   7.950  71.124  1.00  0.00    -0.307 A  
HETATM   19  C   UNL     1     -13.025   7.202  71.465  1.00  0.00    -0.431 A  
HETATM   20  C   UNL     1     -11.967   9.357  71.143  1.00  0.00    -0.413 A  
HETATM   21  C   UNL     1     -14.212   7.839  71.832  1.00  0.00    -0.502 A  
HETATM   22  C   UNL     1     -13.153   9.988  71.538  1.00  0.00    -0.433 A  
HETATM   23  N   UNL     1     -13.202  11.452  71.633  1.00  0.00    -0.386 N  
HETATM   24  C   UNL     1     -14.280   9.232  71.878  1.00  0.00    -0.210 A  
HETATM   25  O   UNL     1     -12.171  12.085  71.362  1.00  0.00    -0.098 OA 
HETATM   26  O   UNL     1     -14.269  11.972  71.994  1.00  0.00     0.464 OA 
ENDBRANCH  13  18
ENDBRANCH   4   6
ENDBRANCH   3   4
ENDBRANCH   2   3
TORSDOF 6
ENDMDL
MODEL      152
REMARK 921   NORMALIZED FREE ENERGY PREDICTED BY IDOCK:   -3.23 KCAL/MOL
REMARK 922        TOTAL FREE ENERGY PREDICTED BY IDOCK:   -5.52 KCAL/MOL
REMARK 923 INTER-LIGAND FREE ENERGY PREDICTED BY IDOCK:   -4.80 KCAL/MOL
REMARK 924 INTRA-LIGAND FREE ENERGY PREDICTED BY IDOCK:   -0.72 KCAL/MOL
REMARK 927      BINDING AFFINITY PREDICTED BY RF-SCORE:    0.00 PKD
ROOT
HETATM    1  C   UNL     1      -9.448   5.897  66.415  1.00  0.00    -0.174 C  
HETATM    2  C   UNL     1      -8.864   7.177  65.847  1.00  0.00    -0.103 C  
ENDROOT
BRANCH   2   3
HETATM    3  O   UNL     1      -7.504   7.246  66.300  1.00  0.00    -0.080 OA 
BRANCH   3   4
HETATM    4  C   UNL     1      -7.295   7.971  67.428  1.00  0.00    -0.089 C  
HETATM    5  O   UNL     1      -6.628   7.612  68.387  1.00  0.00    -0.050 OA 
BRANCH   4   6
HETATM    6  C   UNL     1      -7.924   9.307  67.281  1.00  0.00    -0.106 C  
HETATM    7  C   UNL     1      -7.270  10.313  66.656  1.00  0.00    -0.109 C  
HETATM    8  N   UNL     1      -7.886  11.545  66.520  1.00  0.00    -0.116 NA 
HETATM    9  C   UNL     1      -5.892  10.267  66.034  1.00  0.00    -0.083 C  
HETATM   10  C   UNL     1      -9.103  11.892  67.066  1.00  0.00    -0.191 C  
HETATM   11  C   UNL     1      -9.508  13.334  66.859  1.00  0.00    -0.249 C  
HETATM   12  C   UNL     1      -9.842  10.967  67.725  1.00  0.00    -0.194 C  
HETATM   13  C   UNL     1      -9.348   9.513  67.843  1.00  0.00    -0.145 C  
BRANCH  12  14
HETATM   14  C   UNL     1     -11.111  11.400  68.369  1.00  0.00    -0.242 C  
HETATM   15  O   UNL     1     -12.201  11.389  67.815  1.00  0.00    -0.537 OA 
BRANCH  14  16
HETATM   16  O   UNL     1     -10.916  11.821  69.648  1.00  0.00    -0.138 OA 
HETATM   17  C   UNL     1     -12.100  11.773  70.449  1.00  0.00    -0.352 C  
ENDBRANCH  14  16
ENDBRANCH  12  14
BRANCH  13  18
HETATM   18  C   UNL     1      -9.466   8.988  69.279  1.00  0.00    -0.157 A  
HETATM   19  C   UNL     1      -8.555   9.379  70.273  1.00  0.00    -0.249 A  
HETATM   20  C   UNL     1     -10.520   8.119  69.626  1.00  0.00    -0.224 A  
HETATM   21  C   UNL     1      -8.698   8.928  71.587  1.00  0.00    -0.186 A  
HETATM   22  C   UNL     1     -10.672   7.693  70.952  1.00  0.00    -0.235 A  
HETATM   23  N   UNL     1     -11.819   6.854  71.319  1.00  0.00    -0.321 N  
HETATM   24  C   UNL     1      -9.759   8.092  71.933  1.00  0.00    -0.268 A  
HETATM   25  O   UNL     1     -12.628   6.555  70.429  1.00  0.00    -0.002 OA 
HETATM   26  O   UNL     1     -11.922   6.505  72.505  1.00  0.00    -0.198 OA 
ENDBRANCH  13  18
ENDBRANCH   4   6
ENDBRANCH   3   4
ENDBRANCH   2   3
TORSDOF 6
ENDMDL
MODEL      153
REMARK 921   NORMALIZED FREE ENERGY PREDICTED BY IDOCK:   -3.22 KCAL/MOL
REMARK 922        TOTAL FREE ENERGY PREDICTED BY IDOCK:   -5.50 KCAL/MOL
REMARK 923 INTER-LIGAND FREE ENERGY PREDICTED BY IDOCK:   -4.71 KCAL/MOL
REMARK 924 INTRA-LIGAND FREE ENERGY PREDICTED BY IDOCK:   -0.79 KCAL/MOL
REMARK 927      BINDING AFFINITY PREDICTED BY RF-SCORE:    0.00 PKD
ROOT
HETATM    1  C   UNL     1     -10.420   4.934  66.168  1.00  0.00    -0.346 C  
HETATM    2  C   UNL     1      -9.827   4.554  67.512  1.00  0.00    -0.140 C  
ENDROOT
BRANCH   2   3
HETATM    3  O   UNL     1      -9.918   5.718  68.346  1.00  0.00    -0.135 OA 
BRANCH   3   4
HETATM    4  C   UNL     1      -8.800   6.483  68.416  1.00  0.00    -0.123 C  
HETATM    5  O   UNL     1      -8.451   7.305  67.582  1.00  0.00    -0.116 OA 
BRANCH   4   6
HETATM    6  C   UNL     1      -8.111   6.235  69.707  1.00  0.00    -0.120 C  
HETATM    7  C   UNL     1      -7.186   5.253  69.818  1.00  0.00    -0.063 C  
HETATM    8  N   UNL     1      -6.547   5.053  71.030  1.00  0.00    -0.030 NA 
HETATM    9  C   UNL     1      -6.716   4.307  68.736  1.00  0.00    -0.046 C  
HETATM   10  C   UNL     1      -6.843   5.712  72.204  1.00  0.00    -0.076 C  
HETATM   11  C   UNL     1      -6.070   5.236  73.414  1.00  0.00    -0.043 C  
HETATM   12  C   UNL     1      -7.761   6.708  72.214  1.00  0.00    -0.096 C  
HETATM   13  C   UNL     1      -8.461   7.136  70.911  1.00  0.00    -0.133 C  
BRANCH  12  14
HETATM   14  C   UNL     1      -8.110   7.339  73.515  1.00  0.00    -0.116 C  
HETATM   15  O   UNL     1      -8.725   6.774  74.408  1.00  0.00    -0.150 OA 
BRANCH  14  16
HETATM   16  O   UNL     1      -7.675   8.625  73.591  1.00  0.00    -0.394 OA 
HETATM   17  C   UNL     1      -6.533   8.790  74.437  1.00  0.00    -0.090 C  
ENDBRANCH  14  16
ENDBRANCH  12  14
BRANCH  13  18
HETATM   18  C   UNL     1      -9.979   7.260  71.096  1.00  0.00    -0.186 A  
HETATM   19  C   UNL     1     -10.753   6.163  71.504  1.00  0.00    -0.303 A  
HETATM   20  C   UNL     1     -10.614   8.500  70.883  1.00  0.00    -0.252 A  
HETATM   21  C   UNL     1     -12.127   6.299  71.711  1.00  0.00    -0.274 A  
HETATM   22  C   UNL     1     -11.989   8.635  71.120  1.00  0.00    -0.279 A  
HETATM   23  N   UNL     1     -12.627   9.948  70.973  1.00  0.00    -0.331 N  
HETATM   24  C   UNL     1     -12.749   7.534  71.528  1.00  0.00    -0.391 A  
HETATM   25  O   UNL     1     -11.912  10.907  70.649  1.00  0.00    -0.321 OA 
HETATM   26  O   UNL     1     -13.844  10.027  71.199  1.00  0.00    -0.153 OA 
ENDBRANCH  13  18
ENDBRANCH   4   6
ENDBRANCH   3   4
ENDBRANCH   2   3
TORSDOF 6
ENDMDL
MODEL      154
REMARK 921   NORMALIZED FREE ENERGY PREDICTED BY IDOCK:   -3.21 KCAL/MOL
REMARK 922        TOTAL FREE ENERGY PREDICTED BY IDOCK:   -5.48 KCAL/MOL
REMARK 923 INTER-LIGAND FREE ENERGY PREDICTED BY IDOCK:   -4.35 KCAL/MOL
REMARK 924 INTRA-LIGAND FREE ENERGY PREDICTED BY IDOCK:   -1.13 KCAL/MOL
REMARK 927      BINDING AFFINITY PREDICTED BY RF-SCORE:    0.00 PKD
ROOT
HETATM    1  C   UNL     1     -11.505   9.540  69.965  1.00  0.00    -0.149 C  
HETATM    2  C   UNL     1     -10.088   9.960  69.623  1.00  0.00    -0.230 C  
ENDROOT
BRANCH   2   3
HETATM    3  O   UNL     1     -10.193  11.029  68.671  1.00  0.00    -0.183 OA 
BRANCH   3   4
HETATM    4  C   UNL     1      -9.025  11.446  68.120  1.00  0.00    -0.169 C  
HETATM    5  O   UNL     1      -8.065  11.878  68.740  1.00  0.00    -0.117 OA 
BRANCH   4   6
HETATM    6  C   UNL     1      -9.057  11.212  66.655  1.00  0.00    -0.180 C  
HETATM    7  C   UNL     1      -9.978  11.828  65.878  1.00  0.00    -0.236 C  
HETATM    8  N   UNL     1      -9.977  11.605  64.512  1.00  0.00    -0.250 NA 
HETATM    9  C   UNL     1     -11.054  12.796  66.320  1.00  0.00    -0.321 C  
HETATM   10  C   UNL     1      -9.165  10.706  63.854  1.00  0.00    -0.243 C  
HETATM   11  C   UNL     1      -9.431  10.574  62.371  1.00  0.00    -0.246 C  
HETATM   12  C   UNL     1      -8.212  10.024  64.533  1.00  0.00    -0.164 C  
HETATM   13  C   UNL     1      -8.003  10.266  66.040  1.00  0.00    -0.138 C  
BRANCH  12  14
HETATM   14  C   UNL     1      -7.411   9.005  63.803  1.00  0.00    -0.101 C  
HETATM   15  O   UNL     1      -6.265   9.183  63.415  1.00  0.00    -0.088 OA 
BRANCH  14  16
HETATM   16  O   UNL     1      -8.107   7.854  63.605  1.00  0.00    -0.141 OA 
HETATM   17  C   UNL     1      -7.381   6.679  63.977  1.00  0.00    -0.078 C  
ENDBRANCH  14  16
ENDBRANCH  12  14
BRANCH  13  18
HETATM   18  C   UNL     1      -7.909   8.949  66.819  1.00  0.00    -0.097 A  
HETATM   19  C   UNL     1      -6.723   8.570  67.467  1.00  0.00    -0.063 A  
HETATM   20  C   UNL     1      -9.037   8.108  66.918  1.00  0.00    -0.185 A  
HETATM   21  C   UNL     1      -6.663   7.389  68.210  1.00  0.00    -0.054 A  
HETATM   22  C   UNL     1      -8.976   6.939  67.688  1.00  0.00    -0.116 A  
HETATM   23  N   UNL     1     -10.178   6.113  67.851  1.00  0.00    -0.156 N  
HETATM   24  C   UNL     1      -7.789   6.574  68.330  1.00  0.00    -0.106 A  
HETATM   25  O   UNL     1     -11.221   6.491  67.299  1.00  0.00    -0.376 OA 
HETATM   26  O   UNL     1     -10.085   5.090  68.547  1.00  0.00    -0.162 OA 
ENDBRANCH  13  18
ENDBRANCH   4   6
ENDBRANCH   3   4
ENDBRANCH   2   3
TORSDOF 6
ENDMDL
MODEL      155
REMARK 921   NORMALIZED FREE ENERGY PREDICTED BY IDOCK:   -3.20 KCAL/MOL
REMARK 922        TOTAL FREE ENERGY PREDICTED BY IDOCK:   -5.47 KCAL/MOL
REMARK 923 INTER-LIGAND FREE ENERGY PREDICTED BY IDOCK:   -5.32 KCAL/MOL
REMARK 924 INTRA-LIGAND FREE ENERGY PREDICTED BY IDOCK:   -0.14 KCAL/MOL
REMARK 927      BINDING AFFINITY PREDICTED BY RF-SCORE:    0.00 PKD
ROOT
HETATM    1  C   UNL     1     -11.940  12.821  69.728  1.00  0.00    -0.362 C  
HETATM    2  C   UNL     1     -12.072  11.312  69.644  1.00  0.00    -0.322 C  
ENDROOT
BRANCH   2   3
HETATM    3  O   UNL     1     -11.640  10.933  68.329  1.00  0.00    -0.391 OA 
BRANCH   3   4
HETATM    4  C   UNL     1     -10.302  10.983  68.111  1.00  0.00    -0.182 C  
HETATM    5  O   UNL     1      -9.442  10.983  68.979  1.00  0.00    -0.184 OA 
BRANCH   4   6
HETATM    6  C   UNL     1     -10.037  10.946  66.651  1.00  0.00    -0.264 C  
HETATM    7  C   UNL     1     -10.684  11.787  65.810  1.00  0.00    -0.280 C  
HETATM    8  N   UNL     1     -10.407  11.742  64.455  1.00  0.00    -0.277 NA 
HETATM    9  C   UNL     1     -11.709  12.840  66.172  1.00  0.00    -0.458 C  
HETATM   10  C   UNL     1      -9.582  10.824  63.841  1.00  0.00    -0.293 C  
HETATM   11  C   UNL     1      -9.528  10.924  62.333  1.00  0.00    -0.205 C  
HETATM   12  C   UNL     1      -8.890   9.926  64.584  1.00  0.00    -0.234 C  
HETATM   13  C   UNL     1      -8.993   9.940  66.120  1.00  0.00    -0.177 C  
BRANCH  12  14
HETATM   14  C   UNL     1      -8.075   8.901  63.879  1.00  0.00    -0.163 C  
HETATM   15  O   UNL     1      -8.436   7.748  63.690  1.00  0.00     0.055 OA 
BRANCH  14  16
HETATM   16  O   UNL     1      -6.871   9.393  63.479  1.00  0.00    -0.095 OA 
HETATM   17  C   UNL     1      -6.122   9.993  64.540  1.00  0.00    -0.125 C  
ENDBRANCH  14  16
ENDBRANCH  12  14
BRANCH  13  18
HETATM   18  C   UNL     1      -9.230   8.535  66.686  1.00  0.00    -0.223 A  
HETATM   19  C   UNL     1     -10.507   7.952  66.674  1.00  0.00    -0.193 A  
HETATM   20  C   UNL     1      -8.149   7.794  67.205  1.00  0.00    -0.119 A  
HETATM   21  C   UNL     1     -10.702   6.655  67.152  1.00  0.00    -0.440 A  
HETATM   22  C   UNL     1      -8.348   6.483  67.658  1.00  0.00    -0.121 A  
HETATM   23  N   UNL     1      -7.203   5.692  68.122  1.00  0.00    -0.071 N  
HETATM   24  C   UNL     1      -9.625   5.913  67.638  1.00  0.00    -0.113 A  
HETATM   25  O   UNL     1      -6.082   6.218  68.086  1.00  0.00    -0.024 OA 
HETATM   26  O   UNL     1      -7.420   4.533  68.508  1.00  0.00    -0.063 OA 
ENDBRANCH  13  18
ENDBRANCH   4   6
ENDBRANCH   3   4
ENDBRANCH   2   3
TORSDOF 6
ENDMDL
MODEL      156
REMARK 921   NORMALIZED FREE ENERGY PREDICTED BY IDOCK:   -3.20 KCAL/MOL
REMARK 922        TOTAL FREE ENERGY PREDICTED BY IDOCK:   -5.47 KCAL/MOL
REMARK 923 INTER-LIGAND FREE ENERGY PREDICTED BY IDOCK:   -4.59 KCAL/MOL
REMARK 924 INTRA-LIGAND FREE ENERGY PREDICTED BY IDOCK:   -0.88 KCAL/MOL
REMARK 927      BINDING AFFINITY PREDICTED BY RF-SCORE:    0.00 PKD
ROOT
HETATM    1  C   UNL     1      -6.337  13.556  68.214  1.00  0.00    -0.104 C  
HETATM    2  C   UNL     1      -7.666  13.294  67.530  1.00  0.00    -0.171 C  
ENDROOT
BRANCH   2   3
HETATM    3  O   UNL     1      -8.596  12.933  68.561  1.00  0.00    -0.139 OA 
BRANCH   3   4
HETATM    4  C   UNL     1      -9.725  12.306  68.144  1.00  0.00    -0.213 C  
HETATM    5  O   UNL     1     -10.866  12.680  68.369  1.00  0.00    -0.226 OA 
BRANCH   4   6
HETATM    6  C   UNL     1      -9.361  11.145  67.295  1.00  0.00    -0.170 C  
HETATM    7  C   UNL     1      -9.677  11.127  65.979  1.00  0.00    -0.226 C  
HETATM    8  N   UNL     1      -9.314  10.038  65.206  1.00  0.00    -0.216 NA 
HETATM    9  C   UNL     1     -10.394  12.201  65.191  1.00  0.00    -0.311 C  
HETATM   10  C   UNL     1      -8.730   8.883  65.681  1.00  0.00    -0.182 C  
HETATM   11  C   UNL     1      -8.526   7.799  64.647  1.00  0.00     0.052 C  
HETATM   12  C   UNL     1      -8.379   8.785  66.986  1.00  0.00    -0.103 C  
HETATM   13  C   UNL     1      -8.599   9.970  67.945  1.00  0.00    -0.121 C  
BRANCH  12  14
HETATM   14  C   UNL     1      -7.826   7.494  67.478  1.00  0.00    -0.116 C  
HETATM   15  O   UNL     1      -8.503   6.504  67.715  1.00  0.00    -0.118 OA 
BRANCH  14  16
HETATM   16  O   UNL     1      -6.477   7.547  67.644  1.00  0.00    -0.053 OA 
HETATM   17  C   UNL     1      -5.998   6.680  68.676  1.00  0.00    -0.022 C  
ENDBRANCH  14  16
ENDBRANCH  12  14
BRANCH  13  18
HETATM   18  C   UNL     1      -9.264   9.526  69.254  1.00  0.00    -0.169 A  
HETATM   19  C   UNL     1     -10.644   9.278  69.320  1.00  0.00    -0.234 A  
HETATM   20  C   UNL     1      -8.482   9.332  70.410  1.00  0.00    -0.234 A  
HETATM   21  C   UNL     1     -11.231   8.832  70.506  1.00  0.00    -0.278 A  
HETATM   22  C   UNL     1      -9.074   8.858  71.588  1.00  0.00    -0.210 A  
HETATM   23  N   UNL     1      -8.238   8.583  72.763  1.00  0.00    -0.107 N  
HETATM   24  C   UNL     1     -10.450   8.613  71.641  1.00  0.00    -0.366 A  
HETATM   25  O   UNL     1      -7.018   8.776  72.664  1.00  0.00    -0.292 OA 
HETATM   26  O   UNL     1      -8.800   8.158  73.784  1.00  0.00    -0.263 OA 
ENDBRANCH  13  18
ENDBRANCH   4   6
ENDBRANCH   3   4
ENDBRANCH   2   3
TORSDOF 6
ENDMDL
MODEL      157
REMARK 921   NORMALIZED FREE ENERGY PREDICTED BY IDOCK:   -3.19 KCAL/MOL
REMARK 922        TOTAL FREE ENERGY PREDICTED BY IDOCK:   -5.45 KCAL/MOL
REMARK 923 INTER-LIGAND FREE ENERGY PREDICTED BY IDOCK:   -4.75 KCAL/MOL
REMARK 924 INTRA-LIGAND FREE ENERGY PREDICTED BY IDOCK:   -0.70 KCAL/MOL
REMARK 927      BINDING AFFINITY PREDICTED BY RF-SCORE:    0.00 PKD
ROOT
HETATM    1  C   UNL     1     -14.337   8.245  72.007  1.00  0.00    -0.541 C  
HETATM    2  C   UNL     1     -12.965   8.516  71.418  1.00  0.00    -0.243 C  
ENDROOT
BRANCH   2   3
HETATM    3  O   UNL     1     -12.375   7.238  71.141  1.00  0.00    -0.341 OA 
BRANCH   3   4
HETATM    4  C   UNL     1     -11.029   7.165  71.288  1.00  0.00    -0.240 C  
HETATM    5  O   UNL     1     -10.337   7.974  71.889  1.00  0.00    -0.200 OA 
BRANCH   4   6
HETATM    6  C   UNL     1     -10.532   5.903  70.684  1.00  0.00    -0.316 C  
HETATM    7  C   UNL     1     -10.081   4.896  71.467  1.00  0.00    -0.197 C  
HETATM    8  N   UNL     1      -9.637   3.724  70.879  1.00  0.00    -0.176 NA 
HETATM    9  C   UNL     1     -10.010   4.866  72.978  1.00  0.00    -0.182 C  
HETATM   10  C   UNL     1      -9.511   3.511  69.523  1.00  0.00    -0.165 C  
HETATM   11  C   UNL     1      -8.904   2.180  69.140  1.00  0.00    -0.144 C  
HETATM   12  C   UNL     1      -9.922   4.457  68.644  1.00  0.00    -0.072 C  
HETATM   13  C   UNL     1     -10.562   5.764  69.147  1.00  0.00    -0.365 C  
BRANCH  12  14
HETATM   14  C   UNL     1      -9.694   4.224  67.193  1.00  0.00    -0.196 C  
HETATM   15  O   UNL     1     -10.576   4.253  66.346  1.00  0.00     0.017 OA 
BRANCH  14  16
HETATM   16  O   UNL     1      -8.388   3.963  66.916  1.00  0.00    -0.099 OA 
HETATM   17  C   UNL     1      -7.747   4.999  66.166  1.00  0.00    -0.091 C  
ENDBRANCH  14  16
ENDBRANCH  12  14
BRANCH  13  18
HETATM   18  C   UNL     1      -9.956   6.994  68.460  1.00  0.00    -0.158 A  
HETATM   19  C   UNL     1     -10.763   7.913  67.771  1.00  0.00    -0.189 A  
HETATM   20  C   UNL     1      -8.570   7.233  68.541  1.00  0.00    -0.124 A  
HETATM   21  C   UNL     1     -10.206   9.052  67.187  1.00  0.00    -0.334 A  
HETATM   22  C   UNL     1      -8.022   8.393  67.977  1.00  0.00    -0.119 A  
HETATM   23  N   UNL     1      -6.590   8.673  68.135  1.00  0.00    -0.060 N  
HETATM   24  C   UNL     1      -8.837   9.301  67.294  1.00  0.00    -0.132 A  
HETATM   25  O   UNL     1      -5.909   7.864  68.781  1.00  0.00    -0.033 OA 
HETATM   26  O   UNL     1      -6.146   9.714  67.627  1.00  0.00    -0.051 OA 
ENDBRANCH  13  18
ENDBRANCH   4   6
ENDBRANCH   3   4
ENDBRANCH   2   3
TORSDOF 6
ENDMDL
MODEL      158
REMARK 921   NORMALIZED FREE ENERGY PREDICTED BY IDOCK:   -3.18 KCAL/MOL
REMARK 922        TOTAL FREE ENERGY PREDICTED BY IDOCK:   -5.44 KCAL/MOL
REMARK 923 INTER-LIGAND FREE ENERGY PREDICTED BY IDOCK:   -4.35 KCAL/MOL
REMARK 924 INTRA-LIGAND FREE ENERGY PREDICTED BY IDOCK:   -1.09 KCAL/MOL
REMARK 927      BINDING AFFINITY PREDICTED BY RF-SCORE:    0.00 PKD
ROOT
HETATM    1  C   UNL     1     -10.206  18.031  66.527  1.00  0.00    -0.383 C  
HETATM    2  C   UNL     1      -9.120  17.209  67.195  1.00  0.00    -0.228 C  
ENDROOT
BRANCH   2   3
HETATM    3  O   UNL     1      -9.131  15.920  66.564  1.00  0.00    -0.232 OA 
BRANCH   3   4
HETATM    4  C   UNL     1      -9.953  14.997  67.122  1.00  0.00    -0.237 C  
HETATM    5  O   UNL     1     -10.258  14.943  68.304  1.00  0.00    -0.218 OA 
BRANCH   4   6
HETATM    6  C   UNL     1     -10.500  14.115  66.061  1.00  0.00    -0.308 C  
HETATM    7  C   UNL     1     -11.712  14.365  65.512  1.00  0.00    -0.352 C  
HETATM    8  N   UNL     1     -12.192  13.535  64.514  1.00  0.00    -0.487 NA 
HETATM    9  C   UNL     1     -12.654  15.501  65.844  1.00  0.00     1.420 C  
HETATM   10  C   UNL     1     -11.581  12.379  64.078  1.00  0.00    -0.413 C  
HETATM   11  C   UNL     1     -12.362  11.595  63.047  1.00  0.00     0.027 C  
HETATM   12  C   UNL     1     -10.369  12.023  64.567  1.00  0.00    -0.334 C  
HETATM   13  C   UNL     1      -9.645  12.919  65.589  1.00  0.00    -0.036 C  
BRANCH  12  14
HETATM   14  C   UNL     1      -9.781  10.727  64.132  1.00  0.00    -0.309 C  
HETATM   15  O   UNL     1      -9.143  10.576  63.099  1.00  0.00    -0.201 OA 
BRANCH  14  16
HETATM   16  O   UNL     1     -10.046   9.725  65.012  1.00  0.00    -0.225 OA 
HETATM   17  C   UNL     1      -8.960   8.808  65.173  1.00  0.00    -0.100 C  
ENDBRANCH  14  16
ENDBRANCH  12  14
BRANCH  13  18
HETATM   18  C   UNL     1      -9.109  12.109  66.776  1.00  0.00    -0.205 A  
HETATM   19  C   UNL     1      -7.730  11.967  66.995  1.00  0.00    -0.146 A  
HETATM   20  C   UNL     1     -10.008  11.516  67.685  1.00  0.00    -0.199 A  
HETATM   21  C   UNL     1      -7.254  11.263  68.104  1.00  0.00    -0.081 A  
HETATM   22  C   UNL     1      -9.523  10.836  68.810  1.00  0.00    -0.182 A  
HETATM   23  N   UNL     1     -10.466  10.291  69.794  1.00  0.00    -0.255 N  
HETATM   24  C   UNL     1      -8.146  10.703  69.019  1.00  0.00    -0.148 A  
HETATM   25  O   UNL     1     -11.677  10.464  69.594  1.00  0.00    -0.248 OA 
HETATM   26  O   UNL     1      -9.996   9.702  70.780  1.00  0.00    -0.270 OA 
ENDBRANCH  13  18
ENDBRANCH   4   6
ENDBRANCH   3   4
ENDBRANCH   2   3
TORSDOF 6
ENDMDL
MODEL      159
REMARK 921   NORMALIZED FREE ENERGY PREDICTED BY IDOCK:   -3.16 KCAL/MOL
REMARK 922        TOTAL FREE ENERGY PREDICTED BY IDOCK:   -5.42 KCAL/MOL
REMARK 923 INTER-LIGAND FREE ENERGY PREDICTED BY IDOCK:   -4.51 KCAL/MOL
REMARK 924 INTRA-LIGAND FREE ENERGY PREDICTED BY IDOCK:   -0.91 KCAL/MOL
REMARK 927      BINDING AFFINITY PREDICTED BY RF-SCORE:    0.00 PKD
ROOT
HETATM    1  C   UNL     1     -12.442  14.626  66.382  1.00  0.00     0.053 C  
HETATM    2  C   UNL     1     -12.388  13.226  65.798  1.00  0.00    -0.447 C  
ENDROOT
BRANCH   2   3
HETATM    3  O   UNL     1     -11.350  12.527  66.499  1.00  0.00    -0.297 OA 
BRANCH   3   4
HETATM    4  C   UNL     1     -10.171  12.404  65.840  1.00  0.00    -0.251 C  
HETATM    5  O   UNL     1      -9.999  12.622  64.650  1.00  0.00    -0.236 OA 
BRANCH   4   6
HETATM    6  C   UNL     1      -9.099  12.052  66.804  1.00  0.00    -0.197 C  
HETATM    7  C   UNL     1      -8.999  10.796  67.297  1.00  0.00    -0.140 C  
HETATM    8  N   UNL     1      -7.981  10.491  68.183  1.00  0.00    -0.108 NA 
HETATM    9  C   UNL     1      -9.885   9.611  66.980  1.00  0.00    -0.249 C  
HETATM   10  C   UNL     1      -7.086  11.397  68.710  1.00  0.00    -0.102 C  
HETATM   11  C   UNL     1      -6.133  10.829  69.738  1.00  0.00    -0.081 C  
HETATM   12  C   UNL     1      -7.099  12.688  68.296  1.00  0.00    -0.105 C  
HETATM   13  C   UNL     1      -8.091  13.149  67.213  1.00  0.00    -0.151 C  
BRANCH  12  14
HETATM   14  C   UNL     1      -6.172  13.652  68.947  1.00  0.00    -0.092 C  
HETATM   15  O   UNL     1      -5.158  14.090  68.422  1.00  0.00    -0.089 OA 
BRANCH  14  16
HETATM   16  O   UNL     1      -6.577  13.982  70.203  1.00  0.00    -0.100 OA 
HETATM   17  C   UNL     1      -5.694  13.514  71.226  1.00  0.00    -0.148 C  
ENDBRANCH  14  16
ENDBRANCH  12  14
BRANCH  13  18
HETATM   18  C   UNL     1      -8.805  14.446  67.611  1.00  0.00    -0.193 A  
HETATM   19  C   UNL     1      -8.696  15.606  66.829  1.00  0.00    -0.306 A  
HETATM   20  C   UNL     1      -9.612  14.478  68.767  1.00  0.00    -0.193 A  
HETATM   21  C   UNL     1      -9.387  16.769  67.179  1.00  0.00    -0.236 A  
HETATM   22  C   UNL     1     -10.323  15.640  69.096  1.00  0.00    -0.241 A  
HETATM   23  N   UNL     1     -11.223  15.638  70.255  1.00  0.00    -0.311 N  
HETATM   24  C   UNL     1     -10.207  16.789  68.307  1.00  0.00    -0.295 A  
HETATM   25  O   UNL     1     -11.328  14.589  70.906  1.00  0.00    -0.180 OA 
HETATM   26  O   UNL     1     -11.839  16.685  70.509  1.00  0.00     0.186 OA 
ENDBRANCH  13  18
ENDBRANCH   4   6
ENDBRANCH   3   4
ENDBRANCH   2   3
TORSDOF 6
ENDMDL
MODEL      160
REMARK 921   NORMALIZED FREE ENERGY PREDICTED BY IDOCK:   -3.14 KCAL/MOL
REMARK 922        TOTAL FREE ENERGY PREDICTED BY IDOCK:   -5.38 KCAL/MOL
REMARK 923 INTER-LIGAND FREE ENERGY PREDICTED BY IDOCK:   -4.91 KCAL/MOL
REMARK 924 INTRA-LIGAND FREE ENERGY PREDICTED BY IDOCK:   -0.47 KCAL/MOL
REMARK 927      BINDING AFFINITY PREDICTED BY RF-SCORE:    0.00 PKD
ROOT
HETATM    1  C   UNL     1      -8.980   7.942  73.804  1.00  0.00    -0.324 C  
HETATM    2  C   UNL     1     -10.009   6.857  74.062  1.00  0.00    -0.336 C  
ENDROOT
BRANCH   2   3
HETATM    3  O   UNL     1      -9.335   5.602  73.894  1.00  0.00    -0.132 OA 
BRANCH   3   4
HETATM    4  C   UNL     1      -9.938   4.714  73.064  1.00  0.00    -0.149 C  
HETATM    5  O   UNL     1     -10.931   4.055  73.334  1.00  0.00    -0.215 OA 
BRANCH   4   6
HETATM    6  C   UNL     1      -9.263   4.734  71.742  1.00  0.00    -0.175 C  
HETATM    7  C   UNL     1      -7.944   4.450  71.637  1.00  0.00    -0.091 C  
HETATM    8  N   UNL     1      -7.343   4.461  70.391  1.00  0.00    -0.048 NA 
HETATM    9  C   UNL     1      -6.991   4.084  72.753  1.00  0.00    -0.052 C  
HETATM   10  C   UNL     1      -7.953   4.843  69.215  1.00  0.00    -0.075 C  
HETATM   11  C   UNL     1      -7.047   4.865  68.004  1.00  0.00    -0.062 C  
HETATM   12  C   UNL     1      -9.270   5.159  69.203  1.00  0.00    -0.150 C  
HETATM   13  C   UNL     1     -10.107   5.065  70.492  1.00  0.00    -0.323 C  
BRANCH  12  14
HETATM   14  C   UNL     1      -9.872   5.645  67.933  1.00  0.00    -0.133 C  
HETATM   15  O   UNL     1      -9.810   6.802  67.542  1.00  0.00    -0.124 OA 
BRANCH  14  16
HETATM   16  O   UNL     1     -10.512   4.652  67.258  1.00  0.00    -0.067 OA 
HETATM   17  C   UNL     1     -10.455   4.802  65.837  1.00  0.00    -0.274 C  
ENDBRANCH  14  16
ENDBRANCH  12  14
BRANCH  13  18
HETATM   18  C   UNL     1     -10.960   6.322  70.709  1.00  0.00    -0.357 A  
HETATM   19  C   UNL     1     -12.243   6.241  71.273  1.00  0.00    -0.014 A  
HETATM   20  C   UNL     1     -10.446   7.588  70.365  1.00  0.00    -0.227 A  
HETATM   21  C   UNL     1     -12.992   7.396  71.506  1.00  0.00    -0.421 A  
HETATM   22  C   UNL     1     -11.193   8.744  70.627  1.00  0.00    -0.257 A  
HETATM   23  N   UNL     1     -10.616  10.063  70.340  1.00  0.00    -0.297 N  
HETATM   24  C   UNL     1     -12.469   8.651  71.192  1.00  0.00    -0.210 A  
HETATM   25  O   UNL     1      -9.468  10.106  69.878  1.00  0.00    -0.204 OA 
HETATM   26  O   UNL     1     -11.307  11.062  70.594  1.00  0.00    -0.193 OA 
ENDBRANCH  13  18
ENDBRANCH   4   6
ENDBRANCH   3   4
ENDBRANCH   2   3
TORSDOF 6
ENDMDL
MODEL      161
REMARK 921   NORMALIZED FREE ENERGY PREDICTED BY IDOCK:   -3.13 KCAL/MOL
REMARK 922        TOTAL FREE ENERGY PREDICTED BY IDOCK:   -5.37 KCAL/MOL
REMARK 923 INTER-LIGAND FREE ENERGY PREDICTED BY IDOCK:   -4.95 KCAL/MOL
REMARK 924 INTRA-LIGAND FREE ENERGY PREDICTED BY IDOCK:   -0.42 KCAL/MOL
REMARK 927      BINDING AFFINITY PREDICTED BY RF-SCORE:    0.00 PKD
ROOT
HETATM    1  C   UNL     1      -6.423  16.667  69.409  1.00  0.00    -0.220 C  
HETATM    2  C   UNL     1      -5.877  15.310  69.003  1.00  0.00    -0.098 C  
ENDROOT
BRANCH   2   3
HETATM    3  O   UNL     1      -7.008  14.496  68.664  1.00  0.00    -0.092 OA 
BRANCH   3   4
HETATM    4  C   UNL     1      -6.913  13.184  68.997  1.00  0.00    -0.063 C  
HETATM    5  O   UNL     1      -6.293  12.740  69.951  1.00  0.00    -0.113 OA 
BRANCH   4   6
HETATM    6  C   UNL     1      -7.753  12.377  68.077  1.00  0.00    -0.135 C  
HETATM    7  C   UNL     1      -7.199  11.727  67.028  1.00  0.00    -0.134 C  
HETATM    8  N   UNL     1      -8.003  10.969  66.194  1.00  0.00    -0.155 NA 
HETATM    9  C   UNL     1      -5.739  11.698  66.631  1.00  0.00    -0.115 C  
HETATM   10  C   UNL     1      -9.376  10.888  66.271  1.00  0.00    -0.179 C  
HETATM   11  C   UNL     1     -10.029  10.073  65.177  1.00  0.00    -0.350 C  
HETATM   12  C   UNL     1     -10.040  11.508  67.276  1.00  0.00    -0.223 C  
HETATM   13  C   UNL     1      -9.268  12.283  68.360  1.00  0.00    -0.145 C  
BRANCH  12  14
HETATM   14  C   UNL     1     -11.527  11.465  67.278  1.00  0.00    -0.224 C  
HETATM   15  O   UNL     1     -12.237  12.239  66.651  1.00  0.00    -0.574 OA 
BRANCH  14  16
HETATM   16  O   UNL     1     -12.008  10.469  68.069  1.00  0.00    -0.350 OA 
HETATM   17  C   UNL     1     -12.148  10.851  69.441  1.00  0.00    -0.290 C  
ENDBRANCH  14  16
ENDBRANCH  12  14
BRANCH  13  18
HETATM   18  C   UNL     1      -9.878  13.666  68.614  1.00  0.00    -0.140 A  
HETATM   19  C   UNL     1      -9.735  14.706  67.682  1.00  0.00    -0.214 A  
HETATM   20  C   UNL     1     -10.623  13.902  69.787  1.00  0.00     0.333 A  
HETATM   21  C   UNL     1     -10.332  15.949  67.904  1.00  0.00    -0.269 A  
HETATM   22  C   UNL     1     -11.242  15.143  69.989  1.00  0.00    -0.277 A  
HETATM   23  N   UNL     1     -12.081  15.353  71.175  1.00  0.00    -0.327 N  
HETATM   24  C   UNL     1     -11.093  16.170  69.052  1.00  0.00    -0.336 A  
HETATM   25  O   UNL     1     -12.221  14.406  71.961  1.00  0.00    -0.298 OA 
HETATM   26  O   UNL     1     -12.618  16.463  71.313  1.00  0.00     0.039 OA 
ENDBRANCH  13  18
ENDBRANCH   4   6
ENDBRANCH   3   4
ENDBRANCH   2   3
TORSDOF 6
ENDMDL
MODEL      162
REMARK 921   NORMALIZED FREE ENERGY PREDICTED BY IDOCK:   -3.12 KCAL/MOL
REMARK 922        TOTAL FREE ENERGY PREDICTED BY IDOCK:   -5.37 KCAL/MOL
REMARK 923 INTER-LIGAND FREE ENERGY PREDICTED BY IDOCK:   -7.65 KCAL/MOL
REMARK 924 INTRA-LIGAND FREE ENERGY PREDICTED BY IDOCK:    2.28 KCAL/MOL
REMARK 927      BINDING AFFINITY PREDICTED BY RF-SCORE:    0.00 PKD
ROOT
HETATM    1  C   UNL     1     -11.248  12.887  63.960  1.00  0.00    -0.458 C  
HETATM    2  C   UNL     1     -12.005  13.211  65.235  1.00  0.00    -0.398 C  
ENDROOT
BRANCH   2   3
HETATM    3  O   UNL     1     -12.191  11.970  65.930  1.00  0.00    -0.531 OA 
BRANCH   3   4
HETATM    4  C   UNL     1     -11.388  11.770  67.006  1.00  0.00    -0.321 C  
HETATM    5  O   UNL     1     -11.427  10.801  67.748  1.00  0.00    -0.460 OA 
BRANCH   4   6
HETATM    6  C   UNL     1     -10.391  12.867  67.090  1.00  0.00    -0.239 C  
HETATM    7  C   UNL     1      -9.124  12.683  66.652  1.00  0.00    -0.193 C  
HETATM    8  N   UNL     1      -8.219  13.727  66.728  1.00  0.00     0.077 NA 
HETATM    9  C   UNL     1      -8.536  11.431  66.038  1.00  0.00    -0.094 C  
HETATM   10  C   UNL     1      -8.460  14.948  67.321  1.00  0.00    -0.208 C  
HETATM   11  C   UNL     1      -7.271  15.882  67.365  1.00  0.00    -0.227 C  
HETATM   12  C   UNL     1      -9.692  15.239  67.805  1.00  0.00    -0.215 C  
HETATM   13  C   UNL     1     -10.842  14.225  67.671  1.00  0.00    -0.273 C  
BRANCH  12  14
HETATM   14  C   UNL     1      -9.890  16.535  68.508  1.00  0.00    -0.243 C  
HETATM   15  O   UNL     1      -9.499  16.766  69.644  1.00  0.00     0.050 OA 
BRANCH  14  16
HETATM   16  O   UNL     1     -10.570  17.432  67.744  1.00  0.00    -0.365 OA 
HETATM   17  C   UNL     1     -10.077  18.769  67.865  1.00  0.00    -0.366 C  
ENDBRANCH  14  16
ENDBRANCH  12  14
BRANCH  13  18
HETATM   18  C   UNL     1     -11.598  14.045  68.994  1.00  0.00    -0.345 A  
HETATM   19  C   UNL     1     -12.206  15.135  69.637  1.00  0.00    -0.292 A  
HETATM   20  C   UNL     1     -11.715  12.764  69.569  1.00  0.00    -0.383 A  
HETATM   21  C   UNL     1     -12.928  14.951  70.819  1.00  0.00    -0.418 A  
HETATM   22  C   UNL     1     -12.464  12.584  70.739  1.00  0.00    -0.268 A  
HETATM   23  N   UNL     1     -12.647  11.234  71.285  1.00  0.00    -0.393 N  
HETATM   24  C   UNL     1     -13.067  13.677  71.369  1.00  0.00    -0.396 A  
HETATM   25  O   UNL     1     -12.130  10.287  70.676  1.00  0.00    -0.291 OA 
HETATM   26  O   UNL     1     -13.323  11.117  72.319  1.00  0.00    -0.394 OA 
ENDBRANCH  13  18
ENDBRANCH   4   6
ENDBRANCH   3   4
ENDBRANCH   2   3
TORSDOF 6
ENDMDL
MODEL      163
REMARK 921   NORMALIZED FREE ENERGY PREDICTED BY IDOCK:   -3.12 KCAL/MOL
REMARK 922        TOTAL FREE ENERGY PREDICTED BY IDOCK:   -5.36 KCAL/MOL
REMARK 923 INTER-LIGAND FREE ENERGY PREDICTED BY IDOCK:   -5.32 KCAL/MOL
REMARK 924 INTRA-LIGAND FREE ENERGY PREDICTED BY IDOCK:   -0.04 KCAL/MOL
REMARK 927      BINDING AFFINITY PREDICTED BY RF-SCORE:    0.00 PKD
ROOT
HETATM    1  C   UNL     1      -8.954  11.149  63.032  1.00  0.00    -0.234 C  
HETATM    2  C   UNL     1     -10.405  11.376  63.414  1.00  0.00    -0.402 C  
ENDROOT
BRANCH   2   3
HETATM    3  O   UNL     1     -10.435  12.549  64.240  1.00  0.00    -0.331 OA 
BRANCH   3   4
HETATM    4  C   UNL     1     -11.598  12.777  64.900  1.00  0.00    -0.330 C  
HETATM    5  O   UNL     1     -12.620  12.117  64.782  1.00  0.00    -0.473 OA 
BRANCH   4   6
HETATM    6  C   UNL     1     -11.414  13.896  65.857  1.00  0.00    -0.328 C  
HETATM    7  C   UNL     1     -11.427  15.180  65.427  1.00  0.00    -0.239 C  
HETATM    8  N   UNL     1     -11.268  16.206  66.343  1.00  0.00     0.099 NA 
HETATM    9  C   UNL     1     -11.622  15.673  64.010  1.00  0.00     0.079 C  
HETATM   10  C   UNL     1     -10.988  16.041  67.682  1.00  0.00    -0.284 C  
HETATM   11  C   UNL     1     -10.758  17.325  68.448  1.00  0.00    -0.332 C  
HETATM   12  C   UNL     1     -10.940  14.799  68.221  1.00  0.00    -0.264 C  
HETATM   13  C   UNL     1     -11.229  13.560  67.352  1.00  0.00    -0.317 C  
BRANCH  12  14
HETATM   14  C   UNL     1     -10.555  14.659  69.651  1.00  0.00    -0.104 C  
HETATM   15  O   UNL     1      -9.465  14.982  70.102  1.00  0.00     0.094 OA 
BRANCH  14  16
HETATM   16  O   UNL     1     -11.554  14.117  70.398  1.00  0.00    -0.254 OA 
HETATM   17  C   UNL     1     -12.340  15.092  71.088  1.00  0.00    -0.327 C  
ENDBRANCH  14  16
ENDBRANCH  12  14
BRANCH  13  18
HETATM   18  C   UNL     1     -10.173  12.466  67.554  1.00  0.00    -0.214 A  
HETATM   19  C   UNL     1      -8.872  12.781  67.977  1.00  0.00    -0.195 A  
HETATM   20  C   UNL     1     -10.511  11.115  67.341  1.00  0.00    -0.255 A  
HETATM   21  C   UNL     1      -7.932  11.772  68.200  1.00  0.00    -0.146 A  
HETATM   22  C   UNL     1      -9.571  10.107  67.593  1.00  0.00    -0.148 A  
HETATM   23  N   UNL     1      -9.957   8.699  67.446  1.00  0.00    -0.192 N  
HETATM   24  C   UNL     1      -8.279  10.433  68.016  1.00  0.00    -0.114 A  
HETATM   25  O   UNL     1     -11.123   8.449  67.107  1.00  0.00     0.027 OA 
HETATM   26  O   UNL     1      -9.098   7.836  67.685  1.00  0.00    -0.133 OA 
ENDBRANCH  13  18
ENDBRANCH   4   6
ENDBRANCH   3   4
ENDBRANCH   2   3
TORSDOF 6
ENDMDL
MODEL      164
REMARK 921   NORMALIZED FREE ENERGY PREDICTED BY IDOCK:   -3.09 KCAL/MOL
REMARK 922        TOTAL FREE ENERGY PREDICTED BY IDOCK:   -5.33 KCAL/MOL
REMARK 923 INTER-LIGAND FREE ENERGY PREDICTED BY IDOCK:   -4.04 KCAL/MOL
REMARK 924 INTRA-LIGAND FREE ENERGY PREDICTED BY IDOCK:   -1.29 KCAL/MOL
REMARK 927      BINDING AFFINITY PREDICTED BY RF-SCORE:    0.00 PKD
ROOT
HETATM    1  C   UNL     1      -5.461  10.286  64.516  1.00  0.00    -0.129 C  
HETATM    2  C   UNL     1      -5.917   8.935  63.996  1.00  0.00    -0.071 C  
ENDROOT
BRANCH   2   3
HETATM    3  O   UNL     1      -6.502   8.242  65.108  1.00  0.00    -0.051 OA 
BRANCH   3   4
HETATM    4  C   UNL     1      -7.858   8.228  65.148  1.00  0.00    -0.120 C  
HETATM    5  O   UNL     1      -8.596   8.761  64.333  1.00  0.00    -0.164 OA 
BRANCH   4   6
HETATM    6  C   UNL     1      -8.311   7.388  66.285  1.00  0.00    -0.132 C  
HETATM    7  C   UNL     1      -8.633   6.087  66.096  1.00  0.00    -0.142 C  
HETATM    8  N   UNL     1      -9.038   5.323  67.176  1.00  0.00    -0.112 NA 
HETATM    9  C   UNL     1      -8.587   5.308  64.801  1.00  0.00    -0.136 C  
HETATM   10  C   UNL     1      -9.251   5.797  68.453  1.00  0.00    -0.117 C  
HETATM   11  C   UNL     1      -9.793   4.778  69.430  1.00  0.00    -0.282 C  
HETATM   12  C   UNL     1      -8.973   7.089  68.755  1.00  0.00    -0.131 C  
HETATM   13  C   UNL     1      -8.387   8.031  67.687  1.00  0.00    -0.128 C  
BRANCH  12  14
HETATM   14  C   UNL     1      -9.293   7.583  70.121  1.00  0.00    -0.157 C  
HETATM   15  O   UNL     1     -10.391   8.000  70.459  1.00  0.00    -0.198 OA 
BRANCH  14  16
HETATM   16  O   UNL     1      -8.215   7.529  70.949  1.00  0.00    -0.110 OA 
HETATM   17  C   UNL     1      -7.931   8.773  71.594  1.00  0.00    -0.085 C  
ENDBRANCH  14  16
ENDBRANCH  12  14
BRANCH  13  18
HETATM   18  C   UNL     1      -9.125   9.375  67.648  1.00  0.00    -0.131 A  
HETATM   19  C   UNL     1     -10.488   9.447  67.320  1.00  0.00    -0.332 A  
HETATM   20  C   UNL     1      -8.440  10.562  67.975  1.00  0.00    -0.120 A  
HETATM   21  C   UNL     1     -11.159  10.671  67.330  1.00  0.00    -0.341 A  
HETATM   22  C   UNL     1      -9.128  11.783  68.010  1.00  0.00    -0.180 A  
HETATM   23  N   UNL     1      -8.425  13.001  68.430  1.00  0.00    -0.150 N  
HETATM   24  C   UNL     1     -10.486  11.841  67.683  1.00  0.00    -0.223 A  
HETATM   25  O   UNL     1      -7.232  12.902  68.750  1.00  0.00    -0.102 OA 
HETATM   26  O   UNL     1      -9.071  14.060  68.454  1.00  0.00    -0.191 OA 
ENDBRANCH  13  18
ENDBRANCH   4   6
ENDBRANCH   3   4
ENDBRANCH   2   3
TORSDOF 6
ENDMDL
MODEL      165
REMARK 921   NORMALIZED FREE ENERGY PREDICTED BY IDOCK:   -3.09 KCAL/MOL
REMARK 922        TOTAL FREE ENERGY PREDICTED BY IDOCK:   -5.32 KCAL/MOL
REMARK 923 INTER-LIGAND FREE ENERGY PREDICTED BY IDOCK:   -4.27 KCAL/MOL
REMARK 924 INTRA-LIGAND FREE ENERGY PREDICTED BY IDOCK:   -1.05 KCAL/MOL
REMARK 927      BINDING AFFINITY PREDICTED BY RF-SCORE:    0.00 PKD
ROOT
HETATM    1  C   UNL     1     -12.986   7.216  71.504  1.00  0.00    -0.431 C  
HETATM    2  C   UNL     1     -11.824   7.368  70.540  1.00  0.00    -0.157 C  
ENDROOT
BRANCH   2   3
HETATM    3  O   UNL     1     -11.467   6.046  70.113  1.00  0.00    -0.356 OA 
BRANCH   3   4
HETATM    4  C   UNL     1     -10.152   5.727  70.215  1.00  0.00    -0.211 C  
HETATM    5  O   UNL     1      -9.382   6.163  71.057  1.00  0.00    -0.162 OA 
BRANCH   4   6
HETATM    6  C   UNL     1      -9.813   4.696  69.202  1.00  0.00    -0.242 C  
HETATM    7  C   UNL     1      -9.652   3.402  69.562  1.00  0.00    -0.081 C  
HETATM    8  N   UNL     1      -9.350   2.459  68.595  1.00  0.00    -0.184 NA 
HETATM    9  C   UNL     1      -9.785   2.810  70.948  1.00  0.00    -0.135 C  
HETATM   10  C   UNL     1      -9.088   2.733  67.270  1.00  0.00    -0.174 C  
HETATM   11  C   UNL     1      -8.682   1.536  66.439  1.00  0.00    -0.115 C  
HETATM   12  C   UNL     1      -9.208   3.997  66.799  1.00  0.00    -0.178 C  
HETATM   13  C   UNL     1      -9.667   5.136  67.729  1.00  0.00    -0.182 C  
BRANCH  12  14
HETATM   14  C   UNL     1      -8.838   4.266  65.384  1.00  0.00    -0.129 C  
HETATM   15  O   UNL     1      -9.648   4.455  64.487  1.00  0.00    -0.156 OA 
BRANCH  14  16
HETATM   16  O   UNL     1      -7.490   4.265  65.199  1.00  0.00    -0.071 OA 
HETATM   17  C   UNL     1      -7.101   3.975  63.853  1.00  0.00    -0.050 C  
ENDBRANCH  14  16
ENDBRANCH  12  14
BRANCH  13  18
HETATM   18  C   UNL     1      -8.769   6.373  67.599  1.00  0.00    -0.114 A  
HETATM   19  C   UNL     1      -7.488   6.404  68.170  1.00  0.00    -0.094 A  
HETATM   20  C   UNL     1      -9.217   7.493  66.870  1.00  0.00    -0.181 A  
HETATM   21  C   UNL     1      -6.663   7.519  68.008  1.00  0.00    -0.059 A  
HETATM   22  C   UNL     1      -8.373   8.597  66.689  1.00  0.00    -0.108 A  
HETATM   23  N   UNL     1      -8.818   9.724  65.862  1.00  0.00    -0.144 N  
HETATM   24  C   UNL     1      -7.097   8.615  67.262  1.00  0.00    -0.079 A  
HETATM   25  O   UNL     1      -9.939   9.653  65.339  1.00  0.00    -0.316 OA 
HETATM   26  O   UNL     1      -8.038  10.679  65.720  1.00  0.00    -0.159 OA 
ENDBRANCH  13  18
ENDBRANCH   4   6
ENDBRANCH   3   4
ENDBRANCH   2   3
TORSDOF 6
ENDMDL
MODEL      166
REMARK 921   NORMALIZED FREE ENERGY PREDICTED BY IDOCK:   -3.09 KCAL/MOL
REMARK 922        TOTAL FREE ENERGY PREDICTED BY IDOCK:   -5.32 KCAL/MOL
REMARK 923 INTER-LIGAND FREE ENERGY PREDICTED BY IDOCK:   -3.89 KCAL/MOL
REMARK 924 INTRA-LIGAND FREE ENERGY PREDICTED BY IDOCK:   -1.43 KCAL/MOL
REMARK 927      BINDING AFFINITY PREDICTED BY RF-SCORE:    0.00 PKD
ROOT
HETATM    1  C   UNL     1      -7.241   4.251  70.471  1.00  0.00    -0.041 C  
HETATM    2  C   UNL     1      -7.342   3.841  69.013  1.00  0.00    -0.053 C  
ENDROOT
BRANCH   2   3
HETATM    3  O   UNL     1      -7.374   5.052  68.245  1.00  0.00    -0.071 OA 
BRANCH   3   4
HETATM    4  C   UNL     1      -8.548   5.327  67.625  1.00  0.00    -0.104 C  
HETATM    5  O   UNL     1      -9.502   4.567  67.544  1.00  0.00    -0.141 OA 
BRANCH   4   6
HETATM    6  C   UNL     1      -8.534   6.729  67.137  1.00  0.00    -0.120 C  
HETATM    7  C   UNL     1      -7.869   7.058  66.005  1.00  0.00    -0.104 C  
HETATM    8  N   UNL     1      -7.885   8.370  65.564  1.00  0.00    -0.103 NA 
HETATM    9  C   UNL     1      -7.087   6.135  65.097  1.00  0.00    -0.064 C  
HETATM   10  C   UNL     1      -8.446   9.431  66.241  1.00  0.00    -0.126 C  
HETATM   11  C   UNL     1      -8.237  10.782  65.594  1.00  0.00    -0.127 C  
HETATM   12  C   UNL     1      -9.128   9.221  67.392  1.00  0.00    -0.141 C  
HETATM   13  C   UNL     1      -9.311   7.794  67.941  1.00  0.00    -0.148 C  
BRANCH  12  14
HETATM   14  C   UNL     1      -9.649  10.400  68.135  1.00  0.00    -0.144 C  
HETATM   15  O   UNL     1      -8.998  11.040  68.949  1.00  0.00    -0.168 OA 
BRANCH  14  16
HETATM   16  O   UNL     1     -10.940  10.677  67.811  1.00  0.00    -0.262 OA 
HETATM   17  C   UNL     1     -11.233  12.077  67.790  1.00  0.00    -0.271 C  
ENDBRANCH  14  16
ENDBRANCH  12  14
BRANCH  13  18
HETATM   18  C   UNL     1      -8.986   7.714  69.437  1.00  0.00    -0.139 A  
HETATM   19  C   UNL     1      -7.676   7.898  69.907  1.00  0.00    -0.098 A  
HETATM   20  C   UNL     1     -10.017   7.481  70.369  1.00  0.00    -0.184 A  
HETATM   21  C   UNL     1      -7.400   7.866  71.276  1.00  0.00    -0.068 A  
HETATM   22  C   UNL     1      -9.736   7.478  71.742  1.00  0.00    -0.160 A  
HETATM   23  N   UNL     1     -10.829   7.315  72.708  1.00  0.00    -0.286 N  
HETATM   24  C   UNL     1      -8.427   7.665  72.198  1.00  0.00    -0.141 A  
HETATM   25  O   UNL     1     -11.980   7.193  72.266  1.00  0.00    -0.280 OA 
HETATM   26  O   UNL     1     -10.540   7.326  73.915  1.00  0.00    -0.344 OA 
ENDBRANCH  13  18
ENDBRANCH   4   6
ENDBRANCH   3   4
ENDBRANCH   2   3
TORSDOF 6
ENDMDL
MODEL      167
REMARK 921   NORMALIZED FREE ENERGY PREDICTED BY IDOCK:   -3.07 KCAL/MOL
REMARK 922        TOTAL FREE ENERGY PREDICTED BY IDOCK:   -5.30 KCAL/MOL
REMARK 923 INTER-LIGAND FREE ENERGY PREDICTED BY IDOCK:   -4.37 KCAL/MOL
REMARK 924 INTRA-LIGAND FREE ENERGY PREDICTED BY IDOCK:   -0.93 KCAL/MOL
REMARK 927      BINDING AFFINITY PREDICTED BY RF-SCORE:    0.00 PKD
ROOT
HETATM    1  C   UNL     1      -5.364  11.354  66.323  1.00  0.00    -0.099 C  
HETATM    2  C   UNL     1      -5.391  11.678  67.805  1.00  0.00    -0.053 C  
ENDROOT
BRANCH   2   3
HETATM    3  O   UNL     1      -6.403  12.678  67.990  1.00  0.00    -0.071 OA 
BRANCH   3   4
HETATM    4  C   UNL     1      -7.613  12.224  68.404  1.00  0.00    -0.128 C  
HETATM    5  O   UNL     1      -7.799  11.446  69.328  1.00  0.00    -0.039 OA 
BRANCH   4   6
HETATM    6  C   UNL     1      -8.685  12.886  67.620  1.00  0.00    -0.185 C  
HETATM    7  C   UNL     1      -9.261  14.027  68.065  1.00  0.00    -0.201 C  
HETATM    8  N   UNL     1     -10.248  14.633  67.308  1.00  0.00    -0.240 NA 
HETATM    9  C   UNL     1      -8.941  14.782  69.337  1.00  0.00     0.037 C  
HETATM   10  C   UNL     1     -10.794  14.117  66.152  1.00  0.00    -0.296 C  
HETATM   11  C   UNL     1     -11.933  14.923  65.569  1.00  0.00    -0.098 C  
HETATM   12  C   UNL     1     -10.303  12.972  65.618  1.00  0.00    -0.294 C  
HETATM   13  C   UNL     1      -9.112  12.252  66.278  1.00  0.00    -0.125 C  
BRANCH  12  14
HETATM   14  C   UNL     1     -10.971  12.405  64.417  1.00  0.00    -0.334 C  
HETATM   15  O   UNL     1     -10.457  12.348  63.308  1.00  0.00    -0.395 OA 
BRANCH  14  16
HETATM   16  O   UNL     1     -12.229  11.966  64.691  1.00  0.00    -0.242 OA 
HETATM   17  C   UNL     1     -13.016  11.729  63.520  1.00  0.00    -0.082 C  
ENDBRANCH  14  16
ENDBRANCH  12  14
BRANCH  13  18
HETATM   18  C   UNL     1      -9.368  10.747  66.425  1.00  0.00    -0.198 A  
HETATM   19  C   UNL     1      -8.870   9.830  65.487  1.00  0.00    -0.192 A  
HETATM   20  C   UNL     1     -10.091  10.262  67.533  1.00  0.00    -0.239 A  
HETATM   21  C   UNL     1      -9.072   8.458  65.655  1.00  0.00    -0.155 A  
HETATM   22  C   UNL     1     -10.266   8.884  67.709  1.00  0.00    -0.228 A  
HETATM   23  N   UNL     1     -10.950   8.384  68.908  1.00  0.00     0.051 N  
HETATM   24  C   UNL     1      -9.763   7.979  66.768  1.00  0.00    -0.305 A  
HETATM   25  O   UNL     1     -11.346   9.215  69.738  1.00  0.00    -0.126 OA 
HETATM   26  O   UNL     1     -11.078   7.156  69.030  1.00  0.00    -0.135 OA 
ENDBRANCH  13  18
ENDBRANCH   4   6
ENDBRANCH   3   4
ENDBRANCH   2   3
TORSDOF 6
ENDMDL
MODEL      168
REMARK 921   NORMALIZED FREE ENERGY PREDICTED BY IDOCK:   -3.03 KCAL/MOL
REMARK 922        TOTAL FREE ENERGY PREDICTED BY IDOCK:   -5.24 KCAL/MOL
REMARK 923 INTER-LIGAND FREE ENERGY PREDICTED BY IDOCK:   -5.32 KCAL/MOL
REMARK 924 INTRA-LIGAND FREE ENERGY PREDICTED BY IDOCK:    0.08 KCAL/MOL
REMARK 927      BINDING AFFINITY PREDICTED BY RF-SCORE:    0.00 PKD
ROOT
HETATM    1  C   UNL     1      -6.887  13.777  68.147  1.00  0.00    -0.122 C  
HETATM    2  C   UNL     1      -8.215  13.422  67.504  1.00  0.00    -0.185 C  
ENDROOT
BRANCH   2   3
HETATM    3  O   UNL     1      -9.097  13.036  68.568  1.00  0.00    -0.157 OA 
BRANCH   3   4
HETATM    4  C   UNL     1     -10.170  12.290  68.203  1.00  0.00    -0.212 C  
HETATM    5  O   UNL     1     -11.337  12.569  68.432  1.00  0.00    -0.247 OA 
BRANCH   4   6
HETATM    6  C   UNL     1      -9.715  11.127  67.401  1.00  0.00    -0.191 C  
HETATM    7  C   UNL     1     -10.078  10.998  66.104  1.00  0.00    -0.237 C  
HETATM    8  N   UNL     1      -9.628   9.912  65.374  1.00  0.00    -0.266 NA 
HETATM    9  C   UNL     1     -10.940  11.942  65.293  1.00  0.00    -0.354 C  
HETATM   10  C   UNL     1      -8.902   8.857  65.884  1.00  0.00    -0.179 C  
HETATM   11  C   UNL     1      -8.621   7.742  64.901  1.00  0.00     0.063 C  
HETATM   12  C   UNL     1      -8.492   8.873  67.175  1.00  0.00    -0.106 C  
HETATM   13  C   UNL     1      -8.803  10.080  68.078  1.00  0.00    -0.125 C  
BRANCH  12  14
HETATM   14  C   UNL     1      -7.781   7.680  67.709  1.00  0.00    -0.122 C  
HETATM   15  O   UNL     1      -8.335   6.637  68.028  1.00  0.00    -0.116 OA 
BRANCH  14  16
HETATM   16  O   UNL     1      -6.441   7.888  67.814  1.00  0.00    -0.050 OA 
HETATM   17  C   UNL     1      -5.830   7.140  68.869  1.00  0.00    -0.019 C  
ENDBRANCH  14  16
ENDBRANCH  12  14
BRANCH  13  18
HETATM   18  C   UNL     1      -9.363   9.644  69.437  1.00  0.00    -0.201 A  
HETATM   19  C   UNL     1      -8.528   9.111  70.431  1.00  0.00    -0.222 A  
HETATM   20  C   UNL     1     -10.736   9.804  69.716  1.00  0.00    -0.283 A  
HETATM   21  C   UNL     1      -9.042   8.758  71.680  1.00  0.00    -0.314 A  
HETATM   22  C   UNL     1     -11.239   9.473  70.981  1.00  0.00    -0.362 A  
HETATM   23  N   UNL     1     -12.653   9.718  71.288  1.00  0.00    -0.341 N  
HETATM   24  C   UNL     1     -10.395   8.944  71.963  1.00  0.00    -0.378 A  
HETATM   25  O   UNL     1     -13.359  10.225  70.405  1.00  0.00    -0.178 OA 
HETATM   26  O   UNL     1     -13.057   9.418  72.423  1.00  0.00    -0.416 OA 
ENDBRANCH  13  18
ENDBRANCH   4   6
ENDBRANCH   3   4
ENDBRANCH   2   3
TORSDOF 6
ENDMDL
MODEL      169
REMARK 921   NORMALIZED FREE ENERGY PREDICTED BY IDOCK:   -3.02 KCAL/MOL
REMARK 922        TOTAL FREE ENERGY PREDICTED BY IDOCK:   -5.23 KCAL/MOL
REMARK 923 INTER-LIGAND FREE ENERGY PREDICTED BY IDOCK:   -4.33 KCAL/MOL
REMARK 924 INTRA-LIGAND FREE ENERGY PREDICTED BY IDOCK:   -0.90 KCAL/MOL
REMARK 927      BINDING AFFINITY PREDICTED BY RF-SCORE:    0.00 PKD
ROOT
HETATM    1  C   UNL     1      -9.897  18.730  66.199  1.00  0.00    -0.327 C  
HETATM    2  C   UNL     1      -9.102  17.489  66.559  1.00  0.00    -0.263 C  
ENDROOT
BRANCH   2   3
HETATM    3  O   UNL     1      -9.620  16.420  65.755  1.00  0.00    -0.452 OA 
BRANCH   3   4
HETATM    4  C   UNL     1     -10.375  15.501  66.408  1.00  0.00    -0.296 C  
HETATM    5  O   UNL     1     -10.718  15.570  67.579  1.00  0.00    -0.288 OA 
BRANCH   4   6
HETATM    6  C   UNL     1     -10.798  14.442  65.458  1.00  0.00    -0.335 C  
HETATM    7  C   UNL     1     -11.879  14.620  64.663  1.00  0.00    -0.452 C  
HETATM    8  N   UNL     1     -12.243  13.623  63.776  1.00  0.00    -0.654 NA 
HETATM    9  C   UNL     1     -12.779  15.834  64.594  1.00  0.00     0.852 C  
HETATM   10  C   UNL     1     -11.653  12.380  63.689  1.00  0.00    -0.499 C  
HETATM   11  C   UNL     1     -12.305  11.432  62.707  1.00  0.00     0.895 C  
HETATM   12  C   UNL     1     -10.569  12.086  64.446  1.00  0.00    -0.361 C  
HETATM   13  C   UNL     1      -9.965  13.144  65.388  1.00  0.00    -0.203 C  
BRANCH  12  14
HETATM   14  C   UNL     1     -10.012  10.708  64.384  1.00  0.00    -0.350 C  
HETATM   15  O   UNL     1      -9.214  10.329  63.537  1.00  0.00    -0.242 OA 
BRANCH  14  16
HETATM   16  O   UNL     1     -10.502   9.913  65.372  1.00  0.00    -0.110 OA 
HETATM   17  C   UNL     1      -9.516   9.057  65.955  1.00  0.00    -0.256 C  
ENDBRANCH  14  16
ENDBRANCH  12  14
BRANCH  13  18
HETATM   18  C   UNL     1      -9.696  12.574  66.785  1.00  0.00    -0.234 A  
HETATM   19  C   UNL     1     -10.746  12.132  67.605  1.00  0.00    -0.252 A  
HETATM   20  C   UNL     1      -8.372  12.460  67.256  1.00  0.00    -0.184 A  
HETATM   21  C   UNL     1     -10.485  11.574  68.858  1.00  0.00    -0.212 A  
HETATM   22  C   UNL     1      -8.117  11.875  68.503  1.00  0.00    -0.130 A  
HETATM   23  N   UNL     1      -6.731  11.687  68.949  1.00  0.00    -0.081 N  
HETATM   24  C   UNL     1      -9.172  11.436  69.309  1.00  0.00     0.307 A  
HETATM   25  O   UNL     1      -5.823  12.053  68.189  1.00  0.00    -0.050 OA 
HETATM   26  O   UNL     1      -6.548  11.158  70.056  1.00  0.00    -0.149 OA 
ENDBRANCH  13  18
ENDBRANCH   4   6
ENDBRANCH   3   4
ENDBRANCH   2   3
TORSDOF 6
ENDMDL
MODEL      170
REMARK 921   NORMALIZED FREE ENERGY PREDICTED BY IDOCK:   -2.99 KCAL/MOL
REMARK 922        TOTAL FREE ENERGY PREDICTED BY IDOCK:   -5.19 KCAL/MOL
REMARK 923 INTER-LIGAND FREE ENERGY PREDICTED BY IDOCK:   -4.50 KCAL/MOL
REMARK 924 INTRA-LIGAND FREE ENERGY PREDICTED BY IDOCK:   -0.69 KCAL/MOL
REMARK 927      BINDING AFFINITY PREDICTED BY RF-SCORE:    0.00 PKD
ROOT
HETATM    1  C   UNL     1     -10.667   5.436  69.777  1.00  0.00    -0.280 C  
HETATM    2  C   UNL     1     -11.237   6.839  69.678  1.00  0.00    -0.292 C  
ENDROOT
BRANCH   2   3
HETATM    3  O   UNL     1     -10.841   7.355  68.399  1.00  0.00    -0.135 OA 
BRANCH   3   4
HETATM    4  C   UNL     1      -9.901   8.334  68.423  1.00  0.00    -0.172 C  
HETATM    5  O   UNL     1      -9.822   9.219  69.260  1.00  0.00    -0.164 OA 
BRANCH   4   6
HETATM    6  C   UNL     1      -8.927   8.111  67.325  1.00  0.00    -0.149 C  
HETATM    7  C   UNL     1      -7.833   7.339  67.519  1.00  0.00    -0.112 C  
HETATM    8  N   UNL     1      -6.948   7.136  66.474  1.00  0.00    -0.074 NA 
HETATM    9  C   UNL     1      -7.434   6.612  68.785  1.00  0.00    -0.096 C  
HETATM   10  C   UNL     1      -7.021   7.745  65.240  1.00  0.00    -0.059 C  
HETATM   11  C   UNL     1      -5.872   7.434  64.307  1.00  0.00    -0.037 C  
HETATM   12  C   UNL     1      -8.068   8.549  64.938  1.00  0.00    -0.145 C  
HETATM   13  C   UNL     1      -9.205   8.766  65.954  1.00  0.00    -0.282 C  
BRANCH  12  14
HETATM   14  C   UNL     1      -8.069   9.252  63.627  1.00  0.00    -0.155 C  
HETATM   15  O   UNL     1      -8.736   8.905  62.662  1.00  0.00    -0.210 OA 
BRANCH  14  16
HETATM   16  O   UNL     1      -7.228  10.321  63.620  1.00  0.00    -0.136 OA 
HETATM   17  C   UNL     1      -6.419  10.401  62.444  1.00  0.00    -0.140 C  
ENDBRANCH  14  16
ENDBRANCH  12  14
BRANCH  13  18
HETATM   18  C   UNL     1      -9.557  10.251  66.103  1.00  0.00    -0.248 A  
HETATM   19  C   UNL     1     -10.619  10.822  65.384  1.00  0.00    -0.224 A  
HETATM   20  C   UNL     1      -8.828  11.061  66.997  1.00  0.00    -0.143 A  
HETATM   21  C   UNL     1     -10.958  12.165  65.561  1.00  0.00    -0.343 A  
HETATM   22  C   UNL     1      -9.192  12.400  67.190  1.00  0.00    -0.199 A  
HETATM   23  N   UNL     1      -8.479  13.213  68.182  1.00  0.00    -0.167 N  
HETATM   24  C   UNL     1     -10.254  12.956  66.468  1.00  0.00    -0.264 A  
HETATM   25  O   UNL     1      -7.571  12.672  68.829  1.00  0.00    -0.102 OA 
HETATM   26  O   UNL     1      -8.837  14.392  68.327  1.00  0.00    -0.169 OA 
ENDBRANCH  13  18
ENDBRANCH   4   6
ENDBRANCH   3   4
ENDBRANCH   2   3
TORSDOF 6
ENDMDL
MODEL      171
REMARK 921   NORMALIZED FREE ENERGY PREDICTED BY IDOCK:   -2.98 KCAL/MOL
REMARK 922        TOTAL FREE ENERGY PREDICTED BY IDOCK:   -5.17 KCAL/MOL
REMARK 923 INTER-LIGAND FREE ENERGY PREDICTED BY IDOCK:   -4.80 KCAL/MOL
REMARK 924 INTRA-LIGAND FREE ENERGY PREDICTED BY IDOCK:   -0.37 KCAL/MOL
REMARK 927      BINDING AFFINITY PREDICTED BY RF-SCORE:    0.00 PKD
ROOT
HETATM    1  C   UNL     1     -10.391   7.052  66.759  1.00  0.00    -0.291 C  
HETATM    2  C   UNL     1     -10.951   6.749  68.136  1.00  0.00    -0.201 C  
ENDROOT
BRANCH   2   3
HETATM    3  O   UNL     1     -10.319   5.540  68.581  1.00  0.00    -0.186 OA 
BRANCH   3   4
HETATM    4  C   UNL     1      -8.978   5.613  68.776  1.00  0.00    -0.115 C  
HETATM    5  O   UNL     1      -8.143   5.769  67.898  1.00  0.00    -0.098 OA 
BRANCH   4   6
HETATM    6  C   UNL     1      -8.686   5.564  70.230  1.00  0.00    -0.134 C  
HETATM    7  C   UNL     1      -8.944   4.447  70.949  1.00  0.00    -0.112 C  
HETATM    8  N   UNL     1      -8.648   4.422  72.300  1.00  0.00    -0.111 NA 
HETATM    9  C   UNL     1      -9.526   3.144  70.445  1.00  0.00    -0.227 C  
HETATM   10  C   UNL     1      -8.192   5.496  73.035  1.00  0.00    -0.119 C  
HETATM   11  C   UNL     1      -8.043   5.238  74.517  1.00  0.00    -0.101 C  
HETATM   12  C   UNL     1      -7.908   6.670  72.421  1.00  0.00    -0.099 C  
HETATM   13  C   UNL     1      -8.062   6.810  70.895  1.00  0.00    -0.118 C  
BRANCH  12  14
HETATM   14  C   UNL     1      -7.497   7.828  73.259  1.00  0.00    -0.115 C  
HETATM   15  O   UNL     1      -8.275   8.646  73.729  1.00  0.00    -0.388 OA 
BRANCH  14  16
HETATM   16  O   UNL     1      -6.148   7.879  73.432  1.00  0.00    -0.060 OA 
HETATM   17  C   UNL     1      -5.445   8.348  72.278  1.00  0.00    -0.043 C  
ENDBRANCH  14  16
ENDBRANCH  12  14
BRANCH  13  18
HETATM   18  C   UNL     1      -8.820   8.087  70.515  1.00  0.00    -0.137 A  
HETATM   19  C   UNL     1      -8.312   8.976  69.555  1.00  0.00    -0.117 A  
HETATM   20  C   UNL     1     -10.065   8.370  71.113  1.00  0.00    -0.248 A  
HETATM   21  C   UNL     1      -9.033  10.114  69.185  1.00  0.00    -0.181 A  
HETATM   22  C   UNL     1     -10.795   9.499  70.716  1.00  0.00    -0.318 A  
HETATM   23  N   UNL     1     -12.126   9.741  71.286  1.00  0.00    -0.353 N  
HETATM   24  C   UNL     1     -10.278  10.375  69.757  1.00  0.00    -0.228 A  
HETATM   25  O   UNL     1     -12.565   8.920  72.103  1.00  0.00    -0.359 OA 
HETATM   26  O   UNL     1     -12.742  10.748  70.903  1.00  0.00    -0.347 OA 
ENDBRANCH  13  18
ENDBRANCH   4   6
ENDBRANCH   3   4
ENDBRANCH   2   3
TORSDOF 6
ENDMDL
MODEL      172
REMARK 921   NORMALIZED FREE ENERGY PREDICTED BY IDOCK:   -2.97 KCAL/MOL
REMARK 922        TOTAL FREE ENERGY PREDICTED BY IDOCK:   -5.15 KCAL/MOL
REMARK 923 INTER-LIGAND FREE ENERGY PREDICTED BY IDOCK:   -4.58 KCAL/MOL
REMARK 924 INTRA-LIGAND FREE ENERGY PREDICTED BY IDOCK:   -0.58 KCAL/MOL
REMARK 927      BINDING AFFINITY PREDICTED BY RF-SCORE:    0.00 PKD
ROOT
HETATM    1  C   UNL     1      -8.617  17.145  68.305  1.00  0.00    -0.241 C  
HETATM    2  C   UNL     1      -8.181  15.904  69.060  1.00  0.00    -0.234 C  
ENDROOT
BRANCH   2   3
HETATM    3  O   UNL     1      -8.342  14.797  68.161  1.00  0.00    -0.133 OA 
BRANCH   3   4
HETATM    4  C   UNL     1      -9.463  14.054  68.335  1.00  0.00    -0.213 C  
HETATM    5  O   UNL     1     -10.000  13.822  69.407  1.00  0.00     0.210 OA 
BRANCH   4   6
HETATM    6  C   UNL     1      -9.992  13.639  67.011  1.00  0.00    -0.248 C  
HETATM    7  C   UNL     1     -11.002  14.324  66.426  1.00  0.00    -0.311 C  
HETATM    8  N   UNL     1     -11.466  13.926  65.184  1.00  0.00    -0.311 NA 
HETATM    9  C   UNL     1     -11.717  15.544  66.964  1.00  0.00     0.177 C  
HETATM   10  C   UNL     1     -11.055  12.799  64.505  1.00  0.00    -0.330 C  
HETATM   11  C   UNL     1     -11.792  12.529  63.213  1.00  0.00    -0.498 C  
HETATM   12  C   UNL     1     -10.057  12.030  65.002  1.00  0.00    -0.293 C  
HETATM   13  C   UNL     1      -9.349  12.421  66.313  1.00  0.00    -0.189 C  
BRANCH  12  14
HETATM   14  C   UNL     1      -9.698  10.779  64.282  1.00  0.00    -0.302 C  
HETATM   15  O   UNL     1      -9.901   9.654  64.717  1.00  0.00    -0.184 OA 
BRANCH  14  16
HETATM   16  O   UNL     1      -9.104  11.032  63.085  1.00  0.00    -0.240 OA 
HETATM   17  C   UNL     1      -8.308   9.945  62.604  1.00  0.00    -0.153 C  
ENDBRANCH  14  16
ENDBRANCH  12  14
BRANCH  13  18
HETATM   18  C   UNL     1      -9.222  11.229  67.269  1.00  0.00    -0.170 A  
HETATM   19  C   UNL     1     -10.302  10.819  68.067  1.00  0.00    -0.211 A  
HETATM   20  C   UNL     1      -8.015  10.505  67.335  1.00  0.00    -0.110 A  
HETATM   21  C   UNL     1     -10.189   9.705  68.901  1.00  0.00    -0.214 A  
HETATM   22  C   UNL     1      -7.918   9.373  68.154  1.00  0.00    -0.091 A  
HETATM   23  N   UNL     1      -6.683   8.579  68.155  1.00  0.00    -0.064 N  
HETATM   24  C   UNL     1      -9.002   8.974  68.942  1.00  0.00    -0.140 A  
HETATM   25  O   UNL     1      -5.760   8.943  67.412  1.00  0.00    -0.038 OA 
HETATM   26  O   UNL     1      -6.640   7.579  68.888  1.00  0.00    -0.045 OA 
ENDBRANCH  13  18
ENDBRANCH   4   6
ENDBRANCH   3   4
ENDBRANCH   2   3
TORSDOF 6
ENDMDL
MODEL      173
REMARK 921   NORMALIZED FREE ENERGY PREDICTED BY IDOCK:   -2.93 KCAL/MOL
REMARK 922        TOTAL FREE ENERGY PREDICTED BY IDOCK:   -5.10 KCAL/MOL
REMARK 923 INTER-LIGAND FREE ENERGY PREDICTED BY IDOCK:   -5.42 KCAL/MOL
REMARK 924 INTRA-LIGAND FREE ENERGY PREDICTED BY IDOCK:    0.32 KCAL/MOL
REMARK 927      BINDING AFFINITY PREDICTED BY RF-SCORE:    0.00 PKD
ROOT
HETATM    1  C   UNL     1     -11.078  16.325  70.428  1.00  0.00    -0.322 C  
HETATM    2  C   UNL     1     -10.460  16.115  69.058  1.00  0.00    -0.261 C  
ENDROOT
BRANCH   2   3
HETATM    3  O   UNL     1     -10.294  14.700  68.893  1.00  0.00    -0.235 OA 
BRANCH   3   4
HETATM    4  C   UNL     1     -11.383  14.026  68.445  1.00  0.00    -0.291 C  
HETATM    5  O   UNL     1     -12.146  14.414  67.574  1.00  0.00    -0.377 OA 
BRANCH   4   6
HETATM    6  C   UNL     1     -11.455  12.702  69.112  1.00  0.00    -0.359 C  
HETATM    7  C   UNL     1     -12.085  12.562  70.301  1.00  0.00    -0.294 C  
HETATM    8  N   UNL     1     -12.151  11.313  70.894  1.00  0.00    -0.336 NA 
HETATM    9  C   UNL     1     -12.782  13.638  71.105  1.00  0.00    -0.432 C  
HETATM   10  C   UNL     1     -11.529  10.175  70.426  1.00  0.00    -0.322 C  
HETATM   11  C   UNL     1     -11.671   8.959  71.313  1.00  0.00    -0.370 C  
HETATM   12  C   UNL     1     -10.859  10.201  69.248  1.00  0.00    -0.269 C  
HETATM   13  C   UNL     1     -10.811  11.489  68.406  1.00  0.00    -0.250 C  
BRANCH  12  14
HETATM   14  C   UNL     1     -10.134   8.976  68.817  1.00  0.00    -0.199 C  
HETATM   15  O   UNL     1      -9.081   8.594  69.307  1.00  0.00    -0.147 OA 
BRANCH  14  16
HETATM   16  O   UNL     1     -10.774   8.334  67.803  1.00  0.00    -0.195 OA 
HETATM   17  C   UNL     1     -10.013   8.283  66.593  1.00  0.00    -0.278 C  
ENDBRANCH  14  16
ENDBRANCH  12  14
BRANCH  13  18
HETATM   18  C   UNL     1      -9.387  11.806  67.933  1.00  0.00    -0.184 A  
HETATM   19  C   UNL     1      -8.890  11.292  66.725  1.00  0.00    -0.170 A  
HETATM   20  C   UNL     1      -8.563  12.651  68.703  1.00  0.00     0.046 A  
HETATM   21  C   UNL     1      -7.607  11.623  66.284  1.00  0.00     0.172 A  
HETATM   22  C   UNL     1      -7.287  13.001  68.241  1.00  0.00    -0.116 A  
HETATM   23  N   UNL     1      -6.468  13.945  69.010  1.00  0.00    -0.097 N  
HETATM   24  C   UNL     1      -6.805  12.483  67.034  1.00  0.00     0.045 A  
HETATM   25  O   UNL     1      -6.947  14.412  70.053  1.00  0.00    -0.092 OA 
HETATM   26  O   UNL     1      -5.347  14.234  68.562  1.00  0.00    -0.087 OA 
ENDBRANCH  13  18
ENDBRANCH   4   6
ENDBRANCH   3   4
ENDBRANCH   2   3
TORSDOF 6
ENDMDL
MODEL      174
REMARK 921   NORMALIZED FREE ENERGY PREDICTED BY IDOCK:   -2.90 KCAL/MOL
REMARK 922        TOTAL FREE ENERGY PREDICTED BY IDOCK:   -5.07 KCAL/MOL
REMARK 923 INTER-LIGAND FREE ENERGY PREDICTED BY IDOCK:   -5.27 KCAL/MOL
REMARK 924 INTRA-LIGAND FREE ENERGY PREDICTED BY IDOCK:    0.19 KCAL/MOL
REMARK 927      BINDING AFFINITY PREDICTED BY RF-SCORE:    0.00 PKD
ROOT
HETATM    1  C   UNL     1      -8.517   7.276  70.089  1.00  0.00    -0.138 C  
HETATM    2  C   UNL     1      -7.847   8.451  69.400  1.00  0.00    -0.103 C  
ENDROOT
BRANCH   2   3
HETATM    3  O   UNL     1      -8.745   8.893  68.373  1.00  0.00    -0.133 OA 
BRANCH   3   4
HETATM    4  C   UNL     1      -8.736  10.224  68.114  1.00  0.00    -0.123 C  
HETATM    5  O   UNL     1      -8.609  11.107  68.949  1.00  0.00    -0.153 OA 
BRANCH   4   6
HETATM    6  C   UNL     1      -8.814  10.444  66.648  1.00  0.00    -0.144 C  
HETATM    7  C   UNL     1      -7.933   9.845  65.813  1.00  0.00    -0.120 C  
HETATM    8  N   UNL     1      -8.037  10.056  64.449  1.00  0.00    -0.151 NA 
HETATM    9  C   UNL     1      -6.803   8.911  66.185  1.00  0.00    -0.074 C  
HETATM   10  C   UNL     1      -8.917  10.926  63.842  1.00  0.00    -0.107 C  
HETATM   11  C   UNL     1      -8.759  11.050  62.343  1.00  0.00    -0.356 C  
HETATM   12  C   UNL     1      -9.838  11.589  64.582  1.00  0.00    -0.283 C  
HETATM   13  C   UNL     1      -9.934  11.356  66.101  1.00  0.00    -0.265 C  
BRANCH  12  14
HETATM   14  C   UNL     1     -10.716  12.579  63.902  1.00  0.00    -0.437 C  
HETATM   15  O   UNL     1     -10.631  13.790  64.054  1.00  0.00    -0.144 OA 
BRANCH  14  16
HETATM   16  O   UNL     1     -11.635  11.980  63.098  1.00  0.00    -0.329 OA 
HETATM   17  C   UNL     1     -12.898  11.772  63.735  1.00  0.00    -0.186 C  
ENDBRANCH  14  16
ENDBRANCH  12  14
BRANCH  13  18
HETATM   18  C   UNL     1     -10.009  12.678  66.875  1.00  0.00    -0.232 A  
HETATM   19  C   UNL     1     -11.138  13.010  67.639  1.00  0.00    -0.296 A  
HETATM   20  C   UNL     1      -8.918  13.570  66.850  1.00  0.00    -0.219 A  
HETATM   21  C   UNL     1     -11.177  14.197  68.374  1.00  0.00    -0.289 A  
HETATM   22  C   UNL     1      -8.953  14.745  67.612  1.00  0.00    -0.182 A  
HETATM   23  N   UNL     1      -7.781  15.628  67.643  1.00  0.00    -0.143 N  
HETATM   24  C   UNL     1     -10.084  15.064  68.371  1.00  0.00    -0.225 A  
HETATM   25  O   UNL     1      -6.784  15.291  66.989  1.00  0.00    -0.251 OA 
HETATM   26  O   UNL     1      -7.850  16.655  68.336  1.00  0.00    -0.184 OA 
ENDBRANCH  13  18
ENDBRANCH   4   6
ENDBRANCH   3   4
ENDBRANCH   2   3
TORSDOF 6
ENDMDL
MODEL      175
REMARK 921   NORMALIZED FREE ENERGY PREDICTED BY IDOCK:   -2.90 KCAL/MOL
REMARK 922        TOTAL FREE ENERGY PREDICTED BY IDOCK:   -5.07 KCAL/MOL
REMARK 923 INTER-LIGAND FREE ENERGY PREDICTED BY IDOCK:   -5.11 KCAL/MOL
REMARK 924 INTRA-LIGAND FREE ENERGY PREDICTED BY IDOCK:    0.05 KCAL/MOL
REMARK 927      BINDING AFFINITY PREDICTED BY RF-SCORE:    0.00 PKD
ROOT
HETATM    1  C   UNL     1      -9.200   7.567  66.760  1.00  0.00    -0.192 C  
HETATM    2  C   UNL     1      -9.606   8.289  68.032  1.00  0.00    -0.153 C  
ENDROOT
BRANCH   2   3
HETATM    3  O   UNL     1      -8.411   8.867  68.576  1.00  0.00    -0.122 OA 
BRANCH   3   4
HETATM    4  C   UNL     1      -8.595   9.831  69.513  1.00  0.00    -0.179 C  
HETATM    5  O   UNL     1      -8.060   9.863  70.611  1.00  0.00    -0.240 OA 
BRANCH   4   6
HETATM    6  C   UNL     1      -9.477  10.891  68.965  1.00  0.00    -0.160 C  
HETATM    7  C   UNL     1     -10.786  10.944  69.305  1.00  0.00    -0.231 C  
HETATM    8  N   UNL     1     -11.583  11.952  68.791  1.00  0.00    -0.283 NA 
HETATM    9  C   UNL     1     -11.532  10.013  70.235  1.00  0.00    -0.372 C  
HETATM   10  C   UNL     1     -11.186  12.883  67.855  1.00  0.00    -0.269 C  
HETATM   11  C   UNL     1     -12.277  13.815  67.379  1.00  0.00    -0.290 C  
HETATM   12  C   UNL     1      -9.899  12.917  67.433  1.00  0.00    -0.207 C  
HETATM   13  C   UNL     1      -8.860  11.941  68.015  1.00  0.00    -0.177 C  
BRANCH  12  14
HETATM   14  C   UNL     1      -9.528  13.882  66.363  1.00  0.00    -0.250 C  
HETATM   15  O   UNL     1     -10.020  13.886  65.243  1.00  0.00    -0.308 OA 
BRANCH  14  16
HETATM   16  O   UNL     1      -8.568  14.754  66.771  1.00  0.00    -0.236 OA 
HETATM   17  C   UNL     1      -9.086  16.030  67.156  1.00  0.00    -0.208 C  
ENDBRANCH  14  16
ENDBRANCH  12  14
BRANCH  13  18
HETATM   18  C   UNL     1      -8.024  11.278  66.914  1.00  0.00    -0.155 A  
HETATM   19  C   UNL     1      -6.661  11.001  67.103  1.00  0.00    -0.089 A  
HETATM   20  C   UNL     1      -8.630  10.909  65.696  1.00  0.00    -0.163 A  
HETATM   21  C   UNL     1      -5.920  10.357  66.109  1.00  0.00    -0.090 A  
HETATM   22  C   UNL     1      -7.887  10.238  64.715  1.00  0.00    -0.130 A  
HETATM   23  N   UNL     1      -8.547   9.787  63.485  1.00  0.00    -0.183 N  
HETATM   24  C   UNL     1      -6.530   9.966  64.917  1.00  0.00    -0.111 A  
HETATM   25  O   UNL     1      -9.760  10.012  63.361  1.00  0.00    -0.200 OA 
HETATM   26  O   UNL     1      -7.856   9.190  62.645  1.00  0.00    -0.115 OA 
ENDBRANCH  13  18
ENDBRANCH   4   6
ENDBRANCH   3   4
ENDBRANCH   2   3
TORSDOF 6
ENDMDL
MODEL      176
REMARK 921   NORMALIZED FREE ENERGY PREDICTED BY IDOCK:   -2.89 KCAL/MOL
REMARK 922        TOTAL FREE ENERGY PREDICTED BY IDOCK:   -5.06 KCAL/MOL
REMARK 923 INTER-LIGAND FREE ENERGY PREDICTED BY IDOCK:   -4.64 KCAL/MOL
REMARK 924 INTRA-LIGAND FREE ENERGY PREDICTED BY IDOCK:   -0.41 KCAL/MOL
REMARK 927      BINDING AFFINITY PREDICTED BY RF-SCORE:    0.00 PKD
ROOT
HETATM    1  C   UNL     1      -5.300  10.062  65.935  1.00  0.00    -0.044 C  
HETATM    2  C   UNL     1      -6.609   9.350  66.218  1.00  0.00    -0.070 C  
ENDROOT
BRANCH   2   3
HETATM    3  O   UNL     1      -7.386   9.421  65.014  1.00  0.00    -0.100 OA 
BRANCH   3   4
HETATM    4  C   UNL     1      -8.693   9.081  65.133  1.00  0.00    -0.189 C  
HETATM    5  O   UNL     1      -9.113   7.968  65.410  1.00  0.00    -0.021 OA 
BRANCH   4   6
HETATM    6  C   UNL     1      -9.537  10.291  64.965  1.00  0.00    -0.346 C  
HETATM    7  C   UNL     1      -9.689  10.863  63.748  1.00  0.00    -0.307 C  
HETATM    8  N   UNL     1     -10.493  11.981  63.617  1.00  0.00    -0.413 NA 
HETATM    9  C   UNL     1      -9.083  10.410  62.438  1.00  0.00    -0.313 C  
HETATM   10  C   UNL     1     -11.097  12.655  64.657  1.00  0.00    -0.313 C  
HETATM   11  C   UNL     1     -11.840  13.910  64.259  1.00  0.00    -0.441 C  
HETATM   12  C   UNL     1     -11.003  12.179  65.923  1.00  0.00    -0.332 C  
HETATM   13  C   UNL     1     -10.250  10.866  66.208  1.00  0.00    -0.300 C  
BRANCH  12  14
HETATM   14  C   UNL     1     -11.599  12.977  67.027  1.00  0.00    -0.360 C  
HETATM   15  O   UNL     1     -12.799  13.055  67.247  1.00  0.00     0.462 OA 
BRANCH  14  16
HETATM   16  O   UNL     1     -10.651  13.621  67.760  1.00  0.00    -0.238 OA 
HETATM   17  C   UNL     1     -10.936  13.645  69.162  1.00  0.00    -0.194 C  
ENDBRANCH  14  16
ENDBRANCH  12  14
BRANCH  13  18
HETATM   18  C   UNL     1      -9.286  11.010  67.392  1.00  0.00    -0.157 A  
HETATM   19  C   UNL     1      -9.400  10.193  68.527  1.00  0.00    -0.151 A  
HETATM   20  C   UNL     1      -8.243  11.958  67.337  1.00  0.00    -0.164 A  
HETATM   21  C   UNL     1      -8.489  10.305  69.579  1.00  0.00    -0.156 A  
HETATM   22  C   UNL     1      -7.317  12.045  68.385  1.00  0.00    -0.096 A  
HETATM   23  N   UNL     1      -6.189  12.978  68.284  1.00  0.00    -0.076 N  
HETATM   24  C   UNL     1      -7.441  11.223  69.510  1.00  0.00     0.073 A  
HETATM   25  O   UNL     1      -6.092  13.660  67.254  1.00  0.00    -0.324 OA 
HETATM   26  O   UNL     1      -5.387  13.019  69.229  1.00  0.00    -0.073 OA 
ENDBRANCH  13  18
ENDBRANCH   4   6
ENDBRANCH   3   4
ENDBRANCH   2   3
TORSDOF 6
ENDMDL
MODEL      177
REMARK 921   NORMALIZED FREE ENERGY PREDICTED BY IDOCK:   -2.89 KCAL/MOL
REMARK 922        TOTAL FREE ENERGY PREDICTED BY IDOCK:   -5.05 KCAL/MOL
REMARK 923 INTER-LIGAND FREE ENERGY PREDICTED BY IDOCK:   -6.20 KCAL/MOL
REMARK 924 INTRA-LIGAND FREE ENERGY PREDICTED BY IDOCK:    1.15 KCAL/MOL
REMARK 927      BINDING AFFINITY PREDICTED BY RF-SCORE:    0.00 PKD
ROOT
HETATM    1  C   UNL     1     -10.379  12.351  64.813  1.00  0.00    -0.324 C  
HETATM    2  C   UNL     1      -9.452  11.656  65.793  1.00  0.00    -0.226 C  
ENDROOT
BRANCH   2   3
HETATM    3  O   UNL     1     -10.138  11.618  67.052  1.00  0.00    -0.205 OA 
BRANCH   3   4
HETATM    4  C   UNL     1      -9.391  11.932  68.141  1.00  0.00    -0.191 C  
HETATM    5  O   UNL     1      -9.060  11.153  69.022  1.00  0.00    -0.134 OA 
BRANCH   4   6
HETATM    6  C   UNL     1      -8.960  13.350  68.053  1.00  0.00    -0.190 C  
HETATM    7  C   UNL     1      -7.647  13.668  67.983  1.00  0.00    -0.139 C  
HETATM    8  N   UNL     1      -7.273  14.998  67.886  1.00  0.00    -0.132 NA 
HETATM    9  C   UNL     1      -6.470  12.718  67.974  1.00  0.00    -0.099 C  
HETATM   10  C   UNL     1      -8.131  16.073  67.959  1.00  0.00    -0.145 C  
HETATM   11  C   UNL     1      -7.459  17.428  67.931  1.00  0.00    -0.195 C  
HETATM   12  C   UNL     1      -9.469  15.874  68.042  1.00  0.00    -0.206 C  
HETATM   13  C   UNL     1     -10.047  14.447  68.024  1.00  0.00    -0.232 C  
BRANCH  12  14
HETATM   14  C   UNL     1     -10.355  17.058  68.200  1.00  0.00    -0.347 C  
HETATM   15  O   UNL     1     -10.498  17.672  69.247  1.00  0.00    -0.293 OA 
BRANCH  14  16
HETATM   16  O   UNL     1     -10.999  17.372  67.044  1.00  0.00    -0.117 OA 
HETATM   17  C   UNL     1     -10.433  18.496  66.365  1.00  0.00    -0.406 C  
ENDBRANCH  14  16
ENDBRANCH  12  14
BRANCH  13  18
HETATM   18  C   UNL     1     -11.082  14.240  69.137  1.00  0.00    -0.291 A  
HETATM   19  C   UNL     1     -11.867  13.077  69.192  1.00  0.00    -0.360 A  
HETATM   20  C   UNL     1     -11.237  15.214  70.143  1.00  0.00    -0.299 A  
HETATM   21  C   UNL     1     -12.775  12.880  70.235  1.00  0.00     0.051 A  
HETATM   22  C   UNL     1     -12.131  14.997  71.200  1.00  0.00    -0.318 A  
HETATM   23  N   UNL     1     -12.227  15.980  72.285  1.00  0.00    -0.489 N  
HETATM   24  C   UNL     1     -12.905  13.833  71.245  1.00  0.00    -0.434 A  
HETATM   25  O   UNL     1     -11.496  16.978  72.229  1.00  0.00    -0.012 OA 
HETATM   26  O   UNL     1     -13.025  15.746  73.206  1.00  0.00    -0.468 OA 
ENDBRANCH  13  18
ENDBRANCH   4   6
ENDBRANCH   3   4
ENDBRANCH   2   3
TORSDOF 6
ENDMDL
MODEL      178
REMARK 921   NORMALIZED FREE ENERGY PREDICTED BY IDOCK:   -2.88 KCAL/MOL
REMARK 922        TOTAL FREE ENERGY PREDICTED BY IDOCK:   -5.04 KCAL/MOL
REMARK 923 INTER-LIGAND FREE ENERGY PREDICTED BY IDOCK:   -4.54 KCAL/MOL
REMARK 924 INTRA-LIGAND FREE ENERGY PREDICTED BY IDOCK:   -0.51 KCAL/MOL
REMARK 927      BINDING AFFINITY PREDICTED BY RF-SCORE:    0.00 PKD
ROOT
HETATM    1  C   UNL     1     -10.576   7.310  66.836  1.00  0.00    -0.375 C  
HETATM    2  C   UNL     1     -10.939   6.352  67.956  1.00  0.00    -0.311 C  
ENDROOT
BRANCH   2   3
HETATM    3  O   UNL     1     -10.000   5.269  67.893  1.00  0.00    -0.148 OA 
BRANCH   3   4
HETATM    4  C   UNL     1      -8.794   5.501  68.468  1.00  0.00    -0.104 C  
HETATM    5  O   UNL     1      -7.823   5.987  67.907  1.00  0.00    -0.102 OA 
BRANCH   4   6
HETATM    6  C   UNL     1      -8.858   5.156  69.911  1.00  0.00    -0.127 C  
HETATM    7  C   UNL     1      -9.102   3.885  70.306  1.00  0.00    -0.119 C  
HETATM    8  N   UNL     1      -9.142   3.589  71.657  1.00  0.00    -0.106 NA 
HETATM    9  C   UNL     1      -9.328   2.676  69.426  1.00  0.00    -0.183 C  
HETATM   10  C   UNL     1      -9.056   4.511  72.678  1.00  0.00    -0.122 C  
HETATM   11  C   UNL     1      -9.231   3.942  74.068  1.00  0.00    -0.100 C  
HETATM   12  C   UNL     1      -8.823   5.816  72.399  1.00  0.00    -0.131 C  
HETATM   13  C   UNL     1      -8.622   6.279  70.944  1.00  0.00    -0.135 C  
BRANCH  12  14
HETATM   14  C   UNL     1      -8.818   6.792  73.521  1.00  0.00    -0.130 C  
HETATM   15  O   UNL     1      -9.827   7.273  74.017  1.00  0.00    -0.292 OA 
BRANCH  14  16
HETATM   16  O   UNL     1      -7.556   7.099  73.925  1.00  0.00    -0.102 OA 
HETATM   17  C   UNL     1      -7.406   8.459  74.342  1.00  0.00    -0.190 C  
ENDBRANCH  14  16
ENDBRANCH  12  14
BRANCH  13  18
HETATM   18  C   UNL     1      -9.460   7.523  70.622  1.00  0.00    -0.164 A  
HETATM   19  C   UNL     1     -10.800   7.622  71.029  1.00  0.00    -0.255 A  
HETATM   20  C   UNL     1      -8.877   8.604  69.931  1.00  0.00    -0.144 A  
HETATM   21  C   UNL     1     -11.540   8.777  70.768  1.00  0.00    -0.288 A  
HETATM   22  C   UNL     1      -9.618   9.770  69.698  1.00  0.00    -0.221 A  
HETATM   23  N   UNL     1      -8.978  10.921  69.049  1.00  0.00    -0.135 N  
HETATM   24  C   UNL     1     -10.951   9.857  70.110  1.00  0.00    -0.356 A  
HETATM   25  O   UNL     1      -7.784  10.818  68.734  1.00  0.00    -0.104 OA 
HETATM   26  O   UNL     1      -9.666  11.937  68.867  1.00  0.00    -0.093 OA 
ENDBRANCH  13  18
ENDBRANCH   4   6
ENDBRANCH   3   4
ENDBRANCH   2   3
TORSDOF 6
ENDMDL
MODEL      179
REMARK 921   NORMALIZED FREE ENERGY PREDICTED BY IDOCK:   -2.88 KCAL/MOL
REMARK 922        TOTAL FREE ENERGY PREDICTED BY IDOCK:   -5.03 KCAL/MOL
REMARK 923 INTER-LIGAND FREE ENERGY PREDICTED BY IDOCK:   -6.02 KCAL/MOL
REMARK 924 INTRA-LIGAND FREE ENERGY PREDICTED BY IDOCK:    0.99 KCAL/MOL
REMARK 927      BINDING AFFINITY PREDICTED BY RF-SCORE:    0.00 PKD
ROOT
HETATM    1  C   UNL     1      -9.687   8.207  66.266  1.00  0.00    -0.223 C  
HETATM    2  C   UNL     1     -10.802   7.832  67.225  1.00  0.00    -0.155 C  
ENDROOT
BRANCH   2   3
HETATM    3  O   UNL     1     -11.237   9.050  67.846  1.00  0.00     0.096 OA 
BRANCH   3   4
HETATM    4  C   UNL     1     -10.404   9.564  68.786  1.00  0.00    -0.208 C  
HETATM    5  O   UNL     1      -9.216   9.301  68.899  1.00  0.00    -0.140 OA 
BRANCH   4   6
HETATM    6  C   UNL     1     -11.135  10.566  69.601  1.00  0.00    -0.338 C  
HETATM    7  C   UNL     1     -11.914  10.178  70.637  1.00  0.00    -0.332 C  
HETATM    8  N   UNL     1     -12.572  11.134  71.390  1.00  0.00    -0.388 NA 
HETATM    9  C   UNL     1     -12.160   8.766  71.123  1.00  0.00    -0.310 C  
HETATM   10  C   UNL     1     -12.595  12.485  71.118  1.00  0.00    -0.253 C  
HETATM   11  C   UNL     1     -13.474  13.306  72.035  1.00  0.00    -0.596 C  
HETATM   12  C   UNL     1     -11.860  12.987  70.096  1.00  0.00    -0.324 C  
HETATM   13  C   UNL     1     -10.968  12.061  69.248  1.00  0.00    -0.189 C  
BRANCH  12  14
HETATM   14  C   UNL     1     -11.974  14.436  69.784  1.00  0.00    -0.332 C  
HETATM   15  O   UNL     1     -12.929  14.941  69.210  1.00  0.00     0.335 OA 
BRANCH  14  16
HETATM   16  O   UNL     1     -10.885  15.136  70.201  1.00  0.00    -0.258 OA 
HETATM   17  C   UNL     1     -10.124  15.696  69.128  1.00  0.00    -0.237 C  
ENDBRANCH  14  16
ENDBRANCH  12  14
BRANCH  13  18
HETATM   18  C   UNL     1     -11.158  12.307  67.747  1.00  0.00    -0.304 A  
HETATM   19  C   UNL     1     -12.263  13.025  67.262  1.00  0.00    -0.180 A  
HETATM   20  C   UNL     1     -10.199  11.834  66.829  1.00  0.00    -0.240 A  
HETATM   21  C   UNL     1     -12.402  13.281  65.896  1.00  0.00    -0.479 A  
HETATM   22  C   UNL     1     -10.332  12.118  65.464  1.00  0.00    -0.263 A  
HETATM   23  N   UNL     1      -9.286  11.690  64.527  1.00  0.00    -0.027 N  
HETATM   24  C   UNL     1     -11.436  12.836  64.994  1.00  0.00    -0.356 A  
HETATM   25  O   UNL     1      -8.304  11.091  64.987  1.00  0.00    -0.036 OA 
HETATM   26  O   UNL     1      -9.438  11.968  63.327  1.00  0.00    -0.285 OA 
ENDBRANCH  13  18
ENDBRANCH   4   6
ENDBRANCH   3   4
ENDBRANCH   2   3
TORSDOF 6
ENDMDL
MODEL      180
REMARK 921   NORMALIZED FREE ENERGY PREDICTED BY IDOCK:   -2.87 KCAL/MOL
REMARK 922        TOTAL FREE ENERGY PREDICTED BY IDOCK:   -5.02 KCAL/MOL
REMARK 923 INTER-LIGAND FREE ENERGY PREDICTED BY IDOCK:   -4.16 KCAL/MOL
REMARK 924 INTRA-LIGAND FREE ENERGY PREDICTED BY IDOCK:   -0.86 KCAL/MOL
REMARK 927      BINDING AFFINITY PREDICTED BY RF-SCORE:    0.00 PKD
ROOT
HETATM    1  C   UNL     1     -10.846  10.959  67.836  1.00  0.00    -0.295 C  
HETATM    2  C   UNL     1     -11.319  10.721  69.258  1.00  0.00    -0.286 C  
ENDROOT
BRANCH   2   3
HETATM    3  O   UNL     1     -11.369   9.299  69.443  1.00  0.00    -0.032 OA 
BRANCH   3   4
HETATM    4  C   UNL     1     -10.663   8.816  70.495  1.00  0.00    -0.223 C  
HETATM    5  O   UNL     1     -10.371   9.445  71.501  1.00  0.00    -0.327 OA 
BRANCH   4   6
HETATM    6  C   UNL     1     -10.376   7.375  70.279  1.00  0.00    -0.217 C  
HETATM    7  C   UNL     1     -10.780   6.449  71.179  1.00  0.00    -0.244 C  
HETATM    8  N   UNL     1     -10.513   5.111  70.946  1.00  0.00    -0.221 NA 
HETATM    9  C   UNL     1     -11.543   6.687  72.464  1.00  0.00    -0.243 C  
HETATM   10  C   UNL     1      -9.761   4.620  69.901  1.00  0.00    -0.209 C  
HETATM   11  C   UNL     1      -9.530   3.126  69.929  1.00  0.00    -0.203 C  
HETATM   12  C   UNL     1      -9.295   5.458  68.944  1.00  0.00    -0.161 C  
HETATM   13  C   UNL     1      -9.625   6.961  68.996  1.00  0.00    -0.136 C  
BRANCH  12  14
HETATM   14  C   UNL     1      -8.420   4.902  67.877  1.00  0.00    -0.103 C  
HETATM   15  O   UNL     1      -7.207   5.053  67.836  1.00  0.00    -0.065 OA 
BRANCH  14  16
HETATM   16  O   UNL     1      -9.129   4.213  66.943  1.00  0.00    -0.123 OA 
HETATM   17  C   UNL     1      -9.972   5.045  66.141  1.00  0.00    -0.218 C  
ENDBRANCH  14  16
ENDBRANCH  12  14
BRANCH  13  18
HETATM   18  C   UNL     1      -8.377   7.825  68.774  1.00  0.00    -0.128 A  
HETATM   19  C   UNL     1      -7.314   7.816  69.690  1.00  0.00    -0.088 A  
HETATM   20  C   UNL     1      -8.271   8.624  67.617  1.00  0.00    -0.110 A  
HETATM   21  C   UNL     1      -6.164   8.573  69.455  1.00  0.00    -0.036 A  
HETATM   22  C   UNL     1      -7.103   9.359  67.376  1.00  0.00    -0.086 A  
HETATM   23  N   UNL     1      -6.970  10.124  66.130  1.00  0.00    -0.106 N  
HETATM   24  C   UNL     1      -6.051   9.340  68.296  1.00  0.00    -0.052 A  
HETATM   25  O   UNL     1      -7.909  10.084  65.322  1.00  0.00    -0.126 OA 
HETATM   26  O   UNL     1      -5.917  10.756  65.951  1.00  0.00    -0.120 OA 
ENDBRANCH  13  18
ENDBRANCH   4   6
ENDBRANCH   3   4
ENDBRANCH   2   3
TORSDOF 6
ENDMDL
MODEL      181
REMARK 921   NORMALIZED FREE ENERGY PREDICTED BY IDOCK:   -2.86 KCAL/MOL
REMARK 922        TOTAL FREE ENERGY PREDICTED BY IDOCK:   -5.01 KCAL/MOL
REMARK 923 INTER-LIGAND FREE ENERGY PREDICTED BY IDOCK:   -3.92 KCAL/MOL
REMARK 924 INTRA-LIGAND FREE ENERGY PREDICTED BY IDOCK:   -1.09 KCAL/MOL
REMARK 927      BINDING AFFINITY PREDICTED BY RF-SCORE:    0.00 PKD
ROOT
HETATM    1  C   UNL     1     -10.731   9.562  68.255  1.00  0.00    -0.241 C  
HETATM    2  C   UNL     1      -9.844   8.910  67.212  1.00  0.00    -0.199 C  
ENDROOT
BRANCH   2   3
HETATM    3  O   UNL     1      -9.856   7.501  67.484  1.00  0.00    -0.145 OA 
BRANCH   3   4
HETATM    4  C   UNL     1      -8.643   6.930  67.690  1.00  0.00    -0.121 C  
HETATM    5  O   UNL     1      -7.565   7.487  67.548  1.00  0.00    -0.107 OA 
BRANCH   4   6
HETATM    6  C   UNL     1      -8.826   5.549  68.203  1.00  0.00    -0.105 C  
HETATM    7  C   UNL     1      -9.401   4.597  67.432  1.00  0.00    -0.143 C  
HETATM    8  N   UNL     1      -9.547   3.314  67.929  1.00  0.00    -0.153 NA 
HETATM    9  C   UNL     1      -9.916   4.747  66.017  1.00  0.00    -0.255 C  
HETATM   10  C   UNL     1      -9.245   2.919  69.215  1.00  0.00    -0.144 C  
HETATM   11  C   UNL     1      -9.593   1.484  69.540  1.00  0.00    -0.077 C  
HETATM   12  C   UNL     1      -8.675   3.793  70.079  1.00  0.00    -0.119 C  
HETATM   13  C   UNL     1      -8.328   5.223  69.628  1.00  0.00    -0.098 C  
BRANCH  12  14
HETATM   14  C   UNL     1      -8.439   3.353  71.481  1.00  0.00    -0.068 C  
HETATM   15  O   UNL     1      -7.379   2.899  71.889  1.00  0.00    -0.041 OA 
BRANCH  14  16
HETATM   16  O   UNL     1      -9.547   3.503  72.256  1.00  0.00    -0.125 OA 
HETATM   17  C   UNL     1      -9.251   3.894  73.600  1.00  0.00    -0.096 C  
ENDBRANCH  14  16
ENDBRANCH  12  14
BRANCH  13  18
HETATM   18  C   UNL     1      -8.806   6.270  70.642  1.00  0.00    -0.144 A  
HETATM   19  C   UNL     1     -10.148   6.680  70.686  1.00  0.00    -0.205 A  
HETATM   20  C   UNL     1      -7.897   6.817  71.569  1.00  0.00    -0.101 A  
HETATM   21  C   UNL     1     -10.580   7.602  71.642  1.00  0.00    -0.233 A  
HETATM   22  C   UNL     1      -8.343   7.720  72.543  1.00  0.00    -0.129 A  
HETATM   23  N   UNL     1      -7.406   8.222  73.555  1.00  0.00    -0.137 N  
HETATM   24  C   UNL     1      -9.684   8.119  72.578  1.00  0.00    -0.357 A  
HETATM   25  O   UNL     1      -6.237   7.815  73.514  1.00  0.00    -0.063 OA 
HETATM   26  O   UNL     1      -7.843   9.015  74.403  1.00  0.00    -0.318 OA 
ENDBRANCH  13  18
ENDBRANCH   4   6
ENDBRANCH   3   4
ENDBRANCH   2   3
TORSDOF 6
ENDMDL
MODEL      182
REMARK 921   NORMALIZED FREE ENERGY PREDICTED BY IDOCK:   -2.85 KCAL/MOL
REMARK 922        TOTAL FREE ENERGY PREDICTED BY IDOCK:   -5.00 KCAL/MOL
REMARK 923 INTER-LIGAND FREE ENERGY PREDICTED BY IDOCK:   -4.20 KCAL/MOL
REMARK 924 INTRA-LIGAND FREE ENERGY PREDICTED BY IDOCK:   -0.80 KCAL/MOL
REMARK 927      BINDING AFFINITY PREDICTED BY RF-SCORE:    0.00 PKD
ROOT
HETATM    1  C   UNL     1     -11.555  12.992  67.756  1.00  0.00    -0.385 C  
HETATM    2  C   UNL     1     -11.541  11.491  67.530  1.00  0.00    -0.246 C  
ENDROOT
BRANCH   2   3
HETATM    3  O   UNL     1     -11.877  10.883  68.786  1.00  0.00    -0.368 OA 
BRANCH   3   4
HETATM    4  C   UNL     1     -10.827  10.477  69.543  1.00  0.00    -0.256 C  
HETATM    5  O   UNL     1      -9.792  11.103  69.713  1.00  0.00     0.264 OA 
BRANCH   4   6
HETATM    6  C   UNL     1     -11.165   9.194  70.210  1.00  0.00    -0.249 C  
HETATM    7  C   UNL     1     -12.014   9.167  71.263  1.00  0.00    -0.325 C  
HETATM    8  N   UNL     1     -12.324   7.956  71.857  1.00  0.00    -0.304 NA 
HETATM    9  C   UNL     1     -12.726  10.340  71.901  1.00  0.00    -0.478 C  
HETATM   10  C   UNL     1     -11.755   6.742  71.536  1.00  0.00    -0.317 C  
HETATM   11  C   UNL     1     -12.189   5.583  72.404  1.00  0.00     0.177 C  
HETATM   12  C   UNL     1     -10.881   6.652  70.504  1.00  0.00    -0.310 C  
HETATM   13  C   UNL     1     -10.539   7.894  69.660  1.00  0.00    -0.234 C  
BRANCH  12  14
HETATM   14  C   UNL     1     -10.227   5.343  70.240  1.00  0.00    -0.267 C  
HETATM   15  O   UNL     1     -10.489   4.625  69.285  1.00  0.00    -0.000 OA 
BRANCH  14  16
HETATM   16  O   UNL     1      -9.309   5.029  71.193  1.00  0.00    -0.140 OA 
HETATM   17  C   UNL     1      -8.103   4.474  70.660  1.00  0.00    -0.074 C  
ENDBRANCH  14  16
ENDBRANCH  12  14
BRANCH  13  18
HETATM   18  C   UNL     1      -9.026   8.043  69.457  1.00  0.00    -0.148 A  
HETATM   19  C   UNL     1      -8.158   8.204  70.548  1.00  0.00    -0.104 A  
HETATM   20  C   UNL     1      -8.483   7.991  68.157  1.00  0.00    -0.123 A  
HETATM   21  C   UNL     1      -6.778   8.295  70.352  1.00  0.00    -0.036 A  
HETATM   22  C   UNL     1      -7.096   8.055  67.972  1.00  0.00    -0.086 A  
HETATM   23  N   UNL     1      -6.535   7.919  66.622  1.00  0.00    -0.053 N  
HETATM   24  C   UNL     1      -6.241   8.213  69.068  1.00  0.00    -0.040 A  
HETATM   25  O   UNL     1      -7.322   7.741  65.682  1.00  0.00    -0.070 OA 
HETATM   26  O   UNL     1      -5.301   7.975  66.502  1.00  0.00    -0.027 OA 
ENDBRANCH  13  18
ENDBRANCH   4   6
ENDBRANCH   3   4
ENDBRANCH   2   3
TORSDOF 6
ENDMDL
MODEL      183
REMARK 921   NORMALIZED FREE ENERGY PREDICTED BY IDOCK:   -2.85 KCAL/MOL
REMARK 922        TOTAL FREE ENERGY PREDICTED BY IDOCK:   -4.99 KCAL/MOL
REMARK 923 INTER-LIGAND FREE ENERGY PREDICTED BY IDOCK:   -4.85 KCAL/MOL
REMARK 924 INTRA-LIGAND FREE ENERGY PREDICTED BY IDOCK:   -0.15 KCAL/MOL
REMARK 927      BINDING AFFINITY PREDICTED BY RF-SCORE:    0.00 PKD
ROOT
HETATM    1  C   UNL     1     -12.120  13.909  68.134  1.00  0.00    -0.317 C  
HETATM    2  C   UNL     1     -10.711  13.491  67.758  1.00  0.00    -0.252 C  
ENDROOT
BRANCH   2   3
HETATM    3  O   UNL     1     -10.439  12.274  68.468  1.00  0.00    -0.227 OA 
BRANCH   3   4
HETATM    4  C   UNL     1     -11.009  11.154  67.959  1.00  0.00    -0.252 C  
HETATM    5  O   UNL     1     -11.594  11.080  66.888  1.00  0.00    -0.378 OA 
BRANCH   4   6
HETATM    6  C   UNL     1     -10.737  10.006  68.860  1.00  0.00    -0.243 C  
HETATM    7  C   UNL     1     -11.153  10.024  70.147  1.00  0.00    -0.310 C  
HETATM    8  N   UNL     1     -10.899   8.935  70.961  1.00  0.00    -0.240 NA 
HETATM    9  C   UNL     1     -11.918  11.125  70.849  1.00  0.00    -0.362 C  
HETATM   10  C   UNL     1     -10.148   7.834  70.607  1.00  0.00    -0.191 C  
HETATM   11  C   UNL     1      -9.932   6.827  71.714  1.00  0.00    -0.184 C  
HETATM   12  C   UNL     1      -9.670   7.713  69.345  1.00  0.00    -0.165 C  
HETATM   13  C   UNL     1      -9.984   8.785  68.285  1.00  0.00    -0.202 C  
BRANCH  12  14
HETATM   14  C   UNL     1      -8.797   6.552  69.025  1.00  0.00    -0.130 C  
HETATM   15  O   UNL     1      -7.624   6.462  69.362  1.00  0.00    -0.091 OA 
BRANCH  14  16
HETATM   16  O   UNL     1      -9.452   5.605  68.301  1.00  0.00    -0.110 OA 
HETATM   17  C   UNL     1      -8.576   4.673  67.661  1.00  0.00    -0.103 C  
ENDBRANCH  14  16
ENDBRANCH  12  14
BRANCH  13  18
HETATM   18  C   UNL     1      -8.727   9.212  67.518  1.00  0.00    -0.120 A  
HETATM   19  C   UNL     1      -8.282   8.496  66.396  1.00  0.00    -0.108 A  
HETATM   20  C   UNL     1      -8.014  10.359  67.920  1.00  0.00    -0.102 A  
HETATM   21  C   UNL     1      -7.160   8.919  65.680  1.00  0.00    -0.084 A  
HETATM   22  C   UNL     1      -6.906  10.793  67.180  1.00  0.00    -0.086 A  
HETATM   23  N   UNL     1      -6.218  12.033  67.559  1.00  0.00    -0.097 N  
HETATM   24  C   UNL     1      -6.474  10.072  66.062  1.00  0.00    -0.093 A  
HETATM   25  O   UNL     1      -6.656  12.665  68.530  1.00  0.00    -0.070 OA 
HETATM   26  O   UNL     1      -5.246  12.387  66.873  1.00  0.00    -0.329 OA 
ENDBRANCH  13  18
ENDBRANCH   4   6
ENDBRANCH   3   4
ENDBRANCH   2   3
TORSDOF 6
ENDMDL
MODEL      184
REMARK 921   NORMALIZED FREE ENERGY PREDICTED BY IDOCK:   -2.84 KCAL/MOL
REMARK 922        TOTAL FREE ENERGY PREDICTED BY IDOCK:   -4.99 KCAL/MOL
REMARK 923 INTER-LIGAND FREE ENERGY PREDICTED BY IDOCK:   -4.01 KCAL/MOL
REMARK 924 INTRA-LIGAND FREE ENERGY PREDICTED BY IDOCK:   -0.97 KCAL/MOL
REMARK 927      BINDING AFFINITY PREDICTED BY RF-SCORE:    0.00 PKD
ROOT
HETATM    1  C   UNL     1      -8.462  10.064  63.169  1.00  0.00    -0.181 C  
HETATM    2  C   UNL     1      -7.225  10.073  64.048  1.00  0.00    -0.129 C  
ENDROOT
BRANCH   2   3
HETATM    3  O   UNL     1      -7.670   9.829  65.389  1.00  0.00    -0.113 OA 
BRANCH   3   4
HETATM    4  C   UNL     1      -7.000   8.863  66.067  1.00  0.00    -0.084 C  
HETATM    5  O   UNL     1      -5.788   8.715  66.074  1.00  0.00    -0.046 OA 
BRANCH   4   6
HETATM    6  C   UNL     1      -7.960   8.068  66.874  1.00  0.00    -0.104 C  
HETATM    7  C   UNL     1      -8.563   6.976  66.350  1.00  0.00    -0.135 C  
HETATM    8  N   UNL     1      -9.442   6.244  67.129  1.00  0.00    -0.121 NA 
HETATM    9  C   UNL     1      -8.383   6.404  64.961  1.00  0.00    -0.087 C  
HETATM   10  C   UNL     1      -9.856   6.586  68.398  1.00  0.00    -0.137 C  
HETATM   11  C   UNL     1     -10.902   5.673  68.996  1.00  0.00    -0.251 C  
HETATM   12  C   UNL     1      -9.326   7.668  69.019  1.00  0.00    -0.146 C  
HETATM   13  C   UNL     1      -8.235   8.507  68.329  1.00  0.00    -0.123 C  
BRANCH  12  14
HETATM   14  C   UNL     1      -9.857   8.051  70.355  1.00  0.00    -0.183 C  
HETATM   15  O   UNL     1     -10.790   8.823  70.527  1.00  0.00    -0.221 OA 
BRANCH  14  16
HETATM   16  O   UNL     1      -9.175   7.451  71.367  1.00  0.00    -0.142 OA 
HETATM   17  C   UNL     1      -9.131   8.232  72.564  1.00  0.00    -0.253 C  
ENDBRANCH  14  16
ENDBRANCH  12  14
BRANCH  13  18
HETATM   18  C   UNL     1      -8.535  10.009  68.414  1.00  0.00    -0.112 A  
HETATM   19  C   UNL     1      -7.641  10.894  69.036  1.00  0.00    -0.135 A  
HETATM   20  C   UNL     1      -9.712  10.525  67.835  1.00  0.00    -0.171 A  
HETATM   21  C   UNL     1      -7.904  12.265  69.069  1.00  0.00     0.194 A  
HETATM   22  C   UNL     1      -9.955  11.905  67.848  1.00  0.00    -0.191 A  
HETATM   23  N   UNL     1     -11.142  12.441  67.173  1.00  0.00    -0.265 N  
HETATM   24  C   UNL     1      -9.055  12.777  68.470  1.00  0.00    -0.049 A  
HETATM   25  O   UNL     1     -11.894  11.640  66.599  1.00  0.00    -0.533 OA 
HETATM   26  O   UNL     1     -11.317  13.669  67.201  1.00  0.00    -0.296 OA 
ENDBRANCH  13  18
ENDBRANCH   4   6
ENDBRANCH   3   4
ENDBRANCH   2   3
TORSDOF 6
ENDMDL
MODEL      185
REMARK 921   NORMALIZED FREE ENERGY PREDICTED BY IDOCK:   -2.84 KCAL/MOL
REMARK 922        TOTAL FREE ENERGY PREDICTED BY IDOCK:   -4.98 KCAL/MOL
REMARK 923 INTER-LIGAND FREE ENERGY PREDICTED BY IDOCK:   -5.73 KCAL/MOL
REMARK 924 INTRA-LIGAND FREE ENERGY PREDICTED BY IDOCK:    0.74 KCAL/MOL
REMARK 927      BINDING AFFINITY PREDICTED BY RF-SCORE:    0.00 PKD
ROOT
HETATM    1  C   UNL     1     -10.270   7.986  72.209  1.00  0.00    -0.325 C  
HETATM    2  C   UNL     1     -10.479   9.333  71.542  1.00  0.00    -0.315 C  
ENDROOT
BRANCH   2   3
HETATM    3  O   UNL     1      -9.710   9.317  70.331  1.00  0.00    -0.207 OA 
BRANCH   3   4
HETATM    4  C   UNL     1     -10.219   8.573  69.318  1.00  0.00    -0.208 C  
HETATM    5  O   UNL     1     -10.820   7.517  69.448  1.00  0.00    -0.224 OA 
BRANCH   4   6
HETATM    6  C   UNL     1     -10.015   9.283  68.031  1.00  0.00    -0.216 C  
HETATM    7  C   UNL     1      -8.895   9.079  67.300  1.00  0.00    -0.117 C  
HETATM    8  N   UNL     1      -8.737   9.742  66.096  1.00  0.00    -0.134 NA 
HETATM    9  C   UNL     1      -7.738   8.160  67.628  1.00  0.00    -0.102 C  
HETATM   10  C   UNL     1      -9.592  10.701  65.597  1.00  0.00    -0.218 C  
HETATM   11  C   UNL     1      -9.140  11.351  64.308  1.00  0.00     0.101 C  
HETATM   12  C   UNL     1     -10.742  10.995  66.251  1.00  0.00    -0.273 C  
HETATM   13  C   UNL     1     -11.121  10.242  67.539  1.00  0.00    -0.302 C  
BRANCH  12  14
HETATM   14  C   UNL     1     -11.597  12.092  65.724  1.00  0.00    -0.355 C  
HETATM   15  O   UNL     1     -12.672  11.917  65.168  1.00  0.00    -0.168 OA 
BRANCH  14  16
HETATM   16  O   UNL     1     -11.038  13.316  65.922  1.00  0.00    -0.284 OA 
HETATM   17  C   UNL     1     -11.985  14.388  65.877  1.00  0.00    -0.359 C  
ENDBRANCH  14  16
ENDBRANCH  12  14
BRANCH  13  18
HETATM   18  C   UNL     1     -11.564  11.203  68.649  1.00  0.00    -0.383 A  
HETATM   19  C   UNL     1     -12.533  10.826  69.592  1.00  0.00    -0.166 A  
HETATM   20  C   UNL     1     -10.974  12.478  68.752  1.00  0.00    -0.294 A  
HETATM   21  C   UNL     1     -12.897  11.694  70.625  1.00  0.00    -0.124 A  
HETATM   22  C   UNL     1     -11.324  13.332  69.807  1.00  0.00    -0.062 A  
HETATM   23  N   UNL     1     -10.646  14.625  69.952  1.00  0.00    -0.060 N  
HETATM   24  C   UNL     1     -12.290  12.944  70.741  1.00  0.00    -0.385 A  
HETATM   25  O   UNL     1      -9.768  14.915  69.127  1.00  0.00    -0.214 OA 
HETATM   26  O   UNL     1     -10.980  15.348  70.903  1.00  0.00    -0.331 OA 
ENDBRANCH  13  18
ENDBRANCH   4   6
ENDBRANCH   3   4
ENDBRANCH   2   3
TORSDOF 6
ENDMDL
MODEL      186
REMARK 921   NORMALIZED FREE ENERGY PREDICTED BY IDOCK:   -2.83 KCAL/MOL
REMARK 922        TOTAL FREE ENERGY PREDICTED BY IDOCK:   -4.97 KCAL/MOL
REMARK 923 INTER-LIGAND FREE ENERGY PREDICTED BY IDOCK:   -3.88 KCAL/MOL
REMARK 924 INTRA-LIGAND FREE ENERGY PREDICTED BY IDOCK:   -1.10 KCAL/MOL
REMARK 927      BINDING AFFINITY PREDICTED BY RF-SCORE:    0.00 PKD
ROOT
HETATM    1  C   UNL     1      -8.436   2.152  67.028  1.00  0.00    -0.102 C  
HETATM    2  C   UNL     1      -8.702   3.198  68.094  1.00  0.00    -0.107 C  
ENDROOT
BRANCH   2   3
HETATM    3  O   UNL     1      -8.448   4.475  67.492  1.00  0.00    -0.103 OA 
BRANCH   3   4
HETATM    4  C   UNL     1      -9.530   5.277  67.331  1.00  0.00    -0.127 C  
HETATM    5  O   UNL     1     -10.617   4.922  66.899  1.00  0.00    -0.199 OA 
BRANCH   4   6
HETATM    6  C   UNL     1      -9.221   6.634  67.846  1.00  0.00    -0.111 C  
HETATM    7  C   UNL     1      -8.516   7.513  67.096  1.00  0.00    -0.121 C  
HETATM    8  N   UNL     1      -8.255   8.778  67.594  1.00  0.00    -0.110 NA 
HETATM    9  C   UNL     1      -7.963   7.297  65.704  1.00  0.00    -0.123 C  
HETATM   10  C   UNL     1      -8.565   9.213  68.864  1.00  0.00    -0.131 C  
HETATM   11  C   UNL     1      -8.079  10.605  69.198  1.00  0.00    -0.143 C  
HETATM   12  C   UNL     1      -9.261   8.412  69.707  1.00  0.00    -0.157 C  
HETATM   13  C   UNL     1      -9.740   7.023  69.247  1.00  0.00    -0.158 C  
BRANCH  12  14
HETATM   14  C   UNL     1      -9.506   8.886  71.096  1.00  0.00    -0.265 C  
HETATM   15  O   UNL     1     -10.586   9.292  71.502  1.00  0.00    -0.333 OA 
BRANCH  14  16
HETATM   16  O   UNL     1      -8.383   8.828  71.861  1.00  0.00    -0.294 OA 
HETATM   17  C   UNL     1      -8.567   8.114  73.087  1.00  0.00    -0.233 C  
ENDBRANCH  14  16
ENDBRANCH  12  14
BRANCH  13  18
HETATM   18  C   UNL     1      -9.419   5.940  70.284  1.00  0.00    -0.191 A  
HETATM   19  C   UNL     1     -10.441   5.220  70.924  1.00  0.00    -0.285 A  
HETATM   20  C   UNL     1      -8.078   5.632  70.588  1.00  0.00    -0.116 A  
HETATM   21  C   UNL     1     -10.135   4.206  71.834  1.00  0.00    -0.224 A  
HETATM   22  C   UNL     1      -7.780   4.595  71.481  1.00  0.00    -0.083 A  
HETATM   23  N   UNL     1      -6.380   4.228  71.729  1.00  0.00    -0.018 N  
HETATM   24  C   UNL     1      -8.807   3.884  72.110  1.00  0.00    -0.130 A  
HETATM   25  O   UNL     1      -5.500   4.855  71.122  1.00  0.00    -0.004 OA 
HETATM   26  O   UNL     1      -6.159   3.299  72.521  1.00  0.00    -0.008 OA 
ENDBRANCH  13  18
ENDBRANCH   4   6
ENDBRANCH   3   4
ENDBRANCH   2   3
TORSDOF 6
ENDMDL
MODEL      187
REMARK 921   NORMALIZED FREE ENERGY PREDICTED BY IDOCK:   -2.81 KCAL/MOL
REMARK 922        TOTAL FREE ENERGY PREDICTED BY IDOCK:   -4.95 KCAL/MOL
REMARK 923 INTER-LIGAND FREE ENERGY PREDICTED BY IDOCK:   -4.43 KCAL/MOL
REMARK 924 INTRA-LIGAND FREE ENERGY PREDICTED BY IDOCK:   -0.52 KCAL/MOL
REMARK 927      BINDING AFFINITY PREDICTED BY RF-SCORE:    0.00 PKD
ROOT
HETATM    1  C   UNL     1     -13.391  13.021  71.510  1.00  0.00    -0.284 C  
HETATM    2  C   UNL     1     -12.199  12.252  70.973  1.00  0.00    -0.108 C  
ENDROOT
BRANCH   2   3
HETATM    3  O   UNL     1     -11.932  12.768  69.661  1.00  0.00    -0.314 OA 
BRANCH   3   4
HETATM    4  C   UNL     1     -11.555  11.854  68.732  1.00  0.00    -0.309 C  
HETATM    5  O   UNL     1     -12.312  11.129  68.105  1.00  0.00    -0.469 OA 
BRANCH   4   6
HETATM    6  C   UNL     1     -10.087  11.933  68.527  1.00  0.00    -0.211 C  
HETATM    7  C   UNL     1      -9.565  12.755  67.587  1.00  0.00    -0.192 C  
HETATM    8  N   UNL     1      -8.192  12.821  67.427  1.00  0.00    -0.177 NA 
HETATM    9  C   UNL     1     -10.317  13.676  66.652  1.00  0.00    -0.275 C  
HETATM   10  C   UNL     1      -7.275  12.030  68.084  1.00  0.00    -0.090 C  
HETATM   11  C   UNL     1      -5.838  12.227  67.654  1.00  0.00    -0.118 C  
HETATM   12  C   UNL     1      -7.685  11.161  69.040  1.00  0.00    -0.114 C  
HETATM   13  C   UNL     1      -9.173  11.071  69.425  1.00  0.00     0.183 C  
BRANCH  12  14
HETATM   14  C   UNL     1      -6.675  10.268  69.669  1.00  0.00    -0.085 C  
HETATM   15  O   UNL     1      -5.809  10.650  70.443  1.00  0.00    -0.082 OA 
BRANCH  14  16
HETATM   16  O   UNL     1      -6.819   8.975  69.271  1.00  0.00    -0.049 OA 
HETATM   17  C   UNL     1      -5.977   8.622  68.170  1.00  0.00    -0.046 C  
ENDBRANCH  14  16
ENDBRANCH  12  14
BRANCH  13  18
HETATM   18  C   UNL     1      -9.657   9.617  69.485  1.00  0.00    -0.211 A  
HETATM   19  C   UNL     1     -10.086   9.042  70.692  1.00  0.00    -0.284 A  
HETATM   20  C   UNL     1      -9.704   8.843  68.308  1.00  0.00    -0.174 A  
HETATM   21  C   UNL     1     -10.565   7.731  70.725  1.00  0.00    -0.220 A  
HETATM   22  C   UNL     1     -10.212   7.537  68.345  1.00  0.00    -0.185 A  
HETATM   23  N   UNL     1     -10.332   6.767  67.102  1.00  0.00    -0.226 N  
HETATM   24  C   UNL     1     -10.638   6.977  69.554  1.00  0.00    -0.253 A  
HETATM   25  O   UNL     1      -9.982   7.313  66.046  1.00  0.00     0.129 OA 
HETATM   26  O   UNL     1     -10.794   5.618  67.176  1.00  0.00    -0.263 OA 
ENDBRANCH  13  18
ENDBRANCH   4   6
ENDBRANCH   3   4
ENDBRANCH   2   3
TORSDOF 6
ENDMDL
MODEL      188
REMARK 921   NORMALIZED FREE ENERGY PREDICTED BY IDOCK:   -2.81 KCAL/MOL
REMARK 922        TOTAL FREE ENERGY PREDICTED BY IDOCK:   -4.94 KCAL/MOL
REMARK 923 INTER-LIGAND FREE ENERGY PREDICTED BY IDOCK:   -4.28 KCAL/MOL
REMARK 924 INTRA-LIGAND FREE ENERGY PREDICTED BY IDOCK:   -0.66 KCAL/MOL
REMARK 927      BINDING AFFINITY PREDICTED BY RF-SCORE:    0.00 PKD
ROOT
HETATM    1  C   UNL     1     -10.213  17.215  66.482  1.00  0.00    -0.322 C  
HETATM    2  C   UNL     1      -9.585  16.019  65.791  1.00  0.00    -0.276 C  
ENDROOT
BRANCH   2   3
HETATM    3  O   UNL     1      -9.833  14.881  66.629  1.00  0.00    -0.243 OA 
BRANCH   3   4
HETATM    4  C   UNL     1     -10.118  13.723  65.983  1.00  0.00    -0.311 C  
HETATM    5  O   UNL     1     -10.026  13.543  64.778  1.00  0.00    -0.271 OA 
BRANCH   4   6
HETATM    6  C   UNL     1     -10.472  12.677  66.975  1.00  0.00    -0.244 C  
HETATM    7  C   UNL     1     -11.649  12.728  67.642  1.00  0.00    -0.358 C  
HETATM    8  N   UNL     1     -11.961  11.732  68.550  1.00  0.00    -0.461 NA 
HETATM    9  C   UNL     1     -12.737  13.771  67.507  1.00  0.00     0.728 C  
HETATM   10  C   UNL     1     -11.119  10.710  68.932  1.00  0.00    -0.261 C  
HETATM   11  C   UNL     1     -11.660   9.809  70.019  1.00  0.00    -0.185 C  
HETATM   12  C   UNL     1      -9.909  10.566  68.338  1.00  0.00    -0.171 C  
HETATM   13  C   UNL     1      -9.475  11.522  67.211  1.00  0.00    -0.176 C  
BRANCH  12  14
HETATM   14  C   UNL     1      -8.997   9.501  68.834  1.00  0.00    -0.141 C  
HETATM   15  O   UNL     1      -8.450   9.520  69.928  1.00  0.00    -0.149 OA 
BRANCH  14  16
HETATM   16  O   UNL     1      -8.830   8.507  67.921  1.00  0.00    -0.136 OA 
HETATM   17  C   UNL     1      -7.591   7.805  68.065  1.00  0.00    -0.120 C  
ENDBRANCH  14  16
ENDBRANCH  12  14
BRANCH  13  18
HETATM   18  C   UNL     1      -8.050  12.047  67.429  1.00  0.00    -0.168 A  
HETATM   19  C   UNL     1      -6.950  11.450  66.795  1.00  0.00    -0.128 A  
HETATM   20  C   UNL     1      -7.833  13.167  68.257  1.00  0.00    -0.143 A  
HETATM   21  C   UNL     1      -5.663  11.964  66.967  1.00  0.00    -0.139 A  
HETATM   22  C   UNL     1      -6.543  13.694  68.402  1.00  0.00    -0.096 A  
HETATM   23  N   UNL     1      -6.338  14.908  69.201  1.00  0.00    -0.103 N  
HETATM   24  C   UNL     1      -5.455  13.091  67.763  1.00  0.00    -0.118 A  
HETATM   25  O   UNL     1      -7.333  15.436  69.719  1.00  0.00    -0.197 OA 
HETATM   26  O   UNL     1      -5.182  15.347  69.299  1.00  0.00    -0.096 OA 
ENDBRANCH  13  18
ENDBRANCH   4   6
ENDBRANCH   3   4
ENDBRANCH   2   3
TORSDOF 6
ENDMDL
MODEL      189
REMARK 921   NORMALIZED FREE ENERGY PREDICTED BY IDOCK:   -2.81 KCAL/MOL
REMARK 922        TOTAL FREE ENERGY PREDICTED BY IDOCK:   -4.94 KCAL/MOL
REMARK 923 INTER-LIGAND FREE ENERGY PREDICTED BY IDOCK:   -4.25 KCAL/MOL
REMARK 924 INTRA-LIGAND FREE ENERGY PREDICTED BY IDOCK:   -0.70 KCAL/MOL
REMARK 927      BINDING AFFINITY PREDICTED BY RF-SCORE:    0.00 PKD
ROOT
HETATM    1  C   UNL     1      -9.145   7.018  66.568  1.00  0.00    -0.183 C  
HETATM    2  C   UNL     1      -9.719   6.404  67.832  1.00  0.00    -0.121 C  
ENDROOT
BRANCH   2   3
HETATM    3  O   UNL     1      -9.250   5.049  67.881  1.00  0.00    -0.112 OA 
BRANCH   3   4
HETATM    4  C   UNL     1      -8.188   4.821  68.694  1.00  0.00    -0.083 C  
HETATM    5  O   UNL     1      -7.037   5.161  68.466  1.00  0.00    -0.059 OA 
BRANCH   4   6
HETATM    6  C   UNL     1      -8.652   4.174  69.947  1.00  0.00    -0.103 C  
HETATM    7  C   UNL     1      -9.268   2.969  69.914  1.00  0.00    -0.154 C  
HETATM    8  N   UNL     1      -9.678   2.381  71.098  1.00  0.00    -0.142 NA 
HETATM    9  C   UNL     1      -9.567   2.123  68.696  1.00  0.00    -0.113 C  
HETATM   10  C   UNL     1      -9.609   2.968  72.343  1.00  0.00    -0.130 C  
HETATM   11  C   UNL     1     -10.219   2.157  73.465  1.00  0.00    -0.181 C  
HETATM   12  C   UNL     1      -9.022   4.180  72.494  1.00  0.00    -0.127 C  
HETATM   13  C   UNL     1      -8.398   4.901  71.285  1.00  0.00    -0.115 C  
BRANCH  12  14
HETATM   14  C   UNL     1      -9.040   4.815  73.839  1.00  0.00    -0.112 C  
HETATM   15  O   UNL     1      -9.992   5.434  74.293  1.00  0.00    -0.183 OA 
BRANCH  14  16
HETATM   16  O   UNL     1      -7.866   4.637  74.504  1.00  0.00    -0.093 OA 
HETATM   17  C   UNL     1      -7.060   5.817  74.558  1.00  0.00    -0.084 C  
ENDBRANCH  14  16
ENDBRANCH  12  14
BRANCH  13  18
HETATM   18  C   UNL     1      -8.829   6.371  71.216  1.00  0.00    -0.138 A  
HETATM   19  C   UNL     1      -7.902   7.388  70.938  1.00  0.00    -0.096 A  
HETATM   20  C   UNL     1     -10.182   6.716  71.404  1.00  0.00    -0.220 A  
HETATM   21  C   UNL     1      -8.314   8.718  70.834  1.00  0.00    -0.196 A  
HETATM   22  C   UNL     1     -10.592   8.050  71.271  1.00  0.00    -0.209 A  
HETATM   23  N   UNL     1     -12.015   8.389  71.390  1.00  0.00    -0.291 N  
HETATM   24  C   UNL     1      -9.659   9.053  70.992  1.00  0.00    -0.348 A  
HETATM   25  O   UNL     1     -12.815   7.466  71.598  1.00  0.00    -0.344 OA 
HETATM   26  O   UNL     1     -12.338   9.580  71.258  1.00  0.00    -0.310 OA 
ENDBRANCH  13  18
ENDBRANCH   4   6
ENDBRANCH   3   4
ENDBRANCH   2   3
TORSDOF 6
ENDMDL
MODEL      190
REMARK 921   NORMALIZED FREE ENERGY PREDICTED BY IDOCK:   -2.80 KCAL/MOL
REMARK 922        TOTAL FREE ENERGY PREDICTED BY IDOCK:   -4.93 KCAL/MOL
REMARK 923 INTER-LIGAND FREE ENERGY PREDICTED BY IDOCK:   -3.53 KCAL/MOL
REMARK 924 INTRA-LIGAND FREE ENERGY PREDICTED BY IDOCK:   -1.40 KCAL/MOL
REMARK 927      BINDING AFFINITY PREDICTED BY RF-SCORE:    0.00 PKD
ROOT
HETATM    1  C   UNL     1     -10.124  17.043  66.428  1.00  0.00    -0.325 C  
HETATM    2  C   UNL     1     -11.213  16.484  65.531  1.00  0.00     0.191 C  
ENDROOT
BRANCH   2   3
HETATM    3  O   UNL     1     -11.325  15.087  65.840  1.00  0.00    -0.338 OA 
BRANCH   3   4
HETATM    4  C   UNL     1     -10.516  14.260  65.132  1.00  0.00    -0.411 C  
HETATM    5  O   UNL     1      -9.859  14.579  64.152  1.00  0.00     0.754 OA 
BRANCH   4   6
HETATM    6  C   UNL     1     -10.480  12.926  65.783  1.00  0.00    -0.293 C  
HETATM    7  C   UNL     1     -11.492  12.045  65.607  1.00  0.00    -0.316 C  
HETATM    8  N   UNL     1     -11.427  10.803  66.214  1.00  0.00     0.131 NA 
HETATM    9  C   UNL     1     -12.744  12.236  64.779  1.00  0.00    -0.198 C  
HETATM   10  C   UNL     1     -10.445  10.396  67.091  1.00  0.00    -0.256 C  
HETATM   11  C   UNL     1     -10.658   9.027  67.697  1.00  0.00    -0.298 C  
HETATM   12  C   UNL     1      -9.387  11.202  67.351  1.00  0.00    -0.172 C  
HETATM   13  C   UNL     1      -9.252  12.564  66.646  1.00  0.00    -0.223 C  
BRANCH  12  14
HETATM   14  C   UNL     1      -8.391  10.762  68.365  1.00  0.00    -0.132 C  
HETATM   15  O   UNL     1      -8.580  10.796  69.572  1.00  0.00    -0.045 OA 
BRANCH  14  16
HETATM   16  O   UNL     1      -7.237  10.326  67.791  1.00  0.00    -0.085 OA 
HETATM   17  C   UNL     1      -6.594   9.284  68.530  1.00  0.00    -0.054 C  
ENDBRANCH  14  16
ENDBRANCH  12  14
BRANCH  13  18
HETATM   18  C   UNL     1      -8.913  13.685  67.637  1.00  0.00    -0.202 A  
HETATM   19  C   UNL     1      -9.843  14.112  68.597  1.00  0.00    -0.206 A  
HETATM   20  C   UNL     1      -7.638  14.285  67.610  1.00  0.00    -0.191 A  
HETATM   21  C   UNL     1      -9.508  15.103  69.522  1.00  0.00    -0.151 A  
HETATM   22  C   UNL     1      -7.301  15.260  68.558  1.00  0.00    -0.119 A  
HETATM   23  N   UNL     1      -5.944  15.821  68.573  1.00  0.00    -0.100 N  
HETATM   24  C   UNL     1      -8.236  15.675  69.512  1.00  0.00    -0.175 A  
HETATM   25  O   UNL     1      -5.133  15.399  67.738  1.00  0.00    -0.173 OA 
HETATM   26  O   UNL     1      -5.683  16.676  69.434  1.00  0.00    -0.144 OA 
ENDBRANCH  13  18
ENDBRANCH   4   6
ENDBRANCH   3   4
ENDBRANCH   2   3
TORSDOF 6
ENDMDL
MODEL      191
REMARK 921   NORMALIZED FREE ENERGY PREDICTED BY IDOCK:   -2.77 KCAL/MOL
REMARK 922        TOTAL FREE ENERGY PREDICTED BY IDOCK:   -4.88 KCAL/MOL
REMARK 923 INTER-LIGAND FREE ENERGY PREDICTED BY IDOCK:   -3.82 KCAL/MOL
REMARK 924 INTRA-LIGAND FREE ENERGY PREDICTED BY IDOCK:   -1.07 KCAL/MOL
REMARK 927      BINDING AFFINITY PREDICTED BY RF-SCORE:    0.00 PKD
ROOT
HETATM    1  C   UNL     1     -10.773  10.040  68.479  1.00  0.00    -0.264 C  
HETATM    2  C   UNL     1     -10.466   8.554  68.515  1.00  0.00    -0.167 C  
ENDROOT
BRANCH   2   3
HETATM    3  O   UNL     1     -10.488   8.162  69.894  1.00  0.00    -0.217 OA 
BRANCH   3   4
HETATM    4  C   UNL     1     -11.122   6.994  70.166  1.00  0.00    -0.285 C  
HETATM    5  O   UNL     1     -12.232   6.680  69.763  1.00  0.00    -0.038 OA 
BRANCH   4   6
HETATM    6  C   UNL     1     -10.223   6.113  70.953  1.00  0.00    -0.250 C  
HETATM    7  C   UNL     1      -9.985   6.364  72.262  1.00  0.00    -0.164 C  
HETATM    8  N   UNL     1      -9.154   5.519  72.977  1.00  0.00    -0.126 NA 
HETATM    9  C   UNL     1     -10.548   7.492  73.099  1.00  0.00    -0.442 C  
HETATM   10  C   UNL     1      -8.440   4.467  72.445  1.00  0.00    -0.109 C  
HETATM   11  C   UNL     1      -7.524   3.761  73.419  1.00  0.00    -0.069 C  
HETATM   12  C   UNL     1      -8.592   4.130  71.141  1.00  0.00    -0.112 C  
HETATM   13  C   UNL     1      -9.585   4.897  70.248  1.00  0.00    -0.265 C  
BRANCH  12  14
HETATM   14  C   UNL     1      -7.745   3.042  70.586  1.00  0.00    -0.043 C  
HETATM   15  O   UNL     1      -6.664   3.223  70.042  1.00  0.00    -0.033 OA 
BRANCH  14  16
HETATM   16  O   UNL     1      -8.317   1.818  70.743  1.00  0.00    -0.048 OA 
HETATM   17  C   UNL     1      -9.243   1.486  69.703  1.00  0.00    -0.102 C  
ENDBRANCH  14  16
ENDBRANCH  12  14
BRANCH  13  18
HETATM   18  C   UNL     1      -8.954   5.293  68.908  1.00  0.00    -0.120 A  
HETATM   19  C   UNL     1      -7.816   6.113  68.854  1.00  0.00    -0.101 A  
HETATM   20  C   UNL     1      -9.501   4.808  67.703  1.00  0.00    -0.176 A  
HETATM   21  C   UNL     1      -7.225   6.431  67.629  1.00  0.00    -0.086 A  
HETATM   22  C   UNL     1      -8.886   5.110  66.480  1.00  0.00    -0.117 A  
HETATM   23  N   UNL     1      -9.416   4.535  65.238  1.00  0.00    -0.165 N  
HETATM   24  C   UNL     1      -7.751   5.926  66.440  1.00  0.00    -0.099 A  
HETATM   25  O   UNL     1     -10.399   3.785  65.319  1.00  0.00    -0.075 OA 
HETATM   26  O   UNL     1      -8.838   4.821  64.178  1.00  0.00    -0.144 OA 
ENDBRANCH  13  18
ENDBRANCH   4   6
ENDBRANCH   3   4
ENDBRANCH   2   3
TORSDOF 6
ENDMDL
MODEL      192
REMARK 921   NORMALIZED FREE ENERGY PREDICTED BY IDOCK:   -2.76 KCAL/MOL
REMARK 922        TOTAL FREE ENERGY PREDICTED BY IDOCK:   -4.87 KCAL/MOL
REMARK 923 INTER-LIGAND FREE ENERGY PREDICTED BY IDOCK:   -5.11 KCAL/MOL
REMARK 924 INTRA-LIGAND FREE ENERGY PREDICTED BY IDOCK:    0.24 KCAL/MOL
REMARK 927      BINDING AFFINITY PREDICTED BY RF-SCORE:    0.00 PKD
ROOT
HETATM    1  C   UNL     1      -8.798  15.963  68.656  1.00  0.00    -0.206 C  
HETATM    2  C   UNL     1     -10.063  15.714  69.456  1.00  0.00    -0.277 C  
ENDROOT
BRANCH   2   3
HETATM    3  O   UNL     1     -10.327  14.306  69.381  1.00  0.00    -0.121 OA 
BRANCH   3   4
HETATM    4  C   UNL     1     -11.008  13.890  68.284  1.00  0.00    -0.255 C  
HETATM    5  O   UNL     1     -12.099  14.309  67.926  1.00  0.00    -0.345 OA 
BRANCH   4   6
HETATM    6  C   UNL     1     -10.183  12.912  67.530  1.00  0.00    -0.213 C  
HETATM    7  C   UNL     1      -9.983  13.059  66.200  1.00  0.00    -0.278 C  
HETATM    8  N   UNL     1      -9.198  12.141  65.524  1.00  0.00     0.013 NA 
HETATM    9  C   UNL     1     -10.513  14.159  65.306  1.00  0.00    -0.402 C  
HETATM   10  C   UNL     1      -8.662  10.995  66.072  1.00  0.00    -0.188 C  
HETATM   11  C   UNL     1      -7.927  10.105  65.096  1.00  0.00    -0.146 C  
HETATM   12  C   UNL     1      -8.808  10.740  67.395  1.00  0.00    -0.129 C  
HETATM   13  C   UNL     1      -9.546  11.739  68.306  1.00  0.00    -0.199 C  
BRANCH  12  14
HETATM   14  C   UNL     1      -8.286   9.455  67.932  1.00  0.00    -0.115 C  
HETATM   15  O   UNL     1      -8.752   8.357  67.659  1.00  0.00    -0.135 OA 
BRANCH  14  16
HETATM   16  O   UNL     1      -7.235   9.643  68.774  1.00  0.00    -0.070 OA 
HETATM   17  C   UNL     1      -6.042  10.067  68.109  1.00  0.00    -0.049 C  
ENDBRANCH  14  16
ENDBRANCH  12  14
BRANCH  13  18
HETATM   18  C   UNL     1     -10.571  11.038  69.205  1.00  0.00    -0.253 A  
HETATM   19  C   UNL     1     -11.949  11.145  68.957  1.00  0.00    -0.389 A  
HETATM   20  C   UNL     1     -10.134  10.246  70.286  1.00  0.00    -0.012 A  
HETATM   21  C   UNL     1     -12.871  10.466  69.756  1.00  0.00     0.270 A  
HETATM   22  C   UNL     1     -11.064   9.547  71.066  1.00  0.00    -0.363 A  
HETATM   23  N   UNL     1     -10.595   8.662  72.139  1.00  0.00    -0.341 N  
HETATM   24  C   UNL     1     -12.434   9.660  70.807  1.00  0.00    -0.246 A  
HETATM   25  O   UNL     1      -9.372   8.558  72.311  1.00  0.00    -0.259 OA 
HETATM   26  O   UNL     1     -11.450   8.055  72.802  1.00  0.00    -0.402 OA 
ENDBRANCH  13  18
ENDBRANCH   4   6
ENDBRANCH   3   4
ENDBRANCH   2   3
TORSDOF 6
ENDMDL
MODEL      193
REMARK 921   NORMALIZED FREE ENERGY PREDICTED BY IDOCK:   -2.73 KCAL/MOL
REMARK 922        TOTAL FREE ENERGY PREDICTED BY IDOCK:   -4.83 KCAL/MOL
REMARK 923 INTER-LIGAND FREE ENERGY PREDICTED BY IDOCK:   -4.12 KCAL/MOL
REMARK 924 INTRA-LIGAND FREE ENERGY PREDICTED BY IDOCK:   -0.72 KCAL/MOL
REMARK 927      BINDING AFFINITY PREDICTED BY RF-SCORE:    0.00 PKD
ROOT
HETATM    1  C   UNL     1      -9.051   2.368  66.563  1.00  0.00    -0.095 C  
HETATM    2  C   UNL     1      -8.688   3.312  67.693  1.00  0.00    -0.117 C  
ENDROOT
BRANCH   2   3
HETATM    3  O   UNL     1      -8.622   4.628  67.126  1.00  0.00    -0.105 OA 
BRANCH   3   4
HETATM    4  C   UNL     1      -9.733   5.392  67.278  1.00  0.00    -0.144 C  
HETATM    5  O   UNL     1     -10.882   5.014  67.104  1.00  0.00    -0.041 OA 
BRANCH   4   6
HETATM    6  C   UNL     1      -9.346   6.736  67.776  1.00  0.00    -0.116 C  
HETATM    7  C   UNL     1      -8.652   7.590  66.989  1.00  0.00    -0.122 C  
HETATM    8  N   UNL     1      -8.316   8.843  67.473  1.00  0.00    -0.109 NA 
HETATM    9  C   UNL     1      -8.185   7.358  65.568  1.00  0.00    -0.135 C  
HETATM   10  C   UNL     1      -8.539   9.285  68.759  1.00  0.00    -0.131 C  
HETATM   11  C   UNL     1      -7.984  10.658  69.067  1.00  0.00    -0.140 C  
HETATM   12  C   UNL     1      -9.216   8.508  69.639  1.00  0.00    -0.157 C  
HETATM   13  C   UNL     1      -9.771   7.139  69.205  1.00  0.00    -0.159 C  
BRANCH  12  14
HETATM   14  C   UNL     1      -9.365   8.986  71.040  1.00  0.00    -0.271 C  
HETATM   15  O   UNL     1     -10.377   9.514  71.481  1.00  0.00    -0.278 OA 
BRANCH  14  16
HETATM   16  O   UNL     1      -8.239   8.779  71.773  1.00  0.00    -0.254 OA 
HETATM   17  C   UNL     1      -8.487   8.134  73.026  1.00  0.00    -0.209 C  
ENDBRANCH  14  16
ENDBRANCH  12  14
BRANCH  13  18
HETATM   18  C   UNL     1      -9.433   6.041  70.221  1.00  0.00    -0.186 A  
HETATM   19  C   UNL     1      -8.165   5.439  70.247  1.00  0.00    -0.101 A  
HETATM   20  C   UNL     1     -10.396   5.641  71.170  1.00  0.00    -0.295 A  
HETATM   21  C   UNL     1      -7.856   4.471  71.205  1.00  0.00    -0.077 A  
HETATM   22  C   UNL     1     -10.069   4.689  72.144  1.00  0.00    -0.193 A  
HETATM   23  N   UNL     1     -11.051   4.338  73.177  1.00  0.00    -0.219 N  
HETATM   24  C   UNL     1      -8.801   4.098  72.161  1.00  0.00    -0.128 A  
HETATM   25  O   UNL     1     -12.148   4.912  73.152  1.00  0.00    -0.146 OA 
HETATM   26  O   UNL     1     -10.719   3.496  74.026  1.00  0.00    -0.187 OA 
ENDBRANCH  13  18
ENDBRANCH   4   6
ENDBRANCH   3   4
ENDBRANCH   2   3
TORSDOF 6
ENDMDL
MODEL      194
REMARK 921   NORMALIZED FREE ENERGY PREDICTED BY IDOCK:   -2.65 KCAL/MOL
REMARK 922        TOTAL FREE ENERGY PREDICTED BY IDOCK:   -4.73 KCAL/MOL
REMARK 923 INTER-LIGAND FREE ENERGY PREDICTED BY IDOCK:   -4.05 KCAL/MOL
REMARK 924 INTRA-LIGAND FREE ENERGY PREDICTED BY IDOCK:   -0.68 KCAL/MOL
REMARK 927      BINDING AFFINITY PREDICTED BY RF-SCORE:    0.00 PKD
ROOT
HETATM    1  C   UNL     1     -12.567  13.714  71.126  1.00  0.00    -0.452 C  
HETATM    2  C   UNL     1     -12.500  12.545  70.160  1.00  0.00    -0.022 C  
ENDROOT
BRANCH   2   3
HETATM    3  O   UNL     1     -11.629  12.942  69.092  1.00  0.00    -0.285 OA 
BRANCH   3   4
HETATM    4  C   UNL     1     -11.347  11.985  68.173  1.00  0.00    -0.291 C  
HETATM    5  O   UNL     1     -12.087  11.635  67.266  1.00  0.00    -0.595 OA 
BRANCH   4   6
HETATM    6  C   UNL     1      -9.963  11.490  68.382  1.00  0.00    -0.206 C  
HETATM    7  C   UNL     1      -9.739  10.320  69.025  1.00  0.00    -0.205 C  
HETATM    8  N   UNL     1      -8.440   9.874  69.193  1.00  0.00    -0.136 NA 
HETATM    9  C   UNL     1     -10.771   9.373  69.598  1.00  0.00    -0.251 C  
HETATM   10  C   UNL     1      -7.305  10.577  68.847  1.00  0.00    -0.098 C  
HETATM   11  C   UNL     1      -6.002   9.913  69.231  1.00  0.00    -0.037 C  
HETATM   12  C   UNL     1      -7.410  11.767  68.207  1.00  0.00    -0.095 C  
HETATM   13  C   UNL     1      -8.792  12.332  67.831  1.00  0.00    -0.178 C  
BRANCH  12  14
HETATM   14  C   UNL     1      -6.166  12.532  67.924  1.00  0.00    -0.100 C  
HETATM   15  O   UNL     1      -5.605  12.552  66.837  1.00  0.00    -0.334 OA 
BRANCH  14  16
HETATM   16  O   UNL     1      -5.716  13.200  69.020  1.00  0.00    -0.072 OA 
HETATM   17  C   UNL     1      -5.339  14.552  68.747  1.00  0.00    -0.089 C  
ENDBRANCH  14  16
ENDBRANCH  12  14
BRANCH  13  18
HETATM   18  C   UNL     1      -8.929  13.808  68.225  1.00  0.00    -0.186 A  
HETATM   19  C   UNL     1      -9.105  14.190  69.564  1.00  0.00     0.670 A  
HETATM   20  C   UNL     1      -8.849  14.809  67.237  1.00  0.00    -0.218 A  
HETATM   21  C   UNL     1      -9.184  15.539  69.915  1.00  0.00     0.042 A  
HETATM   22  C   UNL     1      -8.902  16.161  67.600  1.00  0.00    -0.186 A  
HETATM   23  N   UNL     1      -8.737  17.198  66.574  1.00  0.00    -0.245 N  
HETATM   24  C   UNL     1      -9.075  16.529  68.938  1.00  0.00    -0.245 A  
HETATM   25  O   UNL     1      -8.546  16.831  65.406  1.00  0.00     0.019 OA 
HETATM   26  O   UNL     1      -8.783  18.383  66.938  1.00  0.00    -0.257 OA 
ENDBRANCH  13  18
ENDBRANCH   4   6
ENDBRANCH   3   4
ENDBRANCH   2   3
TORSDOF 6
ENDMDL
MODEL      195
REMARK 921   NORMALIZED FREE ENERGY PREDICTED BY IDOCK:   -2.65 KCAL/MOL
REMARK 922        TOTAL FREE ENERGY PREDICTED BY IDOCK:   -4.73 KCAL/MOL
REMARK 923 INTER-LIGAND FREE ENERGY PREDICTED BY IDOCK:   -3.94 KCAL/MOL
REMARK 924 INTRA-LIGAND FREE ENERGY PREDICTED BY IDOCK:   -0.79 KCAL/MOL
REMARK 927      BINDING AFFINITY PREDICTED BY RF-SCORE:    0.00 PKD
ROOT
HETATM    1  C   UNL     1      -8.917  10.240  63.503  1.00  0.00    -0.259 C  
HETATM    2  C   UNL     1      -7.930   9.929  64.614  1.00  0.00    -0.141 C  
ENDROOT
BRANCH   2   3
HETATM    3  O   UNL     1      -8.699   9.452  65.726  1.00  0.00    -0.142 OA 
BRANCH   3   4
HETATM    4  C   UNL     1      -9.116  10.398  66.605  1.00  0.00    -0.151 C  
HETATM    5  O   UNL     1     -10.048  11.167  66.428  1.00  0.00    -0.212 OA 
BRANCH   4   6
HETATM    6  C   UNL     1      -8.323  10.295  67.856  1.00  0.00    -0.114 C  
HETATM    7  C   UNL     1      -7.154  10.963  67.989  1.00  0.00    -0.077 C  
HETATM    8  N   UNL     1      -6.442  10.862  69.172  1.00  0.00    -0.056 NA 
HETATM    9  C   UNL     1      -6.494  11.870  66.974  1.00  0.00    -0.136 C  
HETATM   10  C   UNL     1      -6.767  10.039  70.228  1.00  0.00    -0.137 C  
HETATM   11  C   UNL     1      -5.769  10.036  71.364  1.00  0.00    -0.002 C  
HETATM   12  C   UNL     1      -7.912   9.314  70.200  1.00  0.00    -0.143 C  
HETATM   13  C   UNL     1      -8.876   9.424  69.005  1.00  0.00    -0.141 C  
BRANCH  12  14
HETATM   14  C   UNL     1      -8.186   8.377  71.323  1.00  0.00    -0.134 C  
HETATM   15  O   UNL     1      -7.635   7.294  71.463  1.00  0.00    -0.084 OA 
BRANCH  14  16
HETATM   16  O   UNL     1      -9.132   8.861  72.172  1.00  0.00    -0.375 OA 
HETATM   17  C   UNL     1     -10.320   8.065  72.211  1.00  0.00    -0.271 C  
ENDBRANCH  14  16
ENDBRANCH  12  14
BRANCH  13  18
HETATM   18  C   UNL     1      -9.316   8.044  68.501  1.00  0.00    -0.142 A  
HETATM   19  C   UNL     1     -10.659   7.641  68.566  1.00  0.00    -0.162 A  
HETATM   20  C   UNL     1      -8.369   7.168  67.935  1.00  0.00    -0.118 A  
HETATM   21  C   UNL     1     -11.055   6.400  68.064  1.00  0.00    -0.365 A  
HETATM   22  C   UNL     1      -8.779   5.935  67.409  1.00  0.00    -0.108 A  
HETATM   23  N   UNL     1      -7.799   5.064  66.749  1.00  0.00    -0.099 N  
HETATM   24  C   UNL     1     -10.120   5.546  67.477  1.00  0.00    -0.217 A  
HETATM   25  O   UNL     1      -6.628   5.462  66.673  1.00  0.00    -0.052 OA 
HETATM   26  O   UNL     1      -8.203   3.985  66.290  1.00  0.00    -0.103 OA 
ENDBRANCH  13  18
ENDBRANCH   4   6
ENDBRANCH   3   4
ENDBRANCH   2   3
TORSDOF 6
ENDMDL
MODEL      196
REMARK 921   NORMALIZED FREE ENERGY PREDICTED BY IDOCK:   -2.62 KCAL/MOL
REMARK 922        TOTAL FREE ENERGY PREDICTED BY IDOCK:   -4.69 KCAL/MOL
REMARK 923 INTER-LIGAND FREE ENERGY PREDICTED BY IDOCK:   -4.48 KCAL/MOL
REMARK 924 INTRA-LIGAND FREE ENERGY PREDICTED BY IDOCK:   -0.21 KCAL/MOL
REMARK 927      BINDING AFFINITY PREDICTED BY RF-SCORE:    0.00 PKD
ROOT
HETATM    1  C   UNL     1      -7.594   4.592  65.805  1.00  0.00    -0.082 C  
HETATM    2  C   UNL     1      -7.745   5.894  66.569  1.00  0.00    -0.100 C  
ENDROOT
BRANCH   2   3
HETATM    3  O   UNL     1      -9.008   6.454  66.183  1.00  0.00    -0.154 OA 
BRANCH   3   4
HETATM    4  C   UNL     1     -10.081   6.040  66.903  1.00  0.00    -0.185 C  
HETATM    5  O   UNL     1     -10.661   4.974  66.760  1.00  0.00    -0.252 OA 
BRANCH   4   6
HETATM    6  C   UNL     1     -10.389   7.042  67.955  1.00  0.00    -0.247 C  
HETATM    7  C   UNL     1     -10.466   8.358  67.652  1.00  0.00    -0.239 C  
HETATM    8  N   UNL     1     -10.769   9.270  68.649  1.00  0.00    -0.183 NA 
HETATM    9  C   UNL     1     -10.277   9.002  66.296  1.00  0.00    -0.237 C  
HETATM   10  C   UNL     1     -10.906   8.970  69.987  1.00  0.00    -0.231 C  
HETATM   11  C   UNL     1     -11.136  10.162  70.888  1.00  0.00    -0.326 C  
HETATM   12  C   UNL     1     -10.836   7.684  70.407  1.00  0.00    -0.252 C  
HETATM   13  C   UNL     1     -10.636   6.541  69.395  1.00  0.00    -0.291 C  
BRANCH  12  14
HETATM   14  C   UNL     1     -10.907   7.409  71.868  1.00  0.00    -0.229 C  
HETATM   15  O   UNL     1     -11.950   7.343  72.503  1.00  0.00    -0.235 OA 
BRANCH  14  16
HETATM   16  O   UNL     1      -9.673   7.253  72.418  1.00  0.00    -0.151 OA 
HETATM   17  C   UNL     1      -9.377   8.216  73.433  1.00  0.00    -0.197 C  
ENDBRANCH  14  16
ENDBRANCH  12  14
BRANCH  13  18
HETATM   18  C   UNL     1      -9.540   5.567  69.845  1.00  0.00    -0.217 A  
HETATM   19  C   UNL     1      -8.181   5.900  69.735  1.00  0.00    -0.113 A  
HETATM   20  C   UNL     1      -9.893   4.325  70.410  1.00  0.00    -0.268 A  
HETATM   21  C   UNL     1      -7.194   5.023  70.189  1.00  0.00    -0.058 A  
HETATM   22  C   UNL     1      -8.897   3.463  70.888  1.00  0.00    -0.084 A  
HETATM   23  N   UNL     1      -9.277   2.207  71.546  1.00  0.00    -0.092 N  
HETATM   24  C   UNL     1      -7.547   3.807  70.773  1.00  0.00    -0.041 A  
HETATM   25  O   UNL     1     -10.485   1.957  71.664  1.00  0.00     0.024 OA 
HETATM   26  O   UNL     1      -8.366   1.475  71.963  1.00  0.00    -0.044 OA 
ENDBRANCH  13  18
ENDBRANCH   4   6
ENDBRANCH   3   4
ENDBRANCH   2   3
TORSDOF 6
ENDMDL
MODEL      197
REMARK 921   NORMALIZED FREE ENERGY PREDICTED BY IDOCK:   -2.60 KCAL/MOL
REMARK 922        TOTAL FREE ENERGY PREDICTED BY IDOCK:   -4.66 KCAL/MOL
REMARK 923 INTER-LIGAND FREE ENERGY PREDICTED BY IDOCK:   -3.43 KCAL/MOL
REMARK 924 INTRA-LIGAND FREE ENERGY PREDICTED BY IDOCK:   -1.22 KCAL/MOL
REMARK 927      BINDING AFFINITY PREDICTED BY RF-SCORE:    0.00 PKD
ROOT
HETATM    1  C   UNL     1     -11.586   6.314  71.927  1.00  0.00    -0.369 C  
HETATM    2  C   UNL     1     -10.983   6.589  70.562  1.00  0.00    -0.294 C  
ENDROOT
BRANCH   2   3
HETATM    3  O   UNL     1     -10.812   5.316  69.923  1.00  0.00    -0.241 OA 
BRANCH   3   4
HETATM    4  C   UNL     1      -9.560   4.795  69.972  1.00  0.00    -0.190 C  
HETATM    5  O   UNL     1      -8.956   4.498  70.992  1.00  0.00    -0.114 OA 
BRANCH   4   6
HETATM    6  C   UNL     1      -9.069   4.555  68.592  1.00  0.00    -0.164 C  
HETATM    7  C   UNL     1      -9.054   3.305  68.073  1.00  0.00    -0.167 C  
HETATM    8  N   UNL     1      -8.606   3.111  66.778  1.00  0.00    -0.111 NA 
HETATM    9  C   UNL     1      -9.504   2.026  68.743  1.00  0.00    -0.192 C  
HETATM   10  C   UNL     1      -8.059   4.085  65.970  1.00  0.00    -0.101 C  
HETATM   11  C   UNL     1      -7.550   3.593  64.634  1.00  0.00    -0.076 C  
HETATM   12  C   UNL     1      -8.012   5.372  66.391  1.00  0.00    -0.104 C  
HETATM   13  C   UNL     1      -8.596   5.767  67.760  1.00  0.00    -0.101 C  
BRANCH  12  14
HETATM   14  C   UNL     1      -7.341   6.378  65.525  1.00  0.00    -0.076 C  
HETATM   15  O   UNL     1      -6.136   6.587  65.523  1.00  0.00    -0.032 OA 
BRANCH  14  16
HETATM   16  O   UNL     1      -8.227   7.049  64.742  1.00  0.00    -0.121 OA 
HETATM   17  C   UNL     1      -7.940   6.949  63.344  1.00  0.00    -0.069 C  
ENDBRANCH  14  16
ENDBRANCH  12  14
BRANCH  13  18
HETATM   18  C   UNL     1      -7.629   6.651  68.557  1.00  0.00    -0.097 A  
HETATM   19  C   UNL     1      -6.372   6.173  68.959  1.00  0.00    -0.041 A  
HETATM   20  C   UNL     1      -7.986   7.977  68.872  1.00  0.00    -0.118 A  
HETATM   21  C   UNL     1      -5.482   7.002  69.647  1.00  0.00    -0.015 A  
HETATM   22  C   UNL     1      -7.077   8.810  69.538  1.00  0.00    -0.055 A  
HETATM   23  N   UNL     1      -7.426  10.213  69.790  1.00  0.00    -0.149 N  
HETATM   24  C   UNL     1      -5.826   8.323  69.932  1.00  0.00    -0.025 A  
HETATM   25  O   UNL     1      -8.527  10.617  69.390  1.00  0.00    -0.136 OA 
HETATM   26  O   UNL     1      -6.591  10.920  70.376  1.00  0.00    -0.273 OA 
ENDBRANCH  13  18
ENDBRANCH   4   6
ENDBRANCH   3   4
ENDBRANCH   2   3
TORSDOF 6
ENDMDL
MODEL      198
REMARK 921   NORMALIZED FREE ENERGY PREDICTED BY IDOCK:   -2.56 KCAL/MOL
REMARK 922        TOTAL FREE ENERGY PREDICTED BY IDOCK:   -4.60 KCAL/MOL
REMARK 923 INTER-LIGAND FREE ENERGY PREDICTED BY IDOCK:   -3.76 KCAL/MOL
REMARK 924 INTRA-LIGAND FREE ENERGY PREDICTED BY IDOCK:   -0.84 KCAL/MOL
REMARK 927      BINDING AFFINITY PREDICTED BY RF-SCORE:    0.00 PKD
ROOT
HETATM    1  C   UNL     1      -9.257   6.301  71.892  1.00  0.00    -0.147 C  
HETATM    2  C   UNL     1     -10.226   7.409  71.524  1.00  0.00    -0.192 C  
ENDROOT
BRANCH   2   3
HETATM    3  O   UNL     1      -9.990   7.722  70.144  1.00  0.00    -0.184 OA 
BRANCH   3   4
HETATM    4  C   UNL     1     -10.740   7.034  69.247  1.00  0.00    -0.225 C  
HETATM    5  O   UNL     1     -11.942   6.833  69.335  1.00  0.00     0.014 OA 
BRANCH   4   6
HETATM    6  C   UNL     1      -9.893   6.640  68.093  1.00  0.00    -0.135 C  
HETATM    7  C   UNL     1      -9.416   5.378  67.987  1.00  0.00    -0.118 C  
HETATM    8  N   UNL     1      -8.642   5.032  66.893  1.00  0.00    -0.106 NA 
HETATM    9  C   UNL     1      -9.643   4.226  68.941  1.00  0.00    -0.227 C  
HETATM   10  C   UNL     1      -8.209   5.904  65.917  1.00  0.00    -0.127 C  
HETATM   11  C   UNL     1      -7.286   5.297  64.883  1.00  0.00    -0.067 C  
HETATM   12  C   UNL     1      -8.615   7.196  65.928  1.00  0.00    -0.157 C  
HETATM   13  C   UNL     1      -9.589   7.698  67.011  1.00  0.00    -0.228 C  
BRANCH  12  14
HETATM   14  C   UNL     1      -8.062   8.124  64.906  1.00  0.00    -0.153 C  
HETATM   15  O   UNL     1      -6.898   8.500  64.879  1.00  0.00    -0.070 OA 
BRANCH  14  16
HETATM   16  O   UNL     1      -9.005   8.517  64.009  1.00  0.00     0.182 OA 
HETATM   17  C   UNL     1      -8.824   9.857  63.543  1.00  0.00    -0.234 C  
ENDBRANCH  14  16
ENDBRANCH  12  14
BRANCH  13  18
HETATM   18  C   UNL     1      -9.114   9.017  67.634  1.00  0.00    -0.144 A  
HETATM   19  C   UNL     1      -7.861   9.116  68.259  1.00  0.00    -0.102 A  
HETATM   20  C   UNL     1      -9.930  10.164  67.560  1.00  0.00    -0.231 A  
HETATM   21  C   UNL     1      -7.422  10.333  68.784  1.00  0.00    -0.089 A  
HETATM   22  C   UNL     1      -9.471  11.387  68.065  1.00  0.00    -0.181 A  
HETATM   23  N   UNL     1     -10.294  12.593  67.911  1.00  0.00    -0.213 N  
HETATM   24  C   UNL     1      -8.219  11.473  68.683  1.00  0.00    -0.124 A  
HETATM   25  O   UNL     1     -11.378  12.483  67.322  1.00  0.00    -0.277 OA 
HETATM   26  O   UNL     1      -9.848  13.658  68.365  1.00  0.00    -0.225 OA 
ENDBRANCH  13  18
ENDBRANCH   4   6
ENDBRANCH   3   4
ENDBRANCH   2   3
TORSDOF 6
ENDMDL
MODEL      199
REMARK 921   NORMALIZED FREE ENERGY PREDICTED BY IDOCK:   -2.54 KCAL/MOL
REMARK 922        TOTAL FREE ENERGY PREDICTED BY IDOCK:   -4.58 KCAL/MOL
REMARK 923 INTER-LIGAND FREE ENERGY PREDICTED BY IDOCK:   -4.35 KCAL/MOL
REMARK 924 INTRA-LIGAND FREE ENERGY PREDICTED BY IDOCK:   -0.23 KCAL/MOL
REMARK 927      BINDING AFFINITY PREDICTED BY RF-SCORE:    0.00 PKD
ROOT
HETATM    1  C   UNL     1     -10.988   5.382  66.239  1.00  0.00    -0.053 C  
HETATM    2  C   UNL     1     -10.797   6.053  67.587  1.00  0.00    -0.295 C  
ENDROOT
BRANCH   2   3
HETATM    3  O   UNL     1     -10.413   7.409  67.321  1.00  0.00    -0.253 OA 
BRANCH   3   4
HETATM    4  C   UNL     1      -9.104   7.604  67.021  1.00  0.00    -0.135 C  
HETATM    5  O   UNL     1      -8.676   8.011  65.951  1.00  0.00    -0.148 OA 
BRANCH   4   6
HETATM    6  C   UNL     1      -8.275   7.334  68.222  1.00  0.00    -0.125 C  
HETATM    7  C   UNL     1      -7.625   6.156  68.361  1.00  0.00    -0.092 C  
HETATM    8  N   UNL     1      -6.846   5.936  69.484  1.00  0.00    -0.059 NA 
HETATM    9  C   UNL     1      -7.616   4.991  67.395  1.00  0.00    -0.091 C  
HETATM   10  C   UNL     1      -6.744   6.789  70.561  1.00  0.00    -0.053 C  
HETATM   11  C   UNL     1      -5.908   6.269  71.710  1.00  0.00    -0.036 C  
HETATM   12  C   UNL     1      -7.362   7.995  70.537  1.00  0.00    -0.060 C  
HETATM   13  C   UNL     1      -8.159   8.438  69.296  1.00  0.00    -0.115 C  
BRANCH  12  14
HETATM   14  C   UNL     1      -7.295   8.852  71.751  1.00  0.00     0.019 C  
HETATM   15  O   UNL     1      -6.493   9.763  71.904  1.00  0.00    -0.288 OA 
BRANCH  14  16
HETATM   16  O   UNL     1      -8.223   8.496  72.680  1.00  0.00    -0.313 OA 
HETATM   17  C   UNL     1      -7.665   8.240  73.972  1.00  0.00    -0.194 C  
ENDBRANCH  14  16
ENDBRANCH  12  14
BRANCH  13  18
HETATM   18  C   UNL     1      -9.535   8.999  69.675  1.00  0.00    -0.174 A  
HETATM   19  C   UNL     1     -10.461   8.229  70.396  1.00  0.00    -0.223 A  
HETATM   20  C   UNL     1      -9.876  10.320  69.323  1.00  0.00    -0.244 A  
HETATM   21  C   UNL     1     -11.693   8.766  70.773  1.00  0.00    -0.253 A  
HETATM   22  C   UNL     1     -11.104  10.861  69.728  1.00  0.00    -0.262 A  
HETATM   23  N   UNL     1     -11.417  12.263  69.427  1.00  0.00    -0.282 N  
HETATM   24  C   UNL     1     -12.017  10.084  70.448  1.00  0.00    -0.318 A  
HETATM   25  O   UNL     1     -10.566  12.929  68.822  1.00  0.00    -0.242 OA 
HETATM   26  O   UNL     1     -12.511  12.705  69.809  1.00  0.00    -0.065 OA 
ENDBRANCH  13  18
ENDBRANCH   4   6
ENDBRANCH   3   4
ENDBRANCH   2   3
TORSDOF 6
ENDMDL
MODEL      200
REMARK 921   NORMALIZED FREE ENERGY PREDICTED BY IDOCK:   -2.54 KCAL/MOL
REMARK 922        TOTAL FREE ENERGY PREDICTED BY IDOCK:   -4.58 KCAL/MOL
REMARK 923 INTER-LIGAND FREE ENERGY PREDICTED BY IDOCK:   -4.46 KCAL/MOL
REMARK 924 INTRA-LIGAND FREE ENERGY PREDICTED BY IDOCK:   -0.12 KCAL/MOL
REMARK 927      BINDING AFFINITY PREDICTED BY RF-SCORE:    0.00 PKD
ROOT
HETATM    1  C   UNL     1     -10.910   5.527  66.112  1.00  0.00    -0.036 C  
HETATM    2  C   UNL     1     -10.537   6.093  67.470  1.00  0.00    -0.273 C  
ENDROOT
BRANCH   2   3
HETATM    3  O   UNL     1     -10.059   7.426  67.244  1.00  0.00    -0.183 OA 
BRANCH   3   4
HETATM    4  C   UNL     1      -8.718   7.554  67.087  1.00  0.00    -0.121 C  
HETATM    5  O   UNL     1      -8.159   7.978  66.087  1.00  0.00    -0.102 OA 
BRANCH   4   6
HETATM    6  C   UNL     1      -8.034   7.184  68.352  1.00  0.00    -0.124 C  
HETATM    7  C   UNL     1      -7.510   5.947  68.516  1.00  0.00    -0.086 C  
HETATM    8  N   UNL     1      -6.864   5.634  69.700  1.00  0.00    -0.059 NA 
HETATM    9  C   UNL     1      -7.516   4.806  67.523  1.00  0.00    -0.079 C  
HETATM   10  C   UNL     1      -6.787   6.452  70.806  1.00  0.00    -0.063 C  
HETATM   11  C   UNL     1      -6.114   5.835  72.011  1.00  0.00    -0.036 C  
HETATM   12  C   UNL     1      -7.287   7.711  70.759  1.00  0.00    -0.067 C  
HETATM   13  C   UNL     1      -7.919   8.251  69.462  1.00  0.00    -0.112 C  
BRANCH  12  14
HETATM   14  C   UNL     1      -7.257   8.534  71.997  1.00  0.00    -0.083 C  
HETATM   15  O   UNL     1      -6.346   9.294  72.294  1.00  0.00    -0.283 OA 
BRANCH  14  16
HETATM   16  O   UNL     1      -8.358   8.333  72.771  1.00  0.00    -0.167 OA 
HETATM   17  C   UNL     1      -8.047   7.979  74.121  1.00  0.00    -0.255 C  
ENDBRANCH  14  16
ENDBRANCH  12  14
BRANCH  13  18
HETATM   18  C   UNL     1      -9.268   8.930  69.728  1.00  0.00    -0.167 A  
HETATM   19  C   UNL     1      -9.523  10.238  69.286  1.00  0.00    -0.230 A  
HETATM   20  C   UNL     1     -10.288   8.229  70.402  1.00  0.00    -0.214 A  
HETATM   21  C   UNL     1     -10.770  10.830  69.495  1.00  0.00    -0.268 A  
HETATM   22  C   UNL     1     -11.545   8.820  70.584  1.00  0.00    -0.205 A  
HETATM   23  N   UNL     1     -12.625   8.053  71.216  1.00  0.00    -0.279 N  
HETATM   24  C   UNL     1     -11.787  10.123  70.137  1.00  0.00    -0.299 A  
HETATM   25  O   UNL     1     -12.383   6.889  71.563  1.00  0.00    -0.343 OA 
HETATM   26  O   UNL     1     -13.726   8.610  71.352  1.00  0.00    -0.329 OA 
ENDBRANCH  13  18
ENDBRANCH   4   6
ENDBRANCH   3   4
ENDBRANCH   2   3
TORSDOF 6
ENDMDL
MODEL      201
REMARK 921   NORMALIZED FREE ENERGY PREDICTED BY IDOCK:   -2.54 KCAL/MOL
REMARK 922        TOTAL FREE ENERGY PREDICTED BY IDOCK:   -4.57 KCAL/MOL
REMARK 923 INTER-LIGAND FREE ENERGY PREDICTED BY IDOCK:   -3.72 KCAL/MOL
REMARK 924 INTRA-LIGAND FREE ENERGY PREDICTED BY IDOCK:   -0.85 KCAL/MOL
REMARK 927      BINDING AFFINITY PREDICTED BY RF-SCORE:    0.00 PKD
ROOT
HETATM    1  C   UNL     1      -5.607  10.339  66.492  1.00  0.00    -0.053 C  
HETATM    2  C   UNL     1      -6.298   9.721  65.292  1.00  0.00    -0.088 C  
ENDROOT
BRANCH   2   3
HETATM    3  O   UNL     1      -7.525  10.441  65.106  1.00  0.00    -0.140 OA 
BRANCH   3   4
HETATM    4  C   UNL     1      -8.652   9.687  65.070  1.00  0.00    -0.162 C  
HETATM    5  O   UNL     1      -8.959   8.914  64.175  1.00  0.00    -0.053 OA 
BRANCH   4   6
HETATM    6  C   UNL     1      -9.414   9.874  66.331  1.00  0.00    -0.234 C  
HETATM    7  C   UNL     1      -9.740  11.115  66.761  1.00  0.00    -0.193 C  
HETATM    8  N   UNL     1     -10.464  11.261  67.932  1.00  0.00    -0.182 NA 
HETATM    9  C   UNL     1      -9.423  12.434  66.091  1.00  0.00    -0.201 C  
HETATM   10  C   UNL     1     -10.810  10.237  68.787  1.00  0.00    -0.230 C  
HETATM   11  C   UNL     1     -11.512  10.673  70.053  1.00  0.00    -0.404 C  
HETATM   12  C   UNL     1     -10.524   8.953  68.463  1.00  0.00    -0.218 C  
HETATM   13  C   UNL     1      -9.839   8.620  67.125  1.00  0.00    -0.269 C  
BRANCH  12  14
HETATM   14  C   UNL     1     -10.842   7.885  69.448  1.00  0.00    -0.106 C  
HETATM   15  O   UNL     1     -11.634   6.976  69.243  1.00  0.00     0.003 OA 
BRANCH  14  16
HETATM   16  O   UNL     1     -10.156   8.043  70.612  1.00  0.00    -0.193 OA 
HETATM   17  C   UNL     1     -10.593   7.165  71.653  1.00  0.00    -0.207 C  
ENDBRANCH  14  16
ENDBRANCH  12  14
BRANCH  13  18
HETATM   18  C   UNL     1      -8.664   7.652  67.314  1.00  0.00    -0.124 A  
HETATM   19  C   UNL     1      -7.641   7.921  68.236  1.00  0.00    -0.116 A  
HETATM   20  C   UNL     1      -8.616   6.453  66.575  1.00  0.00    -0.125 A  
HETATM   21  C   UNL     1      -6.600   7.010  68.430  1.00  0.00    -0.055 A  
HETATM   22  C   UNL     1      -7.583   5.532  66.795  1.00  0.00    -0.088 A  
HETATM   23  N   UNL     1      -7.585   4.251  66.079  1.00  0.00    -0.088 N  
HETATM   24  C   UNL     1      -6.570   5.811  67.719  1.00  0.00    -0.053 A  
HETATM   25  O   UNL     1      -8.521   4.024  65.299  1.00  0.00    -0.111 OA 
HETATM   26  O   UNL     1      -6.657   3.460  66.308  1.00  0.00    -0.036 OA 
ENDBRANCH  13  18
ENDBRANCH   4   6
ENDBRANCH   3   4
ENDBRANCH   2   3
TORSDOF 6
ENDMDL
MODEL      202
REMARK 921   NORMALIZED FREE ENERGY PREDICTED BY IDOCK:   -2.52 KCAL/MOL
REMARK 922        TOTAL FREE ENERGY PREDICTED BY IDOCK:   -4.55 KCAL/MOL
REMARK 923 INTER-LIGAND FREE ENERGY PREDICTED BY IDOCK:   -3.39 KCAL/MOL
REMARK 924 INTRA-LIGAND FREE ENERGY PREDICTED BY IDOCK:   -1.15 KCAL/MOL
REMARK 927      BINDING AFFINITY PREDICTED BY RF-SCORE:    0.00 PKD
ROOT
HETATM    1  C   UNL     1      -9.700  11.915  68.441  1.00  0.00    -0.201 C  
HETATM    2  C   UNL     1      -9.340  10.555  69.010  1.00  0.00    -0.196 C  
ENDROOT
BRANCH   2   3
HETATM    3  O   UNL     1      -9.096   9.692  67.890  1.00  0.00    -0.126 OA 
BRANCH   3   4
HETATM    4  C   UNL     1      -7.825   9.234  67.764  1.00  0.00    -0.092 C  
HETATM    5  O   UNL     1      -6.818   9.840  68.099  1.00  0.00    -0.067 OA 
BRANCH   4   6
HETATM    6  C   UNL     1      -7.848   7.845  67.241  1.00  0.00    -0.113 C  
HETATM    7  C   UNL     1      -8.225   7.594  65.966  1.00  0.00    -0.128 C  
HETATM    8  N   UNL     1      -8.224   6.291  65.499  1.00  0.00    -0.139 NA 
HETATM    9  C   UNL     1      -8.651   8.600  64.919  1.00  0.00    -0.163 C  
HETATM   10  C   UNL     1      -7.964   5.173  66.262  1.00  0.00    -0.104 C  
HETATM   11  C   UNL     1      -8.128   3.855  65.538  1.00  0.00    -0.101 C  
HETATM   12  C   UNL     1      -7.587   5.303  67.557  1.00  0.00    -0.088 C  
HETATM   13  C   UNL     1      -7.414   6.700  68.182  1.00  0.00    -0.095 C  
BRANCH  12  14
HETATM   14  C   UNL     1      -7.395   4.071  68.368  1.00  0.00    -0.059 C  
HETATM   15  O   UNL     1      -6.304   3.647  68.722  1.00  0.00    -0.031 OA 
BRANCH  14  16
HETATM   16  O   UNL     1      -8.575   3.463  68.660  1.00  0.00    -0.082 OA 
HETATM   17  C   UNL     1      -8.680   3.053  70.027  1.00  0.00    -0.072 C  
ENDBRANCH  14  16
ENDBRANCH  12  14
BRANCH  13  18
HETATM   18  C   UNL     1      -8.108   6.801  69.546  1.00  0.00    -0.126 A  
HETATM   19  C   UNL     1      -7.374   7.034  70.720  1.00  0.00    -0.073 A  
HETATM   20  C   UNL     1      -9.510   6.689  69.632  1.00  0.00    -0.144 A  
HETATM   21  C   UNL     1      -8.021   7.168  71.950  1.00  0.00    -0.093 A  
HETATM   22  C   UNL     1     -10.154   6.852  70.865  1.00  0.00    -0.194 A  
HETATM   23  N   UNL     1     -11.620   6.814  70.932  1.00  0.00    -0.333 N  
HETATM   24  C   UNL     1      -9.411   7.086  72.027  1.00  0.00    -0.149 A  
HETATM   25  O   UNL     1     -12.244   6.644  69.875  1.00  0.00    -0.123 OA 
HETATM   26  O   UNL     1     -12.152   6.969  72.042  1.00  0.00    -0.302 OA 
ENDBRANCH  13  18
ENDBRANCH   4   6
ENDBRANCH   3   4
ENDBRANCH   2   3
TORSDOF 6
ENDMDL
MODEL      203
REMARK 921   NORMALIZED FREE ENERGY PREDICTED BY IDOCK:   -2.51 KCAL/MOL
REMARK 922        TOTAL FREE ENERGY PREDICTED BY IDOCK:   -4.53 KCAL/MOL
REMARK 923 INTER-LIGAND FREE ENERGY PREDICTED BY IDOCK:   -4.30 KCAL/MOL
REMARK 924 INTRA-LIGAND FREE ENERGY PREDICTED BY IDOCK:   -0.23 KCAL/MOL
REMARK 927      BINDING AFFINITY PREDICTED BY RF-SCORE:    0.00 PKD
ROOT
HETATM    1  C   UNL     1     -11.141   9.863  69.469  1.00  0.00    -0.255 C  
HETATM    2  C   UNL     1     -10.054  10.638  68.747  1.00  0.00    -0.191 C  
ENDROOT
BRANCH   2   3
HETATM    3  O   UNL     1     -10.711  11.461  67.774  1.00  0.00    -0.191 OA 
BRANCH   3   4
HETATM    4  C   UNL     1     -11.251  12.614  68.244  1.00  0.00    -0.272 C  
HETATM    5  O   UNL     1     -11.617  12.807  69.393  1.00  0.00    -0.282 OA 
BRANCH   4   6
HETATM    6  C   UNL     1     -11.245  13.638  67.169  1.00  0.00    -0.327 C  
HETATM    7  C   UNL     1     -11.846  13.394  65.981  1.00  0.00    -0.383 C  
HETATM    8  N   UNL     1     -11.839  14.372  65.001  1.00  0.00    -0.383 NA 
HETATM    9  C   UNL     1     -12.582  12.140  65.563  1.00  0.00     0.570 C  
HETATM   10  C   UNL     1     -11.169  15.574  65.081  1.00  0.00    -0.318 C  
HETATM   11  C   UNL     1     -11.235  16.425  63.832  1.00  0.00     1.092 C  
HETATM   12  C   UNL     1     -10.523  15.919  66.221  1.00  0.00    -0.324 C  
HETATM   13  C   UNL     1     -10.554  14.990  67.448  1.00  0.00    -0.271 C  
BRANCH  12  14
HETATM   14  C   UNL     1      -9.744  17.187  66.239  1.00  0.00    -0.278 C  
HETATM   15  O   UNL     1      -8.673  17.343  65.669  1.00  0.00    -0.449 OA 
BRANCH  14  16
HETATM   16  O   UNL     1     -10.358  18.152  66.975  1.00  0.00    -0.352 OA 
HETATM   17  C   UNL     1     -10.726  19.303  66.210  1.00  0.00    -0.384 C  
ENDBRANCH  14  16
ENDBRANCH  12  14
BRANCH  13  18
HETATM   18  C   UNL     1      -9.156  14.792  68.047  1.00  0.00    -0.179 A  
HETATM   19  C   UNL     1      -8.686  15.614  69.083  1.00  0.00    -0.251 A  
HETATM   20  C   UNL     1      -8.330  13.751  67.576  1.00  0.00    -0.197 A  
HETATM   21  C   UNL     1      -7.428  15.396  69.650  1.00  0.00    -0.170 A  
HETATM   22  C   UNL     1      -7.081  13.523  68.168  1.00  0.00    -0.117 A  
HETATM   23  N   UNL     1      -6.264  12.387  67.726  1.00  0.00    -0.095 N  
HETATM   24  C   UNL     1      -6.625  14.347  69.202  1.00  0.00    -0.112 A  
HETATM   25  O   UNL     1      -6.720  11.656  66.836  1.00  0.00    -0.134 OA 
HETATM   26  O   UNL     1      -5.167  12.214  68.281  1.00  0.00    -0.050 OA 
ENDBRANCH  13  18
ENDBRANCH   4   6
ENDBRANCH   3   4
ENDBRANCH   2   3
TORSDOF 6
ENDMDL
MODEL      204
REMARK 921   NORMALIZED FREE ENERGY PREDICTED BY IDOCK:   -2.49 KCAL/MOL
REMARK 922        TOTAL FREE ENERGY PREDICTED BY IDOCK:   -4.51 KCAL/MOL
REMARK 923 INTER-LIGAND FREE ENERGY PREDICTED BY IDOCK:   -3.90 KCAL/MOL
REMARK 924 INTRA-LIGAND FREE ENERGY PREDICTED BY IDOCK:   -0.61 KCAL/MOL
REMARK 927      BINDING AFFINITY PREDICTED BY RF-SCORE:    0.00 PKD
ROOT
HETATM    1  C   UNL     1      -5.974  10.817  67.364  1.00  0.00    -0.049 C  
HETATM    2  C   UNL     1      -6.746   9.728  66.642  1.00  0.00    -0.079 C  
ENDROOT
BRANCH   2   3
HETATM    3  O   UNL     1      -8.127   9.903  66.991  1.00  0.00    -0.109 OA 
BRANCH   3   4
HETATM    4  C   UNL     1      -8.964   8.910  66.600  1.00  0.00    -0.136 C  
HETATM    5  O   UNL     1     -10.098   9.066  66.172  1.00  0.00    -0.290 OA 
BRANCH   4   6
HETATM    6  C   UNL     1      -8.260   7.606  66.686  1.00  0.00    -0.124 C  
HETATM    7  C   UNL     1      -7.858   6.963  65.564  1.00  0.00    -0.112 C  
HETATM    8  N   UNL     1      -7.190   5.756  65.673  1.00  0.00    -0.073 NA 
HETATM    9  C   UNL     1      -8.031   7.419  64.132  1.00  0.00    -0.092 C  
HETATM   10  C   UNL     1      -6.974   5.069  66.848  1.00  0.00    -0.064 C  
HETATM   11  C   UNL     1      -6.310   3.720  66.686  1.00  0.00    -0.036 C  
HETATM   12  C   UNL     1      -7.345   5.612  68.033  1.00  0.00    -0.073 C  
HETATM   13  C   UNL     1      -7.981   7.013  68.084  1.00  0.00    -0.119 C  
BRANCH  12  14
HETATM   14  C   UNL     1      -7.169   4.805  69.270  1.00  0.00    -0.052 C  
HETATM   15  O   UNL     1      -6.154   4.808  69.953  1.00  0.00    -0.020 OA 
BRANCH  14  16
HETATM   16  O   UNL     1      -8.266   4.051  69.548  1.00  0.00    -0.058 OA 
HETATM   17  C   UNL     1      -8.713   4.176  70.901  1.00  0.00    -0.081 C  
ENDBRANCH  14  16
ENDBRANCH  12  14
BRANCH  13  18
HETATM   18  C   UNL     1      -9.238   7.035  68.963  1.00  0.00    -0.137 A  
HETATM   19  C   UNL     1     -10.411   6.370  68.571  1.00  0.00    -0.227 A  
HETATM   20  C   UNL     1      -9.218   7.706  70.202  1.00  0.00    -0.154 A  
HETATM   21  C   UNL     1     -11.535   6.361  69.400  1.00  0.00    -0.374 A  
HETATM   22  C   UNL     1     -10.341   7.668  71.040  1.00  0.00    -0.202 A  
HETATM   23  N   UNL     1     -10.283   8.302  72.362  1.00  0.00    -0.306 N  
HETATM   24  C   UNL     1     -11.502   7.001  70.638  1.00  0.00    -0.367 A  
HETATM   25  O   UNL     1      -9.223   8.849  72.697  1.00  0.00    -0.301 OA 
HETATM   26  O   UNL     1     -11.296   8.240  73.077  1.00  0.00    -0.262 OA 
ENDBRANCH  13  18
ENDBRANCH   4   6
ENDBRANCH   3   4
ENDBRANCH   2   3
TORSDOF 6
ENDMDL
MODEL      205
REMARK 921   NORMALIZED FREE ENERGY PREDICTED BY IDOCK:   -2.48 KCAL/MOL
REMARK 922        TOTAL FREE ENERGY PREDICTED BY IDOCK:   -4.49 KCAL/MOL
REMARK 923 INTER-LIGAND FREE ENERGY PREDICTED BY IDOCK:   -5.65 KCAL/MOL
REMARK 924 INTRA-LIGAND FREE ENERGY PREDICTED BY IDOCK:    1.16 KCAL/MOL
REMARK 927      BINDING AFFINITY PREDICTED BY RF-SCORE:    0.00 PKD
ROOT
HETATM    1  C   UNL     1      -5.734  16.793  70.583  1.00  0.00     0.049 C  
HETATM    2  C   UNL     1      -6.724  16.754  69.434  1.00  0.00    -0.226 C  
ENDROOT
BRANCH   2   3
HETATM    3  O   UNL     1      -6.731  15.407  68.941  1.00  0.00    -0.105 OA 
BRANCH   3   4
HETATM    4  C   UNL     1      -7.793  14.648  69.309  1.00  0.00    -0.071 C  
HETATM    5  O   UNL     1      -8.769  15.048  69.926  1.00  0.00    -0.007 OA 
BRANCH   4   6
HETATM    6  C   UNL     1      -7.631  13.275  68.769  1.00  0.00    -0.043 C  
HETATM    7  C   UNL     1      -6.468  12.603  68.930  1.00  0.00    -0.091 C  
HETATM    8  N   UNL     1      -6.349  11.318  68.429  1.00  0.00    -0.046 NA 
HETATM    9  C   UNL     1      -5.219  13.082  69.637  1.00  0.00    -0.083 C  
HETATM   10  C   UNL     1      -7.298  10.669  67.669  1.00  0.00    -0.090 C  
HETATM   11  C   UNL     1      -6.883   9.308  67.156  1.00  0.00    -0.084 C  
HETATM   12  C   UNL     1      -8.498  11.251  67.434  1.00  0.00    -0.137 C  
HETATM   13  C   UNL     1      -8.829  12.628  68.039  1.00  0.00    -0.195 C  
BRANCH  12  14
HETATM   14  C   UNL     1      -9.464  10.555  66.542  1.00  0.00    -0.166 C  
HETATM   15  O   UNL     1     -10.532  10.092  66.916  1.00  0.00    -0.236 OA 
BRANCH  14  16
HETATM   16  O   UNL     1      -9.013  10.481  65.261  1.00  0.00    -0.173 OA 
HETATM   17  C   UNL     1     -10.060  10.527  64.287  1.00  0.00    -0.310 C  
ENDBRANCH  14  16
ENDBRANCH  12  14
BRANCH  13  18
HETATM   18  C   UNL     1      -9.428  13.579  66.995  1.00  0.00    -0.251 A  
HETATM   19  C   UNL     1      -8.781  14.773  66.643  1.00  0.00    -0.229 A  
HETATM   20  C   UNL     1     -10.635  13.243  66.350  1.00  0.00    -0.288 A  
HETATM   21  C   UNL     1      -9.315  15.609  65.659  1.00  0.00    -0.207 A  
HETATM   22  C   UNL     1     -11.150  14.073  65.345  1.00  0.00    -0.318 A  
HETATM   23  N   UNL     1     -12.364  13.674  64.623  1.00  0.00    -0.387 N  
HETATM   24  C   UNL     1     -10.494  15.260  65.002  1.00  0.00    -0.411 A  
HETATM   25  O   UNL     1     -12.893  12.596  64.928  1.00  0.00    -0.763 OA 
HETATM   26  O   UNL     1     -12.782  14.434  63.735  1.00  0.00    -0.785 OA 
ENDBRANCH  13  18
ENDBRANCH   4   6
ENDBRANCH   3   4
ENDBRANCH   2   3
TORSDOF 6
ENDMDL
MODEL      206
REMARK 921   NORMALIZED FREE ENERGY PREDICTED BY IDOCK:   -2.47 KCAL/MOL
REMARK 922        TOTAL FREE ENERGY PREDICTED BY IDOCK:   -4.49 KCAL/MOL
REMARK 923 INTER-LIGAND FREE ENERGY PREDICTED BY IDOCK:   -3.40 KCAL/MOL
REMARK 924 INTRA-LIGAND FREE ENERGY PREDICTED BY IDOCK:   -1.09 KCAL/MOL
REMARK 927      BINDING AFFINITY PREDICTED BY RF-SCORE:    0.00 PKD
ROOT
HETATM    1  C   UNL     1      -7.922   1.613  72.728  1.00  0.00    -0.048 C  
HETATM    2  C   UNL     1      -8.069   1.839  71.235  1.00  0.00    -0.046 C  
ENDROOT
BRANCH   2   3
HETATM    3  O   UNL     1      -8.523   3.190  71.065  1.00  0.00    -0.064 OA 
BRANCH   3   4
HETATM    4  C   UNL     1      -7.602   4.068  70.595  1.00  0.00    -0.048 C  
HETATM    5  O   UNL     1      -6.648   4.498  71.225  1.00  0.00    -0.025 OA 
BRANCH   4   6
HETATM    6  C   UNL     1      -7.879   4.358  69.166  1.00  0.00    -0.061 C  
HETATM    7  C   UNL     1      -7.160   3.757  68.189  1.00  0.00    -0.051 C  
HETATM    8  N   UNL     1      -7.449   4.034  66.863  1.00  0.00    -0.072 NA 
HETATM    9  C   UNL     1      -6.039   2.756  68.355  1.00  0.00    -0.025 C  
HETATM   10  C   UNL     1      -8.361   4.970  66.426  1.00  0.00    -0.108 C  
HETATM   11  C   UNL     1      -8.415   5.155  64.926  1.00  0.00    -0.149 C  
HETATM   12  C   UNL     1      -9.130   5.641  67.317  1.00  0.00    -0.110 C  
HETATM   13  C   UNL     1      -9.017   5.344  68.824  1.00  0.00    -0.127 C  
BRANCH  12  14
HETATM   14  C   UNL     1     -10.043   6.700  66.811  1.00  0.00    -0.175 C  
HETATM   15  O   UNL     1     -11.263   6.634  66.860  1.00  0.00    -0.391 OA 
BRANCH  14  16
HETATM   16  O   UNL     1      -9.362   7.749  66.276  1.00  0.00    -0.185 OA 
HETATM   17  C   UNL     1     -10.022   9.006  66.454  1.00  0.00    -0.300 C  
ENDBRANCH  14  16
ENDBRANCH  12  14
BRANCH  13  18
HETATM   18  C   UNL     1      -8.910   6.631  69.651  1.00  0.00    -0.143 A  
HETATM   19  C   UNL     1      -9.919   7.002  70.553  1.00  0.00    -0.191 A  
HETATM   20  C   UNL     1      -7.769   7.450  69.532  1.00  0.00    -0.108 A  
HETATM   21  C   UNL     1      -9.790   8.154  71.332  1.00  0.00    -0.223 A  
HETATM   22  C   UNL     1      -7.635   8.589  70.337  1.00  0.00    -0.074 A  
HETATM   23  N   UNL     1      -6.408   9.391  70.264  1.00  0.00    -0.053 N  
HETATM   24  C   UNL     1      -8.647   8.947  71.233  1.00  0.00    -0.259 A  
HETATM   25  O   UNL     1      -5.517   9.019  69.486  1.00  0.00    -0.034 OA 
HETATM   26  O   UNL     1      -6.325  10.388  70.999  1.00  0.00    -0.331 OA 
ENDBRANCH  13  18
ENDBRANCH   4   6
ENDBRANCH   3   4
ENDBRANCH   2   3
TORSDOF 6
ENDMDL
MODEL      207
REMARK 921   NORMALIZED FREE ENERGY PREDICTED BY IDOCK:   -2.47 KCAL/MOL
REMARK 922        TOTAL FREE ENERGY PREDICTED BY IDOCK:   -4.48 KCAL/MOL
REMARK 923 INTER-LIGAND FREE ENERGY PREDICTED BY IDOCK:   -3.30 KCAL/MOL
REMARK 924 INTRA-LIGAND FREE ENERGY PREDICTED BY IDOCK:   -1.18 KCAL/MOL
REMARK 927      BINDING AFFINITY PREDICTED BY RF-SCORE:    0.00 PKD
ROOT
HETATM    1  C   UNL     1     -10.738   9.740  68.388  1.00  0.00    -0.262 C  
HETATM    2  C   UNL     1     -10.679   8.949  67.094  1.00  0.00    -0.133 C  
ENDROOT
BRANCH   2   3
HETATM    3  O   UNL     1     -10.303   7.610  67.446  1.00  0.00    -0.223 OA 
BRANCH   3   4
HETATM    4  C   UNL     1      -9.135   7.166  66.917  1.00  0.00    -0.141 C  
HETATM    5  O   UNL     1      -8.334   7.849  66.297  1.00  0.00    -0.114 OA 
BRANCH   4   6
HETATM    6  C   UNL     1      -8.933   5.743  67.286  1.00  0.00    -0.112 C  
HETATM    7  C   UNL     1      -9.719   4.775  66.759  1.00  0.00    -0.189 C  
HETATM    8  N   UNL     1      -9.500   3.454  67.108  1.00  0.00    -0.196 NA 
HETATM    9  C   UNL     1     -10.851   4.948  65.770  1.00  0.00    -0.121 C  
HETATM   10  C   UNL     1      -8.593   3.020  68.051  1.00  0.00    -0.094 C  
HETATM   11  C   UNL     1      -8.620   1.533  68.324  1.00  0.00    -0.091 C  
HETATM   12  C   UNL     1      -7.761   3.903  68.654  1.00  0.00    -0.060 C  
HETATM   13  C   UNL     1      -7.795   5.394  68.270  1.00  0.00    -0.088 C  
BRANCH  12  14
HETATM   14  C   UNL     1      -6.854   3.408  69.724  1.00  0.00    -0.034 C  
HETATM   15  O   UNL     1      -5.666   3.169  69.560  1.00  0.00    -0.017 OA 
BRANCH  14  16
HETATM   16  O   UNL     1      -7.504   3.240  70.907  1.00  0.00    -0.037 OA 
HETATM   17  C   UNL     1      -6.696   3.542  72.047  1.00  0.00    -0.019 C  
ENDBRANCH  14  16
ENDBRANCH  12  14
BRANCH  13  18
HETATM   18  C   UNL     1      -7.827   6.299  69.508  1.00  0.00    -0.101 A  
HETATM   19  C   UNL     1      -6.746   7.137  69.824  1.00  0.00    -0.048 A  
HETATM   20  C   UNL     1      -8.968   6.319  70.335  1.00  0.00    -0.154 A  
HETATM   21  C   UNL     1      -6.804   7.988  70.929  1.00  0.00    -0.041 A  
HETATM   22  C   UNL     1      -9.030   7.196  71.426  1.00  0.00    -0.135 A  
HETATM   23  N   UNL     1     -10.253   7.268  72.233  1.00  0.00    -0.191 N  
HETATM   24  C   UNL     1      -7.947   8.028  71.729  1.00  0.00    -0.133 A  
HETATM   25  O   UNL     1     -11.205   6.544  71.909  1.00  0.00    -0.247 OA 
HETATM   26  O   UNL     1     -10.270   8.062  73.186  1.00  0.00    -0.322 OA 
ENDBRANCH  13  18
ENDBRANCH   4   6
ENDBRANCH   3   4
ENDBRANCH   2   3
TORSDOF 6
ENDMDL
MODEL      208
REMARK 921   NORMALIZED FREE ENERGY PREDICTED BY IDOCK:   -2.41 KCAL/MOL
REMARK 922        TOTAL FREE ENERGY PREDICTED BY IDOCK:   -4.40 KCAL/MOL
REMARK 923 INTER-LIGAND FREE ENERGY PREDICTED BY IDOCK:   -3.79 KCAL/MOL
REMARK 924 INTRA-LIGAND FREE ENERGY PREDICTED BY IDOCK:   -0.61 KCAL/MOL
REMARK 927      BINDING AFFINITY PREDICTED BY RF-SCORE:    0.00 PKD
ROOT
HETATM    1  C   UNL     1      -8.633  10.430  64.270  1.00  0.00    -0.190 C  
HETATM    2  C   UNL     1      -7.504  10.401  65.284  1.00  0.00    -0.113 C  
ENDROOT
BRANCH   2   3
HETATM    3  O   UNL     1      -7.886   9.461  66.299  1.00  0.00    -0.099 OA 
BRANCH   3   4
HETATM    4  C   UNL     1      -6.948   8.539  66.632  1.00  0.00    -0.076 C  
HETATM    5  O   UNL     1      -5.776   8.780  66.881  1.00  0.00    -0.043 OA 
BRANCH   4   6
HETATM    6  C   UNL     1      -7.583   7.202  66.739  1.00  0.00    -0.093 C  
HETATM    7  C   UNL     1      -7.932   6.513  65.628  1.00  0.00    -0.114 C  
HETATM    8  N   UNL     1      -8.509   5.261  65.756  1.00  0.00    -0.123 NA 
HETATM    9  C   UNL     1      -7.749   6.938  64.188  1.00  0.00    -0.116 C  
HETATM   10  C   UNL     1      -8.868   4.668  66.947  1.00  0.00    -0.111 C  
HETATM   11  C   UNL     1      -9.577   3.340  66.809  1.00  0.00    -0.052 C  
HETATM   12  C   UNL     1      -8.578   5.273  68.124  1.00  0.00    -0.099 C  
HETATM   13  C   UNL     1      -7.816   6.611  68.147  1.00  0.00    -0.110 C  
BRANCH  12  14
HETATM   14  C   UNL     1      -9.054   4.641  69.384  1.00  0.00    -0.108 C  
HETATM   15  O   UNL     1      -8.436   3.782  69.996  1.00  0.00    -0.058 OA 
BRANCH  14  16
HETATM   16  O   UNL     1     -10.267   5.122  69.770  1.00  0.00    -0.254 OA 
HETATM   17  C   UNL     1     -10.514   4.979  71.171  1.00  0.00    -0.135 C  
ENDBRANCH  14  16
ENDBRANCH  12  14
BRANCH  13  18
HETATM   18  C   UNL     1      -8.485   7.630  69.079  1.00  0.00    -0.132 A  
HETATM   19  C   UNL     1      -8.038   7.812  70.397  1.00  0.00    -0.115 A  
HETATM   20  C   UNL     1      -9.549   8.423  68.605  1.00  0.00    -0.153 A  
HETATM   21  C   UNL     1      -8.627   8.773  71.221  1.00  0.00    -0.258 A  
HETATM   22  C   UNL     1     -10.116   9.404  69.430  1.00  0.00    -0.198 A  
HETATM   23  N   UNL     1     -11.169  10.279  68.901  1.00  0.00    -0.229 N  
HETATM   24  C   UNL     1      -9.660   9.577  70.740  1.00  0.00    -0.261 A  
HETATM   25  O   UNL     1     -11.517  10.120  67.723  1.00  0.00    -0.287 OA 
HETATM   26  O   UNL     1     -11.639  11.140  69.661  1.00  0.00    -0.266 OA 
ENDBRANCH  13  18
ENDBRANCH   4   6
ENDBRANCH   3   4
ENDBRANCH   2   3
TORSDOF 6
ENDMDL
MODEL      209
REMARK 921   NORMALIZED FREE ENERGY PREDICTED BY IDOCK:   -2.38 KCAL/MOL
REMARK 922        TOTAL FREE ENERGY PREDICTED BY IDOCK:   -4.36 KCAL/MOL
REMARK 923 INTER-LIGAND FREE ENERGY PREDICTED BY IDOCK:   -3.96 KCAL/MOL
REMARK 924 INTRA-LIGAND FREE ENERGY PREDICTED BY IDOCK:   -0.40 KCAL/MOL
REMARK 927      BINDING AFFINITY PREDICTED BY RF-SCORE:    0.00 PKD
ROOT
HETATM    1  C   UNL     1      -8.936  19.244  66.712  1.00  0.00    -0.360 C  
HETATM    2  C   UNL     1      -8.166  17.961  66.462  1.00  0.00    -0.269 C  
ENDROOT
BRANCH   2   3
HETATM    3  O   UNL     1      -8.938  17.193  65.527  1.00  0.00    -0.311 OA 
BRANCH   3   4
HETATM    4  C   UNL     1     -10.161  16.793  65.959  1.00  0.00    -0.332 C  
HETATM    5  O   UNL     1     -11.015  17.523  66.439  1.00  0.00    -0.018 OA 
BRANCH   4   6
HETATM    6  C   UNL     1     -10.338  15.347  65.676  1.00  0.00    -0.395 C  
HETATM    7  C   UNL     1     -11.244  14.929  64.762  1.00  0.00    -0.386 C  
HETATM    8  N   UNL     1     -11.379  13.576  64.505  1.00  0.00    -0.351 NA 
HETATM    9  C   UNL     1     -12.165  15.787  63.922  1.00  0.00     0.429 C  
HETATM   10  C   UNL     1     -10.729  12.568  65.186  1.00  0.00    -0.292 C  
HETATM   11  C   UNL     1     -11.128  11.166  64.783  1.00  0.00    -0.136 C  
HETATM   12  C   UNL     1      -9.806  12.870  66.131  1.00  0.00    -0.270 C  
HETATM   13  C   UNL     1      -9.450  14.337  66.435  1.00  0.00    -0.297 C  
BRANCH  12  14
HETATM   14  C   UNL     1      -9.187  11.756  66.899  1.00  0.00    -0.189 C  
HETATM   15  O   UNL     1      -8.078  11.297  66.667  1.00  0.00    -0.153 OA 
BRANCH  14  16
HETATM   16  O   UNL     1     -10.005  11.298  67.884  1.00  0.00    -0.169 OA 
HETATM   17  C   UNL     1      -9.951   9.879  68.054  1.00  0.00    -0.152 C  
ENDBRANCH  14  16
ENDBRANCH  12  14
BRANCH  13  18
HETATM   18  C   UNL     1      -9.442  14.619  67.942  1.00  0.00    -0.210 A  
HETATM   19  C   UNL     1      -8.297  15.122  68.581  1.00  0.00    -0.160 A  
HETATM   20  C   UNL     1     -10.607  14.402  68.705  1.00  0.00    -0.253 A  
HETATM   21  C   UNL     1      -8.315  15.417  69.946  1.00  0.00     0.159 A  
HETATM   22  C   UNL     1     -10.625  14.725  70.068  1.00  0.00    -0.014 A  
HETATM   23  N   UNL     1     -11.866  14.571  70.836  1.00  0.00    -0.313 N  
HETATM   24  C   UNL     1      -9.479  15.228  70.692  1.00  0.00     1.142 A  
HETATM   25  O   UNL     1     -12.871  14.161  70.237  1.00  0.00    -0.297 OA 
HETATM   26  O   UNL     1     -11.842  14.876  72.038  1.00  0.00    -0.362 OA 
ENDBRANCH  13  18
ENDBRANCH   4   6
ENDBRANCH   3   4
ENDBRANCH   2   3
TORSDOF 6
ENDMDL
MODEL      210
REMARK 921   NORMALIZED FREE ENERGY PREDICTED BY IDOCK:   -2.36 KCAL/MOL
REMARK 922        TOTAL FREE ENERGY PREDICTED BY IDOCK:   -4.34 KCAL/MOL
REMARK 923 INTER-LIGAND FREE ENERGY PREDICTED BY IDOCK:   -3.54 KCAL/MOL
REMARK 924 INTRA-LIGAND FREE ENERGY PREDICTED BY IDOCK:   -0.79 KCAL/MOL
REMARK 927      BINDING AFFINITY PREDICTED BY RF-SCORE:    0.00 PKD
ROOT
HETATM    1  C   UNL     1     -11.032  19.820  65.416  1.00  0.00    -0.014 C  
HETATM    2  C   UNL     1     -10.770  19.353  66.836  1.00  0.00    -0.465 C  
ENDROOT
BRANCH   2   3
HETATM    3  O   UNL     1      -9.647  18.463  66.776  1.00  0.00    -0.284 OA 
BRANCH   3   4
HETATM    4  C   UNL     1      -8.831  18.469  67.860  1.00  0.00    -0.284 C  
HETATM    5  O   UNL     1      -8.899  19.254  68.793  1.00  0.00    -0.361 OA 
BRANCH   4   6
HETATM    6  C   UNL     1      -7.897  17.318  67.783  1.00  0.00    -0.194 C  
HETATM    7  C   UNL     1      -6.879  17.313  66.892  1.00  0.00    -0.196 C  
HETATM    8  N   UNL     1      -6.013  16.234  66.852  1.00  0.00    -0.328 NA 
HETATM    9  C   UNL     1      -6.526  18.394  65.893  1.00  0.00    -0.290 C  
HETATM   10  C   UNL     1      -6.150  15.076  67.587  1.00  0.00    -0.086 C  
HETATM   11  C   UNL     1      -5.128  14.004  67.284  1.00  0.00     0.586 C  
HETATM   12  C   UNL     1      -7.141  14.965  68.504  1.00  0.00    -0.108 C  
HETATM   13  C   UNL     1      -8.105  16.138  68.758  1.00  0.00    -0.218 C  
BRANCH  12  14
HETATM   14  C   UNL     1      -7.305  13.670  69.219  1.00  0.00     0.129 C  
HETATM   15  O   UNL     1      -7.534  12.605  68.664  1.00  0.00    -0.116 OA 
BRANCH  14  16
HETATM   16  O   UNL     1      -7.181  13.811  70.566  1.00  0.00     0.820 OA 
HETATM   17  C   UNL     1      -5.822  13.860  71.009  1.00  0.00    -0.198 C  
ENDBRANCH  14  16
ENDBRANCH  12  14
BRANCH  13  18
HETATM   18  C   UNL     1      -9.568  15.678  68.776  1.00  0.00    -0.215 A  
HETATM   19  C   UNL     1     -10.449  16.097  69.785  1.00  0.00    -0.286 A  
HETATM   20  C   UNL     1     -10.055  14.842  67.751  1.00  0.00    -0.234 A  
HETATM   21  C   UNL     1     -11.790  15.707  69.767  1.00  0.00    -0.376 A  
HETATM   22  C   UNL     1     -11.407  14.477  67.725  1.00  0.00    -0.317 A  
HETATM   23  N   UNL     1     -11.923  13.673  66.610  1.00  0.00    -0.402 N  
HETATM   24  C   UNL     1     -12.276  14.903  68.735  1.00  0.00    -0.122 A  
HETATM   25  O   UNL     1     -11.130  13.349  65.714  1.00  0.00    -0.283 OA 
HETATM   26  O   UNL     1     -13.128  13.378  66.621  1.00  0.00     0.299 OA 
ENDBRANCH  13  18
ENDBRANCH   4   6
ENDBRANCH   3   4
ENDBRANCH   2   3
TORSDOF 6
ENDMDL
MODEL      211
REMARK 921   NORMALIZED FREE ENERGY PREDICTED BY IDOCK:   -2.31 KCAL/MOL
REMARK 922        TOTAL FREE ENERGY PREDICTED BY IDOCK:   -4.27 KCAL/MOL
REMARK 923 INTER-LIGAND FREE ENERGY PREDICTED BY IDOCK:   -3.44 KCAL/MOL
REMARK 924 INTRA-LIGAND FREE ENERGY PREDICTED BY IDOCK:   -0.82 KCAL/MOL
REMARK 927      BINDING AFFINITY PREDICTED BY RF-SCORE:    0.00 PKD
ROOT
HETATM    1  C   UNL     1      -9.463   8.288  66.091  1.00  0.00    -0.241 C  
HETATM    2  C   UNL     1     -10.606   7.824  66.975  1.00  0.00    -0.326 C  
ENDROOT
BRANCH   2   3
HETATM    3  O   UNL     1     -10.025   7.422  68.223  1.00  0.00    -0.154 OA 
BRANCH   3   4
HETATM    4  C   UNL     1     -10.445   6.228  68.712  1.00  0.00    -0.233 C  
HETATM    5  O   UNL     1     -11.523   6.023  69.248  1.00  0.00    -0.345 OA 
BRANCH   4   6
HETATM    6  C   UNL     1      -9.429   5.187  68.416  1.00  0.00    -0.168 C  
HETATM    7  C   UNL     1      -9.496   4.464  67.274  1.00  0.00    -0.171 C  
HETATM    8  N   UNL     1      -8.528   3.509  67.015  1.00  0.00    -0.102 NA 
HETATM    9  C   UNL     1     -10.528   4.577  66.173  1.00  0.00    -0.198 C  
HETATM   10  C   UNL     1      -7.523   3.138  67.882  1.00  0.00    -0.054 C  
HETATM   11  C   UNL     1      -6.656   1.996  67.403  1.00  0.00    -0.031 C  
HETATM   12  C   UNL     1      -7.368   3.787  69.062  1.00  0.00    -0.053 C  
HETATM   13  C   UNL     1      -8.288   4.964  69.432  1.00  0.00    -0.085 C  
BRANCH  12  14
HETATM   14  C   UNL     1      -6.324   3.304  70.005  1.00  0.00    -0.028 C  
HETATM   15  O   UNL     1      -5.293   3.911  70.258  1.00  0.00    -0.007 OA 
BRANCH  14  16
HETATM   16  O   UNL     1      -6.645   2.098  70.548  1.00  0.00    -0.027 OA 
HETATM   17  C   UNL     1      -5.771   1.702  71.609  1.00  0.00    -0.008 C  
ENDBRANCH  14  16
ENDBRANCH  12  14
BRANCH  13  18
HETATM   18  C   UNL     1      -8.828   4.835  70.862  1.00  0.00    -0.150 A  
HETATM   19  C   UNL     1      -8.696   5.883  71.786  1.00  0.00    -0.139 A  
HETATM   20  C   UNL     1      -9.497   3.659  71.257  1.00  0.00    -0.231 A  
HETATM   21  C   UNL     1      -9.230   5.770  73.072  1.00  0.00    -0.140 A  
HETATM   22  C   UNL     1     -10.054   3.565  72.540  1.00  0.00    -0.165 A  
HETATM   23  N   UNL     1     -10.818   2.369  72.915  1.00  0.00    -0.120 N  
HETATM   24  C   UNL     1      -9.917   4.617  73.451  1.00  0.00    -0.183 A  
HETATM   25  O   UNL     1     -10.950   1.476  72.066  1.00  0.00     0.078 OA 
HETATM   26  O   UNL     1     -11.301   2.328  74.057  1.00  0.00    -0.161 OA 
ENDBRANCH  13  18
ENDBRANCH   4   6
ENDBRANCH   3   4
ENDBRANCH   2   3
TORSDOF 6
ENDMDL
MODEL      212
REMARK 921   NORMALIZED FREE ENERGY PREDICTED BY IDOCK:   -2.30 KCAL/MOL
REMARK 922        TOTAL FREE ENERGY PREDICTED BY IDOCK:   -4.25 KCAL/MOL
REMARK 923 INTER-LIGAND FREE ENERGY PREDICTED BY IDOCK:   -3.36 KCAL/MOL
REMARK 924 INTRA-LIGAND FREE ENERGY PREDICTED BY IDOCK:   -0.89 KCAL/MOL
REMARK 927      BINDING AFFINITY PREDICTED BY RF-SCORE:    0.00 PKD
ROOT
HETATM    1  C   UNL     1      -7.663   9.124  62.815  1.00  0.00    -0.118 C  
HETATM    2  C   UNL     1      -7.846   8.133  63.950  1.00  0.00    -0.147 C  
ENDROOT
BRANCH   2   3
HETATM    3  O   UNL     1      -7.784   8.887  65.169  1.00  0.00    -0.096 OA 
BRANCH   3   4
HETATM    4  C   UNL     1      -8.958   9.033  65.833  1.00  0.00    -0.190 C  
HETATM    5  O   UNL     1     -10.006   9.423  65.341  1.00  0.00    -0.235 OA 
BRANCH   4   6
HETATM    6  C   UNL     1      -8.799   8.559  67.231  1.00  0.00    -0.137 C  
HETATM    7  C   UNL     1      -8.292   9.376  68.183  1.00  0.00    -0.119 C  
HETATM    8  N   UNL     1      -8.168   8.914  69.482  1.00  0.00    -0.104 NA 
HETATM    9  C   UNL     1      -7.837  10.809  68.018  1.00  0.00    -0.106 C  
HETATM   10  C   UNL     1      -8.425   7.624  69.896  1.00  0.00    -0.137 C  
HETATM   11  C   UNL     1      -8.112   7.346  71.349  1.00  0.00    -0.097 C  
HETATM   12  C   UNL     1      -8.926   6.716  69.024  1.00  0.00    -0.130 C  
HETATM   13  C   UNL     1      -9.243   7.120  67.572  1.00  0.00    -0.131 C  
BRANCH  12  14
HETATM   14  C   UNL     1      -9.112   5.315  69.488  1.00  0.00    -0.112 C  
HETATM   15  O   UNL     1     -10.198   4.820  69.757  1.00  0.00    -0.246 OA 
BRANCH  14  16
HETATM   16  O   UNL     1      -7.931   4.648  69.589  1.00  0.00    -0.064 OA 
HETATM   17  C   UNL     1      -7.963   3.575  70.534  1.00  0.00    -0.053 C  
ENDBRANCH  14  16
ENDBRANCH  12  14
BRANCH  13  18
HETATM   18  C   UNL     1      -8.685   6.107  66.566  1.00  0.00    -0.133 A  
HETATM   19  C   UNL     1      -7.305   5.867  66.464  1.00  0.00    -0.078 A  
HETATM   20  C   UNL     1      -9.564   5.376  65.742  1.00  0.00    -0.072 A  
HETATM   21  C   UNL     1      -6.812   4.911  65.574  1.00  0.00    -0.061 A  
HETATM   22  C   UNL     1      -9.064   4.399  64.871  1.00  0.00    -0.151 A  
HETATM   23  N   UNL     1      -9.993   3.588  64.076  1.00  0.00    -0.171 N  
HETATM   24  C   UNL     1      -7.687   4.169  64.781  1.00  0.00    -0.078 A  
HETATM   25  O   UNL     1     -11.207   3.795  64.213  1.00  0.00    -0.306 OA 
HETATM   26  O   UNL     1      -9.510   2.728  63.323  1.00  0.00    -0.094 OA 
ENDBRANCH  13  18
ENDBRANCH   4   6
ENDBRANCH   3   4
ENDBRANCH   2   3
TORSDOF 6
ENDMDL
MODEL      213
REMARK 921   NORMALIZED FREE ENERGY PREDICTED BY IDOCK:   -2.28 KCAL/MOL
REMARK 922        TOTAL FREE ENERGY PREDICTED BY IDOCK:   -4.23 KCAL/MOL
REMARK 923 INTER-LIGAND FREE ENERGY PREDICTED BY IDOCK:   -4.11 KCAL/MOL
REMARK 924 INTRA-LIGAND FREE ENERGY PREDICTED BY IDOCK:   -0.12 KCAL/MOL
REMARK 927      BINDING AFFINITY PREDICTED BY RF-SCORE:    0.00 PKD
ROOT
HETATM    1  C   UNL     1      -7.149  10.625  69.972  1.00  0.00    -0.095 C  
HETATM    2  C   UNL     1      -7.677  11.042  68.612  1.00  0.00    -0.132 C  
ENDROOT
BRANCH   2   3
HETATM    3  O   UNL     1      -9.059  11.381  68.793  1.00  0.00    -0.167 OA 
BRANCH   3   4
HETATM    4  C   UNL     1      -9.953  10.547  68.205  1.00  0.00    -0.153 C  
HETATM    5  O   UNL     1     -11.152  10.516  68.437  1.00  0.00    -0.247 OA 
BRANCH   4   6
HETATM    6  C   UNL     1      -9.266   9.737  67.167  1.00  0.00    -0.159 C  
HETATM    7  C   UNL     1      -9.316  10.100  65.864  1.00  0.00    -0.175 C  
HETATM    8  N   UNL     1      -8.654   9.336  64.919  1.00  0.00    -0.171 NA 
HETATM    9  C   UNL     1     -10.015  11.303  65.271  1.00  0.00    -0.301 C  
HETATM   10  C   UNL     1      -8.011   8.143  65.168  1.00  0.00    -0.126 C  
HETATM   11  C   UNL     1      -7.454   7.450  63.944  1.00  0.00    -0.100 C  
HETATM   12  C   UNL     1      -7.909   7.676  66.436  1.00  0.00    -0.094 C  
HETATM   13  C   UNL     1      -8.481   8.485  67.614  1.00  0.00    -0.129 C  
BRANCH  12  14
HETATM   14  C   UNL     1      -7.279   6.346  66.654  1.00  0.00    -0.077 C  
HETATM   15  O   UNL     1      -6.292   6.160  67.352  1.00  0.00    -0.034 OA 
BRANCH  14  16
HETATM   16  O   UNL     1      -7.922   5.359  65.975  1.00  0.00    -0.102 OA 
HETATM   17  C   UNL     1      -7.080   4.247  65.655  1.00  0.00    -0.063 C  
ENDBRANCH  14  16
ENDBRANCH  12  14
BRANCH  13  18
HETATM   18  C   UNL     1      -9.315   7.607  68.555  1.00  0.00    -0.147 A  
HETATM   19  C   UNL     1     -10.583   7.137  68.178  1.00  0.00    -0.241 A  
HETATM   20  C   UNL     1      -8.797   7.235  69.812  1.00  0.00    -0.142 A  
HETATM   21  C   UNL     1     -11.314   6.302  69.026  1.00  0.00    -0.319 A  
HETATM   22  C   UNL     1      -9.525   6.375  70.645  1.00  0.00    -0.165 A  
HETATM   23  N   UNL     1      -8.944   5.928  71.916  1.00  0.00    -0.138 N  
HETATM   24  C   UNL     1     -10.787   5.912  70.257  1.00  0.00    -0.391 A  
HETATM   25  O   UNL     1      -7.807   6.329  72.206  1.00  0.00    -0.102 OA 
HETATM   26  O   UNL     1      -9.617   5.161  72.622  1.00  0.00    -0.146 OA 
ENDBRANCH  13  18
ENDBRANCH   4   6
ENDBRANCH   3   4
ENDBRANCH   2   3
TORSDOF 6
ENDMDL
MODEL      214
REMARK 921   NORMALIZED FREE ENERGY PREDICTED BY IDOCK:   -2.24 KCAL/MOL
REMARK 922        TOTAL FREE ENERGY PREDICTED BY IDOCK:   -4.18 KCAL/MOL
REMARK 923 INTER-LIGAND FREE ENERGY PREDICTED BY IDOCK:   -5.51 KCAL/MOL
REMARK 924 INTRA-LIGAND FREE ENERGY PREDICTED BY IDOCK:    1.33 KCAL/MOL
REMARK 927      BINDING AFFINITY PREDICTED BY RF-SCORE:    0.00 PKD
ROOT
HETATM    1  C   UNL     1      -8.335  10.187  64.479  1.00  0.00    -0.168 C  
HETATM    2  C   UNL     1      -7.498  10.394  65.728  1.00  0.00    -0.147 C  
ENDROOT
BRANCH   2   3
HETATM    3  O   UNL     1      -8.274   9.903  66.830  1.00  0.00    -0.119 OA 
BRANCH   3   4
HETATM    4  C   UNL     1      -7.566   9.394  67.870  1.00  0.00    -0.087 C  
HETATM    5  O   UNL     1      -6.633   9.948  68.431  1.00  0.00    -0.055 OA 
BRANCH   4   6
HETATM    6  C   UNL     1      -8.157   8.096  68.283  1.00  0.00    -0.128 C  
HETATM    7  C   UNL     1      -7.900   6.967  67.583  1.00  0.00    -0.112 C  
HETATM    8  N   UNL     1      -8.452   5.767  67.999  1.00  0.00    -0.106 NA 
HETATM    9  C   UNL     1      -7.028   6.825  66.355  1.00  0.00    -0.062 C  
HETATM   10  C   UNL     1      -9.351   5.621  69.033  1.00  0.00    -0.124 C  
HETATM   11  C   UNL     1      -9.885   4.218  69.220  1.00  0.00    -0.180 C  
HETATM   12  C   UNL     1      -9.691   6.687  69.797  1.00  0.00    -0.168 C  
HETATM   13  C   UNL     1      -9.055   8.066  69.539  1.00  0.00    -0.152 C  
BRANCH  12  14
HETATM   14  C   UNL     1     -10.725   6.505  70.850  1.00  0.00    -0.242 C  
HETATM   15  O   UNL     1     -11.921   6.698  70.679  1.00  0.00    -0.395 OA 
BRANCH  14  16
HETATM   16  O   UNL     1     -10.184   6.110  72.034  1.00  0.00    -0.191 OA 
HETATM   17  C   UNL     1      -9.096   6.933  72.464  1.00  0.00    -0.132 C  
ENDBRANCH  14  16
ENDBRANCH  12  14
BRANCH  13  18
HETATM   18  C   UNL     1     -10.108   9.180  69.503  1.00  0.00    -0.202 A  
HETATM   19  C   UNL     1     -10.763   9.600  70.671  1.00  0.00    -0.388 A  
HETATM   20  C   UNL     1     -10.412   9.820  68.284  1.00  0.00    -0.255 A  
HETATM   21  C   UNL     1     -11.688  10.645  70.632  1.00  0.00    -0.454 A  
HETATM   22  C   UNL     1     -11.322  10.886  68.259  1.00  0.00    -0.308 A  
HETATM   23  N   UNL     1     -11.571  11.599  67.000  1.00  0.00    -0.261 N  
HETATM   24  C   UNL     1     -11.966  11.296  69.430  1.00  0.00    -0.410 A  
HETATM   25  O   UNL     1     -10.952  11.230  65.992  1.00  0.00    -0.257 OA 
HETATM   26  O   UNL     1     -12.378  12.541  67.021  1.00  0.00    -0.403 OA 
ENDBRANCH  13  18
ENDBRANCH   4   6
ENDBRANCH   3   4
ENDBRANCH   2   3
TORSDOF 6
ENDMDL
MODEL      215
REMARK 921   NORMALIZED FREE ENERGY PREDICTED BY IDOCK:   -2.23 KCAL/MOL
REMARK 922        TOTAL FREE ENERGY PREDICTED BY IDOCK:   -4.16 KCAL/MOL
REMARK 923 INTER-LIGAND FREE ENERGY PREDICTED BY IDOCK:   -3.10 KCAL/MOL
REMARK 924 INTRA-LIGAND FREE ENERGY PREDICTED BY IDOCK:   -1.07 KCAL/MOL
REMARK 927      BINDING AFFINITY PREDICTED BY RF-SCORE:    0.00 PKD
ROOT
HETATM    1  C   UNL     1      -9.069  11.300  65.751  1.00  0.00    -0.216 C  
HETATM    2  C   UNL     1      -8.534  10.064  66.451  1.00  0.00    -0.129 C  
ENDROOT
BRANCH   2   3
HETATM    3  O   UNL     1      -7.261  10.424  67.006  1.00  0.00    -0.088 OA 
BRANCH   3   4
HETATM    4  C   UNL     1      -6.498   9.393  67.449  1.00  0.00    -0.063 C  
HETATM    5  O   UNL     1      -5.624   8.832  66.806  1.00  0.00    -0.039 OA 
BRANCH   4   6
HETATM    6  C   UNL     1      -6.825   9.108  68.869  1.00  0.00    -0.056 C  
HETATM    7  C   UNL     1      -6.206   9.779  69.867  1.00  0.00    -0.051 C  
HETATM    8  N   UNL     1      -6.540   9.505  71.182  1.00  0.00    -0.248 NA 
HETATM    9  C   UNL     1      -5.155  10.860  69.735  1.00  0.00    -0.042 C  
HETATM   10  C   UNL     1      -7.401   8.510  71.594  1.00  0.00    -0.100 C  
HETATM   11  C   UNL     1      -7.518   8.348  73.092  1.00  0.00    -0.107 C  
HETATM   12  C   UNL     1      -8.070   7.766  70.679  1.00  0.00    -0.103 C  
HETATM   13  C   UNL     1      -7.902   8.044  69.174  1.00  0.00    -0.108 C  
BRANCH  12  14
HETATM   14  C   UNL     1      -8.926   6.650  71.162  1.00  0.00    -0.145 C  
HETATM   15  O   UNL     1      -8.512   5.526  71.411  1.00  0.00    -0.124 OA 
BRANCH  14  16
HETATM   16  O   UNL     1     -10.229   7.021  71.282  1.00  0.00    -0.192 OA 
HETATM   17  C   UNL     1     -11.149   5.950  71.049  1.00  0.00    -0.245 C  
ENDBRANCH  14  16
ENDBRANCH  12  14
BRANCH  13  18
HETATM   18  C   UNL     1      -7.656   6.754  68.382  1.00  0.00    -0.104 A  
HETATM   19  C   UNL     1      -6.451   6.046  68.503  1.00  0.00    -0.049 A  
HETATM   20  C   UNL     1      -8.663   6.246  67.537  1.00  0.00    -0.105 A  
HETATM   21  C   UNL     1      -6.255   4.849  67.810  1.00  0.00    -0.035 A  
HETATM   22  C   UNL     1      -8.470   5.031  66.867  1.00  0.00    -0.106 A  
HETATM   23  N   UNL     1      -9.554   4.468  66.052  1.00  0.00    -0.171 N  
HETATM   24  C   UNL     1      -7.265   4.333  66.997  1.00  0.00    -0.068 A  
HETATM   25  O   UNL     1     -10.621   5.096  65.994  1.00  0.00    -0.252 OA 
HETATM   26  O   UNL     1      -9.346   3.387  65.481  1.00  0.00    -0.153 OA 
ENDBRANCH  13  18
ENDBRANCH   4   6
ENDBRANCH   3   4
ENDBRANCH   2   3
TORSDOF 6
ENDMDL
MODEL      216
REMARK 921   NORMALIZED FREE ENERGY PREDICTED BY IDOCK:   -2.13 KCAL/MOL
REMARK 922        TOTAL FREE ENERGY PREDICTED BY IDOCK:   -4.02 KCAL/MOL
REMARK 923 INTER-LIGAND FREE ENERGY PREDICTED BY IDOCK:   -3.64 KCAL/MOL
REMARK 924 INTRA-LIGAND FREE ENERGY PREDICTED BY IDOCK:   -0.39 KCAL/MOL
REMARK 927      BINDING AFFINITY PREDICTED BY RF-SCORE:    0.00 PKD
ROOT
HETATM    1  C   UNL     1      -8.674   7.928  73.546  1.00  0.00    -0.321 C  
HETATM    2  C   UNL     1     -10.052   7.363  73.257  1.00  0.00    -0.316 C  
ENDROOT
BRANCH   2   3
HETATM    3  O   UNL     1      -9.866   5.987  72.895  1.00  0.00    -0.165 OA 
BRANCH   3   4
HETATM    4  C   UNL     1     -10.452   5.597  71.736  1.00  0.00    -0.228 C  
HETATM    5  O   UNL     1     -11.556   5.949  71.347  1.00  0.00    -0.214 OA 
BRANCH   4   6
HETATM    6  C   UNL     1      -9.509   4.748  70.966  1.00  0.00    -0.227 C  
HETATM    7  C   UNL     1      -8.700   3.867  71.598  1.00  0.00    -0.098 C  
HETATM    8  N   UNL     1      -7.840   3.077  70.855  1.00  0.00    -0.046 NA 
HETATM    9  C   UNL     1      -8.615   3.600  73.085  1.00  0.00    -0.090 C  
HETATM   10  C   UNL     1      -7.648   3.172  69.493  1.00  0.00    -0.044 C  
HETATM   11  C   UNL     1      -6.576   2.263  68.935  1.00  0.00    -0.029 C  
HETATM   12  C   UNL     1      -8.397   4.029  68.758  1.00  0.00    -0.090 C  
HETATM   13  C   UNL     1      -9.490   4.882  69.427  1.00  0.00    -0.218 C  
BRANCH  12  14
HETATM   14  C   UNL     1      -8.104   4.161  67.305  1.00  0.00    -0.099 C  
HETATM   15  O   UNL     1      -7.074   4.642  66.854  1.00  0.00    -0.071 OA 
BRANCH  14  16
HETATM   16  O   UNL     1      -9.123   3.696  66.534  1.00  0.00    -0.138 OA 
HETATM   17  C   UNL     1      -8.928   2.353  66.083  1.00  0.00    -0.114 C  
ENDBRANCH  14  16
ENDBRANCH  12  14
BRANCH  13  18
HETATM   18  C   UNL     1      -9.411   6.351  68.993  1.00  0.00    -0.127 A  
HETATM   19  C   UNL     1     -10.498   6.985  68.373  1.00  0.00    -0.231 A  
HETATM   20  C   UNL     1      -8.240   7.095  69.243  1.00  0.00    -0.128 A  
HETATM   21  C   UNL     1     -10.429   8.335  68.021  1.00  0.00    -0.239 A  
HETATM   22  C   UNL     1      -8.189   8.455  68.912  1.00  0.00    -0.115 A  
HETATM   23  N   UNL     1      -6.996   9.241  69.249  1.00  0.00    -0.053 N  
HETATM   24  C   UNL     1      -9.280   9.077  68.296  1.00  0.00    -0.139 A  
HETATM   25  O   UNL     1      -6.067   8.664  69.831  1.00  0.00    -0.034 OA 
HETATM   26  O   UNL     1      -6.993  10.445  68.946  1.00  0.00    -0.060 OA 
ENDBRANCH  13  18
ENDBRANCH   4   6
ENDBRANCH   3   4
ENDBRANCH   2   3
TORSDOF 6
ENDMDL
MODEL      217
REMARK 921   NORMALIZED FREE ENERGY PREDICTED BY IDOCK:   -2.06 KCAL/MOL
REMARK 922        TOTAL FREE ENERGY PREDICTED BY IDOCK:   -3.92 KCAL/MOL
REMARK 923 INTER-LIGAND FREE ENERGY PREDICTED BY IDOCK:   -3.27 KCAL/MOL
REMARK 924 INTRA-LIGAND FREE ENERGY PREDICTED BY IDOCK:   -0.66 KCAL/MOL
REMARK 927      BINDING AFFINITY PREDICTED BY RF-SCORE:    0.00 PKD
ROOT
HETATM    1  C   UNL     1      -5.931  12.661  70.658  1.00  0.00     0.010 C  
HETATM    2  C   UNL     1      -5.953  11.809  69.402  1.00  0.00    -0.082 C  
ENDROOT
BRANCH   2   3
HETATM    3  O   UNL     1      -7.159  12.141  68.700  1.00  0.00    -0.092 OA 
BRANCH   3   4
HETATM    4  C   UNL     1      -7.007  12.933  67.608  1.00  0.00    -0.152 C  
HETATM    5  O   UNL     1      -5.958  13.443  67.245  1.00  0.00    -0.341 OA 
BRANCH   4   6
HETATM    6  C   UNL     1      -8.292  13.011  66.870  1.00  0.00    -0.033 C  
HETATM    7  C   UNL     1      -9.275  13.844  67.283  1.00  0.00    -0.235 C  
HETATM    8  N   UNL     1     -10.459  13.908  66.568  1.00  0.00    -0.279 NA 
HETATM    9  C   UNL     1      -9.249  14.779  68.472  1.00  0.00    -0.194 C  
HETATM   10  C   UNL     1     -10.786  13.106  65.496  1.00  0.00    -0.283 C  
HETATM   11  C   UNL     1     -12.183  13.305  64.954  1.00  0.00    -0.466 C  
HETATM   12  C   UNL     1      -9.881  12.226  65.003  1.00  0.00    -0.158 C  
HETATM   13  C   UNL     1      -8.470  12.134  65.612  1.00  0.00     0.738 C  
BRANCH  12  14
HETATM   14  C   UNL     1     -10.300  11.321  63.899  1.00  0.00    -0.381 C  
HETATM   15  O   UNL     1     -11.392  10.775  63.836  1.00  0.00     0.395 OA 
BRANCH  14  16
HETATM   16  O   UNL     1      -9.320  11.162  62.969  1.00  0.00    -0.297 OA 
HETATM   17  C   UNL     1      -9.253   9.837  62.435  1.00  0.00    -0.269 C  
ENDBRANCH  14  16
ENDBRANCH  12  14
BRANCH  13  18
HETATM   18  C   UNL     1      -8.060  10.680  65.879  1.00  0.00    -0.159 A  
HETATM   19  C   UNL     1      -6.870  10.152  65.354  1.00  0.00    -0.128 A  
HETATM   20  C   UNL     1      -8.870   9.859  66.688  1.00  0.00    -0.149 A  
HETATM   21  C   UNL     1      -6.486   8.841  65.640  1.00  0.00    -0.059 A  
HETATM   22  C   UNL     1      -8.464   8.553  66.993  1.00  0.00    -0.114 A  
HETATM   23  N   UNL     1      -9.274   7.732  67.901  1.00  0.00    -0.137 N  
HETATM   24  C   UNL     1      -7.275   8.039  66.465  1.00  0.00    -0.080 A  
HETATM   25  O   UNL     1     -10.299   8.237  68.379  1.00  0.00    -0.206 OA 
HETATM   26  O   UNL     1      -8.875   6.584  68.151  1.00  0.00    -0.117 OA 
ENDBRANCH  13  18
ENDBRANCH   4   6
ENDBRANCH   3   4
ENDBRANCH   2   3
TORSDOF 6
ENDMDL
MODEL      218
REMARK 921   NORMALIZED FREE ENERGY PREDICTED BY IDOCK:   -2.03 KCAL/MOL
REMARK 922        TOTAL FREE ENERGY PREDICTED BY IDOCK:   -3.89 KCAL/MOL
REMARK 923 INTER-LIGAND FREE ENERGY PREDICTED BY IDOCK:   -2.74 KCAL/MOL
REMARK 924 INTRA-LIGAND FREE ENERGY PREDICTED BY IDOCK:   -1.15 KCAL/MOL
REMARK 927      BINDING AFFINITY PREDICTED BY RF-SCORE:    0.00 PKD
ROOT
HETATM    1  C   UNL     1      -9.538   2.562  71.050  1.00  0.00    -0.206 C  
HETATM    2  C   UNL     1      -8.442   2.319  70.029  1.00  0.00    -0.047 C  
ENDROOT
BRANCH   2   3
HETATM    3  O   UNL     1      -8.499   3.406  69.096  1.00  0.00    -0.059 OA 
BRANCH   3   4
HETATM    4  C   UNL     1      -7.311   3.987  68.793  1.00  0.00    -0.055 C  
HETATM    5  O   UNL     1      -6.256   3.395  68.625  1.00  0.00    -0.027 OA 
BRANCH   4   6
HETATM    6  C   UNL     1      -7.507   5.447  68.607  1.00  0.00    -0.075 C  
HETATM    7  C   UNL     1      -7.661   6.264  69.674  1.00  0.00    -0.094 C  
HETATM    8  N   UNL     1      -7.827   7.624  69.473  1.00  0.00    -0.113 NA 
HETATM    9  C   UNL     1      -7.656   5.877  71.137  1.00  0.00    -0.100 C  
HETATM   10  C   UNL     1      -7.956   8.237  68.245  1.00  0.00    -0.119 C  
HETATM   11  C   UNL     1      -8.232   9.723  68.300  1.00  0.00    -0.105 C  
HETATM   12  C   UNL     1      -7.830   7.514  67.106  1.00  0.00    -0.117 C  
HETATM   13  C   UNL     1      -7.511   6.009  67.168  1.00  0.00    -0.084 C  
BRANCH  12  14
HETATM   14  C   UNL     1      -8.057   8.196  65.804  1.00  0.00    -0.115 C  
HETATM   15  O   UNL     1      -9.157   8.524  65.383  1.00  0.00    -0.152 OA 
BRANCH  14  16
HETATM   16  O   UNL     1      -6.895   8.403  65.127  1.00  0.00    -0.066 OA 
HETATM   17  C   UNL     1      -7.093   8.853  63.784  1.00  0.00    -0.092 C  
ENDBRANCH  14  16
ENDBRANCH  12  14
BRANCH  13  18
HETATM   18  C   UNL     1      -8.431   5.195  66.250  1.00  0.00    -0.114 A  
HETATM   19  C   UNL     1      -9.827   5.250  66.386  1.00  0.00    -0.204 A  
HETATM   20  C   UNL     1      -7.877   4.395  65.230  1.00  0.00    -0.086 A  
HETATM   21  C   UNL     1     -10.655   4.537  65.516  1.00  0.00    -0.218 A  
HETATM   22  C   UNL     1      -8.716   3.705  64.345  1.00  0.00    -0.105 A  
HETATM   23  N   UNL     1      -8.132   2.940  63.237  1.00  0.00    -0.076 N  
HETATM   24  C   UNL     1     -10.106   3.770  64.489  1.00  0.00    -0.212 A  
HETATM   25  O   UNL     1      -6.899   2.940  63.119  1.00  0.00    -0.027 OA 
HETATM   26  O   UNL     1      -8.910   2.350  62.471  1.00  0.00    -0.074 OA 
ENDBRANCH  13  18
ENDBRANCH   4   6
ENDBRANCH   3   4
ENDBRANCH   2   3
TORSDOF 6
ENDMDL
MODEL      219
REMARK 921   NORMALIZED FREE ENERGY PREDICTED BY IDOCK:   -2.03 KCAL/MOL
REMARK 922        TOTAL FREE ENERGY PREDICTED BY IDOCK:   -3.89 KCAL/MOL
REMARK 923 INTER-LIGAND FREE ENERGY PREDICTED BY IDOCK:   -3.32 KCAL/MOL
REMARK 924 INTRA-LIGAND FREE ENERGY PREDICTED BY IDOCK:   -0.58 KCAL/MOL
REMARK 927      BINDING AFFINITY PREDICTED BY RF-SCORE:    0.00 PKD
ROOT
HETATM    1  C   UNL     1      -8.833   9.536  65.809  1.00  0.00    -0.193 C  
HETATM    2  C   UNL     1      -8.954   8.509  66.919  1.00  0.00    -0.143 C  
ENDROOT
BRANCH   2   3
HETATM    3  O   UNL     1      -8.880   7.218  66.296  1.00  0.00    -0.149 OA 
BRANCH   3   4
HETATM    4  C   UNL     1      -9.549   6.220  66.926  1.00  0.00    -0.147 C  
HETATM    5  O   UNL     1     -10.764   6.111  66.989  1.00  0.00    -0.277 OA 
BRANCH   4   6
HETATM    6  C   UNL     1      -8.578   5.227  67.450  1.00  0.00    -0.104 C  
HETATM    7  C   UNL     1      -8.168   4.191  66.683  1.00  0.00    -0.101 C  
HETATM    8  N   UNL     1      -7.251   3.288  67.191  1.00  0.00    -0.058 NA 
HETATM    9  C   UNL     1      -8.584   3.879  65.262  1.00  0.00    -0.114 C  
HETATM   10  C   UNL     1      -6.771   3.282  68.483  1.00  0.00    -0.045 C  
HETATM   11  C   UNL     1      -5.855   2.126  68.818  1.00  0.00    -0.023 C  
HETATM   12  C   UNL     1      -7.123   4.267  69.345  1.00  0.00    -0.050 C  
HETATM   13  C   UNL     1      -8.034   5.419  68.883  1.00  0.00    -0.094 C  
BRANCH  12  14
HETATM   14  C   UNL     1      -6.650   4.181  70.752  1.00  0.00    -0.031 C  
HETATM   15  O   UNL     1      -5.912   5.002  71.280  1.00  0.00    -0.016 OA 
BRANCH  14  16
HETATM   16  O   UNL     1      -7.123   3.074  71.384  1.00  0.00    -0.031 OA 
HETATM   17  C   UNL     1      -8.037   3.371  72.444  1.00  0.00    -0.068 C  
ENDBRANCH  14  16
ENDBRANCH  12  14
BRANCH  13  18
HETATM   18  C   UNL     1      -9.167   5.682  69.882  1.00  0.00    -0.173 A  
HETATM   19  C   UNL     1     -10.006   4.645  70.320  1.00  0.00    -0.309 A  
HETATM   20  C   UNL     1      -9.362   6.979  70.399  1.00  0.00    -0.159 A  
HETATM   21  C   UNL     1     -11.007   4.889  71.263  1.00  0.00     0.236 A  
HETATM   22  C   UNL     1     -10.350   7.209  71.365  1.00  0.00    -0.196 A  
HETATM   23  N   UNL     1     -10.492   8.545  71.957  1.00  0.00    -0.309 N  
HETATM   24  C   UNL     1     -11.178   6.167  71.795  1.00  0.00    -0.338 A  
HETATM   25  O   UNL     1      -9.713   9.432  71.579  1.00  0.00    -0.226 OA 
HETATM   26  O   UNL     1     -11.374   8.705  72.815  1.00  0.00    -0.198 OA 
ENDBRANCH  13  18
ENDBRANCH   4   6
ENDBRANCH   3   4
ENDBRANCH   2   3
TORSDOF 6
ENDMDL
MODEL      220
REMARK 921   NORMALIZED FREE ENERGY PREDICTED BY IDOCK:   -1.90 KCAL/MOL
REMARK 922        TOTAL FREE ENERGY PREDICTED BY IDOCK:   -3.72 KCAL/MOL
REMARK 923 INTER-LIGAND FREE ENERGY PREDICTED BY IDOCK:   -3.18 KCAL/MOL
REMARK 924 INTRA-LIGAND FREE ENERGY PREDICTED BY IDOCK:   -0.54 KCAL/MOL
REMARK 927      BINDING AFFINITY PREDICTED BY RF-SCORE:    0.00 PKD
ROOT
HETATM    1  C   UNL     1      -7.557  11.341  67.096  1.00  0.00    -0.137 C  
HETATM    2  C   UNL     1      -7.698  10.483  68.340  1.00  0.00    -0.104 C  
ENDROOT
BRANCH   2   3
HETATM    3  O   UNL     1      -6.373  10.086  68.718  1.00  0.00    -0.041 OA 
BRANCH   3   4
HETATM    4  C   UNL     1      -6.204   8.765  68.977  1.00  0.00    -0.044 C  
HETATM    5  O   UNL     1      -5.130   8.184  69.024  1.00  0.00    -0.023 OA 
BRANCH   4   6
HETATM    6  C   UNL     1      -7.519   8.149  69.286  1.00  0.00    -0.089 C  
HETATM    7  C   UNL     1      -7.919   7.983  70.568  1.00  0.00    -0.096 C  
HETATM    8  N   UNL     1      -9.156   7.419  70.828  1.00  0.00    -0.151 NA 
HETATM    9  C   UNL     1      -7.167   8.368  71.823  1.00  0.00    -0.105 C  
HETATM   10  C   UNL     1     -10.009   6.899  69.878  1.00  0.00    -0.176 C  
HETATM   11  C   UNL     1     -11.256   6.246  70.430  1.00  0.00    -0.439 C  
HETATM   12  C   UNL     1      -9.706   7.000  68.561  1.00  0.00    -0.141 C  
HETATM   13  C   UNL     1      -8.423   7.721  68.109  1.00  0.00    -0.124 C  
BRANCH  12  14
HETATM   14  C   UNL     1     -10.611   6.355  67.573  1.00  0.00    -0.283 C  
HETATM   15  O   UNL     1     -11.393   6.966  66.858  1.00  0.00    -0.269 OA 
BRANCH  14  16
HETATM   16  O   UNL     1     -10.478   5.001  67.565  1.00  0.00    -0.133 OA 
HETATM   17  C   UNL     1     -10.110   4.474  66.288  1.00  0.00    -0.254 C  
ENDBRANCH  14  16
ENDBRANCH  12  14
BRANCH  13  18
HETATM   18  C   UNL     1      -7.645   6.901  67.073  1.00  0.00    -0.102 A  
HETATM   19  C   UNL     1      -7.044   5.679  67.415  1.00  0.00    -0.074 A  
HETATM   20  C   UNL     1      -7.548   7.358  65.743  1.00  0.00    -0.090 A  
HETATM   21  C   UNL     1      -6.376   4.920  66.452  1.00  0.00    -0.036 A  
HETATM   22  C   UNL     1      -6.899   6.578  64.778  1.00  0.00    -0.050 A  
HETATM   23  N   UNL     1      -6.873   7.024  63.379  1.00  0.00    -0.050 N  
HETATM   24  C   UNL     1      -6.307   5.361  65.131  1.00  0.00    -0.034 A  
HETATM   25  O   UNL     1      -7.443   8.088  63.099  1.00  0.00    -0.104 OA 
HETATM   26  O   UNL     1      -6.294   6.300  62.554  1.00  0.00    -0.029 OA 
ENDBRANCH  13  18
ENDBRANCH   4   6
ENDBRANCH   3   4
ENDBRANCH   2   3
TORSDOF 6
ENDMDL
MODEL      221
REMARK 921   NORMALIZED FREE ENERGY PREDICTED BY IDOCK:   -1.89 KCAL/MOL
REMARK 922        TOTAL FREE ENERGY PREDICTED BY IDOCK:   -3.70 KCAL/MOL
REMARK 923 INTER-LIGAND FREE ENERGY PREDICTED BY IDOCK:   -4.00 KCAL/MOL
REMARK 924 INTRA-LIGAND FREE ENERGY PREDICTED BY IDOCK:    0.30 KCAL/MOL
REMARK 927      BINDING AFFINITY PREDICTED BY RF-SCORE:    0.00 PKD
ROOT
HETATM    1  C   UNL     1      -9.580  12.908  68.042  1.00  0.00    -0.221 C  
HETATM    2  C   UNL     1      -8.740  11.687  68.368  1.00  0.00    -0.158 C  
ENDROOT
BRANCH   2   3
HETATM    3  O   UNL     1      -9.404  11.004  69.441  1.00  0.00    -0.015 OA 
BRANCH   3   4
HETATM    4  C   UNL     1     -10.371  10.127  69.072  1.00  0.00    -0.212 C  
HETATM    5  O   UNL     1     -11.528  10.417  68.810  1.00  0.00    -0.241 OA 
BRANCH   4   6
HETATM    6  C   UNL     1      -9.785   8.768  68.946  1.00  0.00    -0.174 C  
HETATM    7  C   UNL     1      -9.238   8.151  70.018  1.00  0.00    -0.155 C  
HETATM    8  N   UNL     1      -8.712   6.878  69.877  1.00  0.00    -0.141 NA 
HETATM    9  C   UNL     1      -9.136   8.681  71.432  1.00  0.00    -0.295 C  
HETATM   10  C   UNL     1      -8.596   6.193  68.687  1.00  0.00    -0.113 C  
HETATM   11  C   UNL     1      -7.890   4.859  68.785  1.00  0.00    -0.077 C  
HETATM   12  C   UNL     1      -9.099   6.721  67.544  1.00  0.00    -0.117 C  
HETATM   13  C   UNL     1      -9.834   8.074  67.567  1.00  0.00    -0.224 C  
BRANCH  12  14
HETATM   14  C   UNL     1      -8.881   5.989  66.268  1.00  0.00    -0.141 C  
HETATM   15  O   UNL     1      -8.186   6.401  65.351  1.00  0.00    -0.133 OA 
BRANCH  14  16
HETATM   16  O   UNL     1      -9.558   4.809  66.234  1.00  0.00    -0.147 OA 
HETATM   17  C   UNL     1     -10.929   4.951  65.853  1.00  0.00     0.062 C  
ENDBRANCH  14  16
ENDBRANCH  12  14
BRANCH  13  18
HETATM   18  C   UNL     1      -9.344   9.005  66.452  1.00  0.00    -0.264 A  
HETATM   19  C   UNL     1      -7.980   9.105  66.135  1.00  0.00    -0.103 A  
HETATM   20  C   UNL     1     -10.273   9.758  65.706  1.00  0.00    -0.222 A  
HETATM   21  C   UNL     1      -7.550   9.924  65.089  1.00  0.00    -0.132 A  
HETATM   22  C   UNL     1      -9.836  10.556  64.640  1.00  0.00    -0.340 A  
HETATM   23  N   UNL     1     -10.818  11.273  63.818  1.00  0.00    -0.381 N  
HETATM   24  C   UNL     1      -8.475  10.646  64.333  1.00  0.00    -0.070 A  
HETATM   25  O   UNL     1     -12.018  11.137  64.098  1.00  0.00     0.265 OA 
HETATM   26  O   UNL     1     -10.391  11.963  62.880  1.00  0.00    -0.247 OA 
ENDBRANCH  13  18
ENDBRANCH   4   6
ENDBRANCH   3   4
ENDBRANCH   2   3
TORSDOF 6
ENDMDL
MODEL      222
REMARK 921   NORMALIZED FREE ENERGY PREDICTED BY IDOCK:   -1.89 KCAL/MOL
REMARK 922        TOTAL FREE ENERGY PREDICTED BY IDOCK:   -3.70 KCAL/MOL
REMARK 923 INTER-LIGAND FREE ENERGY PREDICTED BY IDOCK:   -2.78 KCAL/MOL
REMARK 924 INTRA-LIGAND FREE ENERGY PREDICTED BY IDOCK:   -0.92 KCAL/MOL
REMARK 927      BINDING AFFINITY PREDICTED BY RF-SCORE:    0.00 PKD
ROOT
HETATM    1  C   UNL     1      -9.297   4.155  71.510  1.00  0.00    -0.207 C  
HETATM    2  C   UNL     1      -9.546   4.887  70.204  1.00  0.00    -0.193 C  
ENDROOT
BRANCH   2   3
HETATM    3  O   UNL     1      -9.175   3.987  69.150  1.00  0.00    -0.124 OA 
BRANCH   3   4
HETATM    4  C   UNL     1      -8.022   4.284  68.500  1.00  0.00    -0.073 C  
HETATM    5  O   UNL     1      -7.103   4.947  68.956  1.00  0.00    -0.051 OA 
BRANCH   4   6
HETATM    6  C   UNL     1      -8.007   3.602  67.182  1.00  0.00    -0.087 C  
HETATM    7  C   UNL     1      -7.475   2.364  67.051  1.00  0.00    -0.061 C  
HETATM    8  N   UNL     1      -7.488   1.745  65.814  1.00  0.00    -0.061 NA 
HETATM    9  C   UNL     1      -6.854   1.512  68.136  1.00  0.00    -0.032 C  
HETATM   10  C   UNL     1      -7.912   2.324  64.638  1.00  0.00    -0.074 C  
HETATM   11  C   UNL     1      -7.727   1.471  63.403  1.00  0.00    -0.055 C  
HETATM   12  C   UNL     1      -8.454   3.566  64.647  1.00  0.00    -0.096 C  
HETATM   13  C   UNL     1      -8.630   4.331  65.971  1.00  0.00    -0.113 C  
BRANCH  12  14
HETATM   14  C   UNL     1      -8.825   4.189  63.348  1.00  0.00    -0.116 C  
HETATM   15  O   UNL     1      -8.019   4.511  62.486  1.00  0.00    -0.064 OA 
BRANCH  14  16
HETATM   16  O   UNL     1     -10.168   4.369  63.233  1.00  0.00    -0.024 OA 
HETATM   17  C   UNL     1     -10.906   3.144  63.203  1.00  0.00    -0.196 C  
ENDBRANCH  14  16
ENDBRANCH  12  14
BRANCH  13  18
HETATM   18  C   UNL     1      -8.123   5.775  65.866  1.00  0.00    -0.113 A  
HETATM   19  C   UNL     1      -6.823   6.058  65.421  1.00  0.00    -0.052 A  
HETATM   20  C   UNL     1      -8.980   6.846  66.191  1.00  0.00    -0.157 A  
HETATM   21  C   UNL     1      -6.388   7.379  65.287  1.00  0.00    -0.038 A  
HETATM   22  C   UNL     1      -8.545   8.168  66.028  1.00  0.00    -0.147 A  
HETATM   23  N   UNL     1      -9.471   9.276  66.292  1.00  0.00    -0.203 N  
HETATM   24  C   UNL     1      -7.248   8.437  65.582  1.00  0.00    -0.075 A  
HETATM   25  O   UNL     1     -10.624   8.995  66.647  1.00  0.00    -0.211 OA 
HETATM   26  O   UNL     1      -9.049  10.431  66.129  1.00  0.00    -0.154 OA 
ENDBRANCH  13  18
ENDBRANCH   4   6
ENDBRANCH   3   4
ENDBRANCH   2   3
TORSDOF 6
ENDMDL
MODEL      223
REMARK 921   NORMALIZED FREE ENERGY PREDICTED BY IDOCK:   -1.84 KCAL/MOL
REMARK 922        TOTAL FREE ENERGY PREDICTED BY IDOCK:   -3.64 KCAL/MOL
REMARK 923 INTER-LIGAND FREE ENERGY PREDICTED BY IDOCK:   -2.97 KCAL/MOL
REMARK 924 INTRA-LIGAND FREE ENERGY PREDICTED BY IDOCK:   -0.67 KCAL/MOL
REMARK 927      BINDING AFFINITY PREDICTED BY RF-SCORE:    0.00 PKD
ROOT
HETATM    1  C   UNL     1     -10.823   8.980  70.497  1.00  0.00    -0.296 C  
HETATM    2  C   UNL     1     -10.758   7.478  70.294  1.00  0.00    -0.238 C  
ENDROOT
BRANCH   2   3
HETATM    3  O   UNL     1      -9.367   7.125  70.272  1.00  0.00    -0.156 OA 
BRANCH   3   4
HETATM    4  C   UNL     1      -8.744   7.258  69.074  1.00  0.00    -0.132 C  
HETATM    5  O   UNL     1      -8.214   8.279  68.661  1.00  0.00    -0.118 OA 
BRANCH   4   6
HETATM    6  C   UNL     1      -8.723   5.947  68.378  1.00  0.00    -0.112 C  
HETATM    7  C   UNL     1      -9.691   5.622  67.490  1.00  0.00    -0.124 C  
HETATM    8  N   UNL     1      -9.640   4.399  66.844  1.00  0.00    -0.185 NA 
HETATM    9  C   UNL     1     -10.874   6.467  67.069  1.00  0.00    -0.464 C  
HETATM   10  C   UNL     1      -8.723   3.402  67.099  1.00  0.00    -0.122 C  
HETATM   11  C   UNL     1      -8.946   2.119  66.330  1.00  0.00    -0.105 C  
HETATM   12  C   UNL     1      -7.714   3.612  67.979  1.00  0.00    -0.069 C  
HETATM   13  C   UNL     1      -7.561   4.975  68.679  1.00  0.00    -0.078 C  
BRANCH  12  14
HETATM   14  C   UNL     1      -6.794   2.485  68.287  1.00  0.00    -0.043 C  
HETATM   15  O   UNL     1      -7.115   1.492  68.926  1.00  0.00    -0.036 OA 
BRANCH  14  16
HETATM   16  O   UNL     1      -5.547   2.692  67.786  1.00  0.00    -0.017 OA 
HETATM   17  C   UNL     1      -5.130   1.680  66.865  1.00  0.00    -0.005 C  
ENDBRANCH  14  16
ENDBRANCH  12  14
BRANCH  13  18
HETATM   18  C   UNL     1      -7.340   4.817  70.188  1.00  0.00    -0.054 A  
HETATM   19  C   UNL     1      -6.221   5.380  70.822  1.00  0.00    -0.026 A  
HETATM   20  C   UNL     1      -8.284   4.120  70.969  1.00  0.00    -0.079 A  
HETATM   21  C   UNL     1      -6.053   5.266  72.204  1.00  0.00    -0.030 A  
HETATM   22  C   UNL     1      -8.122   4.033  72.357  1.00  0.00    -0.086 A  
HETATM   23  N   UNL     1      -9.152   3.375  73.171  1.00  0.00    -0.097 N  
HETATM   24  C   UNL     1      -7.004   4.601  72.977  1.00  0.00    -0.072 A  
HETATM   25  O   UNL     1     -10.147   2.920  72.589  1.00  0.00    -0.142 OA 
HETATM   26  O   UNL     1      -8.974   3.327  74.398  1.00  0.00    -0.085 OA 
ENDBRANCH  13  18
ENDBRANCH   4   6
ENDBRANCH   3   4
ENDBRANCH   2   3
TORSDOF 6
ENDMDL
MODEL      224
REMARK 921   NORMALIZED FREE ENERGY PREDICTED BY IDOCK:   -1.84 KCAL/MOL
REMARK 922        TOTAL FREE ENERGY PREDICTED BY IDOCK:   -3.64 KCAL/MOL
REMARK 923 INTER-LIGAND FREE ENERGY PREDICTED BY IDOCK:   -3.54 KCAL/MOL
REMARK 924 INTRA-LIGAND FREE ENERGY PREDICTED BY IDOCK:   -0.10 KCAL/MOL
REMARK 927      BINDING AFFINITY PREDICTED BY RF-SCORE:    0.00 PKD
ROOT
HETATM    1  C   UNL     1     -10.396   7.726  66.548  1.00  0.00    -0.126 C  
HETATM    2  C   UNL     1      -9.989   9.098  66.042  1.00  0.00    -0.223 C  
ENDROOT
BRANCH   2   3
HETATM    3  O   UNL     1      -9.316   9.753  67.127  1.00  0.00    -0.139 OA 
BRANCH   3   4
HETATM    4  C   UNL     1     -10.118  10.339  68.051  1.00  0.00    -0.162 C  
HETATM    5  O   UNL     1     -10.957  11.197  67.818  1.00  0.00    -0.222 OA 
BRANCH   4   6
HETATM    6  C   UNL     1      -9.885   9.714  69.377  1.00  0.00    -0.203 C  
HETATM    7  C   UNL     1     -10.821   9.793  70.351  1.00  0.00    -0.311 C  
HETATM    8  N   UNL     1     -10.585   9.188  71.573  1.00  0.00    -0.340 NA 
HETATM    9  C   UNL     1     -12.172  10.470  70.275  1.00  0.00    -0.393 C  
HETATM   10  C   UNL     1      -9.407   8.577  71.944  1.00  0.00    -0.267 C  
HETATM   11  C   UNL     1      -9.367   8.084  73.374  1.00  0.00    -0.323 C  
HETATM   12  C   UNL     1      -8.394   8.451  71.053  1.00  0.00    -0.155 C  
HETATM   13  C   UNL     1      -8.559   8.957  69.608  1.00  0.00    -0.131 C  
BRANCH  12  14
HETATM   14  C   UNL     1      -7.110   7.859  71.516  1.00  0.00    -0.065 C  
HETATM   15  O   UNL     1      -6.272   8.465  72.168  1.00  0.00    -0.055 OA 
BRANCH  14  16
HETATM   16  O   UNL     1      -6.971   6.566  71.118  1.00  0.00    -0.065 OA 
HETATM   17  C   UNL     1      -5.609   6.177  70.917  1.00  0.00    -0.018 C  
ENDBRANCH  14  16
ENDBRANCH  12  14
BRANCH  13  18
HETATM   18  C   UNL     1      -7.353   9.790  69.157  1.00  0.00    -0.079 A  
HETATM   19  C   UNL     1      -6.373   9.249  68.310  1.00  0.00    -0.054 A  
HETATM   20  C   UNL     1      -7.230  11.131  69.571  1.00  0.00    -0.058 A  
HETATM   21  C   UNL     1      -5.302  10.031  67.870  1.00  0.00    -0.038 A  
HETATM   22  C   UNL     1      -6.167  11.916  69.104  1.00  0.00    -0.085 A  
HETATM   23  N   UNL     1      -6.092  13.334  69.475  1.00  0.00    -0.106 N  
HETATM   24  C   UNL     1      -5.198  11.367  68.258  1.00  0.00    -0.039 A  
HETATM   25  O   UNL     1      -6.991  13.794  70.194  1.00  0.00     0.193 OA 
HETATM   26  O   UNL     1      -5.140  13.997  69.035  1.00  0.00    -0.074 OA 
ENDBRANCH  13  18
ENDBRANCH   4   6
ENDBRANCH   3   4
ENDBRANCH   2   3
TORSDOF 6
ENDMDL
MODEL      225
REMARK 921   NORMALIZED FREE ENERGY PREDICTED BY IDOCK:   -1.80 KCAL/MOL
REMARK 922        TOTAL FREE ENERGY PREDICTED BY IDOCK:   -3.58 KCAL/MOL
REMARK 923 INTER-LIGAND FREE ENERGY PREDICTED BY IDOCK:   -6.14 KCAL/MOL
REMARK 924 INTRA-LIGAND FREE ENERGY PREDICTED BY IDOCK:    2.56 KCAL/MOL
REMARK 927      BINDING AFFINITY PREDICTED BY RF-SCORE:    0.00 PKD
ROOT
HETATM    1  C   UNL     1      -6.058  17.661  68.240  1.00  0.00    -0.165 C  
HETATM    2  C   UNL     1      -7.444  17.761  67.631  1.00  0.00    -0.201 C  
ENDROOT
BRANCH   2   3
HETATM    3  O   UNL     1      -7.934  16.418  67.500  1.00  0.00    -0.144 OA 
BRANCH   3   4
HETATM    4  C   UNL     1      -8.657  15.949  68.547  1.00  0.00    -0.190 C  
HETATM    5  O   UNL     1      -9.237  16.638  69.372  1.00  0.00    -0.137 OA 
BRANCH   4   6
HETATM    6  C   UNL     1      -8.713  14.467  68.486  1.00  0.00    -0.180 C  
HETATM    7  C   UNL     1      -7.633  13.722  68.818  1.00  0.00    -0.099 C  
HETATM    8  N   UNL     1      -7.717  12.341  68.767  1.00  0.00    -0.066 NA 
HETATM    9  C   UNL     1      -6.282  14.218  69.283  1.00  0.00    -0.108 C  
HETATM   10  C   UNL     1      -8.797  11.626  68.297  1.00  0.00    -0.167 C  
HETATM   11  C   UNL     1      -8.598  10.127  68.249  1.00  0.00    -0.116 C  
HETATM   12  C   UNL     1      -9.931  12.269  67.926  1.00  0.00    -0.202 C  
HETATM   13  C   UNL     1     -10.037  13.800  68.053  1.00  0.00    -0.245 C  
BRANCH  12  14
HETATM   14  C   UNL     1     -11.044  11.469  67.348  1.00  0.00    -0.282 C  
HETATM   15  O   UNL     1     -10.961  10.826  66.311  1.00  0.00    -0.142 OA 
BRANCH  14  16
HETATM   16  O   UNL     1     -12.173  11.546  68.104  1.00  0.00    -0.576 OA 
HETATM   17  C   UNL     1     -11.945  11.295  69.493  1.00  0.00    -0.351 C  
ENDBRANCH  14  16
ENDBRANCH  12  14
BRANCH  13  18
HETATM   18  C   UNL     1     -10.595  14.439  66.775  1.00  0.00    -0.282 A  
HETATM   19  C   UNL     1     -10.292  15.766  66.434  1.00  0.00    -0.306 A  
HETATM   20  C   UNL     1     -11.404  13.680  65.905  1.00  0.00    -0.317 A  
HETATM   21  C   UNL     1     -10.770  16.323  65.246  1.00  0.00    -0.349 A  
HETATM   22  C   UNL     1     -11.857  14.238  64.703  1.00  0.00    -0.448 A  
HETATM   23  N   UNL     1     -12.632  13.415  63.766  1.00  0.00    -0.193 N  
HETATM   24  C   UNL     1     -11.547  15.561  64.373  1.00  0.00    -0.258 A  
HETATM   25  O   UNL     1     -12.852  12.236  64.076  1.00  0.00    -0.696 OA 
HETATM   26  O   UNL     1     -13.009  13.944  62.708  1.00  0.00     0.081 OA 
ENDBRANCH  13  18
ENDBRANCH   4   6
ENDBRANCH   3   4
ENDBRANCH   2   3
TORSDOF 6
ENDMDL
MODEL      226
REMARK 921   NORMALIZED FREE ENERGY PREDICTED BY IDOCK:   -1.72 KCAL/MOL
REMARK 922        TOTAL FREE ENERGY PREDICTED BY IDOCK:   -3.47 KCAL/MOL
REMARK 923 INTER-LIGAND FREE ENERGY PREDICTED BY IDOCK:   -6.06 KCAL/MOL
REMARK 924 INTRA-LIGAND FREE ENERGY PREDICTED BY IDOCK:    2.59 KCAL/MOL
REMARK 927      BINDING AFFINITY PREDICTED BY RF-SCORE:    0.00 PKD
ROOT
HETATM    1  C   UNL     1     -11.373  15.726  64.837  1.00  0.00    -0.284 C  
HETATM    2  C   UNL     1     -12.641  15.034  65.302  1.00  0.00     0.247 C  
ENDROOT
BRANCH   2   3
HETATM    3  O   UNL     1     -12.236  13.809  65.928  1.00  0.00    -0.409 OA 
BRANCH   3   4
HETATM    4  C   UNL     1     -10.915  13.704  66.220  1.00  0.00    -0.299 C  
HETATM    5  O   UNL     1     -10.134  14.639  66.312  1.00  0.00    -0.270 OA 
BRANCH   4   6
HETATM    6  C   UNL     1     -10.581  12.285  66.500  1.00  0.00    -0.263 C  
HETATM    7  C   UNL     1     -10.724  11.340  65.542  1.00  0.00    -0.220 C  
HETATM    8  N   UNL     1     -10.391  10.027  65.825  1.00  0.00    -0.186 NA 
HETATM    9  C   UNL     1     -11.205  11.538  64.121  1.00  0.00    -0.393 C  
HETATM   10  C   UNL     1     -10.010   9.551  67.061  1.00  0.00    -0.213 C  
HETATM   11  C   UNL     1      -9.801   8.055  67.132  1.00  0.00    -0.274 C  
HETATM   12  C   UNL     1      -9.845  10.406  68.099  1.00  0.00    -0.168 C  
HETATM   13  C   UNL     1     -10.050  11.920  67.904  1.00  0.00    -0.199 C  
BRANCH  12  14
HETATM   14  C   UNL     1      -9.513   9.845  69.436  1.00  0.00    -0.213 C  
HETATM   15  O   UNL     1      -8.444  10.016  70.005  1.00  0.00    -0.187 OA 
BRANCH  14  16
HETATM   16  O   UNL     1     -10.534   9.106  69.948  1.00  0.00    -0.206 OA 
HETATM   17  C   UNL     1     -10.094   8.017  70.765  1.00  0.00    -0.192 C  
ENDBRANCH  14  16
ENDBRANCH  12  14
BRANCH  13  18
HETATM   18  C   UNL     1     -10.925  12.523  69.009  1.00  0.00    -0.237 A  
HETATM   19  C   UNL     1     -11.014  13.912  69.190  1.00  0.00    -0.253 A  
HETATM   20  C   UNL     1     -11.681  11.678  69.846  1.00  0.00    -0.414 A  
HETATM   21  C   UNL     1     -11.849  14.450  70.172  1.00  0.00    -0.380 A  
HETATM   22  C   UNL     1     -12.537  12.226  70.810  1.00  0.00    -0.213 A  
HETATM   23  N   UNL     1     -13.380  11.342  71.623  1.00  0.00    -0.295 N  
HETATM   24  C   UNL     1     -12.618  13.613  70.979  1.00  0.00    -0.441 A  
HETATM   25  O   UNL     1     -13.309  10.122  71.416  1.00  0.00    -0.367 OA 
HETATM   26  O   UNL     1     -14.130  11.868  72.460  1.00  0.00     0.273 OA 
ENDBRANCH  13  18
ENDBRANCH   4   6
ENDBRANCH   3   4
ENDBRANCH   2   3
TORSDOF 6
ENDMDL
MODEL      227
REMARK 921   NORMALIZED FREE ENERGY PREDICTED BY IDOCK:   -1.70 KCAL/MOL
REMARK 922        TOTAL FREE ENERGY PREDICTED BY IDOCK:   -3.45 KCAL/MOL
REMARK 923 INTER-LIGAND FREE ENERGY PREDICTED BY IDOCK:   -5.23 KCAL/MOL
REMARK 924 INTRA-LIGAND FREE ENERGY PREDICTED BY IDOCK:    1.78 KCAL/MOL
REMARK 927      BINDING AFFINITY PREDICTED BY RF-SCORE:    0.00 PKD
ROOT
HETATM    1  C   UNL     1     -12.058  11.209  70.653  1.00  0.00    -0.477 C  
HETATM    2  C   UNL     1     -11.200  10.860  69.451  1.00  0.00    -0.272 C  
ENDROOT
BRANCH   2   3
HETATM    3  O   UNL     1     -11.362  11.925  68.504  1.00  0.00    -0.228 OA 
BRANCH   3   4
HETATM    4  C   UNL     1     -10.265  12.691  68.283  1.00  0.00    -0.239 C  
HETATM    5  O   UNL     1      -9.169  12.522  68.796  1.00  0.00    -0.023 OA 
BRANCH   4   6
HETATM    6  C   UNL     1     -10.573  13.712  67.250  1.00  0.00    -0.267 C  
HETATM    7  C   UNL     1     -11.230  13.371  66.117  1.00  0.00    -0.295 C  
HETATM    8  N   UNL     1     -11.518  14.345  65.178  1.00  0.00    -0.347 NA 
HETATM    9  C   UNL     1     -11.737  12.000  65.726  1.00  0.00    -0.313 C  
HETATM   10  C   UNL     1     -11.099  15.657  65.237  1.00  0.00    -0.303 C  
HETATM   11  C   UNL     1     -11.459  16.497  64.032  1.00  0.00     0.740 C  
HETATM   12  C   UNL     1     -10.423  16.108  66.321  1.00  0.00    -0.321 C  
HETATM   13  C   UNL     1     -10.143  15.172  67.511  1.00  0.00    -0.232 C  
BRANCH  12  14
HETATM   14  C   UNL     1      -9.918  17.507  66.312  1.00  0.00    -0.308 C  
HETATM   15  O   UNL     1      -8.848  17.847  65.828  1.00  0.00    -0.495 OA 
BRANCH  14  16
HETATM   16  O   UNL     1     -10.782  18.366  66.917  1.00  0.00    -0.370 OA 
HETATM   17  C   UNL     1     -10.508  19.741  66.633  1.00  0.00    -0.497 C  
ENDBRANCH  14  16
ENDBRANCH  12  14
BRANCH  13  18
HETATM   18  C   UNL     1      -8.681  15.253  67.967  1.00  0.00    -0.160 A  
HETATM   19  C   UNL     1      -7.762  14.242  67.645  1.00  0.00    -0.190 A  
HETATM   20  C   UNL     1      -8.233  16.373  68.697  1.00  0.00    -0.223 A  
HETATM   21  C   UNL     1      -6.424  14.348  68.028  1.00  0.00    -0.158 A  
HETATM   22  C   UNL     1      -6.883  16.485  69.053  1.00  0.00    -0.203 A  
HETATM   23  N   UNL     1      -6.410  17.691  69.742  1.00  0.00    -0.188 N  
HETATM   24  C   UNL     1      -5.977  15.471  68.725  1.00  0.00    -0.099 A  
HETATM   25  O   UNL     1      -7.236  18.584  69.980  1.00  0.00     0.418 OA 
HETATM   26  O   UNL     1      -5.206  17.755  70.034  1.00  0.00    -0.183 OA 
ENDBRANCH  13  18
ENDBRANCH   4   6
ENDBRANCH   3   4
ENDBRANCH   2   3
TORSDOF 6
ENDMDL
MODEL      228
REMARK 921   NORMALIZED FREE ENERGY PREDICTED BY IDOCK:   -1.66 KCAL/MOL
REMARK 922        TOTAL FREE ENERGY PREDICTED BY IDOCK:   -3.39 KCAL/MOL
REMARK 923 INTER-LIGAND FREE ENERGY PREDICTED BY IDOCK:   -6.01 KCAL/MOL
REMARK 924 INTRA-LIGAND FREE ENERGY PREDICTED BY IDOCK:    2.62 KCAL/MOL
REMARK 927      BINDING AFFINITY PREDICTED BY RF-SCORE:    0.00 PKD
ROOT
HETATM    1  C   UNL     1      -5.216  15.776  69.976  1.00  0.00    -0.128 C  
HETATM    2  C   UNL     1      -6.262  16.447  69.105  1.00  0.00    -0.169 C  
ENDROOT
BRANCH   2   3
HETATM    3  O   UNL     1      -6.849  15.416  68.298  1.00  0.00    -0.107 OA 
BRANCH   3   4
HETATM    4  C   UNL     1      -7.892  14.752  68.857  1.00  0.00    -0.152 C  
HETATM    5  O   UNL     1      -8.534  15.129  69.825  1.00  0.00    -0.157 OA 
BRANCH   4   6
HETATM    6  C   UNL     1      -8.192  13.539  68.056  1.00  0.00    -0.163 C  
HETATM    7  C   UNL     1      -7.248  12.589  67.861  1.00  0.00    -0.115 C  
HETATM    8  N   UNL     1      -7.559  11.461  67.122  1.00  0.00    -0.137 NA 
HETATM    9  C   UNL     1      -5.829  12.583  68.385  1.00  0.00    -0.057 C  
HETATM   10  C   UNL     1      -8.747  11.247  66.457  1.00  0.00    -0.178 C  
HETATM   11  C   UNL     1      -8.799   9.979  65.635  1.00  0.00    -0.184 C  
HETATM   12  C   UNL     1      -9.762  12.138  66.572  1.00  0.00    -0.234 C  
HETATM   13  C   UNL     1      -9.612  13.380  67.469  1.00  0.00    -0.221 C  
BRANCH  12  14
HETATM   14  C   UNL     1     -10.998  11.913  65.775  1.00  0.00    -0.311 C  
HETATM   15  O   UNL     1     -11.081  12.105  64.570  1.00  0.00    -0.300 OA 
BRANCH  14  16
HETATM   16  O   UNL     1     -12.031  11.479  66.546  1.00  0.00    -0.386 OA 
HETATM   17  C   UNL     1     -11.834  11.711  67.943  1.00  0.00    -0.203 C  
ENDBRANCH  14  16
ENDBRANCH  12  14
BRANCH  13  18
HETATM   18  C   UNL     1     -10.069  14.657  66.753  1.00  0.00    -0.266 A  
HETATM   19  C   UNL     1     -10.535  14.621  65.429  1.00  0.00    -0.400 A  
HETATM   20  C   UNL     1     -10.051  15.890  67.435  1.00  0.00    -0.252 A  
HETATM   21  C   UNL     1     -10.989  15.783  64.802  1.00  0.00    -0.410 A  
HETATM   22  C   UNL     1     -10.534  17.047  66.808  1.00  0.00    -0.257 A  
HETATM   23  N   UNL     1     -10.587  18.310  67.553  1.00  0.00    -0.419 N  
HETATM   24  C   UNL     1     -10.998  16.997  65.490  1.00  0.00     0.025 A  
HETATM   25  O   UNL     1     -10.204  18.304  68.732  1.00  0.00    -0.378 OA 
HETATM   26  O   UNL     1     -11.028  19.309  66.965  1.00  0.00    -0.454 OA 
ENDBRANCH  13  18
ENDBRANCH   4   6
ENDBRANCH   3   4
ENDBRANCH   2   3
TORSDOF 6
ENDMDL
MODEL      229
REMARK 921   NORMALIZED FREE ENERGY PREDICTED BY IDOCK:   -1.63 KCAL/MOL
REMARK 922        TOTAL FREE ENERGY PREDICTED BY IDOCK:   -3.35 KCAL/MOL
REMARK 923 INTER-LIGAND FREE ENERGY PREDICTED BY IDOCK:   -3.88 KCAL/MOL
REMARK 924 INTRA-LIGAND FREE ENERGY PREDICTED BY IDOCK:    0.53 KCAL/MOL
REMARK 927      BINDING AFFINITY PREDICTED BY RF-SCORE:    0.00 PKD
ROOT
HETATM    1  C   UNL     1      -6.852  11.115  68.974  1.00  0.00    -0.092 C  
HETATM    2  C   UNL     1      -8.188  11.805  68.768  1.00  0.00    -0.027 C  
ENDROOT
BRANCH   2   3
HETATM    3  O   UNL     1      -9.175  10.770  68.667  1.00  0.00    -0.168 OA 
BRANCH   3   4
HETATM    4  C   UNL     1     -10.436  11.182  68.380  1.00  0.00    -0.188 C  
HETATM    5  O   UNL     1     -11.400  10.450  68.216  1.00  0.00    -0.284 OA 
BRANCH   4   6
HETATM    6  C   UNL     1     -10.484  12.666  68.385  1.00  0.00    -0.248 C  
HETATM    7  C   UNL     1     -11.204  13.330  69.319  1.00  0.00    -0.208 C  
HETATM    8  N   UNL     1     -11.220  14.714  69.310  1.00  0.00    -0.269 NA 
HETATM    9  C   UNL     1     -12.020  12.734  70.445  1.00  0.00    -0.331 C  
HETATM   10  C   UNL     1     -10.637  15.510  68.348  1.00  0.00    -0.252 C  
HETATM   11  C   UNL     1     -10.887  16.993  68.511  1.00  0.00    -0.310 C  
HETATM   12  C   UNL     1      -9.900  14.953  67.357  1.00  0.00    -0.221 C  
HETATM   13  C   UNL     1      -9.680  13.430  67.310  1.00  0.00    -0.232 C  
BRANCH  12  14
HETATM   14  C   UNL     1      -9.356  15.839  66.293  1.00  0.00    -0.325 C  
HETATM   15  O   UNL     1      -9.924  16.069  65.234  1.00  0.00    -0.458 OA 
BRANCH  14  16
HETATM   16  O   UNL     1      -8.144  16.355  66.630  1.00  0.00    -0.225 OA 
HETATM   17  C   UNL     1      -7.399  15.523  67.524  1.00  0.00    -0.189 C  
ENDBRANCH  14  16
ENDBRANCH  12  14
BRANCH  13  18
HETATM   18  C   UNL     1      -9.935  12.861  65.909  1.00  0.00    -0.273 A  
HETATM   19  C   UNL     1      -8.899  12.279  65.161  1.00  0.00     0.857 A  
HETATM   20  C   UNL     1     -11.234  12.891  65.364  1.00  0.00    -0.314 A  
HETATM   21  C   UNL     1      -9.153  11.726  63.904  1.00  0.00     0.320 A  
HETATM   22  C   UNL     1     -11.485  12.310  64.114  1.00  0.00    -0.383 A  
HETATM   23  N   UNL     1     -12.856  12.275  63.590  1.00  0.00    -0.395 N  
HETATM   24  C   UNL     1     -10.445  11.731  63.380  1.00  0.00    -0.485 A  
HETATM   25  O   UNL     1     -13.756  12.762  64.289  1.00  0.00     0.467 OA 
HETATM   26  O   UNL     1     -13.038  11.744  62.484  1.00  0.00     0.348 OA 
ENDBRANCH  13  18
ENDBRANCH   4   6
ENDBRANCH   3   4
ENDBRANCH   2   3
TORSDOF 6
ENDMDL
MODEL      230
REMARK 921   NORMALIZED FREE ENERGY PREDICTED BY IDOCK:   -1.63 KCAL/MOL
REMARK 922        TOTAL FREE ENERGY PREDICTED BY IDOCK:   -3.35 KCAL/MOL
REMARK 923 INTER-LIGAND FREE ENERGY PREDICTED BY IDOCK:   -2.76 KCAL/MOL
REMARK 924 INTRA-LIGAND FREE ENERGY PREDICTED BY IDOCK:   -0.59 KCAL/MOL
REMARK 927      BINDING AFFINITY PREDICTED BY RF-SCORE:    0.00 PKD
ROOT
HETATM    1  C   UNL     1      -7.080   9.031  67.569  1.00  0.00    -0.076 C  
HETATM    2  C   UNL     1      -8.542   9.433  67.644  1.00  0.00    -0.116 C  
ENDROOT
BRANCH   2   3
HETATM    3  O   UNL     1      -9.026   8.987  68.919  1.00  0.00    -0.138 OA 
BRANCH   3   4
HETATM    4  C   UNL     1      -9.961   8.004  68.884  1.00  0.00    -0.195 C  
HETATM    5  O   UNL     1     -11.153   8.152  69.107  1.00  0.00     0.003 OA 
BRANCH   4   6
HETATM    6  C   UNL     1      -9.329   6.735  68.443  1.00  0.00    -0.124 C  
HETATM    7  C   UNL     1      -9.868   6.010  67.435  1.00  0.00    -0.131 C  
HETATM    8  N   UNL     1      -9.251   4.839  67.033  1.00  0.00    -0.121 NA 
HETATM    9  C   UNL     1     -11.108   6.334  66.631  1.00  0.00    -0.115 C  
HETATM   10  C   UNL     1      -8.158   4.263  67.646  1.00  0.00    -0.095 C  
HETATM   11  C   UNL     1      -7.738   2.927  67.077  1.00  0.00    -0.075 C  
HETATM   12  C   UNL     1      -7.543   4.896  68.675  1.00  0.00    -0.077 C  
HETATM   13  C   UNL     1      -8.035   6.276  69.149  1.00  0.00    -0.110 C  
BRANCH  12  14
HETATM   14  C   UNL     1      -6.419   4.205  69.362  1.00  0.00    -0.033 C  
HETATM   15  O   UNL     1      -5.240   4.364  69.078  1.00  0.00    -0.007 OA 
BRANCH  14  16
HETATM   16  O   UNL     1      -6.856   3.365  70.338  1.00  0.00    -0.033 OA 
HETATM   17  C   UNL     1      -5.859   2.440  70.781  1.00  0.00    -0.017 C  
ENDBRANCH  14  16
ENDBRANCH  12  14
BRANCH  13  18
HETATM   18  C   UNL     1      -8.178   6.334  70.675  1.00  0.00    -0.125 A  
HETATM   19  C   UNL     1      -7.290   7.087  71.459  1.00  0.00    -0.080 A  
HETATM   20  C   UNL     1      -9.233   5.648  71.309  1.00  0.00    -0.164 A  
HETATM   21  C   UNL     1      -7.456   7.168  72.844  1.00  0.00    -0.080 A  
HETATM   22  C   UNL     1      -9.409   5.757  72.695  1.00  0.00    -0.140 A  
HETATM   23  N   UNL     1     -10.557   5.104  73.336  1.00  0.00    -0.229 N  
HETATM   24  C   UNL     1      -8.518   6.511  73.465  1.00  0.00    -0.129 A  
HETATM   25  O   UNL     1     -11.345   4.478  72.613  1.00  0.00    -0.031 OA 
HETATM   26  O   UNL     1     -10.681   5.231  74.564  1.00  0.00    -0.323 OA 
ENDBRANCH  13  18
ENDBRANCH   4   6
ENDBRANCH   3   4
ENDBRANCH   2   3
TORSDOF 6
ENDMDL
MODEL      231
REMARK 921   NORMALIZED FREE ENERGY PREDICTED BY IDOCK:   -1.59 KCAL/MOL
REMARK 922        TOTAL FREE ENERGY PREDICTED BY IDOCK:   -3.30 KCAL/MOL
REMARK 923 INTER-LIGAND FREE ENERGY PREDICTED BY IDOCK:   -4.20 KCAL/MOL
REMARK 924 INTRA-LIGAND FREE ENERGY PREDICTED BY IDOCK:    0.89 KCAL/MOL
REMARK 927      BINDING AFFINITY PREDICTED BY RF-SCORE:    0.00 PKD
ROOT
HETATM    1  C   UNL     1      -5.402   9.532  68.288  1.00  0.00    -0.036 C  
HETATM    2  C   UNL     1      -6.079  10.829  68.691  1.00  0.00    -0.039 C  
ENDROOT
BRANCH   2   3
HETATM    3  O   UNL     1      -6.474  11.482  67.476  1.00  0.00    -0.065 OA 
BRANCH   3   4
HETATM    4  C   UNL     1      -6.533  12.837  67.527  1.00  0.00    -0.160 C  
HETATM    5  O   UNL     1      -5.668  13.598  67.121  1.00  0.00    -0.260 OA 
BRANCH   4   6
HETATM    6  C   UNL     1      -7.850  13.255  68.068  1.00  0.00    -0.148 C  
HETATM    7  C   UNL     1      -7.928  13.987  69.204  1.00  0.00     0.146 C  
HETATM    8  N   UNL     1      -9.168  14.377  69.679  1.00  0.00     0.442 NA 
HETATM    9  C   UNL     1      -6.782  14.479  70.061  1.00  0.00    -0.110 C  
HETATM   10  C   UNL     1     -10.381  13.996  69.147  1.00  0.00    -0.049 C  
HETATM   11  C   UNL     1     -11.593  14.474  69.914  1.00  0.00    -0.340 C  
HETATM   12  C   UNL     1     -10.424  13.253  68.014  1.00  0.00    -0.248 C  
HETATM   13  C   UNL     1      -9.124  12.853  67.293  1.00  0.00    -0.208 C  
BRANCH  12  14
HETATM   14  C   UNL     1     -11.749  12.794  67.517  1.00  0.00    -0.364 C  
HETATM   15  O   UNL     1     -12.250  11.714  67.796  1.00  0.00    -0.560 OA 
BRANCH  14  16
HETATM   16  O   UNL     1     -12.335  13.713  66.703  1.00  0.00    -0.397 OA 
HETATM   17  C   UNL     1     -11.395  14.540  66.010  1.00  0.00    -0.341 C  
ENDBRANCH  14  16
ENDBRANCH  12  14
BRANCH  13  18
HETATM   18  C   UNL     1      -9.111  11.363  66.929  1.00  0.00    -0.178 A  
HETATM   19  C   UNL     1      -9.516  10.386  67.852  1.00  0.00    -0.150 A  
HETATM   20  C   UNL     1      -8.715  10.958  65.639  1.00  0.00    -0.190 A  
HETATM   21  C   UNL     1      -9.542   9.036  67.495  1.00  0.00    -0.182 A  
HETATM   22  C   UNL     1      -8.770   9.605  65.279  1.00  0.00    -0.160 A  
HETATM   23  N   UNL     1      -8.432   9.202  63.909  1.00  0.00    -0.186 N  
HETATM   24  C   UNL     1      -9.177   8.641  66.207  1.00  0.00    -0.257 A  
HETATM   25  O   UNL     1      -8.114  10.090  63.105  1.00  0.00    -0.142 OA 
HETATM   26  O   UNL     1      -8.500   7.995  63.629  1.00  0.00    -0.015 OA 
ENDBRANCH  13  18
ENDBRANCH   4   6
ENDBRANCH   3   4
ENDBRANCH   2   3
TORSDOF 6
ENDMDL
MODEL      232
REMARK 921   NORMALIZED FREE ENERGY PREDICTED BY IDOCK:   -1.25 KCAL/MOL
REMARK 922        TOTAL FREE ENERGY PREDICTED BY IDOCK:   -2.84 KCAL/MOL
REMARK 923 INTER-LIGAND FREE ENERGY PREDICTED BY IDOCK:   -2.61 KCAL/MOL
REMARK 924 INTRA-LIGAND FREE ENERGY PREDICTED BY IDOCK:   -0.23 KCAL/MOL
REMARK 927      BINDING AFFINITY PREDICTED BY RF-SCORE:    0.00 PKD
ROOT
HETATM    1  C   UNL     1     -10.008   9.995  65.569  1.00  0.00    -0.367 C  
HETATM    2  C   UNL     1      -9.008   8.864  65.415  1.00  0.00    -0.182 C  
ENDROOT
BRANCH   2   3
HETATM    3  O   UNL     1      -7.768   9.333  65.963  1.00  0.00    -0.094 OA 
BRANCH   3   4
HETATM    4  C   UNL     1      -6.659   8.651  65.582  1.00  0.00    -0.060 C  
HETATM    5  O   UNL     1      -5.663   9.145  65.077  1.00  0.00    -0.056 OA 
BRANCH   4   6
HETATM    6  C   UNL     1      -6.804   7.222  65.957  1.00  0.00    -0.057 C  
HETATM    7  C   UNL     1      -7.219   6.309  65.049  1.00  0.00    -0.070 C  
HETATM    8  N   UNL     1      -7.331   4.980  65.421  1.00  0.00    -0.071 NA 
HETATM    9  C   UNL     1      -7.579   6.552  63.600  1.00  0.00    -0.096 C  
HETATM   10  C   UNL     1      -7.151   4.493  66.698  1.00  0.00    -0.071 C  
HETATM   11  C   UNL     1      -7.433   3.017  66.863  1.00  0.00    -0.071 C  
HETATM   12  C   UNL     1      -6.745   5.320  67.692  1.00  0.00    -0.055 C  
HETATM   13  C   UNL     1      -6.449   6.803  67.401  1.00  0.00    -0.049 C  
BRANCH  12  14
HETATM   14  C   UNL     1      -6.640   4.774  69.071  1.00  0.00    -0.045 C  
HETATM   15  O   UNL     1      -7.602   4.506  69.778  1.00  0.00    -0.053 OA 
BRANCH  14  16
HETATM   16  O   UNL     1      -5.347   4.619  69.463  1.00  0.00    -0.007 OA 
HETATM   17  C   UNL     1      -5.173   3.611  70.463  1.00  0.00    -0.004 C  
ENDBRANCH  14  16
ENDBRANCH  12  14
BRANCH  13  18
HETATM   18  C   UNL     1      -7.111   7.727  68.431  1.00  0.00    -0.077 A  
HETATM   19  C   UNL     1      -6.384   8.744  69.069  1.00  0.00    -0.044 A  
HETATM   20  C   UNL     1      -8.481   7.580  68.730  1.00  0.00    -0.129 A  
HETATM   21  C   UNL     1      -7.008   9.606  69.972  1.00  0.00    -0.093 A  
HETATM   22  C   UNL     1      -9.105   8.466  69.617  1.00  0.00    -0.153 A  
HETATM   23  N   UNL     1     -10.549   8.356  69.860  1.00  0.00    -0.227 N  
HETATM   24  C   UNL     1      -8.370   9.477  70.244  1.00  0.00    -0.221 A  
HETATM   25  O   UNL     1     -11.173   7.473  69.254  1.00  0.00    -0.023 OA 
HETATM   26  O   UNL     1     -11.065   9.165  70.646  1.00  0.00    -0.240 OA 
ENDBRANCH  13  18
ENDBRANCH   4   6
ENDBRANCH   3   4
ENDBRANCH   2   3
TORSDOF 6
ENDMDL
MODEL      233
REMARK 921   NORMALIZED FREE ENERGY PREDICTED BY IDOCK:   -1.25 KCAL/MOL
REMARK 922        TOTAL FREE ENERGY PREDICTED BY IDOCK:   -2.84 KCAL/MOL
REMARK 923 INTER-LIGAND FREE ENERGY PREDICTED BY IDOCK:   -3.20 KCAL/MOL
REMARK 924 INTRA-LIGAND FREE ENERGY PREDICTED BY IDOCK:    0.36 KCAL/MOL
REMARK 927      BINDING AFFINITY PREDICTED BY RF-SCORE:    0.00 PKD
ROOT
HETATM    1  C   UNL     1      -8.340   3.643  72.326  1.00  0.00    -0.085 C  
HETATM    2  C   UNL     1      -8.403   4.505  71.078  1.00  0.00    -0.093 C  
ENDROOT
BRANCH   2   3
HETATM    3  O   UNL     1      -9.239   5.627  71.394  1.00  0.00    -0.145 OA 
BRANCH   3   4
HETATM    4  C   UNL     1      -8.622   6.834  71.420  1.00  0.00    -0.124 C  
HETATM    5  O   UNL     1      -7.770   7.176  72.226  1.00  0.00    -0.088 OA 
BRANCH   4   6
HETATM    6  C   UNL     1      -9.075   7.647  70.263  1.00  0.00    -0.149 C  
HETATM    7  C   UNL     1     -10.292   8.238  70.269  1.00  0.00    -0.209 C  
HETATM    8  N   UNL     1     -10.683   9.003  69.184  1.00  0.00    -0.198 NA 
HETATM    9  C   UNL     1     -11.331   8.191  71.368  1.00  0.00    -0.299 C  
HETATM   10  C   UNL     1      -9.972   9.145  68.012  1.00  0.00    -0.178 C  
HETATM   11  C   UNL     1     -10.666   9.951  66.938  1.00  0.00    -0.195 C  
HETATM   12  C   UNL     1      -8.743   8.586  67.889  1.00  0.00    -0.138 C  
HETATM   13  C   UNL     1      -8.115   7.815  69.065  1.00  0.00    -0.125 C  
BRANCH  12  14
HETATM   14  C   UNL     1      -8.042   8.693  66.582  1.00  0.00    -0.100 C  
HETATM   15  O   UNL     1      -8.227   7.935  65.640  1.00  0.00    -0.122 OA 
BRANCH  14  16
HETATM   16  O   UNL     1      -7.160   9.728  66.558  1.00  0.00    -0.087 OA 
HETATM   17  C   UNL     1      -6.994  10.363  67.829  1.00  0.00    -0.083 C  
ENDBRANCH  14  16
ENDBRANCH  12  14
BRANCH  13  18
HETATM   18  C   UNL     1      -7.537   6.468  68.616  1.00  0.00    -0.097 A  
HETATM   19  C   UNL     1      -6.282   6.028  69.068  1.00  0.00    -0.036 A  
HETATM   20  C   UNL     1      -8.281   5.634  67.758  1.00  0.00    -0.101 A  
HETATM   21  C   UNL     1      -5.785   4.780  68.687  1.00  0.00    -0.016 A  
HETATM   22  C   UNL     1      -7.788   4.371  67.403  1.00  0.00    -0.096 A  
HETATM   23  N   UNL     1      -8.606   3.477  66.574  1.00  0.00    -0.112 N  
HETATM   24  C   UNL     1      -6.537   3.944  67.861  1.00  0.00    -0.042 A  
HETATM   25  O   UNL     1      -9.725   3.876  66.221  1.00  0.00    -0.199 OA 
HETATM   26  O   UNL     1      -8.136   2.365  66.288  1.00  0.00    -0.080 OA 
ENDBRANCH  13  18
ENDBRANCH   4   6
ENDBRANCH   3   4
ENDBRANCH   2   3
TORSDOF 6
ENDMDL
MODEL      234
REMARK 921   NORMALIZED FREE ENERGY PREDICTED BY IDOCK:   -1.24 KCAL/MOL
REMARK 922        TOTAL FREE ENERGY PREDICTED BY IDOCK:   -2.82 KCAL/MOL
REMARK 923 INTER-LIGAND FREE ENERGY PREDICTED BY IDOCK:   -3.79 KCAL/MOL
REMARK 924 INTRA-LIGAND FREE ENERGY PREDICTED BY IDOCK:    0.96 KCAL/MOL
REMARK 927      BINDING AFFINITY PREDICTED BY RF-SCORE:    0.00 PKD
ROOT
HETATM    1  C   UNL     1     -10.155   9.970  68.817  1.00  0.00    -0.197 C  
HETATM    2  C   UNL     1      -9.931  10.112  67.323  1.00  0.00    -0.195 C  
ENDROOT
BRANCH   2   3
HETATM    3  O   UNL     1     -11.092  10.765  66.792  1.00  0.00    -0.212 OA 
BRANCH   3   4
HETATM    4  C   UNL     1     -11.549  11.827  67.503  1.00  0.00    -0.291 C  
HETATM    5  O   UNL     1     -11.921  11.793  68.666  1.00  0.00    -0.354 OA 
BRANCH   4   6
HETATM    6  C   UNL     1     -11.442  13.057  66.679  1.00  0.00    -0.382 C  
HETATM    7  C   UNL     1     -12.165  13.192  65.543  1.00  0.00    -0.461 C  
HETATM    8  N   UNL     1     -12.058  14.356  64.801  1.00  0.00    -0.433 NA 
HETATM    9  C   UNL     1     -13.143  12.199  64.952  1.00  0.00     0.773 C  
HETATM   10  C   UNL     1     -11.181  15.387  65.060  1.00  0.00    -0.387 C  
HETATM   11  C   UNL     1     -11.188  16.502  64.039  1.00  0.00     0.856 C  
HETATM   12  C   UNL     1     -10.399  15.354  66.166  1.00  0.00    -0.325 C  
HETATM   13  C   UNL     1     -10.502  14.184  67.161  1.00  0.00    -0.270 C  
BRANCH  12  14
HETATM   14  C   UNL     1      -9.408  16.446  66.367  1.00  0.00    -0.292 C  
HETATM   15  O   UNL     1      -8.299  16.468  65.853  1.00  0.00    -0.388 OA 
BRANCH  14  16
HETATM   16  O   UNL     1      -9.876  17.413  67.202  1.00  0.00    -0.262 OA 
HETATM   17  C   UNL     1      -9.226  17.427  68.476  1.00  0.00    -0.277 C  
ENDBRANCH  14  16
ENDBRANCH  12  14
BRANCH  13  18
HETATM   18  C   UNL     1      -9.121  13.637  67.540  1.00  0.00    -0.213 A  
HETATM   19  C   UNL     1      -8.509  12.621  66.789  1.00  0.00    -0.054 A  
HETATM   20  C   UNL     1      -8.430  14.175  68.645  1.00  0.00    -0.120 A  
HETATM   21  C   UNL     1      -7.232  12.162  67.118  1.00  0.00    -0.117 A  
HETATM   22  C   UNL     1      -7.138  13.728  68.952  1.00  0.00    -0.107 A  
HETATM   23  N   UNL     1      -6.396  14.352  70.054  1.00  0.00    -0.155 N  
HETATM   24  C   UNL     1      -6.539  12.717  68.194  1.00  0.00    -0.088 A  
HETATM   25  O   UNL     1      -6.945  15.271  70.676  1.00  0.00     0.255 OA 
HETATM   26  O   UNL     1      -5.252  13.932  70.289  1.00  0.00    -0.091 OA 
ENDBRANCH  13  18
ENDBRANCH   4   6
ENDBRANCH   3   4
ENDBRANCH   2   3
TORSDOF 6
ENDMDL
MODEL      235
REMARK 921   NORMALIZED FREE ENERGY PREDICTED BY IDOCK:   -1.13 KCAL/MOL
REMARK 922        TOTAL FREE ENERGY PREDICTED BY IDOCK:   -2.68 KCAL/MOL
REMARK 923 INTER-LIGAND FREE ENERGY PREDICTED BY IDOCK:   -3.05 KCAL/MOL
REMARK 924 INTRA-LIGAND FREE ENERGY PREDICTED BY IDOCK:    0.37 KCAL/MOL
REMARK 927      BINDING AFFINITY PREDICTED BY RF-SCORE:    0.00 PKD
ROOT
HETATM    1  C   UNL     1      -8.481  13.045  67.946  1.00  0.00    -0.185 C  
HETATM    2  C   UNL     1      -9.658  12.158  67.588  1.00  0.00    -0.190 C  
ENDROOT
BRANCH   2   3
HETATM    3  O   UNL     1     -10.828  12.784  68.135  1.00  0.00    -0.213 OA 
BRANCH   3   4
HETATM    4  C   UNL     1     -11.661  13.364  67.236  1.00  0.00    -0.380 C  
HETATM    5  O   UNL     1     -12.754  12.932  66.901  1.00  0.00     0.032 OA 
BRANCH   4   6
HETATM    6  C   UNL     1     -11.084  14.656  66.787  1.00  0.00    -0.335 C  
HETATM    7  C   UNL     1     -10.316  14.719  65.675  1.00  0.00    -0.349 C  
HETATM    8  N   UNL     1      -9.802  15.939  65.270  1.00  0.00    -0.400 NA 
HETATM    9  C   UNL     1      -9.939  13.581  64.752  1.00  0.00    -0.156 C  
HETATM   10  C   UNL     1      -9.916  17.122  65.969  1.00  0.00    -0.253 C  
HETATM   11  C   UNL     1      -9.176  18.294  65.363  1.00  0.00     1.412 C  
HETATM   12  C   UNL     1     -10.654  17.175  67.104  1.00  0.00    -0.244 C  
HETATM   13  C   UNL     1     -11.398  15.925  67.610  1.00  0.00    -0.151 C  
BRANCH  12  14
HETATM   14  C   UNL     1     -10.685  18.448  67.872  1.00  0.00    -0.305 C  
HETATM   15  O   UNL     1     -11.483  19.353  67.668  1.00  0.00     0.065 OA 
BRANCH  14  16
HETATM   16  O   UNL     1      -9.713  18.496  68.822  1.00  0.00    -0.357 OA 
HETATM   17  C   UNL     1      -8.670  19.427  68.521  1.00  0.00    -0.367 C  
ENDBRANCH  14  16
ENDBRANCH  12  14
BRANCH  13  18
HETATM   18  C   UNL     1     -11.166  15.693  69.108  1.00  0.00    -0.315 A  
HETATM   19  C   UNL     1      -9.874  15.513  69.625  1.00  0.00    -0.281 A  
HETATM   20  C   UNL     1     -12.261  15.688  69.996  1.00  0.00    -0.351 A  
HETATM   21  C   UNL     1      -9.672  15.347  70.996  1.00  0.00     1.555 A  
HETATM   22  C   UNL     1     -12.048  15.548  71.373  1.00  0.00    -0.393 A  
HETATM   23  N   UNL     1     -13.186  15.624  72.297  1.00  0.00    -0.449 N  
HETATM   24  C   UNL     1     -10.754  15.371  71.876  1.00  0.00     0.487 A  
HETATM   25  O   UNL     1     -14.310  15.821  71.816  1.00  0.00    -0.437 OA 
HETATM   26  O   UNL     1     -12.953  15.502  73.510  1.00  0.00    -0.489 OA 
ENDBRANCH  13  18
ENDBRANCH   4   6
ENDBRANCH   3   4
ENDBRANCH   2   3
TORSDOF 6
ENDMDL
MODEL      236
REMARK 921   NORMALIZED FREE ENERGY PREDICTED BY IDOCK:   -0.53 KCAL/MOL
REMARK 922        TOTAL FREE ENERGY PREDICTED BY IDOCK:   -1.86 KCAL/MOL
REMARK 923 INTER-LIGAND FREE ENERGY PREDICTED BY IDOCK:   -3.89 KCAL/MOL
REMARK 924 INTRA-LIGAND FREE ENERGY PREDICTED BY IDOCK:    2.02 KCAL/MOL
REMARK 927      BINDING AFFINITY PREDICTED BY RF-SCORE:    0.00 PKD
ROOT
HETATM    1  C   UNL     1     -11.181  10.074  69.522  1.00  0.00    -0.254 C  
HETATM    2  C   UNL     1     -11.402  10.147  68.022  1.00  0.00    -0.078 C  
ENDROOT
BRANCH   2   3
HETATM    3  O   UNL     1     -11.448  11.539  67.679  1.00  0.00    -0.348 OA 
BRANCH   3   4
HETATM    4  C   UNL     1     -11.791  12.383  68.684  1.00  0.00    -0.302 C  
HETATM    5  O   UNL     1     -12.718  12.218  69.462  1.00  0.00     0.299 OA 
BRANCH   4   6
HETATM    6  C   UNL     1     -10.811  13.497  68.751  1.00  0.00    -0.279 C  
HETATM    7  C   UNL     1     -11.136  14.666  69.350  1.00  0.00    -0.268 C  
HETATM    8  N   UNL     1     -10.199  15.683  69.412  1.00  0.00    -0.242 NA 
HETATM    9  C   UNL     1     -12.447  15.025  70.015  1.00  0.00    -0.317 C  
HETATM   10  C   UNL     1      -8.957  15.658  68.815  1.00  0.00    -0.205 C  
HETATM   11  C   UNL     1      -8.162  16.938  68.945  1.00  0.00    -0.218 C  
HETATM   12  C   UNL     1      -8.530  14.542  68.177  1.00  0.00    -0.157 C  
HETATM   13  C   UNL     1      -9.411  13.280  68.138  1.00  0.00    -0.220 C  
BRANCH  12  14
HETATM   14  C   UNL     1      -7.219  14.583  67.475  1.00  0.00    -0.187 C  
HETATM   15  O   UNL     1      -7.003  15.231  66.461  1.00  0.00     0.293 OA 
BRANCH  14  16
HETATM   16  O   UNL     1      -6.287  13.804  68.088  1.00  0.00    -0.096 OA 
HETATM   17  C   UNL     1      -5.448  13.095  67.172  1.00  0.00     0.410 C  
ENDBRANCH  14  16
ENDBRANCH  12  14
BRANCH  13  18
HETATM   18  C   UNL     1      -9.502  12.693  66.725  1.00  0.00    -0.237 A  
HETATM   19  C   UNL     1     -10.261  13.320  65.724  1.00  0.00    -0.296 A  
HETATM   20  C   UNL     1      -8.792  11.518  66.404  1.00  0.00    -0.193 A  
HETATM   21  C   UNL     1     -10.301  12.800  64.429  1.00  0.00    -0.388 A  
HETATM   22  C   UNL     1      -8.815  11.018  65.095  1.00  0.00    -0.106 A  
HETATM   23  N   UNL     1      -8.008   9.841  64.751  1.00  0.00    -0.131 N  
HETATM   24  C   UNL     1      -9.574  11.654  64.107  1.00  0.00    -0.138 A  
HETATM   25  O   UNL     1      -7.319   9.330  65.645  1.00  0.00    -0.091 OA 
HETATM   26  O   UNL     1      -8.051   9.435  63.580  1.00  0.00    -0.138 OA 
ENDBRANCH  13  18
ENDBRANCH   4   6
ENDBRANCH   3   4
ENDBRANCH   2   3
TORSDOF 6
ENDMDL
MODEL      237
REMARK 921   NORMALIZED FREE ENERGY PREDICTED BY IDOCK:   -0.44 KCAL/MOL
REMARK 922        TOTAL FREE ENERGY PREDICTED BY IDOCK:   -1.75 KCAL/MOL
REMARK 923 INTER-LIGAND FREE ENERGY PREDICTED BY IDOCK:   -3.28 KCAL/MOL
REMARK 924 INTRA-LIGAND FREE ENERGY PREDICTED BY IDOCK:    1.53 KCAL/MOL
REMARK 927      BINDING AFFINITY PREDICTED BY RF-SCORE:    0.00 PKD
ROOT
HETATM    1  C   UNL     1      -7.313  17.879  69.593  1.00  0.00     0.413 C  
HETATM    2  C   UNL     1      -6.877  16.457  69.292  1.00  0.00    -0.218 C  
ENDROOT
BRANCH   2   3
HETATM    3  O   UNL     1      -8.068  15.658  69.264  1.00  0.00    -0.217 OA 
BRANCH   3   4
HETATM    4  C   UNL     1      -7.961  14.459  68.637  1.00  0.00    -0.145 C  
HETATM    5  O   UNL     1      -7.287  13.516  69.024  1.00  0.00    -0.087 OA 
BRANCH   4   6
HETATM    6  C   UNL     1      -8.859  14.436  67.455  1.00  0.00    -0.197 C  
HETATM    7  C   UNL     1      -8.669  15.296  66.428  1.00  0.00    -0.230 C  
HETATM    8  N   UNL     1      -9.511  15.243  65.331  1.00  0.00    -0.125 NA 
HETATM    9  C   UNL     1      -7.591  16.350  66.298  1.00  0.00    -0.075 C  
HETATM   10  C   UNL     1     -10.626  14.440  65.222  1.00  0.00    -0.382 C  
HETATM   11  C   UNL     1     -11.439  14.645  63.963  1.00  0.00     0.132 C  
HETATM   12  C   UNL     1     -10.921  13.547  66.197  1.00  0.00    -0.289 C  
HETATM   13  C   UNL     1      -9.999  13.395  67.421  1.00  0.00    -0.230 C  
BRANCH  12  14
HETATM   14  C   UNL     1     -12.176  12.756  66.081  1.00  0.00    -0.271 C  
HETATM   15  O   UNL     1     -12.222  11.592  65.708  1.00  0.00    -0.143 OA 
BRANCH  14  16
HETATM   16  O   UNL     1     -13.272  13.485  66.426  1.00  0.00     0.210 OA 
HETATM   17  C   UNL     1     -13.012  14.887  66.530  1.00  0.00     1.521 C  
ENDBRANCH  14  16
ENDBRANCH  12  14
BRANCH  13  18
HETATM   18  C   UNL     1     -10.793  13.390  68.733  1.00  0.00    -0.275 A  
HETATM   19  C   UNL     1     -11.126  14.587  69.386  1.00  0.00    -0.297 A  
HETATM   20  C   UNL     1     -11.226  12.169  69.288  1.00  0.00    -0.288 A  
HETATM   21  C   UNL     1     -11.887  14.571  70.557  1.00  0.00    -0.372 A  
HETATM   22  C   UNL     1     -12.011  12.163  70.448  1.00  0.00    -0.272 A  
HETATM   23  N   UNL     1     -12.525  10.892  70.973  1.00  0.00    -0.382 N  
HETATM   24  C   UNL     1     -12.339  13.363  71.088  1.00  0.00    -0.348 A  
HETATM   25  O   UNL     1     -12.246   9.855  70.355  1.00  0.00    -0.217 OA 
HETATM   26  O   UNL     1     -13.223  10.931  71.998  1.00  0.00    -0.492 OA 
ENDBRANCH  13  18
ENDBRANCH   4   6
ENDBRANCH   3   4
ENDBRANCH   2   3
TORSDOF 6
ENDMDL
MODEL      238
REMARK 921   NORMALIZED FREE ENERGY PREDICTED BY IDOCK:   -0.17 KCAL/MOL
REMARK 922        TOTAL FREE ENERGY PREDICTED BY IDOCK:   -1.38 KCAL/MOL
REMARK 923 INTER-LIGAND FREE ENERGY PREDICTED BY IDOCK:   -3.53 KCAL/MOL
REMARK 924 INTRA-LIGAND FREE ENERGY PREDICTED BY IDOCK:    2.15 KCAL/MOL
REMARK 927      BINDING AFFINITY PREDICTED BY RF-SCORE:    0.00 PKD
ROOT
HETATM    1  C   UNL     1     -10.359   8.238  66.026  1.00  0.00     0.709 C  
HETATM    2  C   UNL     1      -9.424   9.278  66.616  1.00  0.00    -0.191 C  
ENDROOT
BRANCH   2   3
HETATM    3  O   UNL     1      -8.229   8.586  67.004  1.00  0.00    -0.105 OA 
BRANCH   3   4
HETATM    4  C   UNL     1      -7.540   9.131  68.037  1.00  0.00    -0.085 C  
HETATM    5  O   UNL     1      -6.804   8.521  68.798  1.00  0.00    -0.060 OA 
BRANCH   4   6
HETATM    6  C   UNL     1      -7.742  10.602  68.046  1.00  0.00    -0.100 C  
HETATM    7  C   UNL     1      -6.685  11.444  67.981  1.00  0.00    -0.059 C  
HETATM    8  N   UNL     1      -6.903  12.811  67.976  1.00  0.00    -0.086 NA 
HETATM    9  C   UNL     1      -5.221  11.076  67.888  1.00  0.00    -0.039 C  
HETATM   10  C   UNL     1      -8.128  13.423  68.137  1.00  0.00    -0.155 C  
HETATM   11  C   UNL     1      -8.083  14.933  68.198  1.00  0.00    -0.137 C  
HETATM   12  C   UNL     1      -9.256  12.677  68.223  1.00  0.00    -0.184 C  
HETATM   13  C   UNL     1      -9.187  11.143  68.111  1.00  0.00    -0.166 C  
BRANCH  12  14
HETATM   14  C   UNL     1     -10.547  13.370  68.478  1.00  0.00    -0.253 C  
HETATM   15  O   UNL     1     -10.964  13.656  69.592  1.00  0.00    -0.095 OA 
BRANCH  14  16
HETATM   16  O   UNL     1     -11.219  13.637  67.326  1.00  0.00    -0.292 OA 
HETATM   17  C   UNL     1     -12.150  12.615  66.960  1.00  0.00    -0.132 C  
ENDBRANCH  14  16
ENDBRANCH  12  14
BRANCH  13  18
HETATM   18  C   UNL     1      -9.994  10.455  69.219  1.00  0.00    -0.246 A  
HETATM   19  C   UNL     1     -11.382  10.281  69.107  1.00  0.00    -0.244 A  
HETATM   20  C   UNL     1      -9.336   9.960  70.363  1.00  0.00    -0.064 A  
HETATM   21  C   UNL     1     -12.099   9.615  70.102  1.00  0.00     0.050 A  
HETATM   22  C   UNL     1     -10.059   9.268  71.344  1.00  0.00    -0.278 A  
HETATM   23  N   UNL     1      -9.353   8.686  72.492  1.00  0.00    -0.242 N  
HETATM   24  C   UNL     1     -11.442   9.099  71.219  1.00  0.00    -0.405 A  
HETATM   25  O   UNL     1      -8.123   8.823  72.546  1.00  0.00    -0.381 OA 
HETATM   26  O   UNL     1     -10.028   8.075  73.335  1.00  0.00    -0.289 OA 
ENDBRANCH  13  18
ENDBRANCH   4   6
ENDBRANCH   3   4
ENDBRANCH   2   3
TORSDOF 6
ENDMDL
MODEL      239
REMARK 921   NORMALIZED FREE ENERGY PREDICTED BY IDOCK:    0.23 KCAL/MOL
REMARK 922        TOTAL FREE ENERGY PREDICTED BY IDOCK:   -0.84 KCAL/MOL
REMARK 923 INTER-LIGAND FREE ENERGY PREDICTED BY IDOCK:   -1.76 KCAL/MOL
REMARK 924 INTRA-LIGAND FREE ENERGY PREDICTED BY IDOCK:    0.92 KCAL/MOL
REMARK 927      BINDING AFFINITY PREDICTED BY RF-SCORE:    0.00 PKD
ROOT
HETATM    1  C   UNL     1     -10.137  10.734  70.199  1.00  0.00     0.496 C  
HETATM    2  C   UNL     1      -9.085   9.644  70.114  1.00  0.00    -0.240 C  
ENDROOT
BRANCH   2   3
HETATM    3  O   UNL     1      -7.832  10.252  70.456  1.00  0.00    -0.109 OA 
BRANCH   3   4
HETATM    4  C   UNL     1      -6.724   9.617  69.999  1.00  0.00    -0.079 C  
HETATM    5  O   UNL     1      -5.837   9.149  70.698  1.00  0.00    -0.034 OA 
BRANCH   4   6
HETATM    6  C   UNL     1      -6.796   9.495  68.522  1.00  0.00    -0.061 C  
HETATM    7  C   UNL     1      -7.083  10.572  67.754  1.00  0.00    -0.083 C  
HETATM    8  N   UNL     1      -7.129  10.434  66.377  1.00  0.00    -0.111 NA 
HETATM    9  C   UNL     1      -7.355  11.986  68.218  1.00  0.00    -0.095 C  
HETATM   10  C   UNL     1      -7.006   9.245  65.692  1.00  0.00    -0.082 C  
HETATM   11  C   UNL     1      -7.197   9.348  64.195  1.00  0.00    -0.106 C  
HETATM   12  C   UNL     1      -6.728   8.099  66.360  1.00  0.00    -0.062 C  
HETATM   13  C   UNL     1      -6.516   8.116  67.885  1.00  0.00    -0.053 C  
BRANCH  12  14
HETATM   14  C   UNL     1      -6.684   6.824  65.595  1.00  0.00    -0.051 C  
HETATM   15  O   UNL     1      -7.662   6.125  65.369  1.00  0.00    -0.083 OA 
BRANCH  14  16
HETATM   16  O   UNL     1      -5.424   6.519  65.183  1.00  0.00    -0.020 OA 
HETATM   17  C   UNL     1      -5.204   6.769  63.792  1.00  0.00    -0.027 C  
ENDBRANCH  14  16
ENDBRANCH  12  14
BRANCH  13  18
HETATM   18  C   UNL     1      -7.310   7.005  68.582  1.00  0.00    -0.097 A  
HETATM   19  C   UNL     1      -6.690   5.813  68.988  1.00  0.00    -0.060 A  
HETATM   20  C   UNL     1      -8.682   7.185  68.851  1.00  0.00    -0.128 A  
HETATM   21  C   UNL     1      -7.415   4.827  69.661  1.00  0.00    -0.056 A  
HETATM   22  C   UNL     1      -9.395   6.202  69.551  1.00  0.00    -0.137 A  
HETATM   23  N   UNL     1     -10.803   6.433  69.897  1.00  0.00    -0.276 N  
HETATM   24  C   UNL     1      -8.765   5.020  69.952  1.00  0.00    -0.122 A  
HETATM   25  O   UNL     1     -11.314   7.510  69.559  1.00  0.00    -0.034 OA 
HETATM   26  O   UNL     1     -11.397   5.542  70.523  1.00  0.00    -0.048 OA 
ENDBRANCH  13  18
ENDBRANCH   4   6
ENDBRANCH   3   4
ENDBRANCH   2   3
TORSDOF 6
ENDMDL
MODEL      240
REMARK 921   NORMALIZED FREE ENERGY PREDICTED BY IDOCK:    2.02 KCAL/MOL
REMARK 922        TOTAL FREE ENERGY PREDICTED BY IDOCK:    1.58 KCAL/MOL
REMARK 923 INTER-LIGAND FREE ENERGY PREDICTED BY IDOCK:   -1.15 KCAL/MOL
REMARK 924 INTRA-LIGAND FREE ENERGY PREDICTED BY IDOCK:    2.73 KCAL/MOL
REMARK 927      BINDING AFFINITY PREDICTED BY RF-SCORE:    0.00 PKD
ROOT
HETATM    1  C   UNL     1     -10.914   8.360  71.731  1.00  0.00    -0.359 C  
HETATM    2  C   UNL     1     -10.033   7.258  71.173  1.00  0.00    -0.186 C  
ENDROOT
BRANCH   2   3
HETATM    3  O   UNL     1      -8.691   7.765  71.167  1.00  0.00    -0.131 OA 
BRANCH   3   4
HETATM    4  C   UNL     1      -8.464   8.824  70.350  1.00  0.00    -0.153 C  
HETATM    5  O   UNL     1      -8.066   9.922  70.709  1.00  0.00    -0.212 OA 
BRANCH   4   6
HETATM    6  C   UNL     1      -8.686   8.418  68.940  1.00  0.00    -0.136 C  
HETATM    7  C   UNL     1      -9.701   8.950  68.220  1.00  0.00    -0.157 C  
HETATM    8  N   UNL     1      -9.876   8.565  66.902  1.00  0.00    -0.217 NA 
HETATM    9  C   UNL     1     -10.712   9.978  68.678  1.00  0.00    -0.256 C  
HETATM   10  C   UNL     1      -9.155   7.583  66.257  1.00  0.00    -0.157 C  
HETATM   11  C   UNL     1      -9.611   7.279  64.848  1.00  0.00     1.913 C  
HETATM   12  C   UNL     1      -8.120   6.973  66.885  1.00  0.00    -0.116 C  
HETATM   13  C   UNL     1      -7.719   7.390  68.312  1.00  0.00    -0.120 C  
BRANCH  12  14
HETATM   14  C   UNL     1      -7.420   5.864  66.185  1.00  0.00    -0.085 C  
HETATM   15  O   UNL     1      -7.735   4.686  66.279  1.00  0.00    -0.089 OA 
BRANCH  14  16
HETATM   16  O   UNL     1      -6.376   6.311  65.436  1.00  0.00    -0.036 OA 
HETATM   17  C   UNL     1      -6.500   5.999  64.045  1.00  0.00    -0.030 C  
ENDBRANCH  14  16
ENDBRANCH  12  14
BRANCH  13  18
HETATM   18  C   UNL     1      -7.522   6.174  69.225  1.00  0.00    -0.089 A  
HETATM   19  C   UNL     1      -6.816   6.279  70.434  1.00  0.00    -0.055 A  
HETATM   20  C   UNL     1      -8.081   4.930  68.869  1.00  0.00    -0.083 A  
HETATM   21  C   UNL     1      -6.681   5.175  71.278  1.00  0.00    -0.043 A  
HETATM   22  C   UNL     1      -7.965   3.834  69.734  1.00  0.00    -0.050 A  
HETATM   23  N   UNL     1      -8.618   2.565  69.393  1.00  0.00    -0.062 N  
HETATM   24  C   UNL     1      -7.260   3.952  70.937  1.00  0.00    -0.037 A  
HETATM   25  O   UNL     1      -9.266   2.512  68.338  1.00  0.00    -0.161 OA 
HETATM   26  O   UNL     1      -8.497   1.621  70.189  1.00  0.00    -0.044 OA 
ENDBRANCH  13  18
ENDBRANCH   4   6
ENDBRANCH   3   4
ENDBRANCH   2   3
TORSDOF 6
ENDMDL
MODEL      241
REMARK 921   NORMALIZED FREE ENERGY PREDICTED BY IDOCK:    2.42 KCAL/MOL
REMARK 922        TOTAL FREE ENERGY PREDICTED BY IDOCK:    2.12 KCAL/MOL
REMARK 923 INTER-LIGAND FREE ENERGY PREDICTED BY IDOCK:    0.23 KCAL/MOL
REMARK 924 INTRA-LIGAND FREE ENERGY PREDICTED BY IDOCK:    1.88 KCAL/MOL
REMARK 927      BINDING AFFINITY PREDICTED BY RF-SCORE:    0.00 PKD
ROOT
HETATM    1  C   UNL     1     -10.646  18.497  66.817  1.00  0.00    -0.395 C  
HETATM    2  C   UNL     1     -11.281  18.609  65.444  1.00  0.00     1.050 C  
ENDROOT
BRANCH   2   3
HETATM    3  O   UNL     1     -10.737  17.546  64.650  1.00  0.00    -0.456 OA 
BRANCH   3   4
HETATM    4  C   UNL     1      -9.731  16.838  65.222  1.00  0.00     0.647 C  
HETATM    5  O   UNL     1      -8.607  17.262  65.448  1.00  0.00     0.058 OA 
BRANCH   4   6
HETATM    6  C   UNL     1     -10.229  15.496  65.614  1.00  0.00    -0.403 C  
HETATM    7  C   UNL     1     -11.354  14.988  65.058  1.00  0.00    -0.394 C  
HETATM    8  N   UNL     1     -11.789  13.728  65.431  1.00  0.00    -0.342 NA 
HETATM    9  C   UNL     1     -12.237  15.637  64.015  1.00  0.00     0.158 C  
HETATM   10  C   UNL     1     -11.226  12.953  66.422  1.00  0.00    -0.300 C  
HETATM   11  C   UNL     1     -11.952  11.657  66.708  1.00  0.00     0.273 C  
HETATM   12  C   UNL     1     -10.102  13.366  67.055  1.00  0.00    -0.247 C  
HETATM   13  C   UNL     1      -9.423  14.689  66.655  1.00  0.00    -0.297 C  
BRANCH  12  14
HETATM   14  C   UNL     1      -9.572  12.540  68.172  1.00  0.00    -0.215 C  
HETATM   15  O   UNL     1      -8.408  12.174  68.263  1.00  0.00    -0.163 OA 
BRANCH  14  16
HETATM   16  O   UNL     1     -10.536  12.228  69.079  1.00  0.00    -0.175 OA 
HETATM   17  C   UNL     1     -10.440  10.889  69.573  1.00  0.00    -0.138 C  
ENDBRANCH  14  16
ENDBRANCH  12  14
BRANCH  13  18
HETATM   18  C   UNL     1      -9.077  15.543  67.881  1.00  0.00    -0.175 A  
HETATM   19  C   UNL     1     -10.061  15.913  68.811  1.00  0.00    -0.221 A  
HETATM   20  C   UNL     1      -7.745  15.947  68.103  1.00  0.00    -0.135 A  
HETATM   21  C   UNL     1      -9.726  16.654  69.946  1.00  0.00     0.496 A  
HETATM   22  C   UNL     1      -7.412  16.666  69.258  1.00  0.00    -0.165 A  
HETATM   23  N   UNL     1      -6.010  17.012  69.522  1.00  0.00    -0.204 N  
HETATM   24  C   UNL     1      -8.402  17.027  70.179  1.00  0.00     2.317 A  
HETATM   25  O   UNL     1      -5.158  16.640  68.703  1.00  0.00    -0.117 OA 
HETATM   26  O   UNL     1      -5.757  17.644  70.560  1.00  0.00    -0.223 OA 
ENDBRANCH  13  18
ENDBRANCH   4   6
ENDBRANCH   3   4
ENDBRANCH   2   3
TORSDOF 6
ENDMDL
MODEL      242
REMARK 921   NORMALIZED FREE ENERGY PREDICTED BY IDOCK:    3.84 KCAL/MOL
REMARK 922        TOTAL FREE ENERGY PREDICTED BY IDOCK:    4.04 KCAL/MOL
REMARK 923 INTER-LIGAND FREE ENERGY PREDICTED BY IDOCK:    2.39 KCAL/MOL
REMARK 924 INTRA-LIGAND FREE ENERGY PREDICTED BY IDOCK:    1.65 KCAL/MOL
REMARK 927      BINDING AFFINITY PREDICTED BY RF-SCORE:    0.00 PKD
ROOT
HETATM    1  C   UNL     1      -6.520  14.958  71.789  1.00  0.00     1.007 C  
HETATM    2  C   UNL     1      -7.375  14.705  70.562  1.00  0.00     0.743 C  
ENDROOT
BRANCH   2   3
HETATM    3  O   UNL     1      -8.705  15.131  70.891  1.00  0.00     1.496 OA 
BRANCH   3   4
HETATM    4  C   UNL     1      -9.606  15.087  69.878  1.00  0.00     0.122 C  
HETATM    5  O   UNL     1     -10.548  14.312  69.802  1.00  0.00    -0.036 OA 
BRANCH   4   6
HETATM    6  C   UNL     1      -9.329  16.185  68.919  1.00  0.00    -0.235 C  
HETATM    7  C   UNL     1     -10.284  17.095  68.616  1.00  0.00    -0.336 C  
HETATM    8  N   UNL     1      -9.994  18.117  67.730  1.00  0.00    -0.312 NA 
HETATM    9  C   UNL     1     -11.694  17.162  69.159  1.00  0.00     1.297 C  
HETATM   10  C   UNL     1      -8.818  18.248  67.022  1.00  0.00    -0.266 C  
HETATM   11  C   UNL     1      -8.790  19.397  66.039  1.00  0.00    -0.173 C  
HETATM   12  C   UNL     1      -7.795  17.386  67.236  1.00  0.00    -0.218 C  
HETATM   13  C   UNL     1      -7.920  16.273  68.292  1.00  0.00    -0.166 C  
BRANCH  12  14
HETATM   14  C   UNL     1      -6.574  17.511  66.395  1.00  0.00    -0.255 C  
HETATM   15  O   UNL     1      -6.528  17.229  65.206  1.00  0.00     0.434 OA 
BRANCH  14  16
HETATM   16  O   UNL     1      -5.508  17.965  67.107  1.00  0.00    -0.132 OA 
HETATM   17  C   UNL     1      -5.767  19.188  67.801  1.00  0.00    -0.193 C  
ENDBRANCH  14  16
ENDBRANCH  12  14
BRANCH  13  18
HETATM   18  C   UNL     1      -7.465  14.915  67.743  1.00  0.00    -0.179 A  
HETATM   19  C   UNL     1      -6.136  14.484  67.879  1.00  0.00    -0.161 A  
HETATM   20  C   UNL     1      -8.395  14.064  67.114  1.00  0.00    -0.174 A  
HETATM   21  C   UNL     1      -5.744  13.227  67.414  1.00  0.00     0.071 A  
HETATM   22  C   UNL     1      -8.000  12.793  66.674  1.00  0.00     0.314 A  
HETATM   23  N   UNL     1      -8.994  11.883  66.093  1.00  0.00    -0.164 N  
HETATM   24  C   UNL     1      -6.673  12.375  66.818  1.00  0.00     0.319 A  
HETATM   25  O   UNL     1     -10.167  12.275  66.020  1.00  0.00    -0.233 OA 
HETATM   26  O   UNL     1      -8.605  10.764  65.723  1.00  0.00    -0.176 OA 
ENDBRANCH  13  18
ENDBRANCH   4   6
ENDBRANCH   3   4
ENDBRANCH   2   3
TORSDOF 6
ENDMDL
MODEL      243
REMARK 921   NORMALIZED FREE ENERGY PREDICTED BY IDOCK:   11.37 KCAL/MOL
REMARK 922        TOTAL FREE ENERGY PREDICTED BY IDOCK:   14.21 KCAL/MOL
REMARK 923 INTER-LIGAND FREE ENERGY PREDICTED BY IDOCK:   14.40 KCAL/MOL
REMARK 924 INTRA-LIGAND FREE ENERGY PREDICTED BY IDOCK:   -0.19 KCAL/MOL
REMARK 927      BINDING AFFINITY PREDICTED BY RF-SCORE:    0.00 PKD
ROOT
HETATM    1  C   UNL     1      -6.684  14.671  71.791  1.00  0.00     1.396 C  
HETATM    2  C   UNL     1      -7.659  14.702  70.629  1.00  0.00     1.288 C  
ENDROOT
BRANCH   2   3
HETATM    3  O   UNL     1      -8.975  14.603  71.192  1.00  0.00     2.558 OA 
BRANCH   3   4
HETATM    4  C   UNL     1      -9.979  14.374  70.309  1.00  0.00     1.115 C  
HETATM    5  O   UNL     1     -10.499  13.289  70.094  1.00  0.00     1.095 OA 
BRANCH   4   6
HETATM    6  C   UNL     1     -10.413  15.660  69.708  1.00  0.00    -0.312 C  
HETATM    7  C   UNL     1     -11.615  16.197  70.022  1.00  0.00    -0.239 C  
HETATM    8  N   UNL     1     -11.989  17.405  69.459  1.00  0.00     2.342 NA 
HETATM    9  C   UNL     1     -12.652  15.638  70.971  1.00  0.00    -0.515 C  
HETATM   10  C   UNL     1     -11.277  18.090  68.497  1.00  0.00     0.829 C  
HETATM   11  C   UNL     1     -11.952  19.335  67.969  1.00  0.00     2.848 C  
HETATM   12  C   UNL     1     -10.063  17.638  68.098  1.00  0.00    -0.347 C  
HETATM   13  C   UNL     1      -9.453  16.375  68.733  1.00  0.00    -0.247 C  
BRANCH  12  14
HETATM   14  C   UNL     1      -9.363  18.359  67.001  1.00  0.00    -0.281 C  
HETATM   15  O   UNL     1      -9.399  18.023  65.826  1.00  0.00    -0.489 OA 
BRANCH  14  16
HETATM   16  O   UNL     1      -8.666  19.433  67.460  1.00  0.00    -0.292 OA 
HETATM   17  C   UNL     1      -7.358  19.101  67.936  1.00  0.00    -0.250 C  
ENDBRANCH  14  16
ENDBRANCH  12  14
BRANCH  13  18
HETATM   18  C   UNL     1      -8.910  15.411  67.671  1.00  0.00    -0.179 A  
HETATM   19  C   UNL     1      -7.531  15.279  67.445  1.00  0.00    -0.239 A  
HETATM   20  C   UNL     1      -9.801  14.615  66.923  1.00  0.00    -0.252 A  
HETATM   21  C   UNL     1      -7.047  14.366  66.506  1.00  0.00     2.168 A  
HETATM   22  C   UNL     1      -9.307  13.682  66.003  1.00  0.00    -0.003 A  
HETATM   23  N   UNL     1     -10.238  12.802  65.287  1.00  0.00    -0.288 N  
HETATM   24  C   UNL     1      -7.930  13.559  65.788  1.00  0.00     3.186 A  
HETATM   25  O   UNL     1     -11.447  12.914  65.534  1.00  0.00    -0.305 OA 
HETATM   26  O   UNL     1      -9.760  11.984  64.486  1.00  0.00    -0.189 OA 
ENDBRANCH  13  18
ENDBRANCH   4   6
ENDBRANCH   3   4
ENDBRANCH   2   3
TORSDOF 6
ENDMDL
MODEL      244
REMARK 921   NORMALIZED FREE ENERGY PREDICTED BY IDOCK:   15.93 KCAL/MOL
REMARK 922        TOTAL FREE ENERGY PREDICTED BY IDOCK:   20.37 KCAL/MOL
REMARK 923 INTER-LIGAND FREE ENERGY PREDICTED BY IDOCK:    9.84 KCAL/MOL
REMARK 924 INTRA-LIGAND FREE ENERGY PREDICTED BY IDOCK:   10.53 KCAL/MOL
REMARK 927      BINDING AFFINITY PREDICTED BY RF-SCORE:    0.00 PKD
ROOT
HETATM    1  C   UNL     1     -12.484  10.978  70.309  1.00  0.00    -0.365 C  
HETATM    2  C   UNL     1     -11.838  11.364  68.992  1.00  0.00    -0.348 C  
ENDROOT
BRANCH   2   3
HETATM    3  O   UNL     1     -12.134  12.752  68.778  1.00  0.00    -0.276 OA 
BRANCH   3   4
HETATM    4  C   UNL     1     -11.428  13.629  69.534  1.00  0.00    -0.263 C  
HETATM    5  O   UNL     1     -11.792  14.097  70.602  1.00  0.00    -0.303 OA 
BRANCH   4   6
HETATM    6  C   UNL     1     -10.102  13.866  68.909  1.00  0.00    -0.106 C  
HETATM    7  C   UNL     1      -9.808  15.060  68.345  1.00  0.00    -0.222 C  
HETATM    8  N   UNL     1      -8.559  15.260  67.783  1.00  0.00    -0.154 NA 
HETATM    9  C   UNL     1     -10.699  16.280  68.259  1.00  0.00    -0.322 C  
HETATM   10  C   UNL     1      -7.585  14.294  67.646  1.00  0.00    -0.176 C  
HETATM   11  C   UNL     1      -6.346  14.740  66.902  1.00  0.00     1.276 C  
HETATM   12  C   UNL     1      -7.774  13.056  68.163  1.00  0.00    -0.143 C  
HETATM   13  C   UNL     1      -9.064  12.723  68.937  1.00  0.00     0.324 C  
BRANCH  12  14
HETATM   14  C   UNL     1      -6.735  12.020  67.924  1.00  0.00    -0.080 C  
HETATM   15  O   UNL     1      -5.533  12.212  68.048  1.00  0.00    -0.051 OA 
BRANCH  14  16
HETATM   16  O   UNL     1      -7.276  10.833  67.538  1.00  0.00    -0.087 OA 
HETATM   17  C   UNL     1      -6.621  10.251  66.407  1.00  0.00    -0.092 C  
ENDBRANCH  14  16
ENDBRANCH  12  14
BRANCH  13  18
HETATM   18  C   UNL     1      -9.678  11.396  68.473  1.00  0.00    -0.199 A  
HETATM   19  C   UNL     1      -9.730  10.282  69.325  1.00  0.00    -0.240 A  
HETATM   20  C   UNL     1     -10.228  11.291  67.180  1.00  0.00    -0.235 A  
HETATM   21  C   UNL     1     -10.331   9.093  68.906  1.00  0.00    -0.232 A  
HETATM   22  C   UNL     1     -10.853  10.103  66.777  1.00  0.00    -0.059 A  
HETATM   23  N   UNL     1     -11.494  10.029  65.459  1.00  0.00     2.080 N  
HETATM   24  C   UNL     1     -10.901   9.001  67.637  1.00  0.00    -0.133 A  
HETATM   25  O   UNL     1     -11.465  11.040  64.743  1.00  0.00     0.102 OA 
HETATM   26  O   UNL     1     -12.043   8.962  65.143  1.00  0.00    10.141 OA 
ENDBRANCH  13  18
ENDBRANCH   4   6
ENDBRANCH   3   4
ENDBRANCH   2   3
TORSDOF 6
ENDMDL
MODEL      245
REMARK 921   NORMALIZED FREE ENERGY PREDICTED BY IDOCK:   20.52 KCAL/MOL
REMARK 922        TOTAL FREE ENERGY PREDICTED BY IDOCK:   26.56 KCAL/MOL
REMARK 923 INTER-LIGAND FREE ENERGY PREDICTED BY IDOCK:   14.77 KCAL/MOL
REMARK 924 INTRA-LIGAND FREE ENERGY PREDICTED BY IDOCK:   11.79 KCAL/MOL
REMARK 927      BINDING AFFINITY PREDICTED BY RF-SCORE:    0.00 PKD
ROOT
HETATM    1  C   UNL     1      -7.503   2.179  70.152  1.00  0.00    -0.039 C  
HETATM    2  C   UNL     1      -7.504   1.944  68.653  1.00  0.00    -0.043 C  
ENDROOT
BRANCH   2   3
HETATM    3  O   UNL     1      -8.532   2.781  68.105  1.00  0.00    -0.075 OA 
BRANCH   3   4
HETATM    4  C   UNL     1      -8.129   3.672  67.165  1.00  0.00    -0.091 C  
HETATM    5  O   UNL     1      -8.270   3.542  65.959  1.00  0.00    -0.096 OA 
BRANCH   4   6
HETATM    6  C   UNL     1      -7.569   4.875  67.831  1.00  0.00    -0.083 C  
HETATM    7  C   UNL     1      -6.986   4.781  69.049  1.00  0.00    -0.052 C  
HETATM    8  N   UNL     1      -6.459   5.916  69.641  1.00  0.00    -0.040 NA 
HETATM    9  C   UNL     1      -6.803   3.535  69.887  1.00  0.00    -0.034 C  
HETATM   10  C   UNL     1      -6.562   7.196  69.141  1.00  0.00    -0.044 C  
HETATM   11  C   UNL     1      -5.991   8.277  70.031  1.00  0.00    -0.025 C  
HETATM   12  C   UNL     1      -7.137   7.411  67.933  1.00  0.00    -0.085 C  
HETATM   13  C   UNL     1      -7.653   6.229  67.092  1.00  0.00    -0.096 C  
BRANCH  12  14
HETATM   14  C   UNL     1      -7.303   8.814  67.465  1.00  0.00    -0.081 C  
HETATM   15  O   UNL     1      -7.650   9.740  68.184  1.00  0.00    -0.081 OA 
BRANCH  14  16
HETATM   16  O   UNL     1      -7.035   8.944  66.138  1.00  0.00    -0.079 OA 
HETATM   17  C   UNL     1      -5.937   8.141  65.698  1.00  0.00    -0.041 C  
ENDBRANCH  14  16
ENDBRANCH  12  14
BRANCH  13  18
HETATM   18  C   UNL     1      -9.066   6.487  66.554  1.00  0.00    -0.166 A  
HETATM   19  C   UNL     1      -9.794   7.623  66.940  1.00  0.00    -0.304 A  
HETATM   20  C   UNL     1      -9.642   5.590  65.633  1.00  0.00     0.028 A  
HETATM   21  C   UNL     1     -11.062   7.870  66.410  1.00  0.00     1.648 A  
HETATM   22  C   UNL     1     -10.903   5.859  65.085  1.00  0.00     2.645 A  
HETATM   23  N   UNL     1     -11.460   4.961  64.066  1.00  0.00     1.616 N  
HETATM   24  C   UNL     1     -11.618   6.996  65.476  1.00  0.00     6.578 A  
HETATM   25  O   UNL     1     -10.779   3.987  63.717  1.00  0.00    -0.216 OA 
HETATM   26  O   UNL     1     -12.576   5.239  63.600  1.00  0.00     4.027 OA 
ENDBRANCH  13  18
ENDBRANCH   4   6
ENDBRANCH   3   4
ENDBRANCH   2   3
TORSDOF 6
ENDMDL
MODEL      246
REMARK 921   NORMALIZED FREE ENERGY PREDICTED BY IDOCK:   25.48 KCAL/MOL
REMARK 922        TOTAL FREE ENERGY PREDICTED BY IDOCK:   33.27 KCAL/MOL
REMARK 923 INTER-LIGAND FREE ENERGY PREDICTED BY IDOCK:   26.94 KCAL/MOL
REMARK 924 INTRA-LIGAND FREE ENERGY PREDICTED BY IDOCK:    6.33 KCAL/MOL
REMARK 927      BINDING AFFINITY PREDICTED BY RF-SCORE:    0.00 PKD
ROOT
HETATM    1  C   UNL     1      -5.789  13.417  69.705  1.00  0.00    -0.119 C  
HETATM    2  C   UNL     1      -5.925  11.932  69.424  1.00  0.00    -0.084 C  
ENDROOT
BRANCH   2   3
HETATM    3  O   UNL     1      -7.291  11.708  69.048  1.00  0.00    -0.112 OA 
BRANCH   3   4
HETATM    4  C   UNL     1      -8.156  11.491  70.070  1.00  0.00     1.875 C  
HETATM    5  O   UNL     1      -7.857  11.055  71.171  1.00  0.00     2.921 OA 
BRANCH   4   6
HETATM    6  C   UNL     1      -9.512  11.951  69.676  1.00  0.00     1.442 C  
HETATM    7  C   UNL     1     -10.493  11.057  69.410  1.00  0.00    -0.142 C  
HETATM    8  N   UNL     1     -11.752  11.513  69.060  1.00  0.00    -0.307 NA 
HETATM    9  C   UNL     1     -10.402   9.548  69.464  1.00  0.00    -0.229 C  
HETATM   10  C   UNL     1     -12.092  12.832  68.851  1.00  0.00    -0.135 C  
HETATM   11  C   UNL     1     -13.509  13.058  68.375  1.00  0.00     5.548 C  
HETATM   12  C   UNL     1     -11.185  13.813  69.077  1.00  0.00    -0.313 C  
HETATM   13  C   UNL     1      -9.778  13.470  69.599  1.00  0.00     1.249 C  
BRANCH  12  14
HETATM   14  C   UNL     1     -11.564  15.217  68.762  1.00  0.00    -0.349 C  
HETATM   15  O   UNL     1     -10.857  15.995  68.138  1.00  0.00    -0.297 OA 
BRANCH  14  16
HETATM   16  O   UNL     1     -12.788  15.539  69.261  1.00  0.00     0.207 OA 
HETATM   17  C   UNL     1     -13.122  16.921  69.098  1.00  0.00     5.221 C  
ENDBRANCH  14  16
ENDBRANCH  12  14
BRANCH  13  18
HETATM   18  C   UNL     1      -8.684  14.190  68.801  1.00  0.00    -0.065 A  
HETATM   19  C   UNL     1      -8.381  15.540  69.038  1.00  0.00    -0.227 A  
HETATM   20  C   UNL     1      -7.944  13.487  67.830  1.00  0.00    -0.162 A  
HETATM   21  C   UNL     1      -7.354  16.173  68.336  1.00  0.00    -0.140 A  
HETATM   22  C   UNL     1      -6.897  14.122  67.149  1.00  0.00     0.458 A  
HETATM   23  N   UNL     1      -6.079  13.359  66.198  1.00  0.00     4.108 N  
HETATM   24  C   UNL     1      -6.603  15.467  67.396  1.00  0.00    -0.150 A  
HETATM   25  O   UNL     1      -6.345  12.160  66.037  1.00  0.00     0.592 OA 
HETATM   26  O   UNL     1      -5.157  13.956  65.622  1.00  0.00     6.153 OA 
ENDBRANCH  13  18
ENDBRANCH   4   6
ENDBRANCH   3   4
ENDBRANCH   2   3
TORSDOF 6
ENDMDL
