MODEL        1
REMARK 921   NORMALIZED FREE ENERGY PREDICTED BY IDOCK:   -5.11 KCAL/MOL
REMARK 922        TOTAL FREE ENERGY PREDICTED BY IDOCK:   -8.86 KCAL/MOL
REMARK 923 INTER-LIGAND FREE ENERGY PREDICTED BY IDOCK:   -7.80 KCAL/MOL
REMARK 924 INTRA-LIGAND FREE ENERGY PREDICTED BY IDOCK:   -1.06 KCAL/MOL
REMARK 927      BINDING AFFINITY PREDICTED BY RF-SCORE:    0.00 PKD
ROOT
HETATM    1  C   UNL     1     -13.027  11.682  63.573  1.00  0.00     0.063 C  
HETATM    2  N   UNL     1     -12.968  12.637  64.657  1.00  0.00    -0.844 NA 
HETATM    3  H   UNL     1     -13.767  12.628  65.291  1.00  0.00     0.000 HD 
ENDROOT
BRANCH   2   4
HETATM    4  C   UNL     1     -11.982  13.561  64.956  1.00  0.00    -0.372 C  
HETATM    5  C   UNL     1     -12.062  14.800  64.427  1.00  0.00    -0.440 C  
HETATM    6  O   UNL     1     -10.140  15.640  65.428  1.00  0.00    -0.355 OA 
HETATM    7  N   UNL     1     -11.099  15.844  64.671  1.00  0.00    -0.440 N  
HETATM    8  O   UNL     1     -11.314  16.914  64.086  1.00  0.00    -1.208 OA 
BRANCH   4   9
HETATM    9  N   UNL     1     -10.942  13.161  65.777  1.00  0.00    -0.276 NA 
HETATM   10  H   UNL     1     -10.627  13.867  66.443  1.00  0.00     0.000 HD 
BRANCH   9  11
HETATM   11  C   UNL     1     -10.229  11.902  65.843  1.00  0.00    -0.236 C  
BRANCH  11  12
HETATM   12  C   UNL     1     -10.908  10.949  66.831  1.00  0.00    -0.249 C  
BRANCH  12  13
HETATM   13  S   UNL     1     -10.353  11.201  68.552  1.00  0.00    -0.201 SA 
BRANCH  13  14
HETATM   14  C   UNL     1     -11.927  11.729  69.308  1.00  0.00    -0.291 C  
BRANCH  14  15
HETATM   15  C   UNL     1     -11.887  13.175  69.667  1.00  0.00    -0.324 A  
HETATM   16  C   UNL     1     -12.186  13.733  70.893  1.00  0.00    -0.349 A  
HETATM   17  S   UNL     1     -11.988  15.433  70.831  1.00  0.00    -0.402 SA 
HETATM   18  C   UNL     1     -11.542  15.312  69.175  1.00  0.00    -0.332 A  
HETATM   19  N   UNL     1     -11.556  14.091  68.676  1.00  0.00    -0.302 NA 
BRANCH  18  20
HETATM   20  C   UNL     1     -11.201  16.546  68.375  1.00  0.00    -0.280 C  
BRANCH  20  21
HETATM   21  N   UNL     1     -10.071  17.333  68.921  1.00  0.00    -0.325 NA 
HETATM   22  C   UNL     1      -8.781  16.719  68.586  1.00  0.00    -0.255 C  
HETATM   23  C   UNL     1     -10.119  18.695  68.383  1.00  0.00    -0.383 C  
ENDBRANCH  20  21
ENDBRANCH  18  20
ENDBRANCH  14  15
ENDBRANCH  13  14
ENDBRANCH  12  13
ENDBRANCH  11  12
ENDBRANCH   9  11
ENDBRANCH   4   9
ENDBRANCH   2   4
TORSDOF 9
ENDMDL
MODEL        2
REMARK 921   NORMALIZED FREE ENERGY PREDICTED BY IDOCK:   -4.98 KCAL/MOL
REMARK 922        TOTAL FREE ENERGY PREDICTED BY IDOCK:   -8.66 KCAL/MOL
REMARK 923 INTER-LIGAND FREE ENERGY PREDICTED BY IDOCK:   -7.50 KCAL/MOL
REMARK 924 INTRA-LIGAND FREE ENERGY PREDICTED BY IDOCK:   -1.16 KCAL/MOL
REMARK 927      BINDING AFFINITY PREDICTED BY RF-SCORE:    0.00 PKD
ROOT
HETATM    1  C   UNL     1      -9.084  11.576  66.195  1.00  0.00    -0.209 C  
HETATM    2  N   UNL     1      -9.578  12.911  65.944  1.00  0.00    -0.435 NA 
HETATM    3  H   UNL     1      -9.184  13.642  66.536  1.00  0.00     0.000 HD 
ENDROOT
BRANCH   2   4
HETATM    4  C   UNL     1     -10.510  13.338  65.014  1.00  0.00    -0.353 C  
HETATM    5  C   UNL     1     -11.390  12.446  64.512  1.00  0.00    -0.328 C  
HETATM    6  O   UNL     1     -12.530  13.942  63.144  1.00  0.00    -0.766 OA 
HETATM    7  N   UNL     1     -12.407  12.776  63.544  1.00  0.00    -0.494 N  
HETATM    8  O   UNL     1     -13.115  11.831  63.173  1.00  0.00    -0.568 OA 
BRANCH   4   9
HETATM    9  N   UNL     1     -10.483  14.667  64.627  1.00  0.00    -0.560 NA 
HETATM   10  H   UNL     1     -10.217  14.823  63.655  1.00  0.00     0.000 HD 
BRANCH   9  11
HETATM   11  C   UNL     1     -10.771  15.869  65.380  1.00  0.00    -0.399 C  
BRANCH  11  12
HETATM   12  C   UNL     1      -9.542  16.311  66.181  1.00  0.00    -0.331 C  
BRANCH  12  13
HETATM   13  S   UNL     1      -9.718  16.003  67.972  1.00  0.00    -0.218 SA 
BRANCH  13  14
HETATM   14  C   UNL     1     -11.511  15.676  68.053  1.00  0.00    -0.291 C  
BRANCH  14  15
HETATM   15  C   UNL     1     -11.800  14.502  68.924  1.00  0.00    -0.324 A  
HETATM   16  C   UNL     1     -12.355  14.524  70.187  1.00  0.00    -0.342 A  
HETATM   17  S   UNL     1     -12.505  12.930  70.794  1.00  0.00    -0.196 SA 
HETATM   18  C   UNL     1     -11.802  12.323  69.347  1.00  0.00    -0.310 A  
HETATM   19  N   UNL     1     -11.449  13.238  68.465  1.00  0.00    -0.288 NA 
BRANCH  18  20
HETATM   20  C   UNL     1     -11.586  10.840  69.157  1.00  0.00    -0.305 C  
BRANCH  20  21
HETATM   21  N   UNL     1     -10.699  10.220  70.169  1.00  0.00    -0.289 NA 
HETATM   22  C   UNL     1     -11.293   8.998  70.722  1.00  0.00    -0.277 C  
HETATM   23  C   UNL     1      -9.407   9.902  69.555  1.00  0.00    -0.220 C  
ENDBRANCH  20  21
ENDBRANCH  18  20
ENDBRANCH  14  15
ENDBRANCH  13  14
ENDBRANCH  12  13
ENDBRANCH  11  12
ENDBRANCH   9  11
ENDBRANCH   4   9
ENDBRANCH   2   4
TORSDOF 9
ENDMDL
MODEL        3
REMARK 921   NORMALIZED FREE ENERGY PREDICTED BY IDOCK:   -4.91 KCAL/MOL
REMARK 922        TOTAL FREE ENERGY PREDICTED BY IDOCK:   -8.56 KCAL/MOL
REMARK 923 INTER-LIGAND FREE ENERGY PREDICTED BY IDOCK:   -7.62 KCAL/MOL
REMARK 924 INTRA-LIGAND FREE ENERGY PREDICTED BY IDOCK:   -0.93 KCAL/MOL
REMARK 927      BINDING AFFINITY PREDICTED BY RF-SCORE:    0.00 PKD
ROOT
HETATM    1  C   UNL     1     -11.647  15.461  67.972  1.00  0.00    -0.292 C  
HETATM    2  N   UNL     1     -12.157  14.311  67.260  1.00  0.00    -0.557 NA 
HETATM    3  H   UNL     1     -13.015  13.908  67.636  1.00  0.00     0.000 HD 
ENDROOT
BRANCH   2   4
HETATM    4  C   UNL     1     -11.646  13.680  66.139  1.00  0.00    -0.347 C  
HETATM    5  C   UNL     1     -12.500  13.145  65.241  1.00  0.00    -0.495 C  
HETATM    6  O   UNL     1     -10.880  12.377  63.760  1.00  0.00    -0.384 OA 
HETATM    7  N   UNL     1     -12.084  12.470  64.037  1.00  0.00    -0.434 N  
HETATM    8  O   UNL     1     -13.000  12.018  63.337  1.00  0.00    -0.772 OA 
BRANCH   4   9
HETATM    9  N   UNL     1     -10.270  13.611  66.000  1.00  0.00    -0.300 NA 
HETATM   10  H   UNL     1      -9.900  14.077  65.172  1.00  0.00     0.000 HD 
BRANCH   9  11
HETATM   11  C   UNL     1      -9.272  12.985  66.842  1.00  0.00    -0.236 C  
BRANCH  11  12
HETATM   12  C   UNL     1      -9.503  11.472  66.918  1.00  0.00    -0.182 C  
BRANCH  12  13
HETATM   13  S   UNL     1      -9.188  10.791  68.582  1.00  0.00    -0.189 SA 
BRANCH  13  14
HETATM   14  C   UNL     1     -10.794   9.979  68.890  1.00  0.00    -0.220 C  
BRANCH  14  15
HETATM   15  C   UNL     1     -11.601  10.753  69.874  1.00  0.00    -0.331 A  
HETATM   16  C   UNL     1     -12.302  10.247  70.950  1.00  0.00    -0.373 A  
HETATM   17  S   UNL     1     -13.070  11.518  71.804  1.00  0.00    -0.274 SA 
HETATM   18  C   UNL     1     -12.437  12.648  70.672  1.00  0.00    -0.239 A  
HETATM   19  N   UNL     1     -11.715  12.127  69.699  1.00  0.00    -0.321 NA 
BRANCH  18  20
HETATM   20  C   UNL     1     -12.742  14.121  70.801  1.00  0.00    -0.344 C  
BRANCH  20  21
HETATM   21  N   UNL     1     -12.875  14.596  72.197  1.00  0.00    -0.319 NA 
HETATM   22  C   UNL     1     -11.692  15.353  72.620  1.00  0.00    -0.453 C  
HETATM   23  C   UNL     1     -14.065  15.443  72.313  1.00  0.00    -0.564 C  
ENDBRANCH  20  21
ENDBRANCH  18  20
ENDBRANCH  14  15
ENDBRANCH  13  14
ENDBRANCH  12  13
ENDBRANCH  11  12
ENDBRANCH   9  11
ENDBRANCH   4   9
ENDBRANCH   2   4
TORSDOF 9
ENDMDL
MODEL        4
REMARK 921   NORMALIZED FREE ENERGY PREDICTED BY IDOCK:   -4.85 KCAL/MOL
REMARK 922        TOTAL FREE ENERGY PREDICTED BY IDOCK:   -8.47 KCAL/MOL
REMARK 923 INTER-LIGAND FREE ENERGY PREDICTED BY IDOCK:   -7.77 KCAL/MOL
REMARK 924 INTRA-LIGAND FREE ENERGY PREDICTED BY IDOCK:   -0.70 KCAL/MOL
REMARK 927      BINDING AFFINITY PREDICTED BY RF-SCORE:    0.00 PKD
ROOT
HETATM    1  C   UNL     1      -8.733  10.299  64.701  1.00  0.00    -0.190 C  
HETATM    2  N   UNL     1      -9.091  11.681  64.930  1.00  0.00    -0.413 NA 
HETATM    3  H   UNL     1      -8.474  12.194  65.560  1.00  0.00     0.000 HD 
ENDROOT
BRANCH   2   4
HETATM    4  C   UNL     1     -10.152  12.407  64.416  1.00  0.00    -0.267 C  
HETATM    5  C   UNL     1     -11.229  11.745  63.941  1.00  0.00    -0.414 C  
HETATM    6  O   UNL     1     -12.457  13.630  63.353  1.00  0.00    -0.784 OA 
HETATM    7  N   UNL     1     -12.392  12.393  63.388  1.00  0.00    -0.542 N  
HETATM    8  O   UNL     1     -13.278  11.634  62.976  1.00  0.00    -0.411 OA 
BRANCH   4   9
HETATM    9  N   UNL     1     -10.049  13.787  64.397  1.00  0.00    -0.752 NA 
HETATM   10  H   UNL     1      -9.934  14.194  63.469  1.00  0.00     0.000 HD 
BRANCH   9  11
HETATM   11  C   UNL     1     -10.080  14.745  65.483  1.00  0.00    -0.380 C  
BRANCH  11  12
HETATM   12  C   UNL     1     -11.111  14.331  66.537  1.00  0.00    -0.323 C  
BRANCH  12  13
HETATM   13  S   UNL     1     -10.355  13.958  68.157  1.00  0.00    -0.253 SA 
BRANCH  13  14
HETATM   14  C   UNL     1     -10.678  12.164  68.240  1.00  0.00    -0.223 C  
BRANCH  14  15
HETATM   15  C   UNL     1     -11.464  11.820  69.458  1.00  0.00    -0.295 A  
HETATM   16  C   UNL     1     -12.097  12.700  70.312  1.00  0.00    -0.294 A  
HETATM   17  S   UNL     1     -12.883  11.842  71.568  1.00  0.00    -0.224 SA 
HETATM   18  C   UNL     1     -12.309  10.363  70.904  1.00  0.00    -0.381 A  
HETATM   19  N   UNL     1     -11.558  10.483  69.827  1.00  0.00    -0.278 NA 
BRANCH  18  20
HETATM   20  C   UNL     1     -12.635   9.044  71.562  1.00  0.00    -0.338 C  
BRANCH  20  21
HETATM   21  N   UNL     1     -11.529   8.059  71.533  1.00  0.00    -0.256 NA 
HETATM   22  C   UNL     1     -10.877   7.946  72.842  1.00  0.00    -0.386 C  
HETATM   23  C   UNL     1     -12.051   6.750  71.132  1.00  0.00    -0.370 C  
ENDBRANCH  20  21
ENDBRANCH  18  20
ENDBRANCH  14  15
ENDBRANCH  13  14
ENDBRANCH  12  13
ENDBRANCH  11  12
ENDBRANCH   9  11
ENDBRANCH   4   9
ENDBRANCH   2   4
TORSDOF 9
ENDMDL
MODEL        5
REMARK 921   NORMALIZED FREE ENERGY PREDICTED BY IDOCK:   -4.84 KCAL/MOL
REMARK 922        TOTAL FREE ENERGY PREDICTED BY IDOCK:   -8.45 KCAL/MOL
REMARK 923 INTER-LIGAND FREE ENERGY PREDICTED BY IDOCK:   -7.88 KCAL/MOL
REMARK 924 INTRA-LIGAND FREE ENERGY PREDICTED BY IDOCK:   -0.57 KCAL/MOL
REMARK 927      BINDING AFFINITY PREDICTED BY RF-SCORE:    0.00 PKD
ROOT
HETATM    1  C   UNL     1     -10.267  11.318  63.439  1.00  0.00    -0.403 C  
HETATM    2  N   UNL     1     -10.824  12.137  64.492  1.00  0.00    -0.295 NA 
HETATM    3  H   UNL     1     -11.552  11.694  65.052  1.00  0.00     0.000 HD 
ENDROOT
BRANCH   2   4
HETATM    4  C   UNL     1     -10.511  13.438  64.847  1.00  0.00    -0.390 C  
HETATM    5  C   UNL     1     -11.220  14.453  64.310  1.00  0.00    -0.094 C  
HETATM    6  O   UNL     1     -10.111  16.167  65.422  1.00  0.00    -0.485 OA 
HETATM    7  N   UNL     1     -10.988  15.844  64.609  1.00  0.00    -0.411 N  
HETATM    8  O   UNL     1     -11.716  16.646  64.009  1.00  0.00    -1.143 OA 
BRANCH   4   9
HETATM    9  N   UNL     1      -9.463  13.638  65.730  1.00  0.00    -0.506 NA 
HETATM   10  H   UNL     1      -8.832  14.399  65.478  1.00  0.00     0.000 HD 
BRANCH   9  11
HETATM   11  C   UNL     1      -9.120  12.941  66.952  1.00  0.00    -0.224 C  
BRANCH  11  12
HETATM   12  C   UNL     1     -10.010  13.409  68.107  1.00  0.00    -0.237 C  
BRANCH  12  13
HETATM   13  S   UNL     1     -11.620  12.550  68.153  1.00  0.00    -0.355 SA 
BRANCH  13  14
HETATM   14  C   UNL     1     -12.055  12.807  69.906  1.00  0.00    -0.259 C  
BRANCH  14  15
HETATM   15  C   UNL     1     -12.162  11.505  70.625  1.00  0.00    -0.378 A  
HETATM   16  C   UNL     1     -13.068  11.177  71.613  1.00  0.00    -0.424 A  
HETATM   17  S   UNL     1     -12.814   9.565  72.133  1.00  0.00    -0.368 SA 
HETATM   18  C   UNL     1     -11.505   9.424  71.027  1.00  0.00    -0.334 A  
HETATM   19  N   UNL     1     -11.244  10.507  70.322  1.00  0.00    -0.312 NA 
BRANCH  18  20
HETATM   20  C   UNL     1     -10.713   8.142  70.929  1.00  0.00    -0.221 C  
BRANCH  20  21
HETATM   21  N   UNL     1     -11.542   6.924  70.776  1.00  0.00    -0.330 NA 
HETATM   22  C   UNL     1     -11.268   6.247  69.504  1.00  0.00    -0.430 C  
HETATM   23  C   UNL     1     -11.271   6.008  71.886  1.00  0.00    -0.282 C  
ENDBRANCH  20  21
ENDBRANCH  18  20
ENDBRANCH  14  15
ENDBRANCH  13  14
ENDBRANCH  12  13
ENDBRANCH  11  12
ENDBRANCH   9  11
ENDBRANCH   4   9
ENDBRANCH   2   4
TORSDOF 9
ENDMDL
MODEL        6
REMARK 921   NORMALIZED FREE ENERGY PREDICTED BY IDOCK:   -4.83 KCAL/MOL
REMARK 922        TOTAL FREE ENERGY PREDICTED BY IDOCK:   -8.44 KCAL/MOL
REMARK 923 INTER-LIGAND FREE ENERGY PREDICTED BY IDOCK:   -7.86 KCAL/MOL
REMARK 924 INTRA-LIGAND FREE ENERGY PREDICTED BY IDOCK:   -0.58 KCAL/MOL
REMARK 927      BINDING AFFINITY PREDICTED BY RF-SCORE:    0.00 PKD
ROOT
HETATM    1  C   UNL     1     -12.812  11.717  63.553  1.00  0.00    -0.220 C  
HETATM    2  N   UNL     1     -12.825  12.626  64.678  1.00  0.00    -0.792 NA 
HETATM    3  H   UNL     1     -13.642  12.559  65.285  1.00  0.00     0.000 HD 
ENDROOT
BRANCH   2   4
HETATM    4  C   UNL     1     -11.885  13.574  65.047  1.00  0.00    -0.353 C  
HETATM    5  C   UNL     1     -11.973  14.818  64.532  1.00  0.00    -0.440 C  
HETATM    6  O   UNL     1     -10.137  15.697  65.656  1.00  0.00    -0.321 OA 
HETATM    7  N   UNL     1     -11.056  15.886  64.848  1.00  0.00    -0.426 N  
HETATM    8  O   UNL     1     -11.269  16.958  64.267  1.00  0.00    -1.204 OA 
BRANCH   4   9
HETATM    9  N   UNL     1     -10.883  13.190  65.921  1.00  0.00    -0.272 NA 
HETATM   10  H   UNL     1     -10.742  13.818  66.713  1.00  0.00     0.000 HD 
BRANCH   9  11
HETATM   11  C   UNL     1     -10.001  12.042  65.893  1.00  0.00    -0.236 C  
BRANCH  11  12
HETATM   12  C   UNL     1     -10.342  11.073  67.029  1.00  0.00    -0.228 C  
BRANCH  12  13
HETATM   13  S   UNL     1     -10.099  11.808  68.682  1.00  0.00    -0.149 SA 
BRANCH  13  14
HETATM   14  C   UNL     1     -11.823  11.798  69.279  1.00  0.00    -0.326 C  
BRANCH  14  15
HETATM   15  C   UNL     1     -12.018  10.757  70.328  1.00  0.00    -0.351 A  
HETATM   16  C   UNL     1     -13.204  10.415  70.945  1.00  0.00    -0.244 A  
HETATM   17  S   UNL     1     -12.938   9.158  72.076  1.00  0.00    -0.451 SA 
HETATM   18  C   UNL     1     -11.264   9.171  71.684  1.00  0.00    -0.377 A  
HETATM   19  N   UNL     1     -10.903  10.066  70.785  1.00  0.00    -0.308 NA 
BRANCH  18  20
HETATM   20  C   UNL     1     -10.302   8.232  72.373  1.00  0.00    -0.332 C  
BRANCH  20  21
HETATM   21  N   UNL     1     -10.897   6.934  72.767  1.00  0.00    -0.255 NA 
HETATM   22  C   UNL     1     -10.659   5.905  71.749  1.00  0.00    -0.234 C  
HETATM   23  C   UNL     1     -10.321   6.501  74.043  1.00  0.00    -0.340 C  
ENDBRANCH  20  21
ENDBRANCH  18  20
ENDBRANCH  14  15
ENDBRANCH  13  14
ENDBRANCH  12  13
ENDBRANCH  11  12
ENDBRANCH   9  11
ENDBRANCH   4   9
ENDBRANCH   2   4
TORSDOF 9
ENDMDL
MODEL        7
REMARK 921   NORMALIZED FREE ENERGY PREDICTED BY IDOCK:   -4.79 KCAL/MOL
REMARK 922        TOTAL FREE ENERGY PREDICTED BY IDOCK:   -8.37 KCAL/MOL
REMARK 923 INTER-LIGAND FREE ENERGY PREDICTED BY IDOCK:   -8.06 KCAL/MOL
REMARK 924 INTRA-LIGAND FREE ENERGY PREDICTED BY IDOCK:   -0.31 KCAL/MOL
REMARK 927      BINDING AFFINITY PREDICTED BY RF-SCORE:    0.00 PKD
ROOT
HETATM    1  C   UNL     1     -10.226  16.778  65.796  1.00  0.00    -0.291 C  
HETATM    2  N   UNL     1     -10.892  15.938  64.825  1.00  0.00    -0.738 NA 
HETATM    3  H   UNL     1     -11.409  16.434  64.099  1.00  0.00     0.000 HD 
ENDROOT
BRANCH   2   4
HETATM    4  C   UNL     1     -10.927  14.556  64.741  1.00  0.00    -0.391 C  
HETATM    5  C   UNL     1     -12.034  13.957  64.255  1.00  0.00    -0.444 C  
HETATM    6  O   UNL     1     -11.249  11.775  64.426  1.00  0.00    -0.322 OA 
HETATM    7  N   UNL     1     -12.182  12.530  64.116  1.00  0.00    -0.436 N  
HETATM    8  O   UNL     1     -13.274  12.149  63.675  1.00  0.00    -0.770 OA 
BRANCH   4   9
HETATM    9  N   UNL     1      -9.821  13.849  65.180  1.00  0.00    -0.595 NA 
HETATM   10  H   UNL     1      -9.087  13.728  64.482  1.00  0.00     0.000 HD 
BRANCH   9  11
HETATM   11  C   UNL     1      -9.538  13.255  66.470  1.00  0.00    -0.264 C  
BRANCH  11  12
HETATM   12  C   UNL     1     -10.541  13.744  67.519  1.00  0.00    -0.244 C  
BRANCH  12  13
HETATM   13  S   UNL     1     -11.744  12.457  68.001  1.00  0.00    -0.328 SA 
BRANCH  13  14
HETATM   14  C   UNL     1     -11.731  12.687  69.811  1.00  0.00    -0.284 C  
BRANCH  14  15
HETATM   15  C   UNL     1     -11.938  11.390  70.514  1.00  0.00    -0.356 A  
HETATM   16  C   UNL     1     -12.932  11.090  71.424  1.00  0.00    -0.414 A  
HETATM   17  S   UNL     1     -12.774   9.471  71.958  1.00  0.00    -0.385 SA 
HETATM   18  C   UNL     1     -11.384   9.288  70.962  1.00  0.00    -0.320 A  
HETATM   19  N   UNL     1     -11.031  10.362  70.284  1.00  0.00    -0.301 NA 
BRANCH  18  20
HETATM   20  C   UNL     1     -10.628   7.981  70.925  1.00  0.00    -0.213 C  
BRANCH  20  21
HETATM   21  N   UNL     1     -11.486   6.787  70.744  1.00  0.00    -0.320 NA 
HETATM   22  C   UNL     1     -11.135   6.055  69.522  1.00  0.00    -0.398 C  
HETATM   23  C   UNL     1     -11.340   5.902  71.903  1.00  0.00    -0.247 C  
ENDBRANCH  20  21
ENDBRANCH  18  20
ENDBRANCH  14  15
ENDBRANCH  13  14
ENDBRANCH  12  13
ENDBRANCH  11  12
ENDBRANCH   9  11
ENDBRANCH   4   9
ENDBRANCH   2   4
TORSDOF 9
ENDMDL
MODEL        8
REMARK 921   NORMALIZED FREE ENERGY PREDICTED BY IDOCK:   -4.76 KCAL/MOL
REMARK 922        TOTAL FREE ENERGY PREDICTED BY IDOCK:   -8.34 KCAL/MOL
REMARK 923 INTER-LIGAND FREE ENERGY PREDICTED BY IDOCK:   -8.02 KCAL/MOL
REMARK 924 INTRA-LIGAND FREE ENERGY PREDICTED BY IDOCK:   -0.32 KCAL/MOL
REMARK 927      BINDING AFFINITY PREDICTED BY RF-SCORE:    0.00 PKD
ROOT
HETATM    1  C   UNL     1     -11.030  17.234  65.205  1.00  0.00     0.091 C  
HETATM    2  N   UNL     1     -11.141  16.111  64.301  1.00  0.00    -1.134 NA 
HETATM    3  H   UNL     1     -11.228  16.351  63.314  1.00  0.00     0.000 HD 
ENDROOT
BRANCH   2   4
HETATM    4  C   UNL     1     -11.146  14.756  64.587  1.00  0.00    -0.325 C  
HETATM    5  C   UNL     1     -12.230  14.021  64.260  1.00  0.00    -0.418 C  
HETATM    6  O   UNL     1     -11.404  11.983  65.016  1.00  0.00    -0.322 OA 
HETATM    7  N   UNL     1     -12.345  12.605  64.503  1.00  0.00    -0.451 N  
HETATM    8  O   UNL     1     -13.419  12.092  64.162  1.00  0.00    -0.671 OA 
BRANCH   4   9
HETATM    9  N   UNL     1     -10.035  14.219  65.214  1.00  0.00    -0.550 NA 
HETATM   10  H   UNL     1      -9.270  13.967  64.588  1.00  0.00     0.000 HD 
BRANCH   9  11
HETATM   11  C   UNL     1      -9.784  13.957  66.616  1.00  0.00    -0.289 C  
BRANCH  11  12
HETATM   12  C   UNL     1      -9.108  15.162  67.277  1.00  0.00    -0.198 C  
BRANCH  12  13
HETATM   13  S   UNL     1      -9.941  15.685  68.815  1.00  0.00    -0.224 SA 
BRANCH  13  14
HETATM   14  C   UNL     1     -11.573  14.910  68.559  1.00  0.00    -0.323 C  
BRANCH  14  15
HETATM   15  C   UNL     1     -12.187  14.519  69.859  1.00  0.00    -0.328 A  
HETATM   16  C   UNL     1     -12.702  15.366  70.820  1.00  0.00    -0.459 A  
HETATM   17  S   UNL     1     -13.309  14.460  72.140  1.00  0.00    -0.441 SA 
HETATM   18  C   UNL     1     -12.826  13.009  71.355  1.00  0.00    -0.292 A  
HETATM   19  N   UNL     1     -12.226  13.171  70.191  1.00  0.00    -0.318 NA 
BRANCH  18  20
HETATM   20  C   UNL     1     -13.056  11.666  72.005  1.00  0.00    -0.328 C  
BRANCH  20  21
HETATM   21  N   UNL     1     -12.863  10.509  71.100  1.00  0.00    -0.387 NA 
HETATM   22  C   UNL     1     -11.477  10.030  71.131  1.00  0.00    -0.354 C  
HETATM   23  C   UNL     1     -13.765   9.424  71.496  1.00  0.00    -0.294 C  
ENDBRANCH  20  21
ENDBRANCH  18  20
ENDBRANCH  14  15
ENDBRANCH  13  14
ENDBRANCH  12  13
ENDBRANCH  11  12
ENDBRANCH   9  11
ENDBRANCH   4   9
ENDBRANCH   2   4
TORSDOF 9
ENDMDL
MODEL        9
REMARK 921   NORMALIZED FREE ENERGY PREDICTED BY IDOCK:   -4.75 KCAL/MOL
REMARK 922        TOTAL FREE ENERGY PREDICTED BY IDOCK:   -8.32 KCAL/MOL
REMARK 923 INTER-LIGAND FREE ENERGY PREDICTED BY IDOCK:   -7.83 KCAL/MOL
REMARK 924 INTRA-LIGAND FREE ENERGY PREDICTED BY IDOCK:   -0.49 KCAL/MOL
REMARK 927      BINDING AFFINITY PREDICTED BY RF-SCORE:    0.00 PKD
ROOT
HETATM    1  C   UNL     1      -8.327  13.443  67.218  1.00  0.00    -0.176 C  
HETATM    2  N   UNL     1      -9.149  14.253  66.347  1.00  0.00    -0.473 NA 
HETATM    3  H   UNL     1      -8.666  15.017  65.875  1.00  0.00     0.000 HD 
ENDROOT
BRANCH   2   4
HETATM    4  C   UNL     1     -10.500  14.139  66.064  1.00  0.00    -0.304 C  
HETATM    5  C   UNL     1     -10.890  13.987  64.781  1.00  0.00    -0.419 C  
HETATM    6  O   UNL     1     -13.170  13.845  65.213  1.00  0.00    -0.774 OA 
HETATM    7  N   UNL     1     -12.264  13.853  64.368  1.00  0.00    -0.427 N  
HETATM    8  O   UNL     1     -12.445  13.746  63.148  1.00  0.00    -0.786 OA 
BRANCH   4   9
HETATM    9  N   UNL     1     -11.394  14.205  67.119  1.00  0.00    -0.317 NA 
HETATM   10  H   UNL     1     -12.045  13.421  67.176  1.00  0.00     0.000 HD 
BRANCH   9  11
HETATM   11  C   UNL     1     -11.554  15.206  68.153  1.00  0.00    -0.341 C  
BRANCH  11  12
HETATM   12  C   UNL     1     -11.041  14.679  69.496  1.00  0.00    -0.266 C  
BRANCH  12  13
HETATM   13  S   UNL     1     -12.238  13.580  70.329  1.00  0.00    -0.315 SA 
BRANCH  13  14
HETATM   14  C   UNL     1     -11.691  11.971  69.664  1.00  0.00    -0.335 C  
BRANCH  14  15
HETATM   15  C   UNL     1     -12.146  10.852  70.536  1.00  0.00    -0.371 A  
HETATM   16  C   UNL     1     -13.103  10.912  71.529  1.00  0.00    -0.399 A  
HETATM   17  S   UNL     1     -13.297   9.373  72.255  1.00  0.00    -0.431 SA 
HETATM   18  C   UNL     1     -12.081   8.740  71.216  1.00  0.00    -0.296 A  
HETATM   19  N   UNL     1     -11.537   9.612  70.389  1.00  0.00    -0.255 NA 
BRANCH  18  20
HETATM   20  C   UNL     1     -11.669   7.290  71.304  1.00  0.00    -0.296 C  
BRANCH  20  21
HETATM   21  N   UNL     1     -11.322   6.837  72.671  1.00  0.00    -0.248 NA 
HETATM   22  C   UNL     1     -11.089   5.390  72.713  1.00  0.00    -0.294 C  
HETATM   23  C   UNL     1     -10.120   7.540  73.127  1.00  0.00    -0.308 C  
ENDBRANCH  20  21
ENDBRANCH  18  20
ENDBRANCH  14  15
ENDBRANCH  13  14
ENDBRANCH  12  13
ENDBRANCH  11  12
ENDBRANCH   9  11
ENDBRANCH   4   9
ENDBRANCH   2   4
TORSDOF 9
ENDMDL
MODEL       10
REMARK 921   NORMALIZED FREE ENERGY PREDICTED BY IDOCK:   -4.75 KCAL/MOL
REMARK 922        TOTAL FREE ENERGY PREDICTED BY IDOCK:   -8.31 KCAL/MOL
REMARK 923 INTER-LIGAND FREE ENERGY PREDICTED BY IDOCK:   -7.65 KCAL/MOL
REMARK 924 INTRA-LIGAND FREE ENERGY PREDICTED BY IDOCK:   -0.66 KCAL/MOL
REMARK 927      BINDING AFFINITY PREDICTED BY RF-SCORE:    0.00 PKD
ROOT
HETATM    1  C   UNL     1     -12.785  11.761  63.519  1.00  0.00    -0.306 C  
HETATM    2  N   UNL     1     -13.071  12.549  64.697  1.00  0.00    -0.837 NA 
HETATM    3  H   UNL     1     -13.873  12.239  65.246  1.00  0.00     0.000 HD 
ENDROOT
BRANCH   2   4
HETATM    4  C   UNL     1     -12.411  13.664  65.185  1.00  0.00    -0.449 C  
HETATM    5  C   UNL     1     -12.187  14.707  64.358  1.00  0.00    -0.452 C  
HETATM    6  O   UNL     1     -11.131  16.062  65.924  1.00  0.00    -0.167 OA 
HETATM    7  N   UNL     1     -11.516  15.919  64.755  1.00  0.00    -0.298 N  
HETATM    8  O   UNL     1     -11.373  16.765  63.862  1.00  0.00    -1.033 OA 
BRANCH   4   9
HETATM    9  N   UNL     1     -11.994  13.648  66.504  1.00  0.00    -0.405 NA 
HETATM   10  H   UNL     1     -11.906  14.568  66.936  1.00  0.00     0.000 HD 
BRANCH   9  11
HETATM   11  C   UNL     1     -11.664  12.536  67.371  1.00  0.00    -0.366 C  
BRANCH  11  12
HETATM   12  C   UNL     1     -11.078  13.039  68.694  1.00  0.00    -0.269 C  
BRANCH  12  13
HETATM   13  S   UNL     1     -11.675  14.705  69.144  1.00  0.00    -0.319 SA 
BRANCH  13  14
HETATM   14  C   UNL     1     -10.162  15.374  69.914  1.00  0.00    -0.266 C  
BRANCH  14  15
HETATM   15  C   UNL     1      -9.198  15.840  68.878  1.00  0.00    -0.227 A  
HETATM   16  C   UNL     1      -8.126  15.137  68.368  1.00  0.00    -0.139 A  
HETATM   17  S   UNL     1      -7.310  16.077  67.192  1.00  0.00    -0.225 SA 
HETATM   18  C   UNL     1      -8.424  17.360  67.458  1.00  0.00    -0.214 A  
HETATM   19  N   UNL     1      -9.339  17.130  68.379  1.00  0.00    -0.264 NA 
BRANCH  18  20
HETATM   20  C   UNL     1      -8.302  18.658  66.695  1.00  0.00    -0.287 C  
BRANCH  20  21
HETATM   21  N   UNL     1      -8.420  19.871  67.536  1.00  0.00    -0.320 NA 
HETATM   22  C   UNL     1      -7.307  20.797  67.299  1.00  0.00    -0.343 C  
HETATM   23  C   UNL     1      -9.688  20.546  67.245  1.00  0.00    -0.460 C  
ENDBRANCH  20  21
ENDBRANCH  18  20
ENDBRANCH  14  15
ENDBRANCH  13  14
ENDBRANCH  12  13
ENDBRANCH  11  12
ENDBRANCH   9  11
ENDBRANCH   4   9
ENDBRANCH   2   4
TORSDOF 9
ENDMDL
MODEL       11
REMARK 921   NORMALIZED FREE ENERGY PREDICTED BY IDOCK:   -4.71 KCAL/MOL
REMARK 922        TOTAL FREE ENERGY PREDICTED BY IDOCK:   -8.25 KCAL/MOL
REMARK 923 INTER-LIGAND FREE ENERGY PREDICTED BY IDOCK:   -7.57 KCAL/MOL
REMARK 924 INTRA-LIGAND FREE ENERGY PREDICTED BY IDOCK:   -0.68 KCAL/MOL
REMARK 927      BINDING AFFINITY PREDICTED BY RF-SCORE:    0.00 PKD
ROOT
HETATM    1  C   UNL     1     -12.764  11.920  63.792  1.00  0.00    -0.350 C  
HETATM    2  N   UNL     1     -11.546  12.227  64.509  1.00  0.00    -0.340 NA 
HETATM    3  H   UNL     1     -11.018  11.420  64.840  1.00  0.00     0.000 HD 
ENDROOT
BRANCH   2   4
HETATM    4  C   UNL     1     -10.995  13.462  64.808  1.00  0.00    -0.360 C  
HETATM    5  C   UNL     1     -11.595  14.577  64.342  1.00  0.00    -0.313 C  
HETATM    6  O   UNL     1     -10.113  16.093  65.297  1.00  0.00    -0.505 OA 
HETATM    7  N   UNL     1     -11.117  15.914  64.593  1.00  0.00    -0.440 N  
HETATM    8  O   UNL     1     -11.775  16.822  64.069  1.00  0.00    -1.120 OA 
BRANCH   4   9
HETATM    9  N   UNL     1      -9.835  13.492  65.562  1.00  0.00    -0.492 NA 
HETATM   10  H   UNL     1      -9.006  13.808  65.059  1.00  0.00     0.000 HD 
BRANCH   9  11
HETATM   11  C   UNL     1      -9.610  13.147  66.951  1.00  0.00    -0.248 C  
BRANCH  11  12
HETATM   12  C   UNL     1      -8.972  11.760  67.065  1.00  0.00    -0.186 C  
BRANCH  12  13
HETATM   13  S   UNL     1      -9.069  11.073  68.754  1.00  0.00    -0.122 SA 
BRANCH  13  14
HETATM   14  C   UNL     1     -10.774  10.423  68.723  1.00  0.00    -0.225 C  
BRANCH  14  15
HETATM   15  C   UNL     1     -11.606  11.060  69.782  1.00  0.00    -0.325 A  
HETATM   16  C   UNL     1     -12.276  10.421  70.805  1.00  0.00    -0.359 A  
HETATM   17  S   UNL     1     -13.091  11.567  71.782  1.00  0.00    -0.274 SA 
HETATM   18  C   UNL     1     -12.517  12.829  70.764  1.00  0.00    -0.271 A  
HETATM   19  N   UNL     1     -11.781  12.438  69.742  1.00  0.00    -0.309 NA 
BRANCH  18  20
HETATM   20  C   UNL     1     -12.885  14.268  71.037  1.00  0.00    -0.357 C  
BRANCH  20  21
HETATM   21  N   UNL     1     -11.780  15.231  70.820  1.00  0.00    -0.307 NA 
HETATM   22  C   UNL     1     -11.990  16.021  69.603  1.00  0.00    -0.180 C  
HETATM   23  C   UNL     1     -11.681  16.128  71.975  1.00  0.00    -0.485 C  
ENDBRANCH  20  21
ENDBRANCH  18  20
ENDBRANCH  14  15
ENDBRANCH  13  14
ENDBRANCH  12  13
ENDBRANCH  11  12
ENDBRANCH   9  11
ENDBRANCH   4   9
ENDBRANCH   2   4
TORSDOF 9
ENDMDL
MODEL       12
REMARK 921   NORMALIZED FREE ENERGY PREDICTED BY IDOCK:   -4.70 KCAL/MOL
REMARK 922        TOTAL FREE ENERGY PREDICTED BY IDOCK:   -8.24 KCAL/MOL
REMARK 923 INTER-LIGAND FREE ENERGY PREDICTED BY IDOCK:   -7.48 KCAL/MOL
REMARK 924 INTRA-LIGAND FREE ENERGY PREDICTED BY IDOCK:   -0.75 KCAL/MOL
REMARK 927      BINDING AFFINITY PREDICTED BY RF-SCORE:    0.00 PKD
ROOT
HETATM    1  C   UNL     1      -9.429  10.229  63.834  1.00  0.00    -0.302 C  
HETATM    2  N   UNL     1     -10.044  10.776  65.023  1.00  0.00    -0.292 NA 
HETATM    3  H   UNL     1      -9.698  10.402  65.906  1.00  0.00     0.000 HD 
ENDROOT
BRANCH   2   4
HETATM    4  C   UNL     1     -11.035  11.737  65.131  1.00  0.00    -0.294 C  
HETATM    5  C   UNL     1     -11.358  12.471  64.046  1.00  0.00    -0.405 C  
HETATM    6  O   UNL     1     -13.033  13.722  65.063  1.00  0.00    -0.732 OA 
HETATM    7  N   UNL     1     -12.375  13.493  64.039  1.00  0.00    -0.371 N  
HETATM    8  O   UNL     1     -12.524  14.087  62.963  1.00  0.00    -0.641 OA 
BRANCH   4   9
HETATM    9  N   UNL     1     -11.641  11.910  66.363  1.00  0.00    -0.501 NA 
HETATM   10  H   UNL     1     -12.661  11.927  66.340  1.00  0.00     0.000 HD 
BRANCH   9  11
HETATM   11  C   UNL     1     -11.060  12.073  67.680  1.00  0.00    -0.264 C  
BRANCH  11  12
HETATM   12  C   UNL     1     -10.834  13.555  67.990  1.00  0.00    -0.250 C  
BRANCH  12  13
HETATM   13  S   UNL     1      -9.173  14.135  67.501  1.00  0.00    -0.200 SA 
BRANCH  13  14
HETATM   14  C   UNL     1      -9.632  15.282  66.158  1.00  0.00    -0.321 C  
BRANCH  14  15
HETATM   15  C   UNL     1      -9.573  16.696  66.623  1.00  0.00    -0.263 A  
HETATM   16  C   UNL     1     -10.351  17.280  67.603  1.00  0.00    -0.350 A  
HETATM   17  S   UNL     1      -9.917  18.925  67.798  1.00  0.00    -0.376 SA 
HETATM   18  C   UNL     1      -8.743  18.754  66.552  1.00  0.00    -0.312 A  
HETATM   19  N   UNL     1      -8.681  17.559  65.998  1.00  0.00    -0.524 NA 
BRANCH  18  20
HETATM   20  C   UNL     1      -7.892  19.927  66.129  1.00  0.00    -0.326 C  
BRANCH  20  21
HETATM   21  N   UNL     1      -6.732  19.562  65.283  1.00  0.00    -0.349 NA 
HETATM   22  C   UNL     1      -6.442  20.606  64.294  1.00  0.00    -0.250 C  
HETATM   23  C   UNL     1      -5.556  19.353  66.132  1.00  0.00    -0.158 C  
ENDBRANCH  20  21
ENDBRANCH  18  20
ENDBRANCH  14  15
ENDBRANCH  13  14
ENDBRANCH  12  13
ENDBRANCH  11  12
ENDBRANCH   9  11
ENDBRANCH   4   9
ENDBRANCH   2   4
TORSDOF 9
ENDMDL
MODEL       13
REMARK 921   NORMALIZED FREE ENERGY PREDICTED BY IDOCK:   -4.70 KCAL/MOL
REMARK 922        TOTAL FREE ENERGY PREDICTED BY IDOCK:   -8.23 KCAL/MOL
REMARK 923 INTER-LIGAND FREE ENERGY PREDICTED BY IDOCK:   -7.69 KCAL/MOL
REMARK 924 INTRA-LIGAND FREE ENERGY PREDICTED BY IDOCK:   -0.54 KCAL/MOL
REMARK 927      BINDING AFFINITY PREDICTED BY RF-SCORE:    0.00 PKD
ROOT
HETATM    1  C   UNL     1     -13.538   8.388  71.843  1.00  0.00    -0.379 C  
HETATM    2  N   UNL     1     -12.583   9.207  71.131  1.00  0.00    -0.447 NA 
HETATM    3  H   UNL     1     -11.894   8.697  70.579  1.00  0.00     0.000 HD 
ENDROOT
BRANCH   2   4
HETATM    4  C   UNL     1     -12.470  10.587  71.093  1.00  0.00    -0.412 C  
HETATM    5  C   UNL     1     -13.312  11.333  71.839  1.00  0.00    -0.307 C  
HETATM    6  O   UNL     1     -12.437  13.401  71.234  1.00  0.00    -0.345 OA 
HETATM    7  N   UNL     1     -13.285  12.774  71.884  1.00  0.00    -0.445 N  
HETATM    8  O   UNL     1     -14.145  13.300  72.603  1.00  0.00    -0.744 OA 
BRANCH   4   9
HETATM    9  N   UNL     1     -11.504  11.139  70.271  1.00  0.00    -0.450 NA 
HETATM   10  H   UNL     1     -11.509  12.159  70.230  1.00  0.00     0.000 HD 
BRANCH   9  11
HETATM   11  C   UNL     1     -10.486  10.503  69.461  1.00  0.00    -0.235 C  
BRANCH  11  12
HETATM   12  C   UNL     1      -9.860  11.512  68.492  1.00  0.00    -0.195 C  
BRANCH  12  13
HETATM   13  S   UNL     1     -10.582  11.426  66.817  1.00  0.00    -0.266 SA 
BRANCH  13  14
HETATM   14  C   UNL     1     -11.898  12.678  66.986  1.00  0.00    -0.345 C  
BRANCH  14  15
HETATM   15  C   UNL     1     -11.542  13.926  66.252  1.00  0.00    -0.365 A  
HETATM   16  C   UNL     1     -11.934  14.276  64.976  1.00  0.00    -0.410 A  
HETATM   17  S   UNL     1     -11.288  15.807  64.560  1.00  0.00    -0.191 SA 
HETATM   18  C   UNL     1     -10.515  15.887  66.095  1.00  0.00    -0.326 A  
HETATM   19  N   UNL     1     -10.697  14.838  66.872  1.00  0.00    -0.302 NA 
BRANCH  18  20
HETATM   20  C   UNL     1      -9.667  17.078  66.470  1.00  0.00    -0.282 C  
BRANCH  20  21
HETATM   21  N   UNL     1     -10.436  18.239  66.976  1.00  0.00    -0.390 NA 
HETATM   22  C   UNL     1      -9.925  18.694  68.274  1.00  0.00    -0.384 C  
HETATM   23  C   UNL     1     -10.359  19.335  66.008  1.00  0.00    -0.475 C  
ENDBRANCH  20  21
ENDBRANCH  18  20
ENDBRANCH  14  15
ENDBRANCH  13  14
ENDBRANCH  12  13
ENDBRANCH  11  12
ENDBRANCH   9  11
ENDBRANCH   4   9
ENDBRANCH   2   4
TORSDOF 9
ENDMDL
MODEL       14
REMARK 921   NORMALIZED FREE ENERGY PREDICTED BY IDOCK:   -4.69 KCAL/MOL
REMARK 922        TOTAL FREE ENERGY PREDICTED BY IDOCK:   -8.23 KCAL/MOL
REMARK 923 INTER-LIGAND FREE ENERGY PREDICTED BY IDOCK:   -7.58 KCAL/MOL
REMARK 924 INTRA-LIGAND FREE ENERGY PREDICTED BY IDOCK:   -0.64 KCAL/MOL
REMARK 927      BINDING AFFINITY PREDICTED BY RF-SCORE:    0.00 PKD
ROOT
HETATM    1  C   UNL     1     -11.882  15.470  68.877  1.00  0.00    -0.338 C  
HETATM    2  N   UNL     1     -12.378  14.578  67.853  1.00  0.00    -0.599 NA 
HETATM    3  H   UNL     1     -13.322  14.223  68.001  1.00  0.00     0.000 HD 
ENDROOT
BRANCH   2   4
HETATM    4  C   UNL     1     -11.752  14.137  66.699  1.00  0.00    -0.403 C  
HETATM    5  C   UNL     1     -12.433  14.158  65.535  1.00  0.00    -0.476 C  
HETATM    6  O   UNL     1     -10.711  13.336  64.207  1.00  0.00    -0.396 OA 
HETATM    7  N   UNL     1     -11.884  13.730  64.273  1.00  0.00    -0.415 N  
HETATM    8  O   UNL     1     -12.656  13.794  63.307  1.00  0.00    -0.830 OA 
BRANCH   4   9
HETATM    9  N   UNL     1     -10.451  13.674  66.801  1.00  0.00    -0.268 NA 
HETATM   10  H   UNL     1      -9.794  14.100  66.148  1.00  0.00     0.000 HD 
BRANCH   9  11
HETATM   11  C   UNL     1      -9.874  12.682  67.684  1.00  0.00    -0.210 C  
BRANCH  11  12
HETATM   12  C   UNL     1      -9.859  11.306  67.013  1.00  0.00    -0.191 C  
BRANCH  12  13
HETATM   13  S   UNL     1     -10.808  10.054  67.944  1.00  0.00    -0.247 SA 
BRANCH  13  14
HETATM   14  C   UNL     1     -11.553  11.121  69.222  1.00  0.00    -0.318 C  
BRANCH  14  15
HETATM   15  C   UNL     1     -11.979  10.319  70.404  1.00  0.00    -0.303 A  
HETATM   16  C   UNL     1     -13.120  10.500  71.159  1.00  0.00    -0.358 A  
HETATM   17  S   UNL     1     -13.190   9.331  72.409  1.00  0.00    -0.375 SA 
HETATM   18  C   UNL     1     -11.690   8.682  71.874  1.00  0.00    -0.352 A  
HETATM   19  N   UNL     1     -11.145   9.299  70.844  1.00  0.00    -0.279 NA 
BRANCH  18  20
HETATM   20  C   UNL     1     -11.059   7.510  72.586  1.00  0.00    -0.347 C  
BRANCH  20  21
HETATM   21  N   UNL     1     -11.571   6.188  72.156  1.00  0.00    -0.312 NA 
HETATM   22  C   UNL     1     -10.972   5.770  70.884  1.00  0.00    -0.235 C  
HETATM   23  C   UNL     1     -11.274   5.191  73.187  1.00  0.00    -0.330 C  
ENDBRANCH  20  21
ENDBRANCH  18  20
ENDBRANCH  14  15
ENDBRANCH  13  14
ENDBRANCH  12  13
ENDBRANCH  11  12
ENDBRANCH   9  11
ENDBRANCH   4   9
ENDBRANCH   2   4
TORSDOF 9
ENDMDL
MODEL       15
REMARK 921   NORMALIZED FREE ENERGY PREDICTED BY IDOCK:   -4.68 KCAL/MOL
REMARK 922        TOTAL FREE ENERGY PREDICTED BY IDOCK:   -8.21 KCAL/MOL
REMARK 923 INTER-LIGAND FREE ENERGY PREDICTED BY IDOCK:   -7.89 KCAL/MOL
REMARK 924 INTRA-LIGAND FREE ENERGY PREDICTED BY IDOCK:   -0.31 KCAL/MOL
REMARK 927      BINDING AFFINITY PREDICTED BY RF-SCORE:    0.00 PKD
ROOT
HETATM    1  C   UNL     1      -9.284  10.116  62.354  1.00  0.00    -0.297 C  
HETATM    2  N   UNL     1     -10.484  10.763  62.836  1.00  0.00    -0.741 NA 
HETATM    3  H   UNL     1     -11.361  10.366  62.498  1.00  0.00     0.000 HD 
ENDROOT
BRANCH   2   4
HETATM    4  C   UNL     1     -10.612  11.843  63.692  1.00  0.00    -0.446 C  
HETATM    5  C   UNL     1     -11.656  12.684  63.535  1.00  0.00    -0.514 C  
HETATM    6  O   UNL     1     -11.132  14.089  65.312  1.00  0.00    -0.304 OA 
HETATM    7  N   UNL     1     -11.894  13.837  64.368  1.00  0.00    -0.410 N  
HETATM    8  O   UNL     1     -12.886  14.514  64.068  1.00  0.00    -0.672 OA 
BRANCH   4   9
HETATM    9  N   UNL     1      -9.644  12.021  64.666  1.00  0.00    -0.448 NA 
HETATM   10  H   UNL     1      -9.026  12.817  64.514  1.00  0.00     0.000 HD 
BRANCH   9  11
HETATM   11  C   UNL     1      -9.369  11.257  65.866  1.00  0.00    -0.219 C  
BRANCH  11  12
HETATM   12  C   UNL     1     -10.575  11.285  66.810  1.00  0.00    -0.260 C  
BRANCH  12  13
HETATM   13  S   UNL     1     -10.115  11.677  68.533  1.00  0.00    -0.192 SA 
BRANCH  13  14
HETATM   14  C   UNL     1     -11.779  11.829  69.268  1.00  0.00    -0.335 C  
BRANCH  14  15
HETATM   15  C   UNL     1     -11.991  10.797  70.321  1.00  0.00    -0.351 A  
HETATM   16  C   UNL     1     -13.161  10.544  71.009  1.00  0.00    -0.330 A  
HETATM   17  S   UNL     1     -12.928   9.259  72.116  1.00  0.00    -0.428 SA 
HETATM   18  C   UNL     1     -11.285   9.142  71.621  1.00  0.00    -0.377 A  
HETATM   19  N   UNL     1     -10.910  10.014  70.706  1.00  0.00    -0.308 NA 
BRANCH  18  20
HETATM   20  C   UNL     1     -10.362   8.123  72.245  1.00  0.00    -0.292 C  
BRANCH  20  21
HETATM   21  N   UNL     1     -11.049   7.109  73.079  1.00  0.00    -0.301 NA 
HETATM   22  C   UNL     1     -11.540   5.991  72.267  1.00  0.00    -0.307 C  
HETATM   23  C   UNL     1     -10.122   6.606  74.096  1.00  0.00    -0.364 C  
ENDBRANCH  20  21
ENDBRANCH  18  20
ENDBRANCH  14  15
ENDBRANCH  13  14
ENDBRANCH  12  13
ENDBRANCH  11  12
ENDBRANCH   9  11
ENDBRANCH   4   9
ENDBRANCH   2   4
TORSDOF 9
ENDMDL
MODEL       16
REMARK 921   NORMALIZED FREE ENERGY PREDICTED BY IDOCK:   -4.66 KCAL/MOL
REMARK 922        TOTAL FREE ENERGY PREDICTED BY IDOCK:   -8.17 KCAL/MOL
REMARK 923 INTER-LIGAND FREE ENERGY PREDICTED BY IDOCK:   -7.37 KCAL/MOL
REMARK 924 INTRA-LIGAND FREE ENERGY PREDICTED BY IDOCK:   -0.81 KCAL/MOL
REMARK 927      BINDING AFFINITY PREDICTED BY RF-SCORE:    0.00 PKD
ROOT
HETATM    1  C   UNL     1      -9.178  10.040  62.374  1.00  0.00    -0.296 C  
HETATM    2  N   UNL     1     -10.370  10.510  63.044  1.00  0.00    -0.581 NA 
HETATM    3  H   UNL     1     -11.172   9.881  63.002  1.00  0.00     0.000 HD 
ENDROOT
BRANCH   2   4
HETATM    4  C   UNL     1     -10.578  11.692  63.735  1.00  0.00    -0.416 C  
HETATM    5  C   UNL     1     -11.577  12.511  63.346  1.00  0.00    -0.473 C  
HETATM    6  O   UNL     1     -11.242  14.129  64.982  1.00  0.00    -0.325 OA 
HETATM    7  N   UNL     1     -11.889  13.762  63.991  1.00  0.00    -0.400 N  
HETATM    8  O   UNL     1     -12.823  14.401  63.489  1.00  0.00    -0.587 OA 
BRANCH   4   9
HETATM    9  N   UNL     1      -9.731  11.986  64.789  1.00  0.00    -0.428 NA 
HETATM   10  H   UNL     1      -9.309  12.914  64.753  1.00  0.00     0.000 HD 
BRANCH   9  11
HETATM   11  C   UNL     1      -9.348  11.189  65.936  1.00  0.00    -0.212 C  
BRANCH  11  12
HETATM   12  C   UNL     1     -10.550  10.957  66.857  1.00  0.00    -0.261 C  
BRANCH  12  13
HETATM   13  S   UNL     1     -10.206  11.396  68.595  1.00  0.00    -0.198 SA 
BRANCH  13  14
HETATM   14  C   UNL     1     -11.801  12.161  69.040  1.00  0.00    -0.306 C  
BRANCH  14  15
HETATM   15  C   UNL     1     -11.609  13.566  69.499  1.00  0.00    -0.294 A  
HETATM   16  C   UNL     1     -12.184  14.163  70.602  1.00  0.00    -0.362 A  
HETATM   17  S   UNL     1     -11.660  15.788  70.733  1.00  0.00    -0.430 SA 
HETATM   18  C   UNL     1     -10.725  15.592  69.303  1.00  0.00    -0.239 A  
HETATM   19  N   UNL     1     -10.804  14.404  68.737  1.00  0.00    -0.243 NA 
BRANCH  18  20
HETATM   20  C   UNL     1      -9.914  16.739  68.748  1.00  0.00    -0.269 C  
BRANCH  20  21
HETATM   21  N   UNL     1     -10.329  17.180  67.397  1.00  0.00    -0.326 NA 
HETATM   22  C   UNL     1     -10.630  18.615  67.371  1.00  0.00    -0.441 C  
HETATM   23  C   UNL     1      -9.260  16.887  66.438  1.00  0.00    -0.279 C  
ENDBRANCH  20  21
ENDBRANCH  18  20
ENDBRANCH  14  15
ENDBRANCH  13  14
ENDBRANCH  12  13
ENDBRANCH  11  12
ENDBRANCH   9  11
ENDBRANCH   4   9
ENDBRANCH   2   4
TORSDOF 9
ENDMDL
MODEL       17
REMARK 921   NORMALIZED FREE ENERGY PREDICTED BY IDOCK:   -4.65 KCAL/MOL
REMARK 922        TOTAL FREE ENERGY PREDICTED BY IDOCK:   -8.17 KCAL/MOL
REMARK 923 INTER-LIGAND FREE ENERGY PREDICTED BY IDOCK:   -7.25 KCAL/MOL
REMARK 924 INTRA-LIGAND FREE ENERGY PREDICTED BY IDOCK:   -0.92 KCAL/MOL
REMARK 927      BINDING AFFINITY PREDICTED BY RF-SCORE:    0.00 PKD
ROOT
HETATM    1  C   UNL     1     -13.237  11.774  71.985  1.00  0.00    -0.355 C  
HETATM    2  N   UNL     1     -12.709  11.057  70.846  1.00  0.00    -0.363 NA 
HETATM    3  H   UNL     1     -12.950  11.447  69.934  1.00  0.00     0.000 HD 
ENDROOT
BRANCH   2   4
HETATM    4  C   UNL     1     -11.924   9.918  70.817  1.00  0.00    -0.323 C  
HETATM    5  C   UNL     1     -11.784   9.189  71.944  1.00  0.00    -0.366 C  
HETATM    6  O   UNL     1     -10.421   7.544  71.027  1.00  0.00    -0.213 OA 
HETATM    7  N   UNL     1     -10.997   7.984  72.032  1.00  0.00    -0.262 N  
HETATM    8  O   UNL     1     -10.957   7.455  73.150  1.00  0.00    -0.357 OA 
BRANCH   4   9
HETATM    9  N   UNL     1     -11.300   9.587  69.626  1.00  0.00    -0.429 NA 
HETATM   10  H   UNL     1     -11.508   8.650  69.280  1.00  0.00     0.000 HD 
BRANCH   9  11
HETATM   11  C   UNL     1     -10.400  10.357  68.792  1.00  0.00    -0.196 C  
BRANCH  11  12
HETATM   12  C   UNL     1     -10.951  10.471  67.368  1.00  0.00    -0.288 C  
BRANCH  12  13
HETATM   13  S   UNL     1     -10.635  12.104  66.615  1.00  0.00    -0.243 SA 
BRANCH  13  14
HETATM   14  C   UNL     1     -12.135  12.988  67.162  1.00  0.00    -0.264 C  
BRANCH  14  15
HETATM   15  C   UNL     1     -11.791  14.085  68.110  1.00  0.00    -0.367 A  
HETATM   16  C   UNL     1     -11.232  15.307  67.796  1.00  0.00    -0.326 A  
HETATM   17  S   UNL     1     -11.027  16.244  69.214  1.00  0.00    -0.316 SA 
HETATM   18  C   UNL     1     -11.673  14.954  70.149  1.00  0.00    -0.294 A  
HETATM   19  N   UNL     1     -12.005  13.875  69.467  1.00  0.00    -0.325 NA 
BRANCH  18  20
HETATM   20  C   UNL     1     -11.799  15.075  71.649  1.00  0.00    -0.378 C  
BRANCH  20  21
HETATM   21  N   UNL     1     -12.967  15.867  72.099  1.00  0.00    -0.440 NA 
HETATM   22  C   UNL     1     -14.224  15.294  71.608  1.00  0.00    -0.552 C  
HETATM   23  C   UNL     1     -12.990  15.913  73.564  1.00  0.00    -0.594 C  
ENDBRANCH  20  21
ENDBRANCH  18  20
ENDBRANCH  14  15
ENDBRANCH  13  14
ENDBRANCH  12  13
ENDBRANCH  11  12
ENDBRANCH   9  11
ENDBRANCH   4   9
ENDBRANCH   2   4
TORSDOF 9
ENDMDL
MODEL       18
REMARK 921   NORMALIZED FREE ENERGY PREDICTED BY IDOCK:   -4.63 KCAL/MOL
REMARK 922        TOTAL FREE ENERGY PREDICTED BY IDOCK:   -8.14 KCAL/MOL
REMARK 923 INTER-LIGAND FREE ENERGY PREDICTED BY IDOCK:   -7.46 KCAL/MOL
REMARK 924 INTRA-LIGAND FREE ENERGY PREDICTED BY IDOCK:   -0.68 KCAL/MOL
REMARK 927      BINDING AFFINITY PREDICTED BY RF-SCORE:    0.00 PKD
ROOT
HETATM    1  C   UNL     1     -12.632  11.064  71.263  1.00  0.00    -0.412 C  
HETATM    2  N   UNL     1     -13.256  12.237  71.833  1.00  0.00    -0.451 NA 
HETATM    3  H   UNL     1     -14.158  12.079  72.282  1.00  0.00     0.000 HD 
ENDROOT
BRANCH   2   4
HETATM    4  C   UNL     1     -12.802  13.545  71.856  1.00  0.00    -0.272 C  
HETATM    5  C   UNL     1     -13.251  14.378  72.818  1.00  0.00    -0.520 C  
HETATM    6  O   UNL     1     -12.017  16.234  72.158  1.00  0.00    -0.504 OA 
HETATM    7  N   UNL     1     -12.846  15.755  72.944  1.00  0.00    -0.437 N  
HETATM    8  O   UNL     1     -13.375  16.383  73.871  1.00  0.00    -0.623 OA 
BRANCH   4   9
HETATM    9  N   UNL     1     -11.915  13.944  70.871  1.00  0.00    -0.488 NA 
HETATM   10  H   UNL     1     -10.952  14.061  71.185  1.00  0.00     0.000 HD 
BRANCH   9  11
HETATM   11  C   UNL     1     -12.134  14.221  69.466  1.00  0.00    -0.330 C  
BRANCH  11  12
HETATM   12  C   UNL     1     -10.927  14.945  68.865  1.00  0.00    -0.251 C  
BRANCH  12  13
HETATM   13  S   UNL     1     -11.064  15.171  67.058  1.00  0.00    -0.304 SA 
BRANCH  13  14
HETATM   14  C   UNL     1     -12.191  13.791  66.662  1.00  0.00    -0.409 C  
BRANCH  14  15
HETATM   15  C   UNL     1     -11.426  12.549  66.358  1.00  0.00    -0.365 A  
HETATM   16  C   UNL     1     -10.623  12.319  65.259  1.00  0.00    -0.287 A  
HETATM   17  S   UNL     1      -9.942  10.750  65.344  1.00  0.00    -0.290 SA 
HETATM   18  C   UNL     1     -10.777  10.478  66.823  1.00  0.00    -0.188 A  
HETATM   19  N   UNL     1     -11.540  11.474  67.230  1.00  0.00    -0.560 NA 
BRANCH  18  20
HETATM   20  C   UNL     1     -10.648   9.161  67.550  1.00  0.00    -0.249 C  
BRANCH  20  21
HETATM   21  N   UNL     1     -10.010   9.262  68.883  1.00  0.00    -0.176 NA 
HETATM   22  C   UNL     1     -10.379   8.131  69.741  1.00  0.00    -0.216 C  
HETATM   23  C   UNL     1      -8.554   9.302  68.725  1.00  0.00    -0.131 C  
ENDBRANCH  20  21
ENDBRANCH  18  20
ENDBRANCH  14  15
ENDBRANCH  13  14
ENDBRANCH  12  13
ENDBRANCH  11  12
ENDBRANCH   9  11
ENDBRANCH   4   9
ENDBRANCH   2   4
TORSDOF 9
ENDMDL
MODEL       19
REMARK 921   NORMALIZED FREE ENERGY PREDICTED BY IDOCK:   -4.62 KCAL/MOL
REMARK 922        TOTAL FREE ENERGY PREDICTED BY IDOCK:   -8.11 KCAL/MOL
REMARK 923 INTER-LIGAND FREE ENERGY PREDICTED BY IDOCK:   -6.96 KCAL/MOL
REMARK 924 INTRA-LIGAND FREE ENERGY PREDICTED BY IDOCK:   -1.15 KCAL/MOL
REMARK 927      BINDING AFFINITY PREDICTED BY RF-SCORE:    0.00 PKD
ROOT
HETATM    1  C   UNL     1      -6.995  11.300  66.846  1.00  0.00    -0.137 C  
HETATM    2  N   UNL     1      -8.150  12.074  66.448  1.00  0.00    -0.388 NA 
HETATM    3  H   UNL     1      -7.955  12.872  65.843  1.00  0.00     0.000 HD 
ENDROOT
BRANCH   2   4
HETATM    4  C   UNL     1      -9.483  11.886  66.773  1.00  0.00    -0.201 C  
HETATM    5  C   UNL     1      -9.807  11.535  68.035  1.00  0.00    -0.188 C  
HETATM    6  O   UNL     1     -12.108  11.479  67.711  1.00  0.00    -0.626 OA 
HETATM    7  N   UNL     1     -11.158  11.318  68.489  1.00  0.00    -0.214 N  
HETATM    8  O   UNL     1     -11.273  10.977  69.673  1.00  0.00    -0.248 OA 
BRANCH   4   9
HETATM    9  N   UNL     1     -10.426  12.051  65.773  1.00  0.00    -0.245 NA 
HETATM   10  H   UNL     1     -11.365  11.735  66.015  1.00  0.00     0.000 HD 
BRANCH   9  11
HETATM   11  C   UNL     1     -10.294  12.601  64.440  1.00  0.00    -0.360 C  
BRANCH  11  12
HETATM   12  C   UNL     1     -11.672  12.900  63.841  1.00  0.00    -0.460 C  
BRANCH  12  13
HETATM   13  S   UNL     1     -12.373  14.479  64.432  1.00  0.00    -0.290 SA 
BRANCH  13  14
HETATM   14  C   UNL     1     -10.836  15.332  64.923  1.00  0.00    -0.425 C  
BRANCH  14  15
HETATM   15  C   UNL     1     -10.847  15.654  66.378  1.00  0.00    -0.252 A  
HETATM   16  C   UNL     1     -10.213  16.711  66.998  1.00  0.00    -0.290 A  
HETATM   17  S   UNL     1     -10.519  16.678  68.682  1.00  0.00    -0.345 SA 
HETATM   18  C   UNL     1     -11.454  15.249  68.474  1.00  0.00    -0.342 A  
HETATM   19  N   UNL     1     -11.525  14.798  67.237  1.00  0.00    -0.361 NA 
BRANCH  18  20
HETATM   20  C   UNL     1     -12.100  14.571  69.659  1.00  0.00    -0.323 C  
BRANCH  20  21
HETATM   21  N   UNL     1     -12.466  15.490  70.762  1.00  0.00    -0.417 NA 
HETATM   22  C   UNL     1     -13.859  15.297  71.179  1.00  0.00    -0.417 C  
HETATM   23  C   UNL     1     -11.576  15.260  71.903  1.00  0.00    -0.437 C  
ENDBRANCH  20  21
ENDBRANCH  18  20
ENDBRANCH  14  15
ENDBRANCH  13  14
ENDBRANCH  12  13
ENDBRANCH  11  12
ENDBRANCH   9  11
ENDBRANCH   4   9
ENDBRANCH   2   4
TORSDOF 9
ENDMDL
MODEL       20
REMARK 921   NORMALIZED FREE ENERGY PREDICTED BY IDOCK:   -4.61 KCAL/MOL
REMARK 922        TOTAL FREE ENERGY PREDICTED BY IDOCK:   -8.10 KCAL/MOL
REMARK 923 INTER-LIGAND FREE ENERGY PREDICTED BY IDOCK:   -7.59 KCAL/MOL
REMARK 924 INTRA-LIGAND FREE ENERGY PREDICTED BY IDOCK:   -0.51 KCAL/MOL
REMARK 927      BINDING AFFINITY PREDICTED BY RF-SCORE:    0.00 PKD
ROOT
HETATM    1  C   UNL     1     -12.748  11.261  71.279  1.00  0.00    -0.405 C  
HETATM    2  N   UNL     1     -13.300  12.443  71.902  1.00  0.00    -0.435 NA 
HETATM    3  H   UNL     1     -14.190  12.310  72.382  1.00  0.00     0.000 HD 
ENDROOT
BRANCH   2   4
HETATM    4  C   UNL     1     -12.792  13.731  71.938  1.00  0.00    -0.309 C  
HETATM    5  C   UNL     1     -13.192  14.566  72.920  1.00  0.00    -0.515 C  
HETATM    6  O   UNL     1     -11.891  16.380  72.270  1.00  0.00    -0.534 OA 
HETATM    7  N   UNL     1     -12.728  15.923  73.061  1.00  0.00    -0.461 N  
HETATM    8  O   UNL     1     -13.217  16.557  74.005  1.00  0.00    -0.591 OA 
BRANCH   4   9
HETATM    9  N   UNL     1     -11.904  14.108  70.946  1.00  0.00    -0.488 NA 
HETATM   10  H   UNL     1     -10.926  14.136  71.236  1.00  0.00     0.000 HD 
BRANCH   9  11
HETATM   11  C   UNL     1     -12.139  14.470  69.563  1.00  0.00    -0.306 C  
BRANCH  11  12
HETATM   12  C   UNL     1     -11.390  13.521  68.623  1.00  0.00    -0.288 C  
BRANCH  12  13
HETATM   13  S   UNL     1     -10.007  14.333  67.752  1.00  0.00    -0.230 SA 
BRANCH  13  14
HETATM   14  C   UNL     1     -10.897  14.976  66.295  1.00  0.00    -0.333 C  
BRANCH  14  15
HETATM   15  C   UNL     1     -11.212  13.880  65.336  1.00  0.00    -0.306 A  
HETATM   16  C   UNL     1     -12.280  13.823  64.464  1.00  0.00    -0.403 A  
HETATM   17  S   UNL     1     -12.222  12.373  63.554  1.00  0.00    -0.536 SA 
HETATM   18  C   UNL     1     -10.796  11.912  64.397  1.00  0.00    -0.332 A  
HETATM   19  N   UNL     1     -10.387  12.762  65.319  1.00  0.00    -0.292 NA 
BRANCH  18  20
HETATM   20  C   UNL     1     -10.113  10.599  64.098  1.00  0.00    -0.334 C  
BRANCH  20  21
HETATM   21  N   UNL     1      -8.801  10.429  64.764  1.00  0.00    -0.183 NA 
HETATM   22  C   UNL     1      -8.895   9.510  65.904  1.00  0.00    -0.164 C  
HETATM   23  C   UNL     1      -7.826   9.914  63.799  1.00  0.00    -0.147 C  
ENDBRANCH  20  21
ENDBRANCH  18  20
ENDBRANCH  14  15
ENDBRANCH  13  14
ENDBRANCH  12  13
ENDBRANCH  11  12
ENDBRANCH   9  11
ENDBRANCH   4   9
ENDBRANCH   2   4
TORSDOF 9
ENDMDL
MODEL       21
REMARK 921   NORMALIZED FREE ENERGY PREDICTED BY IDOCK:   -4.61 KCAL/MOL
REMARK 922        TOTAL FREE ENERGY PREDICTED BY IDOCK:   -8.09 KCAL/MOL
REMARK 923 INTER-LIGAND FREE ENERGY PREDICTED BY IDOCK:   -7.60 KCAL/MOL
REMARK 924 INTRA-LIGAND FREE ENERGY PREDICTED BY IDOCK:   -0.50 KCAL/MOL
REMARK 927      BINDING AFFINITY PREDICTED BY RF-SCORE:    0.00 PKD
ROOT
HETATM    1  C   UNL     1     -10.060   4.742  65.972  1.00  0.00    -0.257 C  
HETATM    2  N   UNL     1     -10.969   5.797  66.361  1.00  0.00    -0.740 NA 
HETATM    3  H   UNL     1     -11.728   5.984  65.706  1.00  0.00     0.000 HD 
ENDROOT
BRANCH   2   4
HETATM    4  C   UNL     1     -10.956   6.588  67.498  1.00  0.00    -0.359 C  
HETATM    5  C   UNL     1     -11.119   6.005  68.704  1.00  0.00    -0.211 C  
HETATM    6  O   UNL     1     -10.932   7.950  69.964  1.00  0.00    -0.249 OA 
HETATM    7  N   UNL     1     -11.118   6.725  69.953  1.00  0.00    -0.301 N  
HETATM    8  O   UNL     1     -11.305   6.037  70.964  1.00  0.00    -0.295 OA 
BRANCH   4   9
HETATM    9  N   UNL     1     -10.792   7.953  67.339  1.00  0.00    -0.521 NA 
HETATM   10  H   UNL     1     -11.540   8.523  67.735  1.00  0.00     0.000 HD 
BRANCH   9  11
HETATM   11  C   UNL     1      -9.730   8.703  66.700  1.00  0.00    -0.247 C  
BRANCH  11  12
HETATM   12  C   UNL     1     -10.232  10.083  66.265  1.00  0.00    -0.215 C  
BRANCH  12  13
HETATM   13  S   UNL     1     -11.137  10.957  67.588  1.00  0.00    -0.308 SA 
BRANCH  13  14
HETATM   14  C   UNL     1     -11.608  12.473  66.687  1.00  0.00    -0.380 C  
BRANCH  14  15
HETATM   15  C   UNL     1     -11.563  13.661  67.585  1.00  0.00    -0.346 A  
HETATM   16  C   UNL     1     -11.134  14.931  67.257  1.00  0.00    -0.336 A  
HETATM   17  S   UNL     1     -11.274  15.969  68.612  1.00  0.00    -0.377 SA 
HETATM   18  C   UNL     1     -11.874  14.655  69.545  1.00  0.00    -0.330 A  
HETATM   19  N   UNL     1     -11.950  13.502  68.910  1.00  0.00    -0.349 NA 
BRANCH  18  20
HETATM   20  C   UNL     1     -12.241  14.844  70.998  1.00  0.00    -0.317 C  
BRANCH  20  21
HETATM   21  N   UNL     1     -13.569  14.301  71.366  1.00  0.00    -0.346 NA 
HETATM   22  C   UNL     1     -13.445  13.037  72.100  1.00  0.00    -0.542 C  
HETATM   23  C   UNL     1     -14.284  15.277  72.191  1.00  0.00    -0.571 C  
ENDBRANCH  20  21
ENDBRANCH  18  20
ENDBRANCH  14  15
ENDBRANCH  13  14
ENDBRANCH  12  13
ENDBRANCH  11  12
ENDBRANCH   9  11
ENDBRANCH   4   9
ENDBRANCH   2   4
TORSDOF 9
ENDMDL
MODEL       22
REMARK 921   NORMALIZED FREE ENERGY PREDICTED BY IDOCK:   -4.60 KCAL/MOL
REMARK 922        TOTAL FREE ENERGY PREDICTED BY IDOCK:   -8.08 KCAL/MOL
REMARK 923 INTER-LIGAND FREE ENERGY PREDICTED BY IDOCK:   -7.46 KCAL/MOL
REMARK 924 INTRA-LIGAND FREE ENERGY PREDICTED BY IDOCK:   -0.63 KCAL/MOL
REMARK 927      BINDING AFFINITY PREDICTED BY RF-SCORE:    0.00 PKD
ROOT
HETATM    1  C   UNL     1     -11.131   8.932  71.725  1.00  0.00    -0.363 C  
HETATM    2  N   UNL     1     -12.114   9.705  71.000  1.00  0.00    -0.320 NA 
HETATM    3  H   UNL     1     -12.763   9.163  70.429  1.00  0.00     0.000 HD 
ENDROOT
BRANCH   2   4
HETATM    4  C   UNL     1     -12.300  11.077  70.970  1.00  0.00    -0.385 C  
HETATM    5  C   UNL     1     -13.158  11.641  71.847  1.00  0.00    -0.385 C  
HETATM    6  O   UNL     1     -12.837  13.837  71.154  1.00  0.00    -0.333 OA 
HETATM    7  N   UNL     1     -13.428  13.056  71.913  1.00  0.00    -0.443 N  
HETATM    8  O   UNL     1     -14.261  13.399  72.761  1.00  0.00    -0.693 OA 
BRANCH   4   9
HETATM    9  N   UNL     1     -11.605  11.809  70.024  1.00  0.00    -0.479 NA 
HETATM   10  H   UNL     1     -10.973  12.512  70.406  1.00  0.00     0.000 HD 
BRANCH   9  11
HETATM   11  C   UNL     1     -11.629  11.736  68.577  1.00  0.00    -0.321 C  
BRANCH  11  12
HETATM   12  C   UNL     1     -10.281  12.167  67.993  1.00  0.00    -0.201 C  
BRANCH  12  13
HETATM   13  S   UNL     1     -10.438  12.939  66.346  1.00  0.00    -0.271 SA 
BRANCH  13  14
HETATM   14  C   UNL     1     -11.684  14.217  66.723  1.00  0.00    -0.405 C  
BRANCH  14  15
HETATM   15  C   UNL     1     -11.082  15.334  67.504  1.00  0.00    -0.324 A  
HETATM   16  C   UNL     1     -11.354  15.670  68.815  1.00  0.00    -0.349 A  
HETATM   17  S   UNL     1     -10.412  17.020  69.285  1.00  0.00    -0.215 SA 
HETATM   18  C   UNL     1      -9.725  17.079  67.710  1.00  0.00    -0.258 A  
HETATM   19  N   UNL     1     -10.175  16.171  66.865  1.00  0.00    -0.277 NA 
BRANCH  18  20
HETATM   20  C   UNL     1      -8.709  18.136  67.350  1.00  0.00    -0.245 C  
BRANCH  20  21
HETATM   21  N   UNL     1      -9.034  18.901  66.123  1.00  0.00    -0.470 NA 
HETATM   22  C   UNL     1     -10.243  19.712  66.302  1.00  0.00    -0.498 C  
HETATM   23  C   UNL     1      -7.908  19.771  65.778  1.00  0.00    -0.223 C  
ENDBRANCH  20  21
ENDBRANCH  18  20
ENDBRANCH  14  15
ENDBRANCH  13  14
ENDBRANCH  12  13
ENDBRANCH  11  12
ENDBRANCH   9  11
ENDBRANCH   4   9
ENDBRANCH   2   4
TORSDOF 9
ENDMDL
MODEL       23
REMARK 921   NORMALIZED FREE ENERGY PREDICTED BY IDOCK:   -4.57 KCAL/MOL
REMARK 922        TOTAL FREE ENERGY PREDICTED BY IDOCK:   -8.04 KCAL/MOL
REMARK 923 INTER-LIGAND FREE ENERGY PREDICTED BY IDOCK:   -7.59 KCAL/MOL
REMARK 924 INTRA-LIGAND FREE ENERGY PREDICTED BY IDOCK:   -0.44 KCAL/MOL
REMARK 927      BINDING AFFINITY PREDICTED BY RF-SCORE:    0.00 PKD
ROOT
HETATM    1  C   UNL     1     -11.536  10.843  68.968  1.00  0.00    -0.302 C  
HETATM    2  N   UNL     1     -11.033  11.798  68.006  1.00  0.00    -0.212 NA 
HETATM    3  H   UNL     1     -10.017  11.881  67.961  1.00  0.00     0.000 HD 
ENDROOT
BRANCH   2   4
HETATM    4  C   UNL     1     -11.735  12.617  67.137  1.00  0.00    -0.371 C  
HETATM    5  C   UNL     1     -11.911  12.219  65.860  1.00  0.00    -0.354 C  
HETATM    6  O   UNL     1     -13.150  14.064  65.178  1.00  0.00    -0.776 OA 
HETATM    7  N   UNL     1     -12.627  12.984  64.870  1.00  0.00    -0.451 N  
HETATM    8  O   UNL     1     -12.672  12.482  63.740  1.00  0.00    -0.696 OA 
BRANCH   4   9
HETATM    9  N   UNL     1     -12.211  13.823  67.621  1.00  0.00    -0.432 NA 
HETATM   10  H   UNL     1     -12.971  14.232  67.077  1.00  0.00     0.000 HD 
BRANCH   9  11
HETATM   11  C   UNL     1     -11.804  14.598  68.775  1.00  0.00    -0.313 C  
BRANCH  11  12
HETATM   12  C   UNL     1     -10.872  15.739  68.357  1.00  0.00    -0.297 C  
BRANCH  12  13
HETATM   13  S   UNL     1      -9.957  15.377  66.819  1.00  0.00    -0.258 SA 
BRANCH  13  14
HETATM   14  C   UNL     1     -10.560  16.748  65.775  1.00  0.00    -0.250 C  
BRANCH  14  15
HETATM   15  C   UNL     1      -9.976  18.047  66.213  1.00  0.00    -0.337 A  
HETATM   16  C   UNL     1     -10.667  19.170  66.619  1.00  0.00    -0.377 A  
HETATM   17  S   UNL     1      -9.571  20.417  67.038  1.00  0.00    -0.406 SA 
HETATM   18  C   UNL     1      -8.256  19.387  66.628  1.00  0.00    -0.306 A  
HETATM   19  N   UNL     1      -8.594  18.192  66.184  1.00  0.00    -0.490 NA 
BRANCH  18  20
HETATM   20  C   UNL     1      -6.831  19.870  66.749  1.00  0.00    -0.210 C  
BRANCH  20  21
HETATM   21  N   UNL     1      -6.329  19.944  68.141  1.00  0.00    -0.245 NA 
HETATM   22  C   UNL     1      -5.472  18.798  68.462  1.00  0.00    -0.192 C  
HETATM   23  C   UNL     1      -5.573  21.186  68.321  1.00  0.00    -0.318 C  
ENDBRANCH  20  21
ENDBRANCH  18  20
ENDBRANCH  14  15
ENDBRANCH  13  14
ENDBRANCH  12  13
ENDBRANCH  11  12
ENDBRANCH   9  11
ENDBRANCH   4   9
ENDBRANCH   2   4
TORSDOF 9
ENDMDL
MODEL       24
REMARK 921   NORMALIZED FREE ENERGY PREDICTED BY IDOCK:   -4.56 KCAL/MOL
REMARK 922        TOTAL FREE ENERGY PREDICTED BY IDOCK:   -8.03 KCAL/MOL
REMARK 923 INTER-LIGAND FREE ENERGY PREDICTED BY IDOCK:   -7.52 KCAL/MOL
REMARK 924 INTRA-LIGAND FREE ENERGY PREDICTED BY IDOCK:   -0.51 KCAL/MOL
REMARK 927      BINDING AFFINITY PREDICTED BY RF-SCORE:    0.00 PKD
ROOT
HETATM    1  C   UNL     1     -11.110   6.267  68.656  1.00  0.00    -0.325 C  
HETATM    2  N   UNL     1     -11.930   6.602  69.799  1.00  0.00    -0.618 NA 
HETATM    3  H   UNL     1     -12.932   6.660  69.616  1.00  0.00     0.000 HD 
ENDROOT
BRANCH   2   4
HETATM    4  C   UNL     1     -11.549   6.855  71.105  1.00  0.00    -0.319 C  
HETATM    5  C   UNL     1     -11.076   5.840  71.858  1.00  0.00    -0.248 C  
HETATM    6  O   UNL     1     -10.669   7.097  73.771  1.00  0.00    -0.361 OA 
HETATM    7  N   UNL     1     -10.644   5.985  73.226  1.00  0.00    -0.242 N  
HETATM    8  O   UNL     1     -10.261   4.944  73.776  1.00  0.00    -0.170 OA 
BRANCH   4   9
HETATM    9  N   UNL     1     -11.689   8.145  71.586  1.00  0.00    -0.274 NA 
HETATM   10  H   UNL     1     -10.811   8.619  71.802  1.00  0.00     0.000 HD 
BRANCH   9  11
HETATM   11  C   UNL     1     -12.880   8.931  71.832  1.00  0.00    -0.380 C  
BRANCH  11  12
HETATM   12  C   UNL     1     -12.946  10.124  70.873  1.00  0.00    -0.351 C  
BRANCH  12  13
HETATM   13  S   UNL     1     -11.318  10.556  70.168  1.00  0.00    -0.333 SA 
BRANCH  13  14
HETATM   14  C   UNL     1     -11.858  11.518  68.715  1.00  0.00    -0.330 C  
BRANCH  14  15
HETATM   15  C   UNL     1     -11.791  12.981  68.990  1.00  0.00    -0.316 A  
HETATM   16  C   UNL     1     -11.643  13.992  68.062  1.00  0.00    -0.337 A  
HETATM   17  S   UNL     1     -11.628  15.514  68.846  1.00  0.00    -0.378 SA 
HETATM   18  C   UNL     1     -11.797  14.723  70.364  1.00  0.00    -0.295 A  
HETATM   19  N   UNL     1     -11.840  13.406  70.312  1.00  0.00    -0.287 NA 
BRANCH  18  20
HETATM   20  C   UNL     1     -11.851  15.519  71.647  1.00  0.00    -0.415 C  
BRANCH  20  21
HETATM   21  N   UNL     1     -12.895  15.071  72.597  1.00  0.00    -0.353 NA 
HETATM   22  C   UNL     1     -12.774  15.759  73.887  1.00  0.00    -0.605 C  
HETATM   23  C   UNL     1     -14.219  15.331  72.026  1.00  0.00    -0.581 C  
ENDBRANCH  20  21
ENDBRANCH  18  20
ENDBRANCH  14  15
ENDBRANCH  13  14
ENDBRANCH  12  13
ENDBRANCH  11  12
ENDBRANCH   9  11
ENDBRANCH   4   9
ENDBRANCH   2   4
TORSDOF 9
ENDMDL
MODEL       25
REMARK 921   NORMALIZED FREE ENERGY PREDICTED BY IDOCK:   -4.54 KCAL/MOL
REMARK 922        TOTAL FREE ENERGY PREDICTED BY IDOCK:   -8.00 KCAL/MOL
REMARK 923 INTER-LIGAND FREE ENERGY PREDICTED BY IDOCK:   -7.26 KCAL/MOL
REMARK 924 INTRA-LIGAND FREE ENERGY PREDICTED BY IDOCK:   -0.74 KCAL/MOL
REMARK 927      BINDING AFFINITY PREDICTED BY RF-SCORE:    0.00 PKD
ROOT
HETATM    1  C   UNL     1     -11.842  11.191  69.215  1.00  0.00    -0.352 C  
HETATM    2  N   UNL     1     -11.439  12.436  69.831  1.00  0.00    -0.513 NA 
HETATM    3  H   UNL     1     -10.457  12.494  70.098  1.00  0.00     0.000 HD 
ENDROOT
BRANCH   2   4
HETATM    4  C   UNL     1     -12.199  13.560  70.109  1.00  0.00    -0.330 C  
HETATM    5  C   UNL     1     -12.705  13.717  71.350  1.00  0.00    -0.352 C  
HETATM    6  O   UNL     1     -13.739  15.762  70.956  1.00  0.00    -0.539 OA 
HETATM    7  N   UNL     1     -13.504  14.847  71.757  1.00  0.00    -0.355 N  
HETATM    8  O   UNL     1     -13.908  14.819  72.926  1.00  0.00    -0.503 OA 
BRANCH   4   9
HETATM    9  N   UNL     1     -12.418  14.467  69.088  1.00  0.00    -0.575 NA 
HETATM   10  H   UNL     1     -13.310  14.959  69.137  1.00  0.00     0.000 HD 
BRANCH   9  11
HETATM   11  C   UNL     1     -11.585  14.831  67.960  1.00  0.00    -0.343 C  
BRANCH  11  12
HETATM   12  C   UNL     1     -12.138  14.229  66.665  1.00  0.00    -0.420 C  
BRANCH  12  13
HETATM   13  S   UNL     1     -11.025  14.474  65.239  1.00  0.00    -0.386 SA 
BRANCH  13  14
HETATM   14  C   UNL     1     -11.658  13.173  64.128  1.00  0.00    -0.410 C  
BRANCH  14  15
HETATM   15  C   UNL     1     -10.769  11.978  64.146  1.00  0.00    -0.357 A  
HETATM   16  C   UNL     1     -10.033  11.477  63.091  1.00  0.00    -0.377 A  
HETATM   17  S   UNL     1      -9.155  10.094  63.590  1.00  0.00    -0.276 SA 
HETATM   18  C   UNL     1      -9.831  10.243  65.164  1.00  0.00    -0.321 A  
HETATM   19  N   UNL     1     -10.678  11.241  65.321  1.00  0.00    -0.266 NA 
BRANCH  18  20
HETATM   20  C   UNL     1      -9.480   9.255  66.251  1.00  0.00    -0.224 C  
BRANCH  20  21
HETATM   21  N   UNL     1      -8.858   9.864  67.450  1.00  0.00    -0.132 NA 
HETATM   22  C   UNL     1      -8.766   8.902  68.552  1.00  0.00    -0.134 C  
HETATM   23  C   UNL     1      -7.518  10.350  67.110  1.00  0.00    -0.092 C  
ENDBRANCH  20  21
ENDBRANCH  18  20
ENDBRANCH  14  15
ENDBRANCH  13  14
ENDBRANCH  12  13
ENDBRANCH  11  12
ENDBRANCH   9  11
ENDBRANCH   4   9
ENDBRANCH   2   4
TORSDOF 9
ENDMDL
MODEL       26
REMARK 921   NORMALIZED FREE ENERGY PREDICTED BY IDOCK:   -4.54 KCAL/MOL
REMARK 922        TOTAL FREE ENERGY PREDICTED BY IDOCK:   -7.99 KCAL/MOL
REMARK 923 INTER-LIGAND FREE ENERGY PREDICTED BY IDOCK:   -7.47 KCAL/MOL
REMARK 924 INTRA-LIGAND FREE ENERGY PREDICTED BY IDOCK:   -0.52 KCAL/MOL
REMARK 927      BINDING AFFINITY PREDICTED BY RF-SCORE:    0.00 PKD
ROOT
HETATM    1  C   UNL     1     -12.744  11.707  63.498  1.00  0.00    -0.156 C  
HETATM    2  N   UNL     1     -12.792  12.740  64.508  1.00  0.00    -0.737 NA 
HETATM    3  H   UNL     1     -13.673  12.814  65.016  1.00  0.00     0.000 HD 
ENDROOT
BRANCH   2   4
HETATM    4  C   UNL     1     -11.811  13.643  64.883  1.00  0.00    -0.375 C  
HETATM    5  C   UNL     1     -11.936  14.936  64.516  1.00  0.00    -0.410 C  
HETATM    6  O   UNL     1      -9.991  15.690  65.542  1.00  0.00    -0.337 OA 
HETATM    7  N   UNL     1     -10.983  15.964  64.853  1.00  0.00    -0.452 N  
HETATM    8  O   UNL     1     -11.241  17.092  64.414  1.00  0.00    -1.143 OA 
BRANCH   4   9
HETATM    9  N   UNL     1     -10.732  13.168  65.608  1.00  0.00    -0.277 NA 
HETATM   10  H   UNL     1      -9.820  13.470  65.264  1.00  0.00     0.000 HD 
BRANCH   9  11
HETATM   11  C   UNL     1     -10.689  12.312  66.775  1.00  0.00    -0.240 C  
BRANCH  11  12
HETATM   12  C   UNL     1     -11.699  12.782  67.826  1.00  0.00    -0.359 C  
BRANCH  12  13
HETATM   13  S   UNL     1     -11.841  11.631  69.236  1.00  0.00    -0.326 SA 
BRANCH  13  14
HETATM   14  C   UNL     1     -10.308  10.669  69.002  1.00  0.00    -0.218 C  
BRANCH  14  15
HETATM   15  C   UNL     1     -10.546   9.219  69.248  1.00  0.00    -0.222 A  
HETATM   16  C   UNL     1     -10.255   8.175  68.394  1.00  0.00    -0.209 A  
HETATM   17  S   UNL     1     -10.697   6.685  69.111  1.00  0.00    -0.284 SA 
HETATM   18  C   UNL     1     -11.266   7.531  70.496  1.00  0.00    -0.269 A  
HETATM   19  N   UNL     1     -11.162   8.844  70.436  1.00  0.00    -0.249 NA 
BRANCH  18  20
HETATM   20  C   UNL     1     -11.870   6.785  71.662  1.00  0.00    -0.326 C  
BRANCH  20  21
HETATM   21  N   UNL     1     -10.877   6.136  72.549  1.00  0.00    -0.227 NA 
HETATM   22  C   UNL     1     -10.492   7.016  73.657  1.00  0.00    -0.376 C  
HETATM   23  C   UNL     1     -11.440   4.894  73.084  1.00  0.00    -0.278 C  
ENDBRANCH  20  21
ENDBRANCH  18  20
ENDBRANCH  14  15
ENDBRANCH  13  14
ENDBRANCH  12  13
ENDBRANCH  11  12
ENDBRANCH   9  11
ENDBRANCH   4   9
ENDBRANCH   2   4
TORSDOF 9
ENDMDL
MODEL       27
REMARK 921   NORMALIZED FREE ENERGY PREDICTED BY IDOCK:   -4.53 KCAL/MOL
REMARK 922        TOTAL FREE ENERGY PREDICTED BY IDOCK:   -7.98 KCAL/MOL
REMARK 923 INTER-LIGAND FREE ENERGY PREDICTED BY IDOCK:   -7.40 KCAL/MOL
REMARK 924 INTRA-LIGAND FREE ENERGY PREDICTED BY IDOCK:   -0.58 KCAL/MOL
REMARK 927      BINDING AFFINITY PREDICTED BY RF-SCORE:    0.00 PKD
ROOT
HETATM    1  C   UNL     1     -10.004  10.778  63.098  1.00  0.00    -0.290 C  
HETATM    2  N   UNL     1     -10.441  10.964  64.464  1.00  0.00    -0.349 NA 
HETATM    3  H   UNL     1     -10.128  10.252  65.124  1.00  0.00     0.000 HD 
ENDROOT
BRANCH   2   4
HETATM    4  C   UNL     1     -11.224  11.971  65.003  1.00  0.00    -0.320 C  
HETATM    5  C   UNL     1     -11.557  13.026  64.230  1.00  0.00    -0.385 C  
HETATM    6  O   UNL     1     -12.831  14.132  65.830  1.00  0.00    -0.502 OA 
HETATM    7  N   UNL     1     -12.369  14.129  64.680  1.00  0.00    -0.429 N  
HETATM    8  O   UNL     1     -12.557  15.026  63.848  1.00  0.00    -0.813 OA 
BRANCH   4   9
HETATM    9  N   UNL     1     -11.616  11.854  66.325  1.00  0.00    -0.491 NA 
HETATM   10  H   UNL     1     -12.367  12.485  66.606  1.00  0.00     0.000 HD 
BRANCH   9  11
HETATM   11  C   UNL     1     -11.132  10.980  67.373  1.00  0.00    -0.305 C  
BRANCH  11  12
HETATM   12  C   UNL     1     -12.157  10.881  68.508  1.00  0.00     0.076 C  
BRANCH  12  13
HETATM   13  S   UNL     1     -11.382  10.850  70.160  1.00  0.00    -0.244 SA 
BRANCH  13  14
HETATM   14  C   UNL     1     -12.805  11.373  71.176  1.00  0.00    -0.341 C  
BRANCH  14  15
HETATM   15  C   UNL     1     -12.814  12.852  71.358  1.00  0.00    -0.283 A  
HETATM   16  C   UNL     1     -13.485  13.563  72.333  1.00  0.00    -0.584 A  
HETATM   17  S   UNL     1     -13.189  15.239  72.149  1.00  0.00    -0.438 SA 
HETATM   18  C   UNL     1     -12.210  14.907  70.775  1.00  0.00    -0.325 A  
HETATM   19  N   UNL     1     -12.116  13.634  70.445  1.00  0.00    -0.349 NA 
BRANCH  18  20
HETATM   20  C   UNL     1     -11.552  16.028  70.007  1.00  0.00    -0.312 C  
BRANCH  20  21
HETATM   21  N   UNL     1     -10.533  15.581  69.030  1.00  0.00    -0.220 NA 
HETATM   22  C   UNL     1     -10.727  16.219  67.724  1.00  0.00    -0.325 C  
HETATM   23  C   UNL     1      -9.196  15.903  69.538  1.00  0.00    -0.175 C  
ENDBRANCH  20  21
ENDBRANCH  18  20
ENDBRANCH  14  15
ENDBRANCH  13  14
ENDBRANCH  12  13
ENDBRANCH  11  12
ENDBRANCH   9  11
ENDBRANCH   4   9
ENDBRANCH   2   4
TORSDOF 9
ENDMDL
MODEL       28
REMARK 921   NORMALIZED FREE ENERGY PREDICTED BY IDOCK:   -4.53 KCAL/MOL
REMARK 922        TOTAL FREE ENERGY PREDICTED BY IDOCK:   -7.98 KCAL/MOL
REMARK 923 INTER-LIGAND FREE ENERGY PREDICTED BY IDOCK:   -7.32 KCAL/MOL
REMARK 924 INTRA-LIGAND FREE ENERGY PREDICTED BY IDOCK:   -0.66 KCAL/MOL
REMARK 927      BINDING AFFINITY PREDICTED BY RF-SCORE:    0.00 PKD
ROOT
HETATM    1  C   UNL     1     -13.767  15.640  72.852  1.00  0.00    -0.545 C  
HETATM    2  N   UNL     1     -13.057  15.369  71.621  1.00  0.00    -0.425 NA 
HETATM    3  H   UNL     1     -12.882  16.181  71.029  1.00  0.00     0.000 HD 
ENDROOT
BRANCH   2   4
HETATM    4  C   UNL     1     -12.581  14.164  71.133  1.00  0.00    -0.367 C  
HETATM    5  C   UNL     1     -13.031  13.014  71.677  1.00  0.00    -0.321 C  
HETATM    6  O   UNL     1     -11.813  11.582  70.309  1.00  0.00    -0.336 OA 
HETATM    7  N   UNL     1     -12.611  11.703  71.248  1.00  0.00    -0.361 N  
HETATM    8  O   UNL     1     -13.105  10.755  71.873  1.00  0.00    -0.481 OA 
BRANCH   4   9
HETATM    9  N   UNL     1     -11.646  14.198  70.113  1.00  0.00    -0.410 NA 
HETATM   10  H   UNL     1     -10.905  13.502  70.190  1.00  0.00     0.000 HD 
BRANCH   9  11
HETATM   11  C   UNL     1     -11.551  15.063  68.956  1.00  0.00    -0.319 C  
BRANCH  11  12
HETATM   12  C   UNL     1     -10.263  15.889  69.004  1.00  0.00    -0.227 C  
BRANCH  12  13
HETATM   13  S   UNL     1     -10.122  17.065  67.614  1.00  0.00    -0.309 SA 
BRANCH  13  14
HETATM   14  C   UNL     1      -9.195  16.031  66.431  1.00  0.00    -0.305 C  
BRANCH  14  15
HETATM   15  C   UNL     1     -10.101  15.073  65.736  1.00  0.00    -0.340 A  
HETATM   16  C   UNL     1     -11.193  15.385  64.952  1.00  0.00    -0.403 A  
HETATM   17  S   UNL     1     -11.920  13.954  64.358  1.00  0.00    -0.444 SA 
HETATM   18  C   UNL     1     -10.749  13.019  65.201  1.00  0.00    -0.306 A  
HETATM   19  N   UNL     1      -9.876  13.712  65.906  1.00  0.00    -0.276 NA 
BRANCH  18  20
HETATM   20  C   UNL     1     -10.777  11.510  65.142  1.00  0.00    -0.289 C  
BRANCH  20  21
HETATM   21  N   UNL     1      -9.555  10.901  64.569  1.00  0.00    -0.244 NA 
HETATM   22  C   UNL     1      -9.320   9.559  65.114  1.00  0.00    -0.252 C  
HETATM   23  C   UNL     1      -9.686  10.821  63.112  1.00  0.00    -0.357 C  
ENDBRANCH  20  21
ENDBRANCH  18  20
ENDBRANCH  14  15
ENDBRANCH  13  14
ENDBRANCH  12  13
ENDBRANCH  11  12
ENDBRANCH   9  11
ENDBRANCH   4   9
ENDBRANCH   2   4
TORSDOF 9
ENDMDL
MODEL       29
REMARK 921   NORMALIZED FREE ENERGY PREDICTED BY IDOCK:   -4.53 KCAL/MOL
REMARK 922        TOTAL FREE ENERGY PREDICTED BY IDOCK:   -7.98 KCAL/MOL
REMARK 923 INTER-LIGAND FREE ENERGY PREDICTED BY IDOCK:   -7.20 KCAL/MOL
REMARK 924 INTRA-LIGAND FREE ENERGY PREDICTED BY IDOCK:   -0.78 KCAL/MOL
REMARK 927      BINDING AFFINITY PREDICTED BY RF-SCORE:    0.00 PKD
ROOT
HETATM    1  C   UNL     1     -10.896  15.272  69.471  1.00  0.00    -0.271 C  
HETATM    2  N   UNL     1     -11.208  16.238  68.441  1.00  0.00    -0.363 NA 
HETATM    3  H   UNL     1     -12.199  16.447  68.323  1.00  0.00     0.000 HD 
ENDROOT
BRANCH   2   4
HETATM    4  C   UNL     1     -10.351  16.920  67.593  1.00  0.00    -0.317 C  
HETATM    5  C   UNL     1     -10.489  18.255  67.458  1.00  0.00    -0.411 C  
HETATM    6  O   UNL     1      -8.726  18.552  65.972  1.00  0.00    -0.497 OA 
HETATM    7  N   UNL     1      -9.653  19.069  66.610  1.00  0.00    -0.326 N  
HETATM    8  O   UNL     1      -9.933  20.274  66.586  1.00  0.00    -0.442 OA 
BRANCH   4   9
HETATM    9  N   UNL     1      -9.399  16.189  66.905  1.00  0.00    -0.219 NA 
HETATM   10  H   UNL     1      -8.433  16.442  67.113  1.00  0.00     0.000 HD 
BRANCH   9  11
HETATM   11  C   UNL     1      -9.552  15.122  65.938  1.00  0.00    -0.338 C  
BRANCH  11  12
HETATM   12  C   UNL     1     -10.729  15.410  65.000  1.00  0.00    -0.438 C  
BRANCH  12  13
HETATM   13  S   UNL     1     -11.760  13.936  64.686  1.00  0.00    -0.417 SA 
BRANCH  13  14
HETATM   14  C   UNL     1     -12.361  13.615  66.378  1.00  0.00    -0.389 C  
BRANCH  14  15
HETATM   15  C   UNL     1     -11.741  12.382  66.939  1.00  0.00    -0.362 A  
HETATM   16  C   UNL     1     -11.137  11.363  66.232  1.00  0.00    -0.221 A  
HETATM   17  S   UNL     1     -10.561  10.160  67.306  1.00  0.00    -0.249 SA 
HETATM   18  C   UNL     1     -11.174  11.066  68.634  1.00  0.00    -0.263 A  
HETATM   19  N   UNL     1     -11.792  12.186  68.314  1.00  0.00    -0.390 NA 
BRANCH  18  20
HETATM   20  C   UNL     1     -11.025  10.558  70.048  1.00  0.00    -0.286 C  
BRANCH  20  21
HETATM   21  N   UNL     1     -12.247   9.928  70.600  1.00  0.00    -0.265 NA 
HETATM   22  C   UNL     1     -11.958   8.607  71.168  1.00  0.00    -0.279 C  
HETATM   23  C   UNL     1     -12.814  10.793  71.638  1.00  0.00    -0.457 C  
ENDBRANCH  20  21
ENDBRANCH  18  20
ENDBRANCH  14  15
ENDBRANCH  13  14
ENDBRANCH  12  13
ENDBRANCH  11  12
ENDBRANCH   9  11
ENDBRANCH   4   9
ENDBRANCH   2   4
TORSDOF 9
ENDMDL
MODEL       30
REMARK 921   NORMALIZED FREE ENERGY PREDICTED BY IDOCK:   -4.53 KCAL/MOL
REMARK 922        TOTAL FREE ENERGY PREDICTED BY IDOCK:   -7.97 KCAL/MOL
REMARK 923 INTER-LIGAND FREE ENERGY PREDICTED BY IDOCK:   -7.37 KCAL/MOL
REMARK 924 INTRA-LIGAND FREE ENERGY PREDICTED BY IDOCK:   -0.60 KCAL/MOL
REMARK 927      BINDING AFFINITY PREDICTED BY RF-SCORE:    0.00 PKD
ROOT
HETATM    1  C   UNL     1     -11.989  15.614  64.154  1.00  0.00    -0.039 C  
HETATM    2  N   UNL     1     -12.473  14.266  63.954  1.00  0.00    -0.969 NA 
HETATM    3  H   UNL     1     -13.344  14.187  63.429  1.00  0.00     0.000 HD 
ENDROOT
BRANCH   2   4
HETATM    4  C   UNL     1     -11.921  13.068  64.373  1.00  0.00    -0.397 C  
HETATM    5  C   UNL     1     -11.162  12.359  63.511  1.00  0.00    -0.469 C  
HETATM    6  O   UNL     1     -10.650  10.626  64.974  1.00  0.00    -0.255 OA 
HETATM    7  N   UNL     1     -10.533  11.103  63.837  1.00  0.00    -0.366 N  
HETATM    8  O   UNL     1      -9.892  10.575  62.919  1.00  0.00    -0.309 OA 
BRANCH   4   9
HETATM    9  N   UNL     1     -12.190  12.642  65.662  1.00  0.00    -0.590 NA 
HETATM   10  H   UNL     1     -12.648  11.733  65.725  1.00  0.00     0.000 HD 
BRANCH   9  11
HETATM   11  C   UNL     1     -11.927  13.280  66.935  1.00  0.00    -0.375 C  
BRANCH  11  12
HETATM   12  C   UNL     1     -10.437  13.203  67.279  1.00  0.00    -0.243 C  
BRANCH  12  13
HETATM   13  S   UNL     1      -9.517  14.699  66.780  1.00  0.00    -0.272 SA 
BRANCH  13  14
HETATM   14  C   UNL     1     -10.541  15.973  67.590  1.00  0.00    -0.309 C  
BRANCH  14  15
HETATM   15  C   UNL     1     -10.004  17.337  67.323  1.00  0.00    -0.283 A  
HETATM   16  C   UNL     1     -10.512  18.270  66.441  1.00  0.00    -0.366 A  
HETATM   17  S   UNL     1      -9.566  19.697  66.483  1.00  0.00    -0.415 SA 
HETATM   18  C   UNL     1      -8.536  18.969  67.652  1.00  0.00    -0.288 A  
HETATM   19  N   UNL     1      -8.848  17.732  67.985  1.00  0.00    -0.253 NA 
BRANCH  18  20
HETATM   20  C   UNL     1      -7.346  19.717  68.204  1.00  0.00    -0.302 C  
BRANCH  20  21
HETATM   21  N   UNL     1      -6.766  19.120  69.429  1.00  0.00    -0.301 NA 
HETATM   22  C   UNL     1      -5.689  18.177  69.107  1.00  0.00    -0.211 C  
HETATM   23  C   UNL     1      -6.244  20.184  70.290  1.00  0.00    -0.353 C  
ENDBRANCH  20  21
ENDBRANCH  18  20
ENDBRANCH  14  15
ENDBRANCH  13  14
ENDBRANCH  12  13
ENDBRANCH  11  12
ENDBRANCH   9  11
ENDBRANCH   4   9
ENDBRANCH   2   4
TORSDOF 9
ENDMDL
MODEL       31
REMARK 921   NORMALIZED FREE ENERGY PREDICTED BY IDOCK:   -4.52 KCAL/MOL
REMARK 922        TOTAL FREE ENERGY PREDICTED BY IDOCK:   -7.97 KCAL/MOL
REMARK 923 INTER-LIGAND FREE ENERGY PREDICTED BY IDOCK:   -7.52 KCAL/MOL
REMARK 924 INTRA-LIGAND FREE ENERGY PREDICTED BY IDOCK:   -0.45 KCAL/MOL
REMARK 927      BINDING AFFINITY PREDICTED BY RF-SCORE:    0.00 PKD
ROOT
HETATM    1  C   UNL     1     -12.319  15.348  63.979  1.00  0.00     0.116 C  
HETATM    2  N   UNL     1     -12.460  13.972  63.560  1.00  0.00    -1.099 NA 
HETATM    3  H   UNL     1     -13.104  13.814  62.785  1.00  0.00     0.000 HD 
ENDROOT
BRANCH   2   4
HETATM    4  C   UNL     1     -11.845  12.837  64.062  1.00  0.00    -0.435 C  
HETATM    5  C   UNL     1     -10.992  12.151  63.272  1.00  0.00    -0.330 C  
HETATM    6  O   UNL     1     -10.433  10.526  64.838  1.00  0.00    -0.301 OA 
HETATM    7  N   UNL     1     -10.291  10.962  63.687  1.00  0.00    -0.345 N  
HETATM    8  O   UNL     1      -9.565  10.445  62.828  1.00  0.00    -0.315 OA 
BRANCH   4   9
HETATM    9  N   UNL     1     -12.151  12.448  65.354  1.00  0.00    -0.520 NA 
HETATM   10  H   UNL     1     -12.628  11.549  65.428  1.00  0.00     0.000 HD 
BRANCH   9  11
HETATM   11  C   UNL     1     -11.903  13.110  66.618  1.00  0.00    -0.391 C  
BRANCH  11  12
HETATM   12  C   UNL     1     -10.399  13.275  66.853  1.00  0.00    -0.255 C  
BRANCH  12  13
HETATM   13  S   UNL     1     -10.014  14.016  68.477  1.00  0.00    -0.210 SA 
BRANCH  13  14
HETATM   14  C   UNL     1     -11.681  14.577  68.961  1.00  0.00    -0.311 C  
BRANCH  14  15
HETATM   15  C   UNL     1     -12.223  13.742  70.070  1.00  0.00    -0.342 A  
HETATM   16  C   UNL     1     -12.820  14.192  71.230  1.00  0.00    -0.359 A  
HETATM   17  S   UNL     1     -13.293  12.865  72.203  1.00  0.00    -0.432 SA 
HETATM   18  C   UNL     1     -12.652  11.786  71.027  1.00  0.00    -0.310 A  
HETATM   19  N   UNL     1     -12.096  12.361  69.979  1.00  0.00    -0.296 NA 
BRANCH  18  20
HETATM   20  C   UNL     1     -12.710  10.292  71.238  1.00  0.00    -0.421 C  
BRANCH  20  21
HETATM   21  N   UNL     1     -11.385   9.646  71.387  1.00  0.00    -0.379 NA 
HETATM   22  C   UNL     1     -11.432   8.544  72.353  1.00  0.00    -0.349 C  
HETATM   23  C   UNL     1     -10.941   9.138  70.086  1.00  0.00    -0.239 C  
ENDBRANCH  20  21
ENDBRANCH  18  20
ENDBRANCH  14  15
ENDBRANCH  13  14
ENDBRANCH  12  13
ENDBRANCH  11  12
ENDBRANCH   9  11
ENDBRANCH   4   9
ENDBRANCH   2   4
TORSDOF 9
ENDMDL
MODEL       32
REMARK 921   NORMALIZED FREE ENERGY PREDICTED BY IDOCK:   -4.52 KCAL/MOL
REMARK 922        TOTAL FREE ENERGY PREDICTED BY IDOCK:   -7.97 KCAL/MOL
REMARK 923 INTER-LIGAND FREE ENERGY PREDICTED BY IDOCK:   -7.21 KCAL/MOL
REMARK 924 INTRA-LIGAND FREE ENERGY PREDICTED BY IDOCK:   -0.76 KCAL/MOL
REMARK 927      BINDING AFFINITY PREDICTED BY RF-SCORE:    0.00 PKD
ROOT
HETATM    1  C   UNL     1     -11.165  14.475  68.665  1.00  0.00    -0.261 C  
HETATM    2  N   UNL     1     -10.723  14.290  67.301  1.00  0.00    -0.275 NA 
HETATM    3  H   UNL     1     -10.190  13.438  67.125  1.00  0.00     0.000 HD 
ENDROOT
BRANCH   2   4
HETATM    4  C   UNL     1     -10.921  15.105  66.199  1.00  0.00    -0.331 C  
HETATM    5  C   UNL     1     -10.632  16.420  66.297  1.00  0.00    -0.242 C  
HETATM    6  O   UNL     1     -11.192  16.975  64.110  1.00  0.00    -1.130 OA 
HETATM    7  N   UNL     1     -10.792  17.361  65.217  1.00  0.00    -0.132 N  
HETATM    8  O   UNL     1     -10.502  18.534  65.486  1.00  0.00    -0.597 OA 
BRANCH   4   9
HETATM    9  N   UNL     1     -11.428  14.530  65.047  1.00  0.00    -0.365 NA 
HETATM   10  H   UNL     1     -11.006  14.865  64.181  1.00  0.00     0.000 HD 
BRANCH   9  11
HETATM   11  C   UNL     1     -12.461  13.530  64.873  1.00  0.00    -0.384 C  
BRANCH  11  12
HETATM   12  C   UNL     1     -12.100  12.576  63.731  1.00  0.00    -0.529 C  
BRANCH  12  13
HETATM   13  S   UNL     1     -10.307  12.249  63.621  1.00  0.00    -0.394 SA 
BRANCH  13  14
HETATM   14  C   UNL     1     -10.247  10.601  64.402  1.00  0.00    -0.330 C  
BRANCH  14  15
HETATM   15  C   UNL     1      -9.872  10.707  65.841  1.00  0.00    -0.243 A  
HETATM   16  C   UNL     1      -8.911  11.533  66.388  1.00  0.00    -0.193 A  
HETATM   17  S   UNL     1      -8.841  11.313  68.084  1.00  0.00    -0.165 SA 
HETATM   18  C   UNL     1     -10.076  10.121  67.972  1.00  0.00    -0.157 A  
HETATM   19  N   UNL     1     -10.508   9.872  66.751  1.00  0.00    -0.216 NA 
BRANCH  18  20
HETATM   20  C   UNL     1     -10.573   9.407  69.206  1.00  0.00    -0.225 C  
BRANCH  20  21
HETATM   21  N   UNL     1     -11.015  10.308  70.294  1.00  0.00    -0.303 NA 
HETATM   22  C   UNL     1     -12.107  11.183  69.855  1.00  0.00    -0.344 C  
HETATM   23  C   UNL     1     -11.459   9.509  71.439  1.00  0.00    -0.392 C  
ENDBRANCH  20  21
ENDBRANCH  18  20
ENDBRANCH  14  15
ENDBRANCH  13  14
ENDBRANCH  12  13
ENDBRANCH  11  12
ENDBRANCH   9  11
ENDBRANCH   4   9
ENDBRANCH   2   4
TORSDOF 9
ENDMDL
MODEL       33
REMARK 921   NORMALIZED FREE ENERGY PREDICTED BY IDOCK:   -4.51 KCAL/MOL
REMARK 922        TOTAL FREE ENERGY PREDICTED BY IDOCK:   -7.94 KCAL/MOL
REMARK 923 INTER-LIGAND FREE ENERGY PREDICTED BY IDOCK:   -7.16 KCAL/MOL
REMARK 924 INTRA-LIGAND FREE ENERGY PREDICTED BY IDOCK:   -0.78 KCAL/MOL
REMARK 927      BINDING AFFINITY PREDICTED BY RF-SCORE:    0.00 PKD
ROOT
HETATM    1  C   UNL     1     -14.047   8.386  71.613  1.00  0.00    -0.419 C  
HETATM    2  N   UNL     1     -12.899   9.134  71.153  1.00  0.00    -0.491 NA 
HETATM    3  H   UNL     1     -12.089   8.573  70.889  1.00  0.00     0.000 HD 
ENDROOT
BRANCH   2   4
HETATM    4  C   UNL     1     -12.743  10.503  71.020  1.00  0.00    -0.408 C  
HETATM    5  C   UNL     1     -13.354  11.321  71.902  1.00  0.00    -0.307 C  
HETATM    6  O   UNL     1     -12.564  13.315  71.004  1.00  0.00    -0.356 OA 
HETATM    7  N   UNL     1     -13.260  12.759  71.865  1.00  0.00    -0.445 N  
HETATM    8  O   UNL     1     -13.904  13.357  72.737  1.00  0.00    -0.720 OA 
BRANCH   4   9
HETATM    9  N   UNL     1     -11.975  10.972  69.968  1.00  0.00    -0.320 NA 
HETATM   10  H   UNL     1     -12.371  11.771  69.473  1.00  0.00     0.000 HD 
BRANCH   9  11
HETATM   11  C   UNL     1     -10.701  10.510  69.457  1.00  0.00    -0.255 C  
BRANCH  11  12
HETATM   12  C   UNL     1     -10.875   9.867  68.077  1.00  0.00    -0.243 C  
BRANCH  12  13
HETATM   13  S   UNL     1      -9.349   9.920  67.075  1.00  0.00    -0.150 SA 
BRANCH  13  14
HETATM   14  C   UNL     1      -9.968  10.835  65.623  1.00  0.00    -0.260 C  
BRANCH  14  15
HETATM   15  C   UNL     1     -10.676  12.078  66.038  1.00  0.00    -0.279 A  
HETATM   16  C   UNL     1     -11.973  12.435  65.730  1.00  0.00    -0.372 A  
HETATM   17  S   UNL     1     -12.352  13.948  66.437  1.00  0.00    -0.368 SA 
HETATM   18  C   UNL     1     -10.761  14.034  67.084  1.00  0.00    -0.283 A  
HETATM   19  N   UNL     1      -9.975  13.019  66.783  1.00  0.00    -0.239 NA 
BRANCH  18  20
HETATM   20  C   UNL     1     -10.325  15.225  67.902  1.00  0.00    -0.246 C  
BRANCH  20  21
HETATM   21  N   UNL     1     -10.596  16.535  67.265  1.00  0.00    -0.310 NA 
HETATM   22  C   UNL     1     -10.375  17.642  68.201  1.00  0.00    -0.386 C  
HETATM   23  C   UNL     1      -9.725  16.699  66.098  1.00  0.00    -0.303 C  
ENDBRANCH  20  21
ENDBRANCH  18  20
ENDBRANCH  14  15
ENDBRANCH  13  14
ENDBRANCH  12  13
ENDBRANCH  11  12
ENDBRANCH   9  11
ENDBRANCH   4   9
ENDBRANCH   2   4
TORSDOF 9
ENDMDL
MODEL       34
REMARK 921   NORMALIZED FREE ENERGY PREDICTED BY IDOCK:   -4.50 KCAL/MOL
REMARK 922        TOTAL FREE ENERGY PREDICTED BY IDOCK:   -7.94 KCAL/MOL
REMARK 923 INTER-LIGAND FREE ENERGY PREDICTED BY IDOCK:   -6.50 KCAL/MOL
REMARK 924 INTRA-LIGAND FREE ENERGY PREDICTED BY IDOCK:   -1.44 KCAL/MOL
REMARK 927      BINDING AFFINITY PREDICTED BY RF-SCORE:    0.00 PKD
ROOT
HETATM    1  C   UNL     1     -11.778  10.981  68.978  1.00  0.00    -0.333 C  
HETATM    2  N   UNL     1     -11.922  11.943  67.908  1.00  0.00    -0.577 NA 
HETATM    3  H   UNL     1     -12.067  11.546  66.980  1.00  0.00     0.000 HD 
ENDROOT
BRANCH   2   4
HETATM    4  C   UNL     1     -11.892  13.326  67.965  1.00  0.00    -0.355 C  
HETATM    5  C   UNL     1     -12.021  13.935  69.163  1.00  0.00    -0.363 C  
HETATM    6  O   UNL     1     -11.828  16.113  68.372  1.00  0.00    -0.260 OA 
HETATM    7  N   UNL     1     -11.999  15.365  69.345  1.00  0.00    -0.338 N  
HETATM    8  O   UNL     1     -12.155  15.755  70.509  1.00  0.00    -0.371 OA 
BRANCH   4   9
HETATM    9  N   UNL     1     -11.748  14.023  66.778  1.00  0.00    -0.385 NA 
HETATM   10  H   UNL     1     -10.883  14.558  66.699  1.00  0.00     0.000 HD 
BRANCH   9  11
HETATM   11  C   UNL     1     -12.628  14.117  65.632  1.00  0.00    -0.470 C  
BRANCH  11  12
HETATM   12  C   UNL     1     -11.875  13.770  64.345  1.00  0.00    -0.427 C  
BRANCH  12  13
HETATM   13  S   UNL     1     -12.158  12.050  63.801  1.00  0.00    -0.489 SA 
BRANCH  13  14
HETATM   14  C   UNL     1     -10.431  11.527  63.527  1.00  0.00    -0.428 C  
BRANCH  14  15
HETATM   15  C   UNL     1      -9.812  11.047  64.795  1.00  0.00    -0.276 A  
HETATM   16  C   UNL     1      -9.617   9.735  65.177  1.00  0.00    -0.287 A  
HETATM   17  S   UNL     1      -8.861   9.674  66.712  1.00  0.00    -0.135 SA 
HETATM   18  C   UNL     1      -8.866  11.393  66.773  1.00  0.00    -0.179 A  
HETATM   19  N   UNL     1      -9.414  11.991  65.733  1.00  0.00    -0.215 NA 
BRANCH  18  20
HETATM   20  C   UNL     1      -8.305  12.124  67.969  1.00  0.00    -0.167 C  
BRANCH  20  21
HETATM   21  N   UNL     1      -7.877  13.514  67.687  1.00  0.00    -0.161 NA 
HETATM   22  C   UNL     1      -8.367  14.443  68.710  1.00  0.00    -0.126 C  
HETATM   23  C   UNL     1      -6.413  13.571  67.635  1.00  0.00    -0.160 C  
ENDBRANCH  20  21
ENDBRANCH  18  20
ENDBRANCH  14  15
ENDBRANCH  13  14
ENDBRANCH  12  13
ENDBRANCH  11  12
ENDBRANCH   9  11
ENDBRANCH   4   9
ENDBRANCH   2   4
TORSDOF 9
ENDMDL
MODEL       35
REMARK 921   NORMALIZED FREE ENERGY PREDICTED BY IDOCK:   -4.47 KCAL/MOL
REMARK 922        TOTAL FREE ENERGY PREDICTED BY IDOCK:   -7.89 KCAL/MOL
REMARK 923 INTER-LIGAND FREE ENERGY PREDICTED BY IDOCK:   -7.57 KCAL/MOL
REMARK 924 INTRA-LIGAND FREE ENERGY PREDICTED BY IDOCK:   -0.32 KCAL/MOL
REMARK 927      BINDING AFFINITY PREDICTED BY RF-SCORE:    0.00 PKD
ROOT
HETATM    1  C   UNL     1      -8.840  16.096  66.905  1.00  0.00    -0.219 C  
HETATM    2  N   UNL     1      -9.142  14.904  66.145  1.00  0.00    -0.484 NA 
HETATM    3  H   UNL     1      -8.346  14.468  65.680  1.00  0.00     0.000 HD 
ENDROOT
BRANCH   2   4
HETATM    4  C   UNL     1     -10.359  14.271  65.958  1.00  0.00    -0.309 C  
HETATM    5  C   UNL     1     -10.932  14.298  64.737  1.00  0.00    -0.398 C  
HETATM    6  O   UNL     1     -12.803  13.037  65.294  1.00  0.00    -0.642 OA 
HETATM    7  N   UNL     1     -12.192  13.671  64.424  1.00  0.00    -0.403 N  
HETATM    8  O   UNL     1     -12.583  13.815  63.258  1.00  0.00    -0.830 OA 
BRANCH   4   9
HETATM    9  N   UNL     1     -10.944  13.650  67.049  1.00  0.00    -0.286 NA 
HETATM   10  H   UNL     1     -10.763  12.648  67.117  1.00  0.00     0.000 HD 
BRANCH   9  11
HETATM   11  C   UNL     1     -11.770  14.193  68.107  1.00  0.00    -0.355 C  
BRANCH  11  12
HETATM   12  C   UNL     1     -11.504  13.462  69.426  1.00  0.00    -0.274 C  
BRANCH  12  13
HETATM   13  S   UNL     1     -11.732  11.656  69.292  1.00  0.00    -0.349 SA 
BRANCH  13  14
HETATM   14  C   UNL     1     -12.466  11.317  70.928  1.00  0.00    -0.394 C  
BRANCH  14  15
HETATM   15  C   UNL     1     -12.490   9.854  71.208  1.00  0.00    -0.381 A  
HETATM   16  C   UNL     1     -13.493   9.148  71.841  1.00  0.00    -0.430 A  
HETATM   17  S   UNL     1     -13.081   7.488  71.928  1.00  0.00    -0.200 SA 
HETATM   18  C   UNL     1     -11.591   7.826  71.140  1.00  0.00    -0.281 A  
HETATM   19  N   UNL     1     -11.385   9.094  70.844  1.00  0.00    -0.277 NA 
BRANCH  18  20
HETATM   20  C   UNL     1     -10.599   6.722  70.859  1.00  0.00    -0.220 C  
BRANCH  20  21
HETATM   21  N   UNL     1     -11.025   5.775  69.802  1.00  0.00    -0.363 NA 
HETATM   22  C   UNL     1     -11.118   6.437  68.497  1.00  0.00    -0.300 C  
HETATM   23  C   UNL     1     -10.067   4.669  69.724  1.00  0.00    -0.173 C  
ENDBRANCH  20  21
ENDBRANCH  18  20
ENDBRANCH  14  15
ENDBRANCH  13  14
ENDBRANCH  12  13
ENDBRANCH  11  12
ENDBRANCH   9  11
ENDBRANCH   4   9
ENDBRANCH   2   4
TORSDOF 9
ENDMDL
MODEL       36
REMARK 921   NORMALIZED FREE ENERGY PREDICTED BY IDOCK:   -4.47 KCAL/MOL
REMARK 922        TOTAL FREE ENERGY PREDICTED BY IDOCK:   -7.89 KCAL/MOL
REMARK 923 INTER-LIGAND FREE ENERGY PREDICTED BY IDOCK:   -6.77 KCAL/MOL
REMARK 924 INTRA-LIGAND FREE ENERGY PREDICTED BY IDOCK:   -1.12 KCAL/MOL
REMARK 927      BINDING AFFINITY PREDICTED BY RF-SCORE:    0.00 PKD
ROOT
HETATM    1  C   UNL     1     -10.014  15.408  69.704  1.00  0.00    -0.264 C  
HETATM    2  N   UNL     1     -11.177  14.550  69.646  1.00  0.00    -0.272 NA 
HETATM    3  H   UNL     1     -11.384  14.157  68.728  1.00  0.00     0.000 HD 
ENDROOT
BRANCH   2   4
HETATM    4  C   UNL     1     -12.048  14.188  70.659  1.00  0.00    -0.351 C  
HETATM    5  C   UNL     1     -12.833  15.133  71.218  1.00  0.00    -0.391 C  
HETATM    6  O   UNL     1     -13.930  13.719  72.702  1.00  0.00    -0.710 OA 
HETATM    7  N   UNL     1     -13.780  14.872  72.273  1.00  0.00    -0.415 N  
HETATM    8  O   UNL     1     -14.401  15.859  72.687  1.00  0.00    -0.476 OA 
BRANCH   4   9
HETATM    9  N   UNL     1     -12.059  12.864  71.065  1.00  0.00    -0.396 NA 
HETATM   10  H   UNL     1     -11.782  12.713  72.035  1.00  0.00     0.000 HD 
BRANCH   9  11
HETATM   11  C   UNL     1     -12.402  11.662  70.335  1.00  0.00    -0.288 C  
BRANCH  11  12
HETATM   12  C   UNL     1     -11.188  10.734  70.226  1.00  0.00    -0.245 C  
BRANCH  12  13
HETATM   13  S   UNL     1     -10.523  10.636  68.528  1.00  0.00    -0.205 SA 
BRANCH  13  14
HETATM   14  C   UNL     1     -11.868  11.474  67.623  1.00  0.00    -0.118 C  
BRANCH  14  15
HETATM   15  C   UNL     1     -11.331  12.250  66.470  1.00  0.00    -0.351 A  
HETATM   16  C   UNL     1     -10.826  11.741  65.291  1.00  0.00    -0.290 A  
HETATM   17  S   UNL     1     -10.337  13.016  64.259  1.00  0.00    -0.269 SA 
HETATM   18  C   UNL     1     -10.808  14.155  65.458  1.00  0.00    -0.310 A  
HETATM   19  N   UNL     1     -11.281  13.635  66.574  1.00  0.00    -0.305 NA 
BRANCH  18  20
HETATM   20  C   UNL     1     -10.639  15.637  65.223  1.00  0.00    -0.426 C  
BRANCH  20  21
HETATM   21  N   UNL     1     -10.036  16.369  66.361  1.00  0.00    -0.300 NA 
HETATM   22  C   UNL     1      -8.616  16.651  66.124  1.00  0.00    -0.289 C  
HETATM   23  C   UNL     1     -10.757  17.628  66.568  1.00  0.00    -0.097 C  
ENDBRANCH  20  21
ENDBRANCH  18  20
ENDBRANCH  14  15
ENDBRANCH  13  14
ENDBRANCH  12  13
ENDBRANCH  11  12
ENDBRANCH   9  11
ENDBRANCH   4   9
ENDBRANCH   2   4
TORSDOF 9
ENDMDL
MODEL       37
REMARK 921   NORMALIZED FREE ENERGY PREDICTED BY IDOCK:   -4.47 KCAL/MOL
REMARK 922        TOTAL FREE ENERGY PREDICTED BY IDOCK:   -7.89 KCAL/MOL
REMARK 923 INTER-LIGAND FREE ENERGY PREDICTED BY IDOCK:   -7.28 KCAL/MOL
REMARK 924 INTRA-LIGAND FREE ENERGY PREDICTED BY IDOCK:   -0.61 KCAL/MOL
REMARK 927      BINDING AFFINITY PREDICTED BY RF-SCORE:    0.00 PKD
ROOT
HETATM    1  C   UNL     1     -13.723  15.704  72.622  1.00  0.00    -0.579 C  
HETATM    2  N   UNL     1     -13.176  15.299  71.346  1.00  0.00    -0.439 NA 
HETATM    3  H   UNL     1     -13.111  16.036  70.644  1.00  0.00     0.000 HD 
ENDROOT
BRANCH   2   4
HETATM    4  C   UNL     1     -12.727  14.053  70.943  1.00  0.00    -0.350 C  
HETATM    5  C   UNL     1     -13.168  12.956  71.594  1.00  0.00    -0.324 C  
HETATM    6  O   UNL     1     -12.009  11.403  70.308  1.00  0.00    -0.327 OA 
HETATM    7  N   UNL     1     -12.774  11.609  71.260  1.00  0.00    -0.383 N  
HETATM    8  O   UNL     1     -13.255  10.722  71.977  1.00  0.00    -0.484 OA 
BRANCH   4   9
HETATM    9  N   UNL     1     -11.828  13.993  69.893  1.00  0.00    -0.310 NA 
HETATM   10  H   UNL     1     -11.024  13.386  70.053  1.00  0.00     0.000 HD 
BRANCH   9  11
HETATM   11  C   UNL     1     -11.844  14.654  68.604  1.00  0.00    -0.311 C  
BRANCH  11  12
HETATM   12  C   UNL     1     -12.046  13.634  67.479  1.00  0.00    -0.316 C  
BRANCH  12  13
HETATM   13  S   UNL     1     -10.477  13.120  66.700  1.00  0.00    -0.281 SA 
BRANCH  13  14
HETATM   14  C   UNL     1     -10.221  14.528  65.567  1.00  0.00    -0.370 C  
BRANCH  14  15
HETATM   15  C   UNL     1      -9.259  15.508  66.144  1.00  0.00    -0.344 A  
HETATM   16  C   UNL     1      -8.256  15.247  67.056  1.00  0.00    -0.233 A  
HETATM   17  S   UNL     1      -7.400  16.685  67.419  1.00  0.00    -0.177 SA 
HETATM   18  C   UNL     1      -8.434  17.558  66.358  1.00  0.00    -0.252 A  
HETATM   19  N   UNL     1      -9.379  16.844  65.778  1.00  0.00    -0.528 NA 
BRANCH  18  20
HETATM   20  C   UNL     1      -8.261  19.045  66.162  1.00  0.00    -0.231 C  
BRANCH  20  21
HETATM   21  N   UNL     1      -8.438  19.846  67.395  1.00  0.00    -0.316 NA 
HETATM   22  C   UNL     1      -7.402  20.878  67.517  1.00  0.00    -0.281 C  
HETATM   23  C   UNL     1      -9.759  20.479  67.380  1.00  0.00    -0.446 C  
ENDBRANCH  20  21
ENDBRANCH  18  20
ENDBRANCH  14  15
ENDBRANCH  13  14
ENDBRANCH  12  13
ENDBRANCH  11  12
ENDBRANCH   9  11
ENDBRANCH   4   9
ENDBRANCH   2   4
TORSDOF 9
ENDMDL
MODEL       38
REMARK 921   NORMALIZED FREE ENERGY PREDICTED BY IDOCK:   -4.47 KCAL/MOL
REMARK 922        TOTAL FREE ENERGY PREDICTED BY IDOCK:   -7.89 KCAL/MOL
REMARK 923 INTER-LIGAND FREE ENERGY PREDICTED BY IDOCK:   -7.39 KCAL/MOL
REMARK 924 INTRA-LIGAND FREE ENERGY PREDICTED BY IDOCK:   -0.50 KCAL/MOL
REMARK 927      BINDING AFFINITY PREDICTED BY RF-SCORE:    0.00 PKD
ROOT
HETATM    1  C   UNL     1      -9.082  11.145  67.002  1.00  0.00    -0.153 C  
HETATM    2  N   UNL     1     -10.328  11.065  66.273  1.00  0.00    -0.245 NA 
HETATM    3  H   UNL     1     -10.536  10.156  65.859  1.00  0.00     0.000 HD 
ENDROOT
BRANCH   2   4
HETATM    4  C   UNL     1     -11.279  12.047  66.056  1.00  0.00    -0.335 C  
HETATM    5  C   UNL     1     -11.468  12.512  64.803  1.00  0.00    -0.323 C  
HETATM    6  O   UNL     1     -13.168  14.008  65.330  1.00  0.00    -0.782 OA 
HETATM    7  N   UNL     1     -12.432  13.527  64.457  1.00  0.00    -0.328 N  
HETATM    8  O   UNL     1     -12.456  13.853  63.263  1.00  0.00    -0.817 OA 
BRANCH   4   9
HETATM    9  N   UNL     1     -11.984  12.523  67.148  1.00  0.00    -0.516 NA 
HETATM   10  H   UNL     1     -12.903  12.100  67.281  1.00  0.00     0.000 HD 
BRANCH   9  11
HETATM   11  C   UNL     1     -11.628  13.525  68.131  1.00  0.00    -0.333 C  
BRANCH  11  12
HETATM   12  C   UNL     1     -11.990  13.048  69.541  1.00  0.00    -0.289 C  
BRANCH  12  13
HETATM   13  S   UNL     1     -11.640  11.275  69.801  1.00  0.00    -0.349 SA 
BRANCH  13  14
HETATM   14  C   UNL     1     -12.633  10.983  71.303  1.00  0.00    -0.412 C  
BRANCH  14  15
HETATM   15  C   UNL     1     -12.939   9.534  71.466  1.00  0.00    -0.386 A  
HETATM   16  C   UNL     1     -14.189   8.949  71.495  1.00  0.00    -0.236 A  
HETATM   17  S   UNL     1     -14.042   7.254  71.692  1.00  0.00    -0.310 SA 
HETATM   18  C   UNL     1     -12.331   7.417  71.747  1.00  0.00    -0.333 A  
HETATM   19  N   UNL     1     -11.880   8.653  71.650  1.00  0.00    -0.302 NA 
BRANCH  18  20
HETATM   20  C   UNL     1     -11.446   6.208  71.932  1.00  0.00    -0.300 C  
BRANCH  20  21
HETATM   21  N   UNL     1     -10.223   6.214  71.096  1.00  0.00    -0.193 NA 
HETATM   22  C   UNL     1      -9.270   5.189  71.533  1.00  0.00    -0.146 C  
HETATM   23  C   UNL     1     -10.588   5.979  69.697  1.00  0.00    -0.300 C  
ENDBRANCH  20  21
ENDBRANCH  18  20
ENDBRANCH  14  15
ENDBRANCH  13  14
ENDBRANCH  12  13
ENDBRANCH  11  12
ENDBRANCH   9  11
ENDBRANCH   4   9
ENDBRANCH   2   4
TORSDOF 9
ENDMDL
MODEL       39
REMARK 921   NORMALIZED FREE ENERGY PREDICTED BY IDOCK:   -4.45 KCAL/MOL
REMARK 922        TOTAL FREE ENERGY PREDICTED BY IDOCK:   -7.86 KCAL/MOL
REMARK 923 INTER-LIGAND FREE ENERGY PREDICTED BY IDOCK:   -7.38 KCAL/MOL
REMARK 924 INTRA-LIGAND FREE ENERGY PREDICTED BY IDOCK:   -0.48 KCAL/MOL
REMARK 927      BINDING AFFINITY PREDICTED BY RF-SCORE:    0.00 PKD
ROOT
HETATM    1  C   UNL     1      -9.550  10.414  65.365  1.00  0.00    -0.246 C  
HETATM    2  N   UNL     1     -10.426  11.086  66.299  1.00  0.00    -0.255 NA 
HETATM    3  H   UNL     1     -10.337  10.792  67.271  1.00  0.00     0.000 HD 
ENDROOT
BRANCH   2   4
HETATM    4  C   UNL     1     -11.368  12.072  66.059  1.00  0.00    -0.343 C  
HETATM    5  C   UNL     1     -11.559  12.503  64.795  1.00  0.00    -0.337 C  
HETATM    6  O   UNL     1     -13.240  14.032  65.288  1.00  0.00    -0.782 OA 
HETATM    7  N   UNL     1     -12.513  13.519  64.425  1.00  0.00    -0.311 N  
HETATM    8  O   UNL     1     -12.541  13.811  63.223  1.00  0.00    -0.830 OA 
BRANCH   4   9
HETATM    9  N   UNL     1     -12.063  12.585  67.141  1.00  0.00    -0.495 NA 
HETATM   10  H   UNL     1     -12.923  13.079  66.901  1.00  0.00     0.000 HD 
BRANCH   9  11
HETATM   11  C   UNL     1     -11.765  12.534  68.557  1.00  0.00    -0.324 C  
BRANCH  11  12
HETATM   12  C   UNL     1     -12.097  13.871  69.226  1.00  0.00    -0.339 C  
BRANCH  12  13
HETATM   13  S   UNL     1     -10.656  14.987  69.331  1.00  0.00    -0.251 SA 
BRANCH  13  14
HETATM   14  C   UNL     1     -10.936  15.991  67.833  1.00  0.00    -0.327 C  
BRANCH  14  15
HETATM   15  C   UNL     1      -9.700  16.731  67.449  1.00  0.00    -0.245 A  
HETATM   16  C   UNL     1      -8.923  16.520  66.329  1.00  0.00    -0.324 A  
HETATM   17  S   UNL     1      -7.610  17.619  66.307  1.00  0.00    -0.290 SA 
HETATM   18  C   UNL     1      -8.152  18.283  67.798  1.00  0.00    -0.250 A  
HETATM   19  N   UNL     1      -9.230  17.718  68.307  1.00  0.00    -0.273 NA 
BRANCH  18  20
HETATM   20  C   UNL     1      -7.396  19.408  68.462  1.00  0.00    -0.333 C  
BRANCH  20  21
HETATM   21  N   UNL     1      -6.444  18.968  69.508  1.00  0.00    -0.285 NA 
HETATM   22  C   UNL     1      -5.225  18.404  68.920  1.00  0.00    -0.188 C  
HETATM   23  C   UNL     1      -6.094  20.107  70.360  1.00  0.00    -0.348 C  
ENDBRANCH  20  21
ENDBRANCH  18  20
ENDBRANCH  14  15
ENDBRANCH  13  14
ENDBRANCH  12  13
ENDBRANCH  11  12
ENDBRANCH   9  11
ENDBRANCH   4   9
ENDBRANCH   2   4
TORSDOF 9
ENDMDL
MODEL       40
REMARK 921   NORMALIZED FREE ENERGY PREDICTED BY IDOCK:   -4.44 KCAL/MOL
REMARK 922        TOTAL FREE ENERGY PREDICTED BY IDOCK:   -7.85 KCAL/MOL
REMARK 923 INTER-LIGAND FREE ENERGY PREDICTED BY IDOCK:   -7.41 KCAL/MOL
REMARK 924 INTRA-LIGAND FREE ENERGY PREDICTED BY IDOCK:   -0.44 KCAL/MOL
REMARK 927      BINDING AFFINITY PREDICTED BY RF-SCORE:    0.00 PKD
ROOT
HETATM    1  C   UNL     1      -9.559   7.478  70.027  1.00  0.00    -0.164 C  
HETATM    2  N   UNL     1      -9.833   8.538  70.970  1.00  0.00    -0.183 NA 
HETATM    3  H   UNL     1      -9.114   8.692  71.676  1.00  0.00     0.000 HD 
ENDROOT
BRANCH   2   4
HETATM    4  C   UNL     1     -10.934   9.375  71.051  1.00  0.00    -0.338 C  
HETATM    5  C   UNL     1     -12.004   8.981  71.773  1.00  0.00    -0.368 C  
HETATM    6  O   UNL     1     -13.281  10.890  71.414  1.00  0.00    -0.362 OA 
HETATM    7  N   UNL     1     -13.201   9.768  71.933  1.00  0.00    -0.421 N  
HETATM    8  O   UNL     1     -14.096   9.244  72.609  1.00  0.00    -0.477 OA 
BRANCH   4   9
HETATM    9  N   UNL     1     -10.890  10.577  70.367  1.00  0.00    -0.447 NA 
HETATM   10  H   UNL     1     -11.459  11.320  70.772  1.00  0.00     0.000 HD 
BRANCH   9  11
HETATM   11  C   UNL     1     -10.166  10.949  69.169  1.00  0.00    -0.195 C  
BRANCH  11  12
HETATM   12  C   UNL     1     -11.117  11.043  67.972  1.00  0.00    -0.286 C  
BRANCH  12  13
HETATM   13  S   UNL     1     -10.717  12.434  66.859  1.00  0.00    -0.247 SA 
BRANCH  13  14
HETATM   14  C   UNL     1     -12.088  13.564  67.276  1.00  0.00    -0.323 C  
BRANCH  14  15
HETATM   15  C   UNL     1     -11.622  14.657  68.175  1.00  0.00    -0.335 A  
HETATM   16  C   UNL     1     -10.769  15.692  67.847  1.00  0.00    -0.294 A  
HETATM   17  S   UNL     1     -10.530  16.710  69.204  1.00  0.00    -0.344 SA 
HETATM   18  C   UNL     1     -11.556  15.693  70.137  1.00  0.00    -0.354 A  
HETATM   19  N   UNL     1     -12.038  14.643  69.500  1.00  0.00    -0.307 NA 
BRANCH  18  20
HETATM   20  C   UNL     1     -11.829  15.998  71.590  1.00  0.00    -0.507 C  
BRANCH  20  21
HETATM   21  N   UNL     1     -12.720  15.021  72.260  1.00  0.00    -0.321 NA 
HETATM   22  C   UNL     1     -12.630  15.129  73.720  1.00  0.00    -0.575 C  
HETATM   23  C   UNL     1     -14.103  15.253  71.836  1.00  0.00    -0.557 C  
ENDBRANCH  20  21
ENDBRANCH  18  20
ENDBRANCH  14  15
ENDBRANCH  13  14
ENDBRANCH  12  13
ENDBRANCH  11  12
ENDBRANCH   9  11
ENDBRANCH   4   9
ENDBRANCH   2   4
TORSDOF 9
ENDMDL
MODEL       41
REMARK 921   NORMALIZED FREE ENERGY PREDICTED BY IDOCK:   -4.44 KCAL/MOL
REMARK 922        TOTAL FREE ENERGY PREDICTED BY IDOCK:   -7.84 KCAL/MOL
REMARK 923 INTER-LIGAND FREE ENERGY PREDICTED BY IDOCK:   -7.66 KCAL/MOL
REMARK 924 INTRA-LIGAND FREE ENERGY PREDICTED BY IDOCK:   -0.19 KCAL/MOL
REMARK 927      BINDING AFFINITY PREDICTED BY RF-SCORE:    0.00 PKD
ROOT
HETATM    1  C   UNL     1     -11.649  10.890  69.056  1.00  0.00    -0.316 C  
HETATM    2  N   UNL     1     -11.358  12.081  69.824  1.00  0.00    -0.490 NA 
HETATM    3  H   UNL     1     -10.416  12.132  70.211  1.00  0.00     0.000 HD 
ENDROOT
BRANCH   2   4
HETATM    4  C   UNL     1     -12.177  13.161  70.108  1.00  0.00    -0.290 C  
HETATM    5  C   UNL     1     -12.698  13.280  71.347  1.00  0.00    -0.309 C  
HETATM    6  O   UNL     1     -13.836  15.271  70.964  1.00  0.00    -0.436 OA 
HETATM    7  N   UNL     1     -13.557  14.363  71.758  1.00  0.00    -0.367 N  
HETATM    8  O   UNL     1     -13.965  14.304  72.926  1.00  0.00    -0.586 OA 
BRANCH   4   9
HETATM    9  N   UNL     1     -12.439  14.064  69.092  1.00  0.00    -0.450 NA 
HETATM   10  H   UNL     1     -13.314  14.578  69.192  1.00  0.00     0.000 HD 
BRANCH   9  11
HETATM   11  C   UNL     1     -11.670  14.397  67.911  1.00  0.00    -0.356 C  
BRANCH  11  12
HETATM   12  C   UNL     1     -12.361  13.867  66.651  1.00  0.00    -0.369 C  
BRANCH  12  13
HETATM   13  S   UNL     1     -11.267  13.873  65.189  1.00  0.00    -0.342 SA 
BRANCH  13  14
HETATM   14  C   UNL     1     -11.272  15.658  64.810  1.00  0.00    -0.382 C  
BRANCH  14  15
HETATM   15  C   UNL     1     -10.159  16.355  65.513  1.00  0.00    -0.208 A  
HETATM   16  C   UNL     1      -8.986  15.790  65.971  1.00  0.00    -0.287 A  
HETATM   17  S   UNL     1      -8.003  16.984  66.707  1.00  0.00    -0.267 SA 
HETATM   18  C   UNL     1      -9.213  18.164  66.386  1.00  0.00    -0.255 A  
HETATM   19  N   UNL     1     -10.298  17.709  65.790  1.00  0.00    -0.598 NA 
BRANCH  18  20
HETATM   20  C   UNL     1      -9.021  19.600  66.809  1.00  0.00    -0.354 C  
BRANCH  20  21
HETATM   21  N   UNL     1      -9.074  19.816  68.273  1.00  0.00    -0.325 NA 
HETATM   22  C   UNL     1     -10.026  18.903  68.915  1.00  0.00    -0.378 C  
HETATM   23  C   UNL     1      -7.741  19.614  68.845  1.00  0.00    -0.291 C  
ENDBRANCH  20  21
ENDBRANCH  18  20
ENDBRANCH  14  15
ENDBRANCH  13  14
ENDBRANCH  12  13
ENDBRANCH  11  12
ENDBRANCH   9  11
ENDBRANCH   4   9
ENDBRANCH   2   4
TORSDOF 9
ENDMDL
MODEL       42
REMARK 921   NORMALIZED FREE ENERGY PREDICTED BY IDOCK:   -4.43 KCAL/MOL
REMARK 922        TOTAL FREE ENERGY PREDICTED BY IDOCK:   -7.83 KCAL/MOL
REMARK 923 INTER-LIGAND FREE ENERGY PREDICTED BY IDOCK:   -7.33 KCAL/MOL
REMARK 924 INTRA-LIGAND FREE ENERGY PREDICTED BY IDOCK:   -0.50 KCAL/MOL
REMARK 927      BINDING AFFINITY PREDICTED BY RF-SCORE:    0.00 PKD
ROOT
HETATM    1  C   UNL     1      -8.679  16.342  65.929  1.00  0.00    -0.099 C  
HETATM    2  N   UNL     1      -9.144  14.974  65.980  1.00  0.00    -0.486 NA 
HETATM    3  H   UNL     1      -8.423  14.273  66.152  1.00  0.00     0.000 HD 
ENDROOT
BRANCH   2   4
HETATM    4  C   UNL     1     -10.428  14.480  65.830  1.00  0.00    -0.323 C  
HETATM    5  C   UNL     1     -10.947  14.372  64.589  1.00  0.00    -0.354 C  
HETATM    6  O   UNL     1     -12.993  13.476  65.236  1.00  0.00    -0.701 OA 
HETATM    7  N   UNL     1     -12.269  13.868  64.310  1.00  0.00    -0.429 N  
HETATM    8  O   UNL     1     -12.594  13.860  63.115  1.00  0.00    -0.775 OA 
BRANCH   4   9
HETATM    9  N   UNL     1     -11.131  14.135  66.971  1.00  0.00    -0.300 NA 
HETATM   10  H   UNL     1     -11.554  13.207  66.948  1.00  0.00     0.000 HD 
BRANCH   9  11
HETATM   11  C   UNL     1     -11.363  14.879  68.192  1.00  0.00    -0.312 C  
BRANCH  11  12
HETATM   12  C   UNL     1     -11.788  13.939  69.323  1.00  0.00    -0.348 C  
BRANCH  12  13
HETATM   13  S   UNL     1     -11.835  12.188  68.808  1.00  0.00    -0.264 SA 
BRANCH  13  14
HETATM   14  C   UNL     1     -12.078  11.396  70.434  1.00  0.00    -0.384 C  
BRANCH  14  15
HETATM   15  C   UNL     1     -11.567   9.997  70.427  1.00  0.00    -0.302 A  
HETATM   16  C   UNL     1     -10.544   9.492  69.651  1.00  0.00    -0.228 A  
HETATM   17  S   UNL     1     -10.305   7.832  69.995  1.00  0.00    -0.225 SA 
HETATM   18  C   UNL     1     -11.591   7.893  71.135  1.00  0.00    -0.280 A  
HETATM   19  N   UNL     1     -12.189   9.063  71.248  1.00  0.00    -0.309 NA 
BRANCH  18  20
HETATM   20  C   UNL     1     -12.000   6.659  71.904  1.00  0.00    -0.341 C  
BRANCH  20  21
HETATM   21  N   UNL     1     -10.884   5.978  72.600  1.00  0.00    -0.230 NA 
HETATM   22  C   UNL     1     -10.310   6.827  73.649  1.00  0.00    -0.344 C  
HETATM   23  C   UNL     1     -11.369   4.729  73.192  1.00  0.00    -0.295 C  
ENDBRANCH  20  21
ENDBRANCH  18  20
ENDBRANCH  14  15
ENDBRANCH  13  14
ENDBRANCH  12  13
ENDBRANCH  11  12
ENDBRANCH   9  11
ENDBRANCH   4   9
ENDBRANCH   2   4
TORSDOF 9
ENDMDL
MODEL       43
REMARK 921   NORMALIZED FREE ENERGY PREDICTED BY IDOCK:   -4.43 KCAL/MOL
REMARK 922        TOTAL FREE ENERGY PREDICTED BY IDOCK:   -7.82 KCAL/MOL
REMARK 923 INTER-LIGAND FREE ENERGY PREDICTED BY IDOCK:   -7.16 KCAL/MOL
REMARK 924 INTRA-LIGAND FREE ENERGY PREDICTED BY IDOCK:   -0.65 KCAL/MOL
REMARK 927      BINDING AFFINITY PREDICTED BY RF-SCORE:    0.00 PKD
ROOT
HETATM    1  C   UNL     1     -13.873  14.413  72.406  1.00  0.00    -0.494 C  
HETATM    2  N   UNL     1     -13.031  13.887  71.356  1.00  0.00    -0.344 NA 
HETATM    3  H   UNL     1     -12.706  14.571  70.672  1.00  0.00     0.000 HD 
ENDROOT
BRANCH   2   4
HETATM    4  C   UNL     1     -12.602  12.587  71.146  1.00  0.00    -0.253 C  
HETATM    5  C   UNL     1     -13.185  11.586  71.839  1.00  0.00    -0.374 C  
HETATM    6  O   UNL     1     -11.954   9.858  70.888  1.00  0.00    -0.300 OA 
HETATM    7  N   UNL     1     -12.826  10.197  71.700  1.00  0.00    -0.417 N  
HETATM    8  O   UNL     1     -13.445   9.412  72.431  1.00  0.00    -0.457 OA 
BRANCH   4   9
HETATM    9  N   UNL     1     -11.576  12.378  70.241  1.00  0.00    -0.530 NA 
HETATM   10  H   UNL     1     -10.912  11.651  70.509  1.00  0.00     0.000 HD 
BRANCH   9  11
HETATM   11  C   UNL     1     -11.295  13.023  68.976  1.00  0.00    -0.289 C  
BRANCH  11  12
HETATM   12  C   UNL     1     -11.241  11.991  67.845  1.00  0.00    -0.264 C  
BRANCH  12  13
HETATM   13  S   UNL     1      -9.626  11.958  66.994  1.00  0.00    -0.192 SA 
BRANCH  13  14
HETATM   14  C   UNL     1     -10.164  12.367  65.299  1.00  0.00    -0.282 C  
BRANCH  14  15
HETATM   15  C   UNL     1     -10.529  13.807  65.189  1.00  0.00    -0.384 A  
HETATM   16  C   UNL     1     -11.612  14.338  64.519  1.00  0.00    -0.387 A  
HETATM   17  S   UNL     1     -11.626  16.043  64.679  1.00  0.00    -0.034 SA 
HETATM   18  C   UNL     1     -10.181  15.959  65.607  1.00  0.00    -0.379 A  
HETATM   19  N   UNL     1      -9.691  14.747  65.778  1.00  0.00    -0.330 NA 
BRANCH  18  20
HETATM   20  C   UNL     1      -9.531  17.214  66.139  1.00  0.00    -0.201 C  
BRANCH  20  21
HETATM   21  N   UNL     1     -10.452  18.111  66.875  1.00  0.00    -0.372 NA 
HETATM   22  C   UNL     1     -10.037  18.275  68.272  1.00  0.00    -0.386 C  
HETATM   23  C   UNL     1     -10.486  19.421  66.218  1.00  0.00    -0.493 C  
ENDBRANCH  20  21
ENDBRANCH  18  20
ENDBRANCH  14  15
ENDBRANCH  13  14
ENDBRANCH  12  13
ENDBRANCH  11  12
ENDBRANCH   9  11
ENDBRANCH   4   9
ENDBRANCH   2   4
TORSDOF 9
ENDMDL
MODEL       44
REMARK 921   NORMALIZED FREE ENERGY PREDICTED BY IDOCK:   -4.43 KCAL/MOL
REMARK 922        TOTAL FREE ENERGY PREDICTED BY IDOCK:   -7.82 KCAL/MOL
REMARK 923 INTER-LIGAND FREE ENERGY PREDICTED BY IDOCK:   -7.30 KCAL/MOL
REMARK 924 INTRA-LIGAND FREE ENERGY PREDICTED BY IDOCK:   -0.52 KCAL/MOL
REMARK 927      BINDING AFFINITY PREDICTED BY RF-SCORE:    0.00 PKD
ROOT
HETATM    1  C   UNL     1     -11.160  16.315  68.755  1.00  0.00    -0.355 C  
HETATM    2  N   UNL     1     -12.174  15.340  69.089  1.00  0.00    -0.585 NA 
HETATM    3  H   UNL     1     -12.703  14.971  68.299  1.00  0.00     0.000 HD 
ENDROOT
BRANCH   2   4
HETATM    4  C   UNL     1     -12.529  14.836  70.329  1.00  0.00    -0.340 C  
HETATM    5  C   UNL     1     -13.009  15.680  71.266  1.00  0.00    -0.492 C  
HETATM    6  O   UNL     1     -13.359  14.075  72.912  1.00  0.00    -0.601 OA 
HETATM    7  N   UNL     1     -13.414  15.270  72.588  1.00  0.00    -0.462 N  
HETATM    8  O   UNL     1     -13.809  16.179  73.329  1.00  0.00    -0.559 OA 
BRANCH   4   9
HETATM    9  N   UNL     1     -12.356  13.482  70.556  1.00  0.00    -0.350 NA 
HETATM   10  H   UNL     1     -12.389  13.205  71.537  1.00  0.00     0.000 HD 
BRANCH   9  11
HETATM   11  C   UNL     1     -12.135  12.395  69.624  1.00  0.00    -0.206 C  
BRANCH  11  12
HETATM   12  C   UNL     1     -11.552  11.176  70.346  1.00  0.00    -0.259 C  
BRANCH  12  13
HETATM   13  S   UNL     1     -10.943   9.897  69.195  1.00  0.00    -0.165 SA 
BRANCH  13  14
HETATM   14  C   UNL     1      -9.275  10.556  68.858  1.00  0.00    -0.183 C  
BRANCH  14  15
HETATM   15  C   UNL     1      -9.340  11.720  67.930  1.00  0.00    -0.184 A  
HETATM   16  C   UNL     1      -8.921  13.009  68.188  1.00  0.00    -0.198 A  
HETATM   17  S   UNL     1      -9.187  14.001  66.818  1.00  0.00    -0.244 SA 
HETATM   18  C   UNL     1      -9.861  12.655  65.986  1.00  0.00    -0.254 A  
HETATM   19  N   UNL     1      -9.914  11.534  66.678  1.00  0.00    -0.203 NA 
BRANCH  18  20
HETATM   20  C   UNL     1     -10.379  12.801  64.575  1.00  0.00    -0.349 C  
BRANCH  20  21
HETATM   21  N   UNL     1     -11.836  13.050  64.484  1.00  0.00    -0.356 NA 
HETATM   22  C   UNL     1     -12.121  14.465  64.220  1.00  0.00    -0.436 C  
HETATM   23  C   UNL     1     -12.406  12.228  63.413  1.00  0.00    -0.517 C  
ENDBRANCH  20  21
ENDBRANCH  18  20
ENDBRANCH  14  15
ENDBRANCH  13  14
ENDBRANCH  12  13
ENDBRANCH  11  12
ENDBRANCH   9  11
ENDBRANCH   4   9
ENDBRANCH   2   4
TORSDOF 9
ENDMDL
MODEL       45
REMARK 921   NORMALIZED FREE ENERGY PREDICTED BY IDOCK:   -4.42 KCAL/MOL
REMARK 922        TOTAL FREE ENERGY PREDICTED BY IDOCK:   -7.81 KCAL/MOL
REMARK 923 INTER-LIGAND FREE ENERGY PREDICTED BY IDOCK:   -7.17 KCAL/MOL
REMARK 924 INTRA-LIGAND FREE ENERGY PREDICTED BY IDOCK:   -0.63 KCAL/MOL
REMARK 927      BINDING AFFINITY PREDICTED BY RF-SCORE:    0.00 PKD
ROOT
HETATM    1  C   UNL     1     -12.449  11.964  63.472  1.00  0.00    -0.492 C  
HETATM    2  N   UNL     1     -11.519  12.215  64.550  1.00  0.00    -0.327 NA 
HETATM    3  H   UNL     1     -11.296  11.408  65.133  1.00  0.00     0.000 HD 
ENDROOT
BRANCH   2   4
HETATM    4  C   UNL     1     -10.886  13.395  64.903  1.00  0.00    -0.352 C  
HETATM    5  C   UNL     1     -11.395  14.567  64.467  1.00  0.00    -0.316 C  
HETATM    6  O   UNL     1      -9.826  15.936  65.501  1.00  0.00    -0.363 OA 
HETATM    7  N   UNL     1     -10.826  15.855  64.775  1.00  0.00    -0.416 N  
HETATM    8  O   UNL     1     -11.407  16.826  64.273  1.00  0.00    -1.170 OA 
BRANCH   4   9
HETATM    9  N   UNL     1      -9.742  13.314  65.677  1.00  0.00    -0.474 NA 
HETATM   10  H   UNL     1      -8.913  13.741  65.262  1.00  0.00     0.000 HD 
BRANCH   9  11
HETATM   11  C   UNL     1      -9.531  12.722  66.982  1.00  0.00    -0.233 C  
BRANCH  11  12
HETATM   12  C   UNL     1      -8.407  11.683  66.927  1.00  0.00    -0.169 C  
BRANCH  12  13
HETATM   13  S   UNL     1      -7.791  11.220  68.582  1.00  0.00    -0.137 SA 
BRANCH  13  14
HETATM   14  C   UNL     1      -8.520   9.554  68.726  1.00  0.00    -0.122 C  
BRANCH  14  15
HETATM   15  C   UNL     1      -9.608   9.534  69.744  1.00  0.00    -0.216 A  
HETATM   16  C   UNL     1      -9.712   8.688  70.829  1.00  0.00    -0.194 A  
HETATM   17  S   UNL     1     -11.128   9.046  71.723  1.00  0.00    -0.361 SA 
HETATM   18  C   UNL     1     -11.516  10.285  70.594  1.00  0.00    -0.349 A  
HETATM   19  N   UNL     1     -10.667  10.421  69.594  1.00  0.00    -0.249 NA 
BRANCH  18  20
HETATM   20  C   UNL     1     -12.771  11.109  70.754  1.00  0.00    -0.297 C  
BRANCH  20  21
HETATM   21  N   UNL     1     -12.531  12.506  71.186  1.00  0.00    -0.305 NA 
HETATM   22  C   UNL     1     -12.463  13.416  70.038  1.00  0.00    -0.137 C  
HETATM   23  C   UNL     1     -13.608  12.930  72.084  1.00  0.00    -0.495 C  
ENDBRANCH  20  21
ENDBRANCH  18  20
ENDBRANCH  14  15
ENDBRANCH  13  14
ENDBRANCH  12  13
ENDBRANCH  11  12
ENDBRANCH   9  11
ENDBRANCH   4   9
ENDBRANCH   2   4
TORSDOF 9
ENDMDL
MODEL       46
REMARK 921   NORMALIZED FREE ENERGY PREDICTED BY IDOCK:   -4.42 KCAL/MOL
REMARK 922        TOTAL FREE ENERGY PREDICTED BY IDOCK:   -7.80 KCAL/MOL
REMARK 923 INTER-LIGAND FREE ENERGY PREDICTED BY IDOCK:   -7.36 KCAL/MOL
REMARK 924 INTRA-LIGAND FREE ENERGY PREDICTED BY IDOCK:   -0.45 KCAL/MOL
REMARK 927      BINDING AFFINITY PREDICTED BY RF-SCORE:    0.00 PKD
ROOT
HETATM    1  C   UNL     1     -12.774  11.592  63.491  1.00  0.00    -0.156 C  
HETATM    2  N   UNL     1     -12.877  12.980  63.881  1.00  0.00    -0.618 NA 
HETATM    3  H   UNL     1     -13.811  13.385  63.816  1.00  0.00     0.000 HD 
ENDROOT
BRANCH   2   4
HETATM    4  C   UNL     1     -11.888  13.838  64.332  1.00  0.00    -0.427 C  
HETATM    5  C   UNL     1     -12.046  15.168  64.162  1.00  0.00    -0.176 C  
HETATM    6  O   UNL     1     -10.056  15.802  65.184  1.00  0.00    -0.418 OA 
HETATM    7  N   UNL     1     -11.087  16.154  64.594  1.00  0.00    -0.411 N  
HETATM    8  O   UNL     1     -11.380  17.329  64.336  1.00  0.00    -1.052 OA 
BRANCH   4   9
HETATM    9  N   UNL     1     -10.766  13.284  64.924  1.00  0.00    -0.331 NA 
HETATM   10  H   UNL     1     -10.492  13.715  65.807  1.00  0.00     0.000 HD 
BRANCH   9  11
HETATM   11  C   UNL     1      -9.919  12.192  64.492  1.00  0.00    -0.205 C  
BRANCH  11  12
HETATM   12  C   UNL     1      -9.442  11.371  65.694  1.00  0.00    -0.230 C  
BRANCH  12  13
HETATM   13  S   UNL     1     -10.782  11.009  66.879  1.00  0.00    -0.266 SA 
BRANCH  13  14
HETATM   14  C   UNL     1      -9.994  11.588  68.420  1.00  0.00    -0.206 C  
BRANCH  14  15
HETATM   15  C   UNL     1     -10.302  13.024  68.668  1.00  0.00    -0.191 A  
HETATM   16  C   UNL     1      -9.530  14.111  68.313  1.00  0.00    -0.211 A  
HETATM   17  S   UNL     1     -10.296  15.563  68.798  1.00  0.00    -0.226 SA 
HETATM   18  C   UNL     1     -11.588  14.647  69.467  1.00  0.00    -0.310 A  
HETATM   19  N   UNL     1     -11.463  13.339  69.365  1.00  0.00    -0.273 NA 
BRANCH  18  20
HETATM   20  C   UNL     1     -12.748  15.333  70.148  1.00  0.00    -0.242 C  
BRANCH  20  21
HETATM   21  N   UNL     1     -12.841  15.071  71.603  1.00  0.00    -0.321 NA 
HETATM   22  C   UNL     1     -12.113  16.082  72.377  1.00  0.00    -0.535 C  
HETATM   23  C   UNL     1     -14.249  15.065  72.009  1.00  0.00    -0.555 C  
ENDBRANCH  20  21
ENDBRANCH  18  20
ENDBRANCH  14  15
ENDBRANCH  13  14
ENDBRANCH  12  13
ENDBRANCH  11  12
ENDBRANCH   9  11
ENDBRANCH   4   9
ENDBRANCH   2   4
TORSDOF 9
ENDMDL
MODEL       47
REMARK 921   NORMALIZED FREE ENERGY PREDICTED BY IDOCK:   -4.41 KCAL/MOL
REMARK 922        TOTAL FREE ENERGY PREDICTED BY IDOCK:   -7.80 KCAL/MOL
REMARK 923 INTER-LIGAND FREE ENERGY PREDICTED BY IDOCK:   -7.04 KCAL/MOL
REMARK 924 INTRA-LIGAND FREE ENERGY PREDICTED BY IDOCK:   -0.76 KCAL/MOL
REMARK 927      BINDING AFFINITY PREDICTED BY RF-SCORE:    0.00 PKD
ROOT
HETATM    1  C   UNL     1     -11.305  15.216  68.437  1.00  0.00    -0.315 C  
HETATM    2  N   UNL     1     -12.351  14.460  67.784  1.00  0.00    -0.603 NA 
HETATM    3  H   UNL     1     -13.288  14.591  68.164  1.00  0.00     0.000 HD 
ENDROOT
BRANCH   2   4
HETATM    4  C   UNL     1     -12.259  13.582  66.717  1.00  0.00    -0.340 C  
HETATM    5  C   UNL     1     -12.418  14.057  65.463  1.00  0.00    -0.509 C  
HETATM    6  O   UNL     1     -12.085  12.031  64.371  1.00  0.00    -0.343 OA 
HETATM    7  N   UNL     1     -12.338  13.240  64.278  1.00  0.00    -0.364 N  
HETATM    8  O   UNL     1     -12.533  13.834  63.209  1.00  0.00    -0.819 OA 
BRANCH   4   9
HETATM    9  N   UNL     1     -12.025  12.246  66.991  1.00  0.00    -0.590 NA 
HETATM   10  H   UNL     1     -12.703  11.601  66.583  1.00  0.00     0.000 HD 
BRANCH   9  11
HETATM   11  C   UNL     1     -10.974  11.616  67.763  1.00  0.00    -0.233 C  
BRANCH  11  12
HETATM   12  C   UNL     1      -9.645  11.666  67.004  1.00  0.00    -0.184 C  
BRANCH  12  13
HETATM   13  S   UNL     1      -8.773  10.062  66.996  1.00  0.00    -0.132 SA 
BRANCH  13  14
HETATM   14  C   UNL     1     -10.117   8.986  66.391  1.00  0.00    -0.281 C  
BRANCH  14  15
HETATM   15  C   UNL     1     -10.255   7.773  67.245  1.00  0.00    -0.273 A  
HETATM   16  C   UNL     1      -9.966   6.471  66.889  1.00  0.00    -0.173 A  
HETATM   17  S   UNL     1     -10.271   5.419  68.205  1.00  0.00    -0.142 SA 
HETATM   18  C   UNL     1     -10.787   6.761  69.148  1.00  0.00    -0.258 A  
HETATM   19  N   UNL     1     -10.762   7.926  68.530  1.00  0.00    -0.091 NA 
BRANCH  18  20
HETATM   20  C   UNL     1     -11.263   6.569  70.568  1.00  0.00    -0.344 C  
BRANCH  20  21
HETATM   21  N   UNL     1     -12.022   7.718  71.116  1.00  0.00    -0.299 NA 
HETATM   22  C   UNL     1     -13.377   7.323  71.514  1.00  0.00    -0.369 C  
HETATM   23  C   UNL     1     -11.311   8.263  72.276  1.00  0.00    -0.378 C  
ENDBRANCH  20  21
ENDBRANCH  18  20
ENDBRANCH  14  15
ENDBRANCH  13  14
ENDBRANCH  12  13
ENDBRANCH  11  12
ENDBRANCH   9  11
ENDBRANCH   4   9
ENDBRANCH   2   4
TORSDOF 9
ENDMDL
MODEL       48
REMARK 921   NORMALIZED FREE ENERGY PREDICTED BY IDOCK:   -4.40 KCAL/MOL
REMARK 922        TOTAL FREE ENERGY PREDICTED BY IDOCK:   -7.79 KCAL/MOL
REMARK 923 INTER-LIGAND FREE ENERGY PREDICTED BY IDOCK:   -7.29 KCAL/MOL
REMARK 924 INTRA-LIGAND FREE ENERGY PREDICTED BY IDOCK:   -0.49 KCAL/MOL
REMARK 927      BINDING AFFINITY PREDICTED BY RF-SCORE:    0.00 PKD
ROOT
HETATM    1  C   UNL     1     -11.158   6.408  68.784  1.00  0.00    -0.326 C  
HETATM    2  N   UNL     1     -11.997   6.601  69.946  1.00  0.00    -0.639 NA 
HETATM    3  H   UNL     1     -12.996   6.460  69.793  1.00  0.00     0.000 HD 
ENDROOT
BRANCH   2   4
HETATM    4  C   UNL     1     -11.638   6.950  71.237  1.00  0.00    -0.310 C  
HETATM    5  C   UNL     1     -11.012   6.040  72.012  1.00  0.00    -0.263 C  
HETATM    6  O   UNL     1     -10.764   7.406  73.876  1.00  0.00    -0.319 OA 
HETATM    7  N   UNL     1     -10.587   6.292  73.366  1.00  0.00    -0.260 N  
HETATM    8  O   UNL     1     -10.049   5.336  73.941  1.00  0.00    -0.175 OA 
BRANCH   4   9
HETATM    9  N   UNL     1     -11.956   8.222  71.680  1.00  0.00    -0.288 NA 
HETATM   10  H   UNL     1     -11.171   8.753  72.056  1.00  0.00     0.000 HD 
BRANCH   9  11
HETATM   11  C   UNL     1     -13.225   8.921  71.695  1.00  0.00    -0.362 C  
BRANCH  11  12
HETATM   12  C   UNL     1     -13.026  10.406  71.381  1.00  0.00    -0.443 C  
BRANCH  12  13
HETATM   13  S   UNL     1     -12.011  10.684  69.889  1.00  0.00    -0.300 SA 
BRANCH  13  14
HETATM   14  C   UNL     1     -12.021  12.508  69.846  1.00  0.00    -0.301 C  
BRANCH  14  15
HETATM   15  C   UNL     1     -11.854  13.009  68.453  1.00  0.00    -0.334 A  
HETATM   16  C   UNL     1     -11.781  14.327  68.050  1.00  0.00    -0.351 A  
HETATM   17  S   UNL     1     -11.580  14.414  66.352  1.00  0.00    -0.375 SA 
HETATM   18  C   UNL     1     -11.627  12.697  66.267  1.00  0.00    -0.386 A  
HETATM   19  N   UNL     1     -11.804  12.081  67.420  1.00  0.00    -0.591 NA 
BRANCH  18  20
HETATM   20  C   UNL     1     -11.507  11.986  64.940  1.00  0.00    -0.294 C  
BRANCH  20  21
HETATM   21  N   UNL     1     -10.160  11.436  64.664  1.00  0.00    -0.262 NA 
HETATM   22  C   UNL     1     -10.004  10.093  65.233  1.00  0.00    -0.311 C  
HETATM   23  C   UNL     1      -9.943  11.382  63.216  1.00  0.00    -0.401 C  
ENDBRANCH  20  21
ENDBRANCH  18  20
ENDBRANCH  14  15
ENDBRANCH  13  14
ENDBRANCH  12  13
ENDBRANCH  11  12
ENDBRANCH   9  11
ENDBRANCH   4   9
ENDBRANCH   2   4
TORSDOF 9
ENDMDL
MODEL       49
REMARK 921   NORMALIZED FREE ENERGY PREDICTED BY IDOCK:   -4.39 KCAL/MOL
REMARK 922        TOTAL FREE ENERGY PREDICTED BY IDOCK:   -7.77 KCAL/MOL
REMARK 923 INTER-LIGAND FREE ENERGY PREDICTED BY IDOCK:   -6.95 KCAL/MOL
REMARK 924 INTRA-LIGAND FREE ENERGY PREDICTED BY IDOCK:   -0.82 KCAL/MOL
REMARK 927      BINDING AFFINITY PREDICTED BY RF-SCORE:    0.00 PKD
ROOT
HETATM    1  C   UNL     1     -12.401  15.904  71.756  1.00  0.00    -0.468 C  
HETATM    2  N   UNL     1     -12.921  15.303  70.548  1.00  0.00    -0.627 NA 
HETATM    3  H   UNL     1     -13.687  15.808  70.103  1.00  0.00     0.000 HD 
ENDROOT
BRANCH   2   4
HETATM    4  C   UNL     1     -12.527  14.139  69.910  1.00  0.00    -0.260 C  
HETATM    5  C   UNL     1     -12.386  13.010  70.636  1.00  0.00    -0.310 C  
HETATM    6  O   UNL     1     -11.778  11.633  68.864  1.00  0.00    -0.282 OA 
HETATM    7  N   UNL     1     -11.987  11.741  70.080  1.00  0.00    -0.342 N  
HETATM    8  O   UNL     1     -11.884  10.813  70.894  1.00  0.00    -0.326 OA 
BRANCH   4   9
HETATM    9  N   UNL     1     -12.278  14.194  68.550  1.00  0.00    -0.561 NA 
HETATM   10  H   UNL     1     -12.771  13.494  67.996  1.00  0.00     0.000 HD 
BRANCH   9  11
HETATM   11  C   UNL     1     -11.429  15.086  67.787  1.00  0.00    -0.334 C  
BRANCH  11  12
HETATM   12  C   UNL     1     -10.997  14.426  66.474  1.00  0.00    -0.316 C  
BRANCH  12  13
HETATM   13  S   UNL     1     -12.306  13.389  65.739  1.00  0.00    -0.447 SA 
BRANCH  13  14
HETATM   14  C   UNL     1     -11.590  13.119  64.082  1.00  0.00    -0.410 C  
BRANCH  14  15
HETATM   15  C   UNL     1     -10.657  11.957  64.089  1.00  0.00    -0.350 A  
HETATM   16  C   UNL     1      -9.792  11.583  63.081  1.00  0.00    -0.390 A  
HETATM   17  S   UNL     1      -8.913  10.188  63.544  1.00  0.00    -0.266 SA 
HETATM   18  C   UNL     1      -9.759  10.164  65.041  1.00  0.00    -0.318 A  
HETATM   19  N   UNL     1     -10.660  11.115  65.195  1.00  0.00    -0.275 NA 
BRANCH  18  20
HETATM   20  C   UNL     1      -9.484   9.089  66.066  1.00  0.00    -0.256 C  
BRANCH  20  21
HETATM   21  N   UNL     1      -9.431   9.579  67.463  1.00  0.00    -0.130 NA 
HETATM   22  C   UNL     1      -9.843   8.538  68.411  1.00  0.00    -0.173 C  
HETATM   23  C   UNL     1      -8.067  10.014  67.776  1.00  0.00    -0.109 C  
ENDBRANCH  20  21
ENDBRANCH  18  20
ENDBRANCH  14  15
ENDBRANCH  13  14
ENDBRANCH  12  13
ENDBRANCH  11  12
ENDBRANCH   9  11
ENDBRANCH   4   9
ENDBRANCH   2   4
TORSDOF 9
ENDMDL
MODEL       50
REMARK 921   NORMALIZED FREE ENERGY PREDICTED BY IDOCK:   -4.39 KCAL/MOL
REMARK 922        TOTAL FREE ENERGY PREDICTED BY IDOCK:   -7.76 KCAL/MOL
REMARK 923 INTER-LIGAND FREE ENERGY PREDICTED BY IDOCK:   -7.38 KCAL/MOL
REMARK 924 INTRA-LIGAND FREE ENERGY PREDICTED BY IDOCK:   -0.38 KCAL/MOL
REMARK 927      BINDING AFFINITY PREDICTED BY RF-SCORE:    0.00 PKD
ROOT
HETATM    1  C   UNL     1     -10.922  17.307  64.959  1.00  0.00     0.208 C  
HETATM    2  N   UNL     1     -11.164  16.056  64.274  1.00  0.00    -1.049 NA 
HETATM    3  H   UNL     1     -11.031  16.078  63.263  1.00  0.00     0.000 HD 
ENDROOT
BRANCH   2   4
HETATM    4  C   UNL     1     -11.551  14.834  64.797  1.00  0.00    -0.418 C  
HETATM    5  C   UNL     1     -12.100  13.914  63.976  1.00  0.00    -0.396 C  
HETATM    6  O   UNL     1     -12.388  12.262  65.586  1.00  0.00    -0.619 OA 
HETATM    7  N   UNL     1     -12.535  12.608  64.405  1.00  0.00    -0.437 N  
HETATM    8  O   UNL     1     -13.039  11.899  63.525  1.00  0.00    -0.715 OA 
BRANCH   4   9
HETATM    9  N   UNL     1     -11.371  14.619  66.152  1.00  0.00    -0.349 NA 
HETATM   10  H   UNL     1     -12.227  14.637  66.706  1.00  0.00     0.000 HD 
BRANCH   9  11
HETATM   11  C   UNL     1     -10.162  14.371  66.910  1.00  0.00    -0.265 C  
BRANCH  11  12
HETATM   12  C   UNL     1     -10.458  14.374  68.413  1.00  0.00    -0.246 C  
BRANCH  12  13
HETATM   13  S   UNL     1      -9.577  15.702  69.305  1.00  0.00    -0.280 SA 
BRANCH  13  14
HETATM   14  C   UNL     1     -10.695  17.101  68.954  1.00  0.00    -0.257 C  
BRANCH  14  15
HETATM   15  C   UNL     1      -9.940  18.259  68.397  1.00  0.00    -0.382 A  
HETATM   16  C   UNL     1     -10.465  19.461  67.968  1.00  0.00    -0.399 A  
HETATM   17  S   UNL     1      -9.211  20.489  67.418  1.00  0.00    -0.283 SA 
HETATM   18  C   UNL     1      -8.062  19.258  67.766  1.00  0.00    -0.286 A  
HETATM   19  N   UNL     1      -8.565  18.136  68.242  1.00  0.00    -0.281 NA 
BRANCH  18  20
HETATM   20  C   UNL     1      -6.592  19.477  67.496  1.00  0.00    -0.212 C  
BRANCH  20  21
HETATM   21  N   UNL     1      -5.740  19.454  68.708  1.00  0.00    -0.209 NA 
HETATM   22  C   UNL     1      -6.448  20.000  69.870  1.00  0.00    -0.327 C  
HETATM   23  C   UNL     1      -5.329  18.076  68.989  1.00  0.00    -0.183 C  
ENDBRANCH  20  21
ENDBRANCH  18  20
ENDBRANCH  14  15
ENDBRANCH  13  14
ENDBRANCH  12  13
ENDBRANCH  11  12
ENDBRANCH   9  11
ENDBRANCH   4   9
ENDBRANCH   2   4
TORSDOF 9
ENDMDL
MODEL       51
REMARK 921   NORMALIZED FREE ENERGY PREDICTED BY IDOCK:   -4.39 KCAL/MOL
REMARK 922        TOTAL FREE ENERGY PREDICTED BY IDOCK:   -7.76 KCAL/MOL
REMARK 923 INTER-LIGAND FREE ENERGY PREDICTED BY IDOCK:   -7.35 KCAL/MOL
REMARK 924 INTRA-LIGAND FREE ENERGY PREDICTED BY IDOCK:   -0.41 KCAL/MOL
REMARK 927      BINDING AFFINITY PREDICTED BY RF-SCORE:    0.00 PKD
ROOT
HETATM    1  C   UNL     1     -12.931  10.555  71.110  1.00  0.00    -0.411 C  
HETATM    2  N   UNL     1     -12.068  11.675  70.804  1.00  0.00    -0.404 NA 
HETATM    3  H   UNL     1     -11.081  11.448  70.690  1.00  0.00     0.000 HD 
ENDROOT
BRANCH   2   4
HETATM    4  C   UNL     1     -12.393  13.011  70.644  1.00  0.00    -0.310 C  
HETATM    5  C   UNL     1     -13.198  13.603  71.551  1.00  0.00    -0.331 C  
HETATM    6  O   UNL     1     -13.179  15.716  70.581  1.00  0.00    -0.487 OA 
HETATM    7  N   UNL     1     -13.599  14.987  71.491  1.00  0.00    -0.414 N  
HETATM    8  O   UNL     1     -14.361  15.360  72.392  1.00  0.00    -0.543 OA 
BRANCH   4   9
HETATM    9  N   UNL     1     -11.887  13.677  69.541  1.00  0.00    -0.318 NA 
HETATM   10  H   UNL     1     -11.426  14.563  69.751  1.00  0.00     0.000 HD 
BRANCH   9  11
HETATM   11  C   UNL     1     -11.905  13.318  68.138  1.00  0.00    -0.353 C  
BRANCH  11  12
HETATM   12  C   UNL     1     -10.537  13.572  67.499  1.00  0.00    -0.244 C  
BRANCH  12  13
HETATM   13  S   UNL     1      -9.796  15.158  68.020  1.00  0.00    -0.214 SA 
BRANCH  13  14
HETATM   14  C   UNL     1      -9.959  16.098  66.464  1.00  0.00    -0.280 C  
BRANCH  14  15
HETATM   15  C   UNL     1      -9.665  17.542  66.682  1.00  0.00    -0.299 A  
HETATM   16  C   UNL     1     -10.413  18.439  67.417  1.00  0.00    -0.415 A  
HETATM   17  S   UNL     1      -9.676  19.984  67.390  1.00  0.00    -0.443 SA 
HETATM   18  C   UNL     1      -8.427  19.361  66.385  1.00  0.00    -0.346 A  
HETATM   19  N   UNL     1      -8.548  18.088  66.061  1.00  0.00    -0.517 NA 
BRANCH  18  20
HETATM   20  C   UNL     1      -7.310  20.253  65.899  1.00  0.00    -0.215 C  
BRANCH  20  21
HETATM   21  N   UNL     1      -6.658  19.789  64.653  1.00  0.00    -0.347 NA 
HETATM   22  C   UNL     1      -6.348  20.912  63.761  1.00  0.00    -0.253 C  
HETATM   23  C   UNL     1      -5.424  19.073  64.985  1.00  0.00    -0.206 C  
ENDBRANCH  20  21
ENDBRANCH  18  20
ENDBRANCH  14  15
ENDBRANCH  13  14
ENDBRANCH  12  13
ENDBRANCH  11  12
ENDBRANCH   9  11
ENDBRANCH   4   9
ENDBRANCH   2   4
TORSDOF 9
ENDMDL
MODEL       52
REMARK 921   NORMALIZED FREE ENERGY PREDICTED BY IDOCK:   -4.38 KCAL/MOL
REMARK 922        TOTAL FREE ENERGY PREDICTED BY IDOCK:   -7.76 KCAL/MOL
REMARK 923 INTER-LIGAND FREE ENERGY PREDICTED BY IDOCK:   -6.98 KCAL/MOL
REMARK 924 INTRA-LIGAND FREE ENERGY PREDICTED BY IDOCK:   -0.78 KCAL/MOL
REMARK 927      BINDING AFFINITY PREDICTED BY RF-SCORE:    0.00 PKD
ROOT
HETATM    1  C   UNL     1     -12.848  10.304  71.628  1.00  0.00    -0.463 C  
HETATM    2  N   UNL     1     -12.589   9.114  70.848  1.00  0.00    -0.498 NA 
HETATM    3  H   UNL     1     -12.878   9.160  69.871  1.00  0.00     0.000 HD 
ENDROOT
BRANCH   2   4
HETATM    4  C   UNL     1     -12.005   7.921  71.240  1.00  0.00    -0.298 C  
HETATM    5  C   UNL     1     -11.454   7.834  72.469  1.00  0.00    -0.373 C  
HETATM    6  O   UNL     1     -10.789   5.612  72.303  1.00  0.00    -0.223 OA 
HETATM    7  N   UNL     1     -10.824   6.645  72.986  1.00  0.00    -0.262 N  
HETATM    8  O   UNL     1     -10.348   6.747  74.124  1.00  0.00    -0.368 OA 
BRANCH   4   9
HETATM    9  N   UNL     1     -11.999   6.872  70.337  1.00  0.00    -0.584 NA 
HETATM   10  H   UNL     1     -12.604   6.090  70.587  1.00  0.00     0.000 HD 
BRANCH   9  11
HETATM   11  C   UNL     1     -11.272   6.706  69.096  1.00  0.00    -0.242 C  
BRANCH  11  12
HETATM   12  C   UNL     1      -9.771   6.909  69.319  1.00  0.00    -0.156 C  
BRANCH  12  13
HETATM   13  S   UNL     1      -9.204   8.578  68.842  1.00  0.00    -0.146 SA 
BRANCH  13  14
HETATM   14  C   UNL     1     -10.535   9.034  67.681  1.00  0.00    -0.260 C  
BRANCH  14  15
HETATM   15  C   UNL     1     -10.862  10.483  67.788  1.00  0.00    -0.294 A  
HETATM   16  C   UNL     1     -10.629  11.308  68.870  1.00  0.00    -0.207 A  
HETATM   17  S   UNL     1     -11.166  12.897  68.527  1.00  0.00    -0.295 SA 
HETATM   18  C   UNL     1     -11.690  12.375  66.974  1.00  0.00    -0.353 A  
HETATM   19  N   UNL     1     -11.506  11.095  66.719  1.00  0.00    -0.354 NA 
BRANCH  18  20
HETATM   20  C   UNL     1     -12.345  13.341  66.016  1.00  0.00    -0.386 C  
BRANCH  20  21
HETATM   21  N   UNL     1     -11.525  13.667  64.825  1.00  0.00    -0.339 NA 
HETATM   22  C   UNL     1     -12.111  13.107  63.603  1.00  0.00    -0.513 C  
HETATM   23  C   UNL     1     -11.415  15.122  64.692  1.00  0.00    -0.362 C  
ENDBRANCH  20  21
ENDBRANCH  18  20
ENDBRANCH  14  15
ENDBRANCH  13  14
ENDBRANCH  12  13
ENDBRANCH  11  12
ENDBRANCH   9  11
ENDBRANCH   4   9
ENDBRANCH   2   4
TORSDOF 9
ENDMDL
MODEL       53
REMARK 921   NORMALIZED FREE ENERGY PREDICTED BY IDOCK:   -4.38 KCAL/MOL
REMARK 922        TOTAL FREE ENERGY PREDICTED BY IDOCK:   -7.75 KCAL/MOL
REMARK 923 INTER-LIGAND FREE ENERGY PREDICTED BY IDOCK:   -7.27 KCAL/MOL
REMARK 924 INTRA-LIGAND FREE ENERGY PREDICTED BY IDOCK:   -0.48 KCAL/MOL
REMARK 927      BINDING AFFINITY PREDICTED BY RF-SCORE:    0.00 PKD
ROOT
HETATM    1  C   UNL     1     -14.321  15.087  71.775  1.00  0.00    -0.580 C  
HETATM    2  N   UNL     1     -13.027  14.450  71.677  1.00  0.00    -0.324 NA 
HETATM    3  H   UNL     1     -12.231  15.035  71.929  1.00  0.00     0.000 HD 
ENDROOT
BRANCH   2   4
HETATM    4  C   UNL     1     -12.716  13.158  71.289  1.00  0.00    -0.306 C  
HETATM    5  C   UNL     1     -13.268  12.123  71.955  1.00  0.00    -0.391 C  
HETATM    6  O   UNL     1     -12.288  10.439  70.687  1.00  0.00    -0.301 OA 
HETATM    7  N   UNL     1     -13.023  10.738  71.638  1.00  0.00    -0.464 N  
HETATM    8  O   UNL     1     -13.593   9.916  72.368  1.00  0.00    -0.378 OA 
BRANCH   4   9
HETATM    9  N   UNL     1     -11.831  12.989  70.238  1.00  0.00    -0.532 NA 
HETATM   10  H   UNL     1     -11.126  12.267  70.385  1.00  0.00     0.000 HD 
BRANCH   9  11
HETATM   11  C   UNL     1     -11.747  13.671  68.963  1.00  0.00    -0.333 C  
BRANCH  11  12
HETATM   12  C   UNL     1     -10.568  14.650  68.954  1.00  0.00    -0.253 C  
BRANCH  12  13
HETATM   13  S   UNL     1      -9.683  14.675  67.357  1.00  0.00    -0.221 SA 
BRANCH  13  14
HETATM   14  C   UNL     1     -10.656  15.950  66.487  1.00  0.00    -0.297 C  
BRANCH  14  15
HETATM   15  C   UNL     1     -10.186  17.317  66.847  1.00  0.00    -0.322 A  
HETATM   16  C   UNL     1     -10.728  18.155  67.800  1.00  0.00    -0.335 A  
HETATM   17  S   UNL     1      -9.846  19.621  67.866  1.00  0.00    -0.424 SA 
HETATM   18  C   UNL     1      -8.820  19.050  66.609  1.00  0.00    -0.318 A  
HETATM   19  N   UNL     1      -9.116  17.854  66.141  1.00  0.00    -0.496 NA 
BRANCH  18  20
HETATM   20  C   UNL     1      -7.695  19.908  66.082  1.00  0.00    -0.325 C  
BRANCH  20  21
HETATM   21  N   UNL     1      -6.481  19.909  66.932  1.00  0.00    -0.194 NA 
HETATM   22  C   UNL     1      -5.479  18.960  66.436  1.00  0.00    -0.153 C  
HETATM   23  C   UNL     1      -5.907  21.257  66.960  1.00  0.00    -0.326 C  
ENDBRANCH  20  21
ENDBRANCH  18  20
ENDBRANCH  14  15
ENDBRANCH  13  14
ENDBRANCH  12  13
ENDBRANCH  11  12
ENDBRANCH   9  11
ENDBRANCH   4   9
ENDBRANCH   2   4
TORSDOF 9
ENDMDL
MODEL       54
REMARK 921   NORMALIZED FREE ENERGY PREDICTED BY IDOCK:   -4.38 KCAL/MOL
REMARK 922        TOTAL FREE ENERGY PREDICTED BY IDOCK:   -7.74 KCAL/MOL
REMARK 923 INTER-LIGAND FREE ENERGY PREDICTED BY IDOCK:   -7.17 KCAL/MOL
REMARK 924 INTRA-LIGAND FREE ENERGY PREDICTED BY IDOCK:   -0.57 KCAL/MOL
REMARK 927      BINDING AFFINITY PREDICTED BY RF-SCORE:    0.00 PKD
ROOT
HETATM    1  C   UNL     1     -10.224   6.300  73.983  1.00  0.00    -0.314 C  
HETATM    2  N   UNL     1     -11.358   6.096  73.110  1.00  0.00    -0.473 NA 
HETATM    3  H   UNL     1     -12.236   5.871  73.578  1.00  0.00     0.000 HD 
ENDROOT
BRANCH   2   4
HETATM    4  C   UNL     1     -11.422   6.163  71.728  1.00  0.00    -0.285 C  
HETATM    5  C   UNL     1     -10.618   5.364  70.996  1.00  0.00    -0.205 C  
HETATM    6  O   UNL     1     -11.373   6.068  68.913  1.00  0.00    -0.307 OA 
HETATM    7  N   UNL     1     -10.600   5.343  69.554  1.00  0.00    -0.287 N  
HETATM    8  O   UNL     1      -9.783   4.566  69.044  1.00  0.00    -0.166 OA 
BRANCH   4   9
HETATM    9  N   UNL     1     -12.302   7.067  71.160  1.00  0.00    -0.376 NA 
HETATM   10  H   UNL     1     -11.969   7.506  70.301  1.00  0.00     0.000 HD 
BRANCH   9  11
HETATM   11  C   UNL     1     -13.619   7.491  71.589  1.00  0.00    -0.368 C  
BRANCH  11  12
HETATM   12  C   UNL     1     -13.568   8.909  72.166  1.00  0.00    -0.453 C  
BRANCH  12  13
HETATM   13  S   UNL     1     -12.265   9.936  71.403  1.00  0.00    -0.429 SA 
BRANCH  13  14
HETATM   14  C   UNL     1     -12.945  11.595  71.744  1.00  0.00    -0.377 C  
BRANCH  14  15
HETATM   15  C   UNL     1     -12.452  12.588  70.748  1.00  0.00    -0.268 A  
HETATM   16  C   UNL     1     -12.422  13.960  70.891  1.00  0.00    -0.375 A  
HETATM   17  S   UNL     1     -11.761  14.685  69.487  1.00  0.00    -0.344 SA 
HETATM   18  C   UNL     1     -11.582  13.128  68.778  1.00  0.00    -0.308 A  
HETATM   19  N   UNL     1     -12.005  12.121  69.518  1.00  0.00    -0.297 NA 
BRANCH  18  20
HETATM   20  C   UNL     1     -11.011  12.974  67.389  1.00  0.00    -0.260 C  
BRANCH  20  21
HETATM   21  N   UNL     1     -12.002  12.568  66.365  1.00  0.00    -0.577 NA 
HETATM   22  C   UNL     1     -12.653  13.734  65.759  1.00  0.00    -0.480 C  
HETATM   23  C   UNL     1     -11.334  11.785  65.323  1.00  0.00    -0.222 C  
ENDBRANCH  20  21
ENDBRANCH  18  20
ENDBRANCH  14  15
ENDBRANCH  13  14
ENDBRANCH  12  13
ENDBRANCH  11  12
ENDBRANCH   9  11
ENDBRANCH   4   9
ENDBRANCH   2   4
TORSDOF 9
ENDMDL
MODEL       55
REMARK 921   NORMALIZED FREE ENERGY PREDICTED BY IDOCK:   -4.37 KCAL/MOL
REMARK 922        TOTAL FREE ENERGY PREDICTED BY IDOCK:   -7.73 KCAL/MOL
REMARK 923 INTER-LIGAND FREE ENERGY PREDICTED BY IDOCK:   -7.14 KCAL/MOL
REMARK 924 INTRA-LIGAND FREE ENERGY PREDICTED BY IDOCK:   -0.59 KCAL/MOL
REMARK 927      BINDING AFFINITY PREDICTED BY RF-SCORE:    0.00 PKD
ROOT
HETATM    1  C   UNL     1     -12.473  12.657  64.992  1.00  0.00    -0.487 C  
HETATM    2  N   UNL     1     -11.889  12.133  66.207  1.00  0.00    -0.594 NA 
HETATM    3  H   UNL     1     -11.333  11.285  66.094  1.00  0.00     0.000 HD 
ENDROOT
BRANCH   2   4
HETATM    4  C   UNL     1     -11.978  12.618  67.501  1.00  0.00    -0.250 C  
HETATM    5  C   UNL     1     -11.903  11.751  68.532  1.00  0.00    -0.303 C  
HETATM    6  O   UNL     1     -12.091  13.335  70.223  1.00  0.00    -0.343 OA 
HETATM    7  N   UNL     1     -11.978  12.140  69.918  1.00  0.00    -0.325 N  
HETATM    8  O   UNL     1     -11.917  11.212  70.735  1.00  0.00    -0.339 OA 
BRANCH   4   9
HETATM    9  N   UNL     1     -12.158  13.979  67.675  1.00  0.00    -0.510 NA 
HETATM   10  H   UNL     1     -13.079  14.247  68.022  1.00  0.00     0.000 HD 
BRANCH   9  11
HETATM   11  C   UNL     1     -11.250  15.083  67.443  1.00  0.00    -0.335 C  
BRANCH  11  12
HETATM   12  C   UNL     1      -9.817  14.687  67.808  1.00  0.00    -0.216 C  
BRANCH  12  13
HETATM   13  S   UNL     1      -9.095  15.755  69.101  1.00  0.00    -0.272 SA 
BRANCH  13  14
HETATM   14  C   UNL     1     -10.373  17.054  69.175  1.00  0.00    -0.313 C  
BRANCH  14  15
HETATM   15  C   UNL     1     -10.009  18.209  68.307  1.00  0.00    -0.369 A  
HETATM   16  C   UNL     1     -10.782  18.774  67.312  1.00  0.00    -0.425 A  
HETATM   17  S   UNL     1      -9.950  20.086  66.592  1.00  0.00    -0.485 SA 
HETATM   18  C   UNL     1      -8.613  19.798  67.635  1.00  0.00    -0.326 A  
HETATM   19  N   UNL     1      -8.751  18.778  68.460  1.00  0.00    -0.340 NA 
BRANCH  18  20
HETATM   20  C   UNL     1      -7.372  20.655  67.554  1.00  0.00    -0.319 C  
BRANCH  20  21
HETATM   21  N   UNL     1      -6.251  20.034  66.812  1.00  0.00    -0.181 NA 
HETATM   22  C   UNL     1      -5.692  20.955  65.817  1.00  0.00    -0.235 C  
HETATM   23  C   UNL     1      -5.202  19.638  67.755  1.00  0.00    -0.177 C  
ENDBRANCH  20  21
ENDBRANCH  18  20
ENDBRANCH  14  15
ENDBRANCH  13  14
ENDBRANCH  12  13
ENDBRANCH  11  12
ENDBRANCH   9  11
ENDBRANCH   4   9
ENDBRANCH   2   4
TORSDOF 9
ENDMDL
MODEL       56
REMARK 921   NORMALIZED FREE ENERGY PREDICTED BY IDOCK:   -4.37 KCAL/MOL
REMARK 922        TOTAL FREE ENERGY PREDICTED BY IDOCK:   -7.73 KCAL/MOL
REMARK 923 INTER-LIGAND FREE ENERGY PREDICTED BY IDOCK:   -7.27 KCAL/MOL
REMARK 924 INTRA-LIGAND FREE ENERGY PREDICTED BY IDOCK:   -0.46 KCAL/MOL
REMARK 927      BINDING AFFINITY PREDICTED BY RF-SCORE:    0.00 PKD
ROOT
HETATM    1  C   UNL     1     -10.992   6.468  67.174  1.00  0.00    -0.408 C  
HETATM    2  N   UNL     1     -11.500   6.808  68.484  1.00  0.00    -0.542 NA 
HETATM    3  H   UNL     1     -12.171   7.575  68.508  1.00  0.00     0.000 HD 
ENDROOT
BRANCH   2   4
HETATM    4  C   UNL     1     -11.204   6.239  69.711  1.00  0.00    -0.430 C  
HETATM    5  C   UNL     1     -10.330   5.211  69.764  1.00  0.00    -0.262 C  
HETATM    6  O   UNL     1     -10.397   4.926  72.070  1.00  0.00    -0.198 OA 
HETATM    7  N   UNL     1      -9.943   4.545  70.982  1.00  0.00    -0.199 N  
HETATM    8  O   UNL     1      -9.149   3.606  70.845  1.00  0.00    -0.090 OA 
BRANCH   4   9
HETATM    9  N   UNL     1     -11.838   6.744  70.833  1.00  0.00    -0.370 NA 
HETATM   10  H   UNL     1     -12.558   6.137  71.227  1.00  0.00     0.000 HD 
BRANCH   9  11
HETATM   11  C   UNL     1     -11.644   7.994  71.538  1.00  0.00    -0.275 C  
BRANCH  11  12
HETATM   12  C   UNL     1     -12.992   8.637  71.875  1.00  0.00    -0.372 C  
BRANCH  12  13
HETATM   13  S   UNL     1     -13.052  10.415  71.461  1.00  0.00    -0.424 SA 
BRANCH  13  14
HETATM   14  C   UNL     1     -11.718  10.485  70.218  1.00  0.00    -0.332 C  
BRANCH  14  15
HETATM   15  C   UNL     1     -11.829  11.717  69.387  1.00  0.00    -0.342 A  
HETATM   16  C   UNL     1     -11.895  13.019  69.841  1.00  0.00    -0.307 A  
HETATM   17  S   UNL     1     -12.004  14.100  68.518  1.00  0.00    -0.292 SA 
HETATM   18  C   UNL     1     -11.978  12.763  67.435  1.00  0.00    -0.272 A  
HETATM   19  N   UNL     1     -11.916  11.577  68.007  1.00  0.00    -0.627 NA 
BRANCH  18  20
HETATM   20  C   UNL     1     -12.060  12.977  65.943  1.00  0.00    -0.444 C  
BRANCH  20  21
HETATM   21  N   UNL     1     -11.587  14.306  65.492  1.00  0.00    -0.331 NA 
HETATM   22  C   UNL     1     -10.134  14.317  65.289  1.00  0.00    -0.349 C  
HETATM   23  C   UNL     1     -12.258  14.664  64.239  1.00  0.00    -0.408 C  
ENDBRANCH  20  21
ENDBRANCH  18  20
ENDBRANCH  14  15
ENDBRANCH  13  14
ENDBRANCH  12  13
ENDBRANCH  11  12
ENDBRANCH   9  11
ENDBRANCH   4   9
ENDBRANCH   2   4
TORSDOF 9
ENDMDL
MODEL       57
REMARK 921   NORMALIZED FREE ENERGY PREDICTED BY IDOCK:   -4.36 KCAL/MOL
REMARK 922        TOTAL FREE ENERGY PREDICTED BY IDOCK:   -7.72 KCAL/MOL
REMARK 923 INTER-LIGAND FREE ENERGY PREDICTED BY IDOCK:   -6.82 KCAL/MOL
REMARK 924 INTRA-LIGAND FREE ENERGY PREDICTED BY IDOCK:   -0.90 KCAL/MOL
REMARK 927      BINDING AFFINITY PREDICTED BY RF-SCORE:    0.00 PKD
ROOT
HETATM    1  C   UNL     1      -8.596  18.350  67.171  1.00  0.00    -0.262 C  
HETATM    2  N   UNL     1      -9.805  17.718  66.693  1.00  0.00    -0.307 NA 
HETATM    3  H   UNL     1     -10.183  18.099  65.825  1.00  0.00     0.000 HD 
ENDROOT
BRANCH   2   4
HETATM    4  C   UNL     1     -10.522  16.670  67.245  1.00  0.00    -0.313 C  
HETATM    5  C   UNL     1     -10.864  16.726  68.549  1.00  0.00    -0.345 C  
HETATM    6  O   UNL     1     -12.007  14.702  68.609  1.00  0.00    -0.315 OA 
HETATM    7  N   UNL     1     -11.613  15.699  69.230  1.00  0.00    -0.343 N  
HETATM    8  O   UNL     1     -11.819  15.900  70.434  1.00  0.00    -0.346 OA 
BRANCH   4   9
HETATM    9  N   UNL     1     -10.841  15.599  66.429  1.00  0.00    -0.289 NA 
HETATM   10  H   UNL     1     -11.233  14.793  66.917  1.00  0.00     0.000 HD 
BRANCH   9  11
HETATM   11  C   UNL     1     -10.709  15.438  64.996  1.00  0.00    -0.438 C  
BRANCH  11  12
HETATM   12  C   UNL     1     -12.003  14.883  64.394  1.00  0.00    -0.394 C  
BRANCH  12  13
HETATM   13  S   UNL     1     -12.888  13.761  65.531  1.00  0.00    -0.296 SA 
BRANCH  13  14
HETATM   14  C   UNL     1     -11.914  12.239  65.280  1.00  0.00    -0.331 C  
BRANCH  14  15
HETATM   15  C   UNL     1     -11.117  11.909  66.495  1.00  0.00    -0.306 A  
HETATM   16  C   UNL     1      -9.768  12.127  66.685  1.00  0.00    -0.219 A  
HETATM   17  S   UNL     1      -9.298  11.594  68.243  1.00  0.00    -0.190 SA 
HETATM   18  C   UNL     1     -10.914  11.091  68.548  1.00  0.00    -0.228 A  
HETATM   19  N   UNL     1     -11.759  11.279  67.554  1.00  0.00    -0.599 NA 
BRANCH  18  20
HETATM   20  C   UNL     1     -11.286  10.449  69.863  1.00  0.00    -0.302 C  
BRANCH  20  21
HETATM   21  N   UNL     1     -12.615  10.849  70.381  1.00  0.00    -0.314 NA 
HETATM   22  C   UNL     1     -13.093   9.917  71.407  1.00  0.00    -0.407 C  
HETATM   23  C   UNL     1     -12.532  12.198  70.946  1.00  0.00    -0.279 C  
ENDBRANCH  20  21
ENDBRANCH  18  20
ENDBRANCH  14  15
ENDBRANCH  13  14
ENDBRANCH  12  13
ENDBRANCH  11  12
ENDBRANCH   9  11
ENDBRANCH   4   9
ENDBRANCH   2   4
TORSDOF 9
ENDMDL
MODEL       58
REMARK 921   NORMALIZED FREE ENERGY PREDICTED BY IDOCK:   -4.36 KCAL/MOL
REMARK 922        TOTAL FREE ENERGY PREDICTED BY IDOCK:   -7.72 KCAL/MOL
REMARK 923 INTER-LIGAND FREE ENERGY PREDICTED BY IDOCK:   -6.91 KCAL/MOL
REMARK 924 INTRA-LIGAND FREE ENERGY PREDICTED BY IDOCK:   -0.81 KCAL/MOL
REMARK 927      BINDING AFFINITY PREDICTED BY RF-SCORE:    0.00 PKD
ROOT
HETATM    1  C   UNL     1     -12.426  13.460  70.923  1.00  0.00    -0.359 C  
HETATM    2  N   UNL     1     -11.836  12.293  70.305  1.00  0.00    -0.524 NA 
HETATM    3  H   UNL     1     -11.184  12.484  69.544  1.00  0.00     0.000 HD 
ENDROOT
BRANCH   2   4
HETATM    4  C   UNL     1     -12.030  10.954  70.600  1.00  0.00    -0.368 C  
HETATM    5  C   UNL     1     -12.928  10.616  71.549  1.00  0.00    -0.461 C  
HETATM    6  O   UNL     1     -12.647   8.315  71.369  1.00  0.00    -0.305 OA 
HETATM    7  N   UNL     1     -13.217   9.258  71.937  1.00  0.00    -0.391 N  
HETATM    8  O   UNL     1     -14.051   9.129  72.842  1.00  0.00    -0.478 OA 
BRANCH   4   9
HETATM    9  N   UNL     1     -11.273  10.020  69.914  1.00  0.00    -0.263 NA 
HETATM   10  H   UNL     1     -11.464   9.049  70.163  1.00  0.00     0.000 HD 
BRANCH   9  11
HETATM   11  C   UNL     1     -10.255  10.199  68.900  1.00  0.00    -0.199 C  
BRANCH  11  12
HETATM   12  C   UNL     1     -10.837   9.962  67.504  1.00  0.00    -0.243 C  
BRANCH  12  13
HETATM   13  S   UNL     1     -10.228  11.163  66.270  1.00  0.00    -0.246 SA 
BRANCH  13  14
HETATM   14  C   UNL     1     -11.357  12.554  66.613  1.00  0.00    -0.334 C  
BRANCH  14  15
HETATM   15  C   UNL     1     -10.633  13.680  67.267  1.00  0.00    -0.267 A  
HETATM   16  C   UNL     1      -9.362  13.646  67.806  1.00  0.00    -0.218 A  
HETATM   17  S   UNL     1      -8.949  15.182  68.440  1.00  0.00    -0.190 SA 
HETATM   18  C   UNL     1     -10.493  15.779  67.975  1.00  0.00    -0.270 A  
HETATM   19  N   UNL     1     -11.290  14.897  67.403  1.00  0.00    -0.339 NA 
BRANCH  18  20
HETATM   20  C   UNL     1     -10.883  17.211  68.255  1.00  0.00    -0.314 C  
BRANCH  20  21
HETATM   21  N   UNL     1     -10.045  18.217  67.562  1.00  0.00    -0.332 NA 
HETATM   22  C   UNL     1     -10.227  18.154  66.108  1.00  0.00    -0.367 C  
HETATM   23  C   UNL     1     -10.395  19.556  68.042  1.00  0.00    -0.445 C  
ENDBRANCH  20  21
ENDBRANCH  18  20
ENDBRANCH  14  15
ENDBRANCH  13  14
ENDBRANCH  12  13
ENDBRANCH  11  12
ENDBRANCH   9  11
ENDBRANCH   4   9
ENDBRANCH   2   4
TORSDOF 9
ENDMDL
MODEL       59
REMARK 921   NORMALIZED FREE ENERGY PREDICTED BY IDOCK:   -4.36 KCAL/MOL
REMARK 922        TOTAL FREE ENERGY PREDICTED BY IDOCK:   -7.71 KCAL/MOL
REMARK 923 INTER-LIGAND FREE ENERGY PREDICTED BY IDOCK:   -7.14 KCAL/MOL
REMARK 924 INTRA-LIGAND FREE ENERGY PREDICTED BY IDOCK:   -0.57 KCAL/MOL
REMARK 927      BINDING AFFINITY PREDICTED BY RF-SCORE:    0.00 PKD
ROOT
HETATM    1  C   UNL     1     -10.140  17.556  67.021  1.00  0.00    -0.323 C  
HETATM    2  N   UNL     1      -9.702  16.817  65.858  1.00  0.00    -0.514 NA 
HETATM    3  H   UNL     1      -9.124  17.339  65.200  1.00  0.00     0.000 HD 
ENDROOT
BRANCH   2   4
HETATM    4  C   UNL     1      -9.956  15.501  65.512  1.00  0.00    -0.341 C  
HETATM    5  C   UNL     1     -11.023  15.222  64.733  1.00  0.00    -0.386 C  
HETATM    6  O   UNL     1     -10.680  12.925  64.628  1.00  0.00    -0.314 OA 
HETATM    7  N   UNL     1     -11.382  13.893  64.305  1.00  0.00    -0.338 N  
HETATM    8  O   UNL     1     -12.406  13.816  63.614  1.00  0.00    -0.678 OA 
BRANCH   4   9
HETATM    9  N   UNL     1      -9.106  14.523  65.999  1.00  0.00    -0.496 NA 
HETATM   10  H   UNL     1      -8.511  14.085  65.296  1.00  0.00     0.000 HD 
BRANCH   9  11
HETATM   11  C   UNL     1      -8.924  14.023  67.346  1.00  0.00    -0.206 C  
BRANCH  11  12
HETATM   12  C   UNL     1      -8.616  12.523  67.327  1.00  0.00    -0.191 C  
BRANCH  12  13
HETATM   13  S   UNL     1      -9.551  11.593  68.590  1.00  0.00    -0.078 SA 
BRANCH  13  14
HETATM   14  C   UNL     1     -11.050  12.628  68.686  1.00  0.00    -0.266 C  
BRANCH  14  15
HETATM   15  C   UNL     1     -11.821  12.335  69.927  1.00  0.00    -0.311 A  
HETATM   16  C   UNL     1     -12.308  13.251  70.837  1.00  0.00    -0.329 A  
HETATM   17  S   UNL     1     -13.139  12.446  72.098  1.00  0.00    -0.166 SA 
HETATM   18  C   UNL     1     -12.775  10.935  71.361  1.00  0.00    -0.434 A  
HETATM   19  N   UNL     1     -12.060  11.006  70.256  1.00  0.00    -0.331 NA 
BRANCH  18  20
HETATM   20  C   UNL     1     -13.231   9.640  71.991  1.00  0.00    -0.453 C  
BRANCH  20  21
HETATM   21  N   UNL     1     -12.431   8.457  71.596  1.00  0.00    -0.316 NA 
HETATM   22  C   UNL     1     -11.508   8.055  72.662  1.00  0.00    -0.402 C  
HETATM   23  C   UNL     1     -13.330   7.344  71.282  1.00  0.00    -0.271 C  
ENDBRANCH  20  21
ENDBRANCH  18  20
ENDBRANCH  14  15
ENDBRANCH  13  14
ENDBRANCH  12  13
ENDBRANCH  11  12
ENDBRANCH   9  11
ENDBRANCH   4   9
ENDBRANCH   2   4
TORSDOF 9
ENDMDL
MODEL       60
REMARK 921   NORMALIZED FREE ENERGY PREDICTED BY IDOCK:   -4.35 KCAL/MOL
REMARK 922        TOTAL FREE ENERGY PREDICTED BY IDOCK:   -7.70 KCAL/MOL
REMARK 923 INTER-LIGAND FREE ENERGY PREDICTED BY IDOCK:   -7.15 KCAL/MOL
REMARK 924 INTRA-LIGAND FREE ENERGY PREDICTED BY IDOCK:   -0.55 KCAL/MOL
REMARK 927      BINDING AFFINITY PREDICTED BY RF-SCORE:    0.00 PKD
ROOT
HETATM    1  C   UNL     1     -11.684  15.393  68.732  1.00  0.00    -0.351 C  
HETATM    2  N   UNL     1     -12.121  14.069  68.351  1.00  0.00    -0.508 NA 
HETATM    3  H   UNL     1     -12.474  13.489  69.112  1.00  0.00     0.000 HD 
ENDROOT
BRANCH   2   4
HETATM    4  C   UNL     1     -12.129  13.477  67.099  1.00  0.00    -0.340 C  
HETATM    5  C   UNL     1     -12.365  14.244  66.013  1.00  0.00    -0.395 C  
HETATM    6  O   UNL     1     -12.164  12.543  64.441  1.00  0.00    -0.403 OA 
HETATM    7  N   UNL     1     -12.392  13.740  64.663  1.00  0.00    -0.390 N  
HETATM    8  O   UNL     1     -12.648  14.578  63.788  1.00  0.00    -0.825 OA 
BRANCH   4   9
HETATM    9  N   UNL     1     -11.910  12.113  67.022  1.00  0.00    -0.594 NA 
HETATM   10  H   UNL     1     -12.213  11.679  66.150  1.00  0.00     0.000 HD 
BRANCH   9  11
HETATM   11  C   UNL     1     -11.319  11.202  67.981  1.00  0.00    -0.312 C  
BRANCH  11  12
HETATM   12  C   UNL     1     -10.639  10.032  67.263  1.00  0.00    -0.257 C  
BRANCH  12  13
HETATM   13  S   UNL     1      -8.885   9.838  67.732  1.00  0.00    -0.128 SA 
BRANCH  13  14
HETATM   14  C   UNL     1      -8.934   8.143  68.407  1.00  0.00    -0.136 C  
BRANCH  14  15
HETATM   15  C   UNL     1      -9.266   8.157  69.859  1.00  0.00    -0.151 A  
HETATM   16  C   UNL     1      -8.388   8.000  70.912  1.00  0.00    -0.119 A  
HETATM   17  S   UNL     1      -9.227   8.099  72.401  1.00  0.00    -0.251 SA 
HETATM   18  C   UNL     1     -10.702   8.322  71.544  1.00  0.00    -0.235 A  
HETATM   19  N   UNL     1     -10.598   8.302  70.229  1.00  0.00    -0.223 NA 
BRANCH  18  20
HETATM   20  C   UNL     1     -12.007   8.486  72.285  1.00  0.00    -0.385 C  
BRANCH  20  21
HETATM   21  N   UNL     1     -13.154   8.858  71.423  1.00  0.00    -0.302 NA 
HETATM   22  C   UNL     1     -14.404   8.265  71.910  1.00  0.00    -0.476 C  
HETATM   23  C   UNL     1     -13.285  10.316  71.389  1.00  0.00    -0.370 C  
ENDBRANCH  20  21
ENDBRANCH  18  20
ENDBRANCH  14  15
ENDBRANCH  13  14
ENDBRANCH  12  13
ENDBRANCH  11  12
ENDBRANCH   9  11
ENDBRANCH   4   9
ENDBRANCH   2   4
TORSDOF 9
ENDMDL
MODEL       61
REMARK 921   NORMALIZED FREE ENERGY PREDICTED BY IDOCK:   -4.34 KCAL/MOL
REMARK 922        TOTAL FREE ENERGY PREDICTED BY IDOCK:   -7.69 KCAL/MOL
REMARK 923 INTER-LIGAND FREE ENERGY PREDICTED BY IDOCK:   -7.36 KCAL/MOL
REMARK 924 INTRA-LIGAND FREE ENERGY PREDICTED BY IDOCK:   -0.33 KCAL/MOL
REMARK 927      BINDING AFFINITY PREDICTED BY RF-SCORE:    0.00 PKD
ROOT
HETATM    1  C   UNL     1     -10.611   9.293  68.630  1.00  0.00    -0.187 C  
HETATM    2  N   UNL     1     -11.629  10.242  68.237  1.00  0.00    -0.680 NA 
HETATM    3  H   UNL     1     -12.282   9.914  67.526  1.00  0.00     0.000 HD 
ENDROOT
BRANCH   2   4
HETATM    4  C   UNL     1     -11.843  11.533  68.690  1.00  0.00    -0.318 C  
HETATM    5  C   UNL     1     -12.098  11.734  70.000  1.00  0.00    -0.310 C  
HETATM    6  O   UNL     1     -12.275  14.049  69.882  1.00  0.00    -0.317 OA 
HETATM    7  N   UNL     1     -12.330  13.031  70.585  1.00  0.00    -0.347 N  
HETATM    8  O   UNL     1     -12.574  13.031  71.799  1.00  0.00    -0.186 OA 
BRANCH   4   9
HETATM    9  N   UNL     1     -11.802  12.563  67.766  1.00  0.00    -0.385 NA 
HETATM   10  H   UNL     1     -11.800  13.499  68.170  1.00  0.00     0.000 HD 
BRANCH   9  11
HETATM   11  C   UNL     1     -11.762  12.524  66.319  1.00  0.00    -0.404 C  
BRANCH  11  12
HETATM   12  C   UNL     1     -12.791  13.490  65.725  1.00  0.00    -0.264 C  
BRANCH  12  13
HETATM   13  S   UNL     1     -12.062  14.638  64.506  1.00  0.00    -0.419 SA 
BRANCH  13  14
HETATM   14  C   UNL     1     -10.385  14.805  65.206  1.00  0.00    -0.398 C  
BRANCH  14  15
HETATM   15  C   UNL     1     -10.302  15.982  66.116  1.00  0.00    -0.328 A  
HETATM   16  C   UNL     1     -10.636  16.020  67.454  1.00  0.00    -0.316 A  
HETATM   17  S   UNL     1     -10.366  17.589  68.085  1.00  0.00    -0.387 SA 
HETATM   18  C   UNL     1      -9.846  18.114  66.532  1.00  0.00    -0.362 A  
HETATM   19  N   UNL     1      -9.887  17.197  65.585  1.00  0.00    -0.561 NA 
BRANCH  18  20
HETATM   20  C   UNL     1      -9.417  19.544  66.305  1.00  0.00    -0.384 C  
BRANCH  20  21
HETATM   21  N   UNL     1      -7.949  19.739  66.258  1.00  0.00    -0.321 NA 
HETATM   22  C   UNL     1      -7.535  20.880  67.081  1.00  0.00    -0.274 C  
HETATM   23  C   UNL     1      -7.281  18.525  66.733  1.00  0.00    -0.211 C  
ENDBRANCH  20  21
ENDBRANCH  18  20
ENDBRANCH  14  15
ENDBRANCH  13  14
ENDBRANCH  12  13
ENDBRANCH  11  12
ENDBRANCH   9  11
ENDBRANCH   4   9
ENDBRANCH   2   4
TORSDOF 9
ENDMDL
MODEL       62
REMARK 921   NORMALIZED FREE ENERGY PREDICTED BY IDOCK:   -4.34 KCAL/MOL
REMARK 922        TOTAL FREE ENERGY PREDICTED BY IDOCK:   -7.68 KCAL/MOL
REMARK 923 INTER-LIGAND FREE ENERGY PREDICTED BY IDOCK:   -7.00 KCAL/MOL
REMARK 924 INTRA-LIGAND FREE ENERGY PREDICTED BY IDOCK:   -0.69 KCAL/MOL
REMARK 927      BINDING AFFINITY PREDICTED BY RF-SCORE:    0.00 PKD
ROOT
HETATM    1  C   UNL     1     -10.612  18.851  65.923  1.00  0.00    -0.373 C  
HETATM    2  N   UNL     1      -9.957  17.578  65.722  1.00  0.00    -0.569 NA 
HETATM    3  H   UNL     1      -8.952  17.625  65.554  1.00  0.00     0.000 HD 
ENDROOT
BRANCH   2   4
HETATM    4  C   UNL     1     -10.500  16.304  65.726  1.00  0.00    -0.364 C  
HETATM    5  C   UNL     1     -11.280  15.921  64.694  1.00  0.00    -0.351 C  
HETATM    6  O   UNL     1     -11.696  13.767  65.463  1.00  0.00    -0.326 OA 
HETATM    7  N   UNL     1     -11.893  14.621  64.587  1.00  0.00    -0.441 N  
HETATM    8  O   UNL     1     -12.598  14.445  63.585  1.00  0.00    -0.817 OA 
BRANCH   4   9
HETATM    9  N   UNL     1     -10.229  15.484  66.808  1.00  0.00    -0.273 NA 
HETATM   10  H   UNL     1     -10.672  14.566  66.770  1.00  0.00     0.000 HD 
BRANCH   9  11
HETATM   11  C   UNL     1      -9.417  15.720  67.984  1.00  0.00    -0.202 C  
BRANCH  11  12
HETATM   12  C   UNL     1     -10.300  16.061  69.188  1.00  0.00    -0.247 C  
BRANCH  12  13
HETATM   13  S   UNL     1     -12.017  15.471  68.997  1.00  0.00    -0.232 SA 
BRANCH  13  14
HETATM   14  C   UNL     1     -12.284  14.762  70.656  1.00  0.00    -0.319 C  
BRANCH  14  15
HETATM   15  C   UNL     1     -12.270  13.272  70.607  1.00  0.00    -0.338 A  
HETATM   16  C   UNL     1     -12.806  12.407  71.539  1.00  0.00    -0.274 A  
HETATM   17  S   UNL     1     -12.555  10.785  71.051  1.00  0.00    -0.445 SA 
HETATM   18  C   UNL     1     -11.731  11.344  69.649  1.00  0.00    -0.345 A  
HETATM   19  N   UNL     1     -11.621  12.654  69.545  1.00  0.00    -0.293 NA 
BRANCH  18  20
HETATM   20  C   UNL     1     -11.158  10.367  68.650  1.00  0.00    -0.262 C  
BRANCH  20  21
HETATM   21  N   UNL     1     -10.404  11.000  67.543  1.00  0.00    -0.191 NA 
HETATM   22  C   UNL     1      -9.022  11.293  67.936  1.00  0.00    -0.146 C  
HETATM   23  C   UNL     1     -10.404  10.108  66.381  1.00  0.00    -0.188 C  
ENDBRANCH  20  21
ENDBRANCH  18  20
ENDBRANCH  14  15
ENDBRANCH  13  14
ENDBRANCH  12  13
ENDBRANCH  11  12
ENDBRANCH   9  11
ENDBRANCH   4   9
ENDBRANCH   2   4
TORSDOF 9
ENDMDL
MODEL       63
REMARK 921   NORMALIZED FREE ENERGY PREDICTED BY IDOCK:   -4.32 KCAL/MOL
REMARK 922        TOTAL FREE ENERGY PREDICTED BY IDOCK:   -7.65 KCAL/MOL
REMARK 923 INTER-LIGAND FREE ENERGY PREDICTED BY IDOCK:   -7.09 KCAL/MOL
REMARK 924 INTRA-LIGAND FREE ENERGY PREDICTED BY IDOCK:   -0.56 KCAL/MOL
REMARK 927      BINDING AFFINITY PREDICTED BY RF-SCORE:    0.00 PKD
ROOT
HETATM    1  C   UNL     1     -13.104  15.110  71.161  1.00  0.00    -0.450 C  
HETATM    2  N   UNL     1     -12.761  14.616  69.846  1.00  0.00    -0.569 NA 
HETATM    3  H   UNL     1     -13.160  13.710  69.602  1.00  0.00     0.000 HD 
ENDROOT
BRANCH   2   4
HETATM    4  C   UNL     1     -11.970  15.200  68.871  1.00  0.00    -0.253 C  
HETATM    5  C   UNL     1     -11.127  16.194  69.220  1.00  0.00    -0.327 C  
HETATM    6  O   UNL     1     -10.226  16.530  67.104  1.00  0.00    -0.273 OA 
HETATM    7  N   UNL     1     -10.253  16.871  68.294  1.00  0.00    -0.299 N  
HETATM    8  O   UNL     1      -9.564  17.777  68.779  1.00  0.00    -0.311 OA 
BRANCH   4   9
HETATM    9  N   UNL     1     -12.095  14.742  67.571  1.00  0.00    -0.526 NA 
HETATM   10  H   UNL     1     -12.239  15.472  66.873  1.00  0.00     0.000 HD 
BRANCH   9  11
HETATM   11  C   UNL     1     -12.055  13.395  67.042  1.00  0.00    -0.339 C  
BRANCH  11  12
HETATM   12  C   UNL     1     -10.873  12.620  67.631  1.00  0.00    -0.221 C  
BRANCH  12  13
HETATM   13  S   UNL     1     -11.360  10.999  68.317  1.00  0.00    -0.306 SA 
BRANCH  13  14
HETATM   14  C   UNL     1     -11.537  11.452  70.076  1.00  0.00    -0.299 C  
BRANCH  14  15
HETATM   15  C   UNL     1     -12.208  10.363  70.841  1.00  0.00    -0.383 A  
HETATM   16  C   UNL     1     -13.336  10.477  71.627  1.00  0.00    -0.324 A  
HETATM   17  S   UNL     1     -13.742   8.956  72.300  1.00  0.00    -0.466 SA 
HETATM   18  C   UNL     1     -12.378   8.257  71.519  1.00  0.00    -0.306 A  
HETATM   19  N   UNL     1     -11.642   9.094  70.816  1.00  0.00    -0.281 NA 
BRANCH  18  20
HETATM   20  C   UNL     1     -12.062   6.790  71.686  1.00  0.00    -0.359 C  
BRANCH  20  21
HETATM   21  N   UNL     1     -10.695   6.514  72.186  1.00  0.00    -0.215 NA 
HETATM   22  C   UNL     1     -10.528   6.977  73.568  1.00  0.00    -0.375 C  
HETATM   23  C   UNL     1     -10.431   5.075  72.117  1.00  0.00    -0.210 C  
ENDBRANCH  20  21
ENDBRANCH  18  20
ENDBRANCH  14  15
ENDBRANCH  13  14
ENDBRANCH  12  13
ENDBRANCH  11  12
ENDBRANCH   9  11
ENDBRANCH   4   9
ENDBRANCH   2   4
TORSDOF 9
ENDMDL
MODEL       64
REMARK 921   NORMALIZED FREE ENERGY PREDICTED BY IDOCK:   -4.32 KCAL/MOL
REMARK 922        TOTAL FREE ENERGY PREDICTED BY IDOCK:   -7.65 KCAL/MOL
REMARK 923 INTER-LIGAND FREE ENERGY PREDICTED BY IDOCK:   -6.93 KCAL/MOL
REMARK 924 INTRA-LIGAND FREE ENERGY PREDICTED BY IDOCK:   -0.72 KCAL/MOL
REMARK 927      BINDING AFFINITY PREDICTED BY RF-SCORE:    0.00 PKD
ROOT
HETATM    1  C   UNL     1      -7.257   9.911  65.115  1.00  0.00    -0.133 C  
HETATM    2  N   UNL     1      -8.427  10.723  64.868  1.00  0.00    -0.333 NA 
HETATM    3  H   UNL     1      -8.404  11.274  64.010  1.00  0.00     0.000 HD 
ENDROOT
BRANCH   2   4
HETATM    4  C   UNL     1      -9.575  10.860  65.631  1.00  0.00    -0.224 C  
HETATM    5  C   UNL     1      -9.492  10.714  66.970  1.00  0.00    -0.164 C  
HETATM    6  O   UNL     1     -11.737  11.122  67.418  1.00  0.00    -0.564 OA 
HETATM    7  N   UNL     1     -10.616  10.839  67.864  1.00  0.00    -0.204 N  
HETATM    8  O   UNL     1     -10.366  10.650  69.062  1.00  0.00    -0.196 OA 
BRANCH   4   9
HETATM    9  N   UNL     1     -10.765  11.124  64.975  1.00  0.00    -0.267 NA 
HETATM   10  H   UNL     1     -11.601  10.797  65.460  1.00  0.00     0.000 HD 
BRANCH   9  11
HETATM   11  C   UNL     1     -11.014  11.789  63.713  1.00  0.00    -0.429 C  
BRANCH  11  12
HETATM   12  C   UNL     1     -12.388  12.464  63.722  1.00  0.00    -0.528 C  
BRANCH  12  13
HETATM   13  S   UNL     1     -12.603  13.614  65.124  1.00  0.00    -0.396 SA 
BRANCH  13  14
HETATM   14  C   UNL     1     -11.653  15.041  64.499  1.00  0.00    -0.343 C  
BRANCH  14  15
HETATM   15  C   UNL     1     -10.480  15.325  65.372  1.00  0.00    -0.398 A  
HETATM   16  C   UNL     1      -9.780  14.416  66.140  1.00  0.00    -0.312 A  
HETATM   17  S   UNL     1      -8.504  15.203  66.968  1.00  0.00    -0.238 SA 
HETATM   18  C   UNL     1      -8.984  16.699  66.267  1.00  0.00    -0.305 A  
HETATM   19  N   UNL     1     -10.041  16.639  65.481  1.00  0.00    -0.590 NA 
BRANCH  18  20
HETATM   20  C   UNL     1      -8.241  17.974  66.586  1.00  0.00    -0.261 C  
BRANCH  20  21
HETATM   21  N   UNL     1      -8.946  18.869  67.532  1.00  0.00    -0.283 NA 
HETATM   22  C   UNL     1      -8.023  19.435  68.522  1.00  0.00    -0.360 C  
HETATM   23  C   UNL     1      -9.592  19.953  66.789  1.00  0.00    -0.403 C  
ENDBRANCH  20  21
ENDBRANCH  18  20
ENDBRANCH  14  15
ENDBRANCH  13  14
ENDBRANCH  12  13
ENDBRANCH  11  12
ENDBRANCH   9  11
ENDBRANCH   4   9
ENDBRANCH   2   4
TORSDOF 9
ENDMDL
MODEL       65
REMARK 921   NORMALIZED FREE ENERGY PREDICTED BY IDOCK:   -4.31 KCAL/MOL
REMARK 922        TOTAL FREE ENERGY PREDICTED BY IDOCK:   -7.65 KCAL/MOL
REMARK 923 INTER-LIGAND FREE ENERGY PREDICTED BY IDOCK:   -6.50 KCAL/MOL
REMARK 924 INTRA-LIGAND FREE ENERGY PREDICTED BY IDOCK:   -1.15 KCAL/MOL
REMARK 927      BINDING AFFINITY PREDICTED BY RF-SCORE:    0.00 PKD
ROOT
HETATM    1  C   UNL     1      -9.259  10.686  62.459  1.00  0.00    -0.295 C  
HETATM    2  N   UNL     1      -9.445  11.825  63.330  1.00  0.00    -0.563 NA 
HETATM    3  H   UNL     1      -8.766  12.578  63.217  1.00  0.00     0.000 HD 
ENDROOT
BRANCH   2   4
HETATM    4  C   UNL     1     -10.413  12.038  64.297  1.00  0.00    -0.328 C  
HETATM    5  C   UNL     1     -10.866  13.292  64.505  1.00  0.00    -0.394 C  
HETATM    6  O   UNL     1     -12.399  12.746  66.165  1.00  0.00    -0.542 OA 
HETATM    7  N   UNL     1     -11.874  13.633  65.478  1.00  0.00    -0.345 N  
HETATM    8  O   UNL     1     -12.154  14.836  65.554  1.00  0.00    -0.264 OA 
BRANCH   4   9
HETATM    9  N   UNL     1     -10.861  10.947  65.021  1.00  0.00    -0.151 NA 
HETATM   10  H   UNL     1     -11.797  10.625  64.774  1.00  0.00     0.000 HD 
BRANCH   9  11
HETATM   11  C   UNL     1     -10.215  10.190  66.073  1.00  0.00    -0.218 C  
BRANCH  11  12
HETATM   12  C   UNL     1      -8.936  10.894  66.536  1.00  0.00    -0.168 C  
BRANCH  12  13
HETATM   13  S   UNL     1      -9.186  11.898  68.041  1.00  0.00    -0.195 SA 
BRANCH  13  14
HETATM   14  C   UNL     1      -8.532  13.498  67.454  1.00  0.00    -0.200 C  
BRANCH  14  15
HETATM   15  C   UNL     1      -9.406  14.623  67.891  1.00  0.00    -0.198 A  
HETATM   16  C   UNL     1      -9.310  15.945  67.505  1.00  0.00    -0.217 A  
HETATM   17  S   UNL     1     -10.537  16.870  68.260  1.00  0.00    -0.373 SA 
HETATM   18  C   UNL     1     -11.096  15.456  69.064  1.00  0.00    -0.268 A  
HETATM   19  N   UNL     1     -10.409  14.358  68.816  1.00  0.00    -0.239 NA 
BRANCH  18  20
HETATM   20  C   UNL     1     -12.272  15.519  70.009  1.00  0.00    -0.355 C  
BRANCH  20  21
HETATM   21  N   UNL     1     -12.061  14.810  71.292  1.00  0.00    -0.324 NA 
HETATM   22  C   UNL     1     -11.995  15.747  72.418  1.00  0.00    -0.498 C  
HETATM   23  C   UNL     1     -13.155  13.860  71.510  1.00  0.00    -0.365 C  
ENDBRANCH  20  21
ENDBRANCH  18  20
ENDBRANCH  14  15
ENDBRANCH  13  14
ENDBRANCH  12  13
ENDBRANCH  11  12
ENDBRANCH   9  11
ENDBRANCH   4   9
ENDBRANCH   2   4
TORSDOF 9
ENDMDL
MODEL       66
REMARK 921   NORMALIZED FREE ENERGY PREDICTED BY IDOCK:   -4.31 KCAL/MOL
REMARK 922        TOTAL FREE ENERGY PREDICTED BY IDOCK:   -7.64 KCAL/MOL
REMARK 923 INTER-LIGAND FREE ENERGY PREDICTED BY IDOCK:   -7.47 KCAL/MOL
REMARK 924 INTRA-LIGAND FREE ENERGY PREDICTED BY IDOCK:   -0.18 KCAL/MOL
REMARK 927      BINDING AFFINITY PREDICTED BY RF-SCORE:    0.00 PKD
ROOT
HETATM    1  C   UNL     1     -11.088  11.099  69.352  1.00  0.00    -0.255 C  
HETATM    2  N   UNL     1     -11.082  12.542  69.443  1.00  0.00    -0.452 NA 
HETATM    3  H   UNL     1     -10.226  12.996  69.125  1.00  0.00     0.000 HD 
ENDROOT
BRANCH   2   4
HETATM    4  C   UNL     1     -12.073  13.393  69.900  1.00  0.00    -0.322 C  
HETATM    5  C   UNL     1     -12.694  13.111  71.065  1.00  0.00    -0.277 C  
HETATM    6  O   UNL     1     -14.090  14.970  71.077  1.00  0.00    -0.367 OA 
HETATM    7  N   UNL     1     -13.735  13.925  71.641  1.00  0.00    -0.342 N  
HETATM    8  O   UNL     1     -14.212  13.506  72.703  1.00  0.00    -0.751 OA 
BRANCH   4   9
HETATM    9  N   UNL     1     -12.395  14.494  69.125  1.00  0.00    -0.571 NA 
HETATM   10  H   UNL     1     -13.386  14.737  69.119  1.00  0.00     0.000 HD 
BRANCH   9  11
HETATM   11  C   UNL     1     -11.552  15.354  68.321  1.00  0.00    -0.348 C  
BRANCH  11  12
HETATM   12  C   UNL     1     -11.430  14.810  66.895  1.00  0.00    -0.347 C  
BRANCH  12  13
HETATM   13  S   UNL     1      -9.950  15.432  66.025  1.00  0.00    -0.353 SA 
BRANCH  13  14
HETATM   14  C   UNL     1     -10.583  17.048  65.461  1.00  0.00    -0.173 C  
BRANCH  14  15
HETATM   15  C   UNL     1     -10.058  18.152  66.313  1.00  0.00    -0.371 A  
HETATM   16  C   UNL     1     -10.723  18.796  67.336  1.00  0.00    -0.424 A  
HETATM   17  S   UNL     1      -9.714  19.991  68.035  1.00  0.00    -0.346 SA 
HETATM   18  C   UNL     1      -8.473  19.584  66.916  1.00  0.00    -0.297 A  
HETATM   19  N   UNL     1      -8.782  18.636  66.053  1.00  0.00    -0.488 NA 
BRANCH  18  20
HETATM   20  C   UNL     1      -7.151  20.313  66.931  1.00  0.00    -0.258 C  
BRANCH  20  21
HETATM   21  N   UNL     1      -6.144  19.728  67.847  1.00  0.00    -0.210 NA 
HETATM   22  C   UNL     1      -6.256  20.292  69.196  1.00  0.00    -0.327 C  
HETATM   23  C   UNL     1      -6.325  18.276  67.907  1.00  0.00    -0.190 C  
ENDBRANCH  20  21
ENDBRANCH  18  20
ENDBRANCH  14  15
ENDBRANCH  13  14
ENDBRANCH  12  13
ENDBRANCH  11  12
ENDBRANCH   9  11
ENDBRANCH   4   9
ENDBRANCH   2   4
TORSDOF 9
ENDMDL
MODEL       67
REMARK 921   NORMALIZED FREE ENERGY PREDICTED BY IDOCK:   -4.29 KCAL/MOL
REMARK 922        TOTAL FREE ENERGY PREDICTED BY IDOCK:   -7.62 KCAL/MOL
REMARK 923 INTER-LIGAND FREE ENERGY PREDICTED BY IDOCK:   -7.19 KCAL/MOL
REMARK 924 INTRA-LIGAND FREE ENERGY PREDICTED BY IDOCK:   -0.43 KCAL/MOL
REMARK 927      BINDING AFFINITY PREDICTED BY RF-SCORE:    0.00 PKD
ROOT
HETATM    1  C   UNL     1     -14.397   8.453  71.812  1.00  0.00    -0.472 C  
HETATM    2  N   UNL     1     -13.360   9.208  71.143  1.00  0.00    -0.547 NA 
HETATM    3  H   UNL     1     -13.678   9.808  70.383  1.00  0.00     0.000 HD 
ENDROOT
BRANCH   2   4
HETATM    4  C   UNL     1     -11.998   9.230  71.389  1.00  0.00    -0.351 C  
HETATM    5  C   UNL     1     -11.494   8.436  72.357  1.00  0.00    -0.380 C  
HETATM    6  O   UNL     1      -9.270   9.050  72.070  1.00  0.00    -0.373 OA 
HETATM    7  N   UNL     1     -10.094   8.372  72.698  1.00  0.00    -0.285 N  
HETATM    8  O   UNL     1      -9.808   7.608  73.629  1.00  0.00    -0.301 OA 
BRANCH   4   9
HETATM    9  N   UNL     1     -11.214  10.086  70.635  1.00  0.00    -0.328 NA 
HETATM   10  H   UNL     1     -10.287  10.268  71.021  1.00  0.00     0.000 HD 
BRANCH   9  11
HETATM   11  C   UNL     1     -11.498  10.765  69.388  1.00  0.00    -0.295 C  
BRANCH  11  12
HETATM   12  C   UNL     1     -10.346  10.575  68.397  1.00  0.00    -0.176 C  
BRANCH  12  13
HETATM   13  S   UNL     1     -10.742  11.195  66.726  1.00  0.00    -0.268 SA 
BRANCH  13  14
HETATM   14  C   UNL     1     -11.901  12.535  67.162  1.00  0.00    -0.316 C  
BRANCH  14  15
HETATM   15  C   UNL     1     -11.421  13.846  66.641  1.00  0.00    -0.355 A  
HETATM   16  C   UNL     1     -11.343  14.234  65.318  1.00  0.00    -0.336 A  
HETATM   17  S   UNL     1     -10.738  15.832  65.207  1.00  0.00    -0.411 SA 
HETATM   18  C   UNL     1     -10.601  15.889  66.921  1.00  0.00    -0.309 A  
HETATM   19  N   UNL     1     -10.956  14.787  67.551  1.00  0.00    -0.294 NA 
BRANCH  18  20
HETATM   20  C   UNL     1     -10.069  17.123  67.611  1.00  0.00    -0.305 C  
BRANCH  20  21
HETATM   21  N   UNL     1     -10.040  18.333  66.758  1.00  0.00    -0.344 NA 
HETATM   22  C   UNL     1     -10.838  19.417  67.339  1.00  0.00    -0.440 C  
HETATM   23  C   UNL     1      -8.655  18.780  66.593  1.00  0.00    -0.302 C  
ENDBRANCH  20  21
ENDBRANCH  18  20
ENDBRANCH  14  15
ENDBRANCH  13  14
ENDBRANCH  12  13
ENDBRANCH  11  12
ENDBRANCH   9  11
ENDBRANCH   4   9
ENDBRANCH   2   4
TORSDOF 9
ENDMDL
MODEL       68
REMARK 921   NORMALIZED FREE ENERGY PREDICTED BY IDOCK:   -4.29 KCAL/MOL
REMARK 922        TOTAL FREE ENERGY PREDICTED BY IDOCK:   -7.62 KCAL/MOL
REMARK 923 INTER-LIGAND FREE ENERGY PREDICTED BY IDOCK:   -6.56 KCAL/MOL
REMARK 924 INTRA-LIGAND FREE ENERGY PREDICTED BY IDOCK:   -1.06 KCAL/MOL
REMARK 927      BINDING AFFINITY PREDICTED BY RF-SCORE:    0.00 PKD
ROOT
HETATM    1  C   UNL     1      -8.860  10.307  62.340  1.00  0.00    -0.244 C  
HETATM    2  N   UNL     1     -10.168  10.840  62.651  1.00  0.00    -0.774 NA 
HETATM    3  H   UNL     1     -10.827  10.864  61.873  1.00  0.00     0.000 HD 
ENDROOT
BRANCH   2   4
HETATM    4  C   UNL     1     -10.652  11.322  63.856  1.00  0.00    -0.391 C  
HETATM    5  C   UNL     1     -11.723  12.143  63.849  1.00  0.00    -0.458 C  
HETATM    6  O   UNL     1     -11.862  12.412  66.155  1.00  0.00    -0.459 OA 
HETATM    7  N   UNL     1     -12.316  12.701  65.039  1.00  0.00    -0.491 N  
HETATM    8  O   UNL     1     -13.279  13.456  64.850  1.00  0.00    -0.679 OA 
BRANCH   4   9
HETATM    9  N   UNL     1      -9.998  10.949  65.017  1.00  0.00    -0.275 NA 
HETATM   10  H   UNL     1      -9.453  11.690  65.457  1.00  0.00     0.000 HD 
BRANCH   9  11
HETATM   11  C   UNL     1      -9.962   9.676  65.706  1.00  0.00    -0.272 C  
BRANCH  11  12
HETATM   12  C   UNL     1      -8.533   9.128  65.754  1.00  0.00    -0.141 C  
BRANCH  12  13
HETATM   13  S   UNL     1      -7.269  10.444  65.695  1.00  0.00    -0.128 SA 
BRANCH  13  14
HETATM   14  C   UNL     1      -7.418  11.089  67.396  1.00  0.00    -0.106 C  
BRANCH  14  15
HETATM   15  C   UNL     1      -7.575  12.570  67.392  1.00  0.00    -0.156 A  
HETATM   16  C   UNL     1      -6.640  13.504  67.792  1.00  0.00    -0.170 A  
HETATM   17  S   UNL     1      -7.267  15.086  67.599  1.00  0.00    -0.197 SA 
HETATM   18  C   UNL     1      -8.744  14.420  67.021  1.00  0.00    -0.223 A  
HETATM   19  N   UNL     1      -8.794  13.103  66.988  1.00  0.00    -0.219 NA 
BRANCH  18  20
HETATM   20  C   UNL     1      -9.892  15.318  66.624  1.00  0.00    -0.250 C  
BRANCH  20  21
HETATM   21  N   UNL     1     -10.205  16.378  67.611  1.00  0.00    -0.265 NA 
HETATM   22  C   UNL     1     -10.373  17.681  66.960  1.00  0.00    -0.330 C  
HETATM   23  C   UNL     1     -11.432  16.027  68.331  1.00  0.00    -0.331 C  
ENDBRANCH  20  21
ENDBRANCH  18  20
ENDBRANCH  14  15
ENDBRANCH  13  14
ENDBRANCH  12  13
ENDBRANCH  11  12
ENDBRANCH   9  11
ENDBRANCH   4   9
ENDBRANCH   2   4
TORSDOF 9
ENDMDL
MODEL       69
REMARK 921   NORMALIZED FREE ENERGY PREDICTED BY IDOCK:   -4.28 KCAL/MOL
REMARK 922        TOTAL FREE ENERGY PREDICTED BY IDOCK:   -7.60 KCAL/MOL
REMARK 923 INTER-LIGAND FREE ENERGY PREDICTED BY IDOCK:   -7.15 KCAL/MOL
REMARK 924 INTRA-LIGAND FREE ENERGY PREDICTED BY IDOCK:   -0.45 KCAL/MOL
REMARK 927      BINDING AFFINITY PREDICTED BY RF-SCORE:    0.00 PKD
ROOT
HETATM    1  C   UNL     1      -8.018  15.775  68.729  1.00  0.00    -0.180 C  
HETATM    2  N   UNL     1      -8.587  15.025  67.632  1.00  0.00    -0.163 NA 
HETATM    3  H   UNL     1      -8.395  14.023  67.641  1.00  0.00     0.000 HD 
ENDROOT
BRANCH   2   4
HETATM    4  C   UNL     1      -9.356  15.473  66.571  1.00  0.00    -0.283 C  
HETATM    5  C   UNL     1      -9.699  16.777  66.516  1.00  0.00    -0.283 C  
HETATM    6  O   UNL     1     -10.873  16.656  64.513  1.00  0.00    -0.847 OA 
HETATM    7  N   UNL     1     -10.490  17.358  65.459  1.00  0.00    -0.207 N  
HETATM    8  O   UNL     1     -10.733  18.566  65.579  1.00  0.00    -0.586 OA 
BRANCH   4   9
HETATM    9  N   UNL     1      -9.752  14.551  65.618  1.00  0.00    -0.509 NA 
HETATM   10  H   UNL     1      -9.683  14.876  64.654  1.00  0.00     0.000 HD 
BRANCH   9  11
HETATM   11  C   UNL     1     -10.249  13.199  65.771  1.00  0.00    -0.289 C  
BRANCH  11  12
HETATM   12  C   UNL     1     -11.447  13.170  66.725  1.00  0.00    -0.343 C  
BRANCH  12  13
HETATM   13  S   UNL     1     -11.568  11.606  67.660  1.00  0.00    -0.239 SA 
BRANCH  13  14
HETATM   14  C   UNL     1     -11.578  12.267  69.361  1.00  0.00    -0.314 C  
BRANCH  14  15
HETATM   15  C   UNL     1     -11.940  11.205  70.343  1.00  0.00    -0.378 A  
HETATM   16  C   UNL     1     -13.012  11.212  71.212  1.00  0.00    -0.357 A  
HETATM   17  S   UNL     1     -13.027   9.773  72.140  1.00  0.00    -0.349 SA 
HETATM   18  C   UNL     1     -11.597   9.252  71.339  1.00  0.00    -0.367 A  
HETATM   19  N   UNL     1     -11.111  10.095  70.449  1.00  0.00    -0.306 NA 
BRANCH  18  20
HETATM   20  C   UNL     1     -10.955   7.931  71.688  1.00  0.00    -0.238 C  
BRANCH  20  21
HETATM   21  N   UNL     1     -10.346   7.888  73.038  1.00  0.00    -0.338 NA 
HETATM   22  C   UNL     1     -10.508   6.567  73.656  1.00  0.00    -0.311 C  
HETATM   23  C   UNL     1      -8.920   8.210  72.940  1.00  0.00    -0.260 C  
ENDBRANCH  20  21
ENDBRANCH  18  20
ENDBRANCH  14  15
ENDBRANCH  13  14
ENDBRANCH  12  13
ENDBRANCH  11  12
ENDBRANCH   9  11
ENDBRANCH   4   9
ENDBRANCH   2   4
TORSDOF 9
ENDMDL
MODEL       70
REMARK 921   NORMALIZED FREE ENERGY PREDICTED BY IDOCK:   -4.28 KCAL/MOL
REMARK 922        TOTAL FREE ENERGY PREDICTED BY IDOCK:   -7.60 KCAL/MOL
REMARK 923 INTER-LIGAND FREE ENERGY PREDICTED BY IDOCK:   -6.74 KCAL/MOL
REMARK 924 INTRA-LIGAND FREE ENERGY PREDICTED BY IDOCK:   -0.86 KCAL/MOL
REMARK 927      BINDING AFFINITY PREDICTED BY RF-SCORE:    0.00 PKD
ROOT
HETATM    1  C   UNL     1     -11.260  16.347  69.344  1.00  0.00    -0.267 C  
HETATM    2  N   UNL     1     -11.916  15.106  68.999  1.00  0.00    -0.494 NA 
HETATM    3  H   UNL     1     -12.205  15.020  68.024  1.00  0.00     0.000 HD 
ENDROOT
BRANCH   2   4
HETATM    4  C   UNL     1     -12.207  14.017  69.803  1.00  0.00    -0.341 C  
HETATM    5  C   UNL     1     -13.007  14.191  70.876  1.00  0.00    -0.305 C  
HETATM    6  O   UNL     1     -12.990  11.974  71.579  1.00  0.00    -0.397 OA 
HETATM    7  N   UNL     1     -13.383  13.132  71.780  1.00  0.00    -0.408 N  
HETATM    8  O   UNL     1     -14.104  13.472  72.727  1.00  0.00    -0.719 OA 
BRANCH   4   9
HETATM    9  N   UNL     1     -11.644  12.796  69.475  1.00  0.00    -0.381 NA 
HETATM   10  H   UNL     1     -11.337  12.239  70.272  1.00  0.00     0.000 HD 
BRANCH   9  11
HETATM   11  C   UNL     1     -11.421  12.183  68.182  1.00  0.00    -0.317 C  
BRANCH  11  12
HETATM   12  C   UNL     1     -10.203  11.255  68.229  1.00  0.00    -0.186 C  
BRANCH  12  13
HETATM   13  S   UNL     1      -8.638  12.123  67.869  1.00  0.00    -0.176 SA 
BRANCH  13  14
HETATM   14  C   UNL     1      -9.274  13.485  66.834  1.00  0.00    -0.249 C  
BRANCH  14  15
HETATM   15  C   UNL     1      -8.526  14.747  67.096  1.00  0.00    -0.223 A  
HETATM   16  C   UNL     1      -7.332  14.877  67.775  1.00  0.00    -0.166 A  
HETATM   17  S   UNL     1      -6.853  16.520  67.817  1.00  0.00    -0.151 SA 
HETATM   18  C   UNL     1      -8.276  16.948  66.950  1.00  0.00    -0.213 A  
HETATM   19  N   UNL     1      -9.081  15.944  66.660  1.00  0.00    -0.235 NA 
BRANCH  18  20
HETATM   20  C   UNL     1      -8.562  18.388  66.600  1.00  0.00    -0.278 C  
BRANCH  20  21
HETATM   21  N   UNL     1      -9.914  18.852  66.988  1.00  0.00    -0.322 NA 
HETATM   22  C   UNL     1      -9.868  19.695  68.187  1.00  0.00    -0.418 C  
HETATM   23  C   UNL     1     -10.507  19.608  65.881  1.00  0.00    -0.493 C  
ENDBRANCH  20  21
ENDBRANCH  18  20
ENDBRANCH  14  15
ENDBRANCH  13  14
ENDBRANCH  12  13
ENDBRANCH  11  12
ENDBRANCH   9  11
ENDBRANCH   4   9
ENDBRANCH   2   4
TORSDOF 9
ENDMDL
MODEL       71
REMARK 921   NORMALIZED FREE ENERGY PREDICTED BY IDOCK:   -4.28 KCAL/MOL
REMARK 922        TOTAL FREE ENERGY PREDICTED BY IDOCK:   -7.59 KCAL/MOL
REMARK 923 INTER-LIGAND FREE ENERGY PREDICTED BY IDOCK:   -6.70 KCAL/MOL
REMARK 924 INTRA-LIGAND FREE ENERGY PREDICTED BY IDOCK:   -0.89 KCAL/MOL
REMARK 927      BINDING AFFINITY PREDICTED BY RF-SCORE:    0.00 PKD
ROOT
HETATM    1  C   UNL     1     -11.408  15.825  69.682  1.00  0.00    -0.334 C  
HETATM    2  N   UNL     1     -11.981  14.679  69.011  1.00  0.00    -0.447 NA 
HETATM    3  H   UNL     1     -12.415  14.872  68.109  1.00  0.00     0.000 HD 
ENDROOT
BRANCH   2   4
HETATM    4  C   UNL     1     -12.023  13.357  69.420  1.00  0.00    -0.315 C  
HETATM    5  C   UNL     1     -12.640  13.050  70.581  1.00  0.00    -0.193 C  
HETATM    6  O   UNL     1     -12.289  10.754  70.466  1.00  0.00    -0.312 OA 
HETATM    7  N   UNL     1     -12.751  11.711  71.103  1.00  0.00    -0.370 N  
HETATM    8  O   UNL     1     -13.329  11.612  72.194  1.00  0.00    -0.491 OA 
BRANCH   4   9
HETATM    9  N   UNL     1     -11.410  12.408  68.621  1.00  0.00    -0.264 NA 
HETATM   10  H   UNL     1     -12.043  11.723  68.209  1.00  0.00     0.000 HD 
BRANCH   9  11
HETATM   11  C   UNL     1     -10.015  12.232  68.276  1.00  0.00    -0.216 C  
BRANCH  11  12
HETATM   12  C   UNL     1      -9.802  10.895  67.560  1.00  0.00    -0.168 C  
BRANCH  12  13
HETATM   13  S   UNL     1      -8.811  11.058  66.035  1.00  0.00    -0.191 SA 
BRANCH  13  14
HETATM   14  C   UNL     1     -10.156  11.169  64.807  1.00  0.00    -0.295 C  
BRANCH  14  15
HETATM   15  C   UNL     1     -10.925  12.435  64.971  1.00  0.00    -0.298 A  
HETATM   16  C   UNL     1     -12.291  12.561  65.122  1.00  0.00    -0.429 A  
HETATM   17  S   UNL     1     -12.716  14.211  65.287  1.00  0.00    -0.304 SA 
HETATM   18  C   UNL     1     -11.060  14.645  65.123  1.00  0.00    -0.377 A  
HETATM   19  N   UNL     1     -10.230  13.638  64.934  1.00  0.00    -0.366 NA 
BRANCH  18  20
HETATM   20  C   UNL     1     -10.634  16.093  65.162  1.00  0.00    -0.343 C  
BRANCH  20  21
HETATM   21  N   UNL     1      -9.982  16.502  66.427  1.00  0.00    -0.287 NA 
HETATM   22  C   UNL     1      -8.550  16.185  66.419  1.00  0.00    -0.330 C  
HETATM   23  C   UNL     1     -10.163  17.943  66.626  1.00  0.00    -0.371 C  
ENDBRANCH  20  21
ENDBRANCH  18  20
ENDBRANCH  14  15
ENDBRANCH  13  14
ENDBRANCH  12  13
ENDBRANCH  11  12
ENDBRANCH   9  11
ENDBRANCH   4   9
ENDBRANCH   2   4
TORSDOF 9
ENDMDL
MODEL       72
REMARK 921   NORMALIZED FREE ENERGY PREDICTED BY IDOCK:   -4.27 KCAL/MOL
REMARK 922        TOTAL FREE ENERGY PREDICTED BY IDOCK:   -7.57 KCAL/MOL
REMARK 923 INTER-LIGAND FREE ENERGY PREDICTED BY IDOCK:   -7.08 KCAL/MOL
REMARK 924 INTRA-LIGAND FREE ENERGY PREDICTED BY IDOCK:   -0.50 KCAL/MOL
REMARK 927      BINDING AFFINITY PREDICTED BY RF-SCORE:    0.00 PKD
ROOT
HETATM    1  C   UNL     1      -8.566   9.372  69.235  1.00  0.00    -0.143 C  
HETATM    2  N   UNL     1      -9.509  10.391  69.639  1.00  0.00    -0.401 NA 
HETATM    3  H   UNL     1      -9.120  11.327  69.751  1.00  0.00     0.000 HD 
ENDROOT
BRANCH   2   4
HETATM    4  C   UNL     1     -10.865  10.276  69.895  1.00  0.00    -0.302 C  
HETATM    5  C   UNL     1     -11.267   9.713  71.054  1.00  0.00    -0.375 C  
HETATM    6  O   UNL     1     -13.550   9.953  70.684  1.00  0.00    -0.183 OA 
HETATM    7  N   UNL     1     -12.649   9.546  71.430  1.00  0.00    -0.339 N  
HETATM    8  O   UNL     1     -12.840   8.988  72.518  1.00  0.00    -0.404 OA 
BRANCH   4   9
HETATM    9  N   UNL     1     -11.750  10.731  68.933  1.00  0.00    -0.442 NA 
HETATM   10  H   UNL     1     -12.406  10.029  68.590  1.00  0.00     0.000 HD 
BRANCH   9  11
HETATM   11  C   UNL     1     -11.894  12.042  68.336  1.00  0.00    -0.300 C  
BRANCH  11  12
HETATM   12  C   UNL     1     -11.425  12.025  66.878  1.00  0.00    -0.337 C  
BRANCH  12  13
HETATM   13  S   UNL     1     -12.165  13.364  65.881  1.00  0.00    -0.445 SA 
BRANCH  13  14
HETATM   14  C   UNL     1     -10.655  14.289  65.441  1.00  0.00    -0.354 C  
BRANCH  14  15
HETATM   15  C   UNL     1     -10.515  15.511  66.282  1.00  0.00    -0.307 A  
HETATM   16  C   UNL     1     -10.891  15.655  67.603  1.00  0.00    -0.307 A  
HETATM   17  S   UNL     1     -10.525  17.236  68.150  1.00  0.00    -0.390 SA 
HETATM   18  C   UNL     1      -9.914  17.625  66.590  1.00  0.00    -0.328 A  
HETATM   19  N   UNL     1      -9.991  16.658  65.698  1.00  0.00    -0.563 NA 
BRANCH  18  20
HETATM   20  C   UNL     1      -9.371  19.003  66.296  1.00  0.00    -0.298 C  
BRANCH  20  21
HETATM   21  N   UNL     1      -7.936  19.174  66.623  1.00  0.00    -0.260 NA 
HETATM   22  C   UNL     1      -7.242  19.956  65.594  1.00  0.00    -0.309 C  
HETATM   23  C   UNL     1      -7.808  19.847  67.918  1.00  0.00    -0.292 C  
ENDBRANCH  20  21
ENDBRANCH  18  20
ENDBRANCH  14  15
ENDBRANCH  13  14
ENDBRANCH  12  13
ENDBRANCH  11  12
ENDBRANCH   9  11
ENDBRANCH   4   9
ENDBRANCH   2   4
TORSDOF 9
ENDMDL
MODEL       73
REMARK 921   NORMALIZED FREE ENERGY PREDICTED BY IDOCK:   -4.26 KCAL/MOL
REMARK 922        TOTAL FREE ENERGY PREDICTED BY IDOCK:   -7.56 KCAL/MOL
REMARK 923 INTER-LIGAND FREE ENERGY PREDICTED BY IDOCK:   -6.99 KCAL/MOL
REMARK 924 INTRA-LIGAND FREE ENERGY PREDICTED BY IDOCK:   -0.56 KCAL/MOL
REMARK 927      BINDING AFFINITY PREDICTED BY RF-SCORE:    0.00 PKD
ROOT
HETATM    1  C   UNL     1     -10.849   6.300  68.315  1.00  0.00    -0.319 C  
HETATM    2  N   UNL     1     -11.756   6.620  69.395  1.00  0.00    -0.648 NA 
HETATM    3  H   UNL     1     -12.617   7.091  69.118  1.00  0.00     0.000 HD 
ENDROOT
BRANCH   2   4
HETATM    4  C   UNL     1     -11.621   6.377  70.751  1.00  0.00    -0.338 C  
HETATM    5  C   UNL     1     -10.607   5.597  71.179  1.00  0.00    -0.245 C  
HETATM    6  O   UNL     1     -11.093   5.754  73.448  1.00  0.00    -0.254 OA 
HETATM    7  N   UNL     1     -10.365   5.280  72.565  1.00  0.00    -0.194 N  
HETATM    8  O   UNL     1      -9.404   4.529  72.779  1.00  0.00    -0.126 OA 
BRANCH   4   9
HETATM    9  N   UNL     1     -12.552   6.937  71.608  1.00  0.00    -0.371 NA 
HETATM   10  H   UNL     1     -13.167   6.266  72.070  1.00  0.00     0.000 HD 
BRANCH   9  11
HETATM   11  C   UNL     1     -12.794   8.322  71.956  1.00  0.00    -0.340 C  
BRANCH  11  12
HETATM   12  C   UNL     1     -11.488   9.121  71.926  1.00  0.00    -0.353 C  
BRANCH  12  13
HETATM   13  S   UNL     1     -11.322  10.151  70.428  1.00  0.00    -0.344 SA 
BRANCH  13  14
HETATM   14  C   UNL     1     -12.493  11.487  70.844  1.00  0.00    -0.366 C  
BRANCH  14  15
HETATM   15  C   UNL     1     -12.139  12.748  70.132  1.00  0.00    -0.298 A  
HETATM   16  C   UNL     1     -12.294  14.036  70.602  1.00  0.00    -0.375 A  
HETATM   17  S   UNL     1     -11.737  15.160  69.436  1.00  0.00    -0.347 SA 
HETATM   18  C   UNL     1     -11.348  13.858  68.381  1.00  0.00    -0.285 A  
HETATM   19  N   UNL     1     -11.631  12.656  68.842  1.00  0.00    -0.296 NA 
BRANCH  18  20
HETATM   20  C   UNL     1     -10.761  14.122  67.015  1.00  0.00    -0.285 C  
BRANCH  20  21
HETATM   21  N   UNL     1     -11.397  13.354  65.920  1.00  0.00    -0.305 NA 
HETATM   22  C   UNL     1     -12.777  13.795  65.689  1.00  0.00    -0.478 C  
HETATM   23  C   UNL     1     -10.618  13.520  64.691  1.00  0.00    -0.427 C  
ENDBRANCH  20  21
ENDBRANCH  18  20
ENDBRANCH  14  15
ENDBRANCH  13  14
ENDBRANCH  12  13
ENDBRANCH  11  12
ENDBRANCH   9  11
ENDBRANCH   4   9
ENDBRANCH   2   4
TORSDOF 9
ENDMDL
MODEL       74
REMARK 921   NORMALIZED FREE ENERGY PREDICTED BY IDOCK:   -4.25 KCAL/MOL
REMARK 922        TOTAL FREE ENERGY PREDICTED BY IDOCK:   -7.56 KCAL/MOL
REMARK 923 INTER-LIGAND FREE ENERGY PREDICTED BY IDOCK:   -7.08 KCAL/MOL
REMARK 924 INTRA-LIGAND FREE ENERGY PREDICTED BY IDOCK:   -0.48 KCAL/MOL
REMARK 927      BINDING AFFINITY PREDICTED BY RF-SCORE:    0.00 PKD
ROOT
HETATM    1  C   UNL     1     -11.008  15.893  68.641  1.00  0.00    -0.320 C  
HETATM    2  N   UNL     1     -12.054  14.923  68.405  1.00  0.00    -0.573 NA 
HETATM    3  H   UNL     1     -12.840  14.961  69.053  1.00  0.00     0.000 HD 
ENDROOT
BRANCH   2   4
HETATM    4  C   UNL     1     -12.138  13.949  67.425  1.00  0.00    -0.345 C  
HETATM    5  C   UNL     1     -12.317  14.326  66.141  1.00  0.00    -0.387 C  
HETATM    6  O   UNL     1     -12.305  12.185  65.234  1.00  0.00    -0.513 OA 
HETATM    7  N   UNL     1     -12.414  13.403  65.037  1.00  0.00    -0.430 N  
HETATM    8  O   UNL     1     -12.601  13.919  63.928  1.00  0.00    -0.697 OA 
BRANCH   4   9
HETATM    9  N   UNL     1     -12.053  12.624  67.814  1.00  0.00    -0.366 NA 
HETATM   10  H   UNL     1     -12.621  11.979  67.265  1.00  0.00     0.000 HD 
BRANCH   9  11
HETATM   11  C   UNL     1     -11.286  12.005  68.875  1.00  0.00    -0.261 C  
BRANCH  11  12
HETATM   12  C   UNL     1     -12.024  10.783  69.431  1.00  0.00    -0.281 C  
BRANCH  12  13
HETATM   13  S   UNL     1     -12.597  11.024  71.148  1.00  0.00    -0.408 SA 
BRANCH  13  14
HETATM   14  C   UNL     1     -13.513   9.464  71.387  1.00  0.00    -0.332 C  
BRANCH  14  15
HETATM   15  C   UNL     1     -12.592   8.360  71.777  1.00  0.00    -0.342 A  
HETATM   16  C   UNL     1     -12.843   7.005  71.699  1.00  0.00    -0.364 A  
HETATM   17  S   UNL     1     -11.485   6.121  72.251  1.00  0.00    -0.308 SA 
HETATM   18  C   UNL     1     -10.667   7.598  72.578  1.00  0.00    -0.296 A  
HETATM   19  N   UNL     1     -11.356   8.692  72.319  1.00  0.00    -0.363 NA 
BRANCH  18  20
HETATM   20  C   UNL     1      -9.272   7.597  73.155  1.00  0.00    -0.216 C  
BRANCH  20  21
HETATM   21  N   UNL     1      -8.277   6.858  72.343  1.00  0.00    -0.104 NA 
HETATM   22  C   UNL     1      -7.703   7.710  71.296  1.00  0.00    -0.085 C  
HETATM   23  C   UNL     1      -7.207   6.363  73.213  1.00  0.00    -0.086 C  
ENDBRANCH  20  21
ENDBRANCH  18  20
ENDBRANCH  14  15
ENDBRANCH  13  14
ENDBRANCH  12  13
ENDBRANCH  11  12
ENDBRANCH   9  11
ENDBRANCH   4   9
ENDBRANCH   2   4
TORSDOF 9
ENDMDL
MODEL       75
REMARK 921   NORMALIZED FREE ENERGY PREDICTED BY IDOCK:   -4.25 KCAL/MOL
REMARK 922        TOTAL FREE ENERGY PREDICTED BY IDOCK:   -7.55 KCAL/MOL
REMARK 923 INTER-LIGAND FREE ENERGY PREDICTED BY IDOCK:   -7.23 KCAL/MOL
REMARK 924 INTRA-LIGAND FREE ENERGY PREDICTED BY IDOCK:   -0.32 KCAL/MOL
REMARK 927      BINDING AFFINITY PREDICTED BY RF-SCORE:    0.00 PKD
ROOT
HETATM    1  C   UNL     1      -9.017  10.663  65.375  1.00  0.00    -0.189 C  
HETATM    2  N   UNL     1      -9.439  12.046  65.368  1.00  0.00    -0.419 NA 
HETATM    3  H   UNL     1      -8.688  12.732  65.295  1.00  0.00     0.000 HD 
ENDROOT
BRANCH   2   4
HETATM    4  C   UNL     1     -10.718  12.570  65.446  1.00  0.00    -0.280 C  
HETATM    5  C   UNL     1     -11.052  13.606  64.648  1.00  0.00    -0.381 C  
HETATM    6  O   UNL     1     -13.252  13.799  65.372  1.00  0.00    -0.722 OA 
HETATM    7  N   UNL     1     -12.352  14.229  64.638  1.00  0.00    -0.436 N  
HETATM    8  O   UNL     1     -12.479  15.183  63.860  1.00  0.00    -0.768 OA 
BRANCH   4   9
HETATM    9  N   UNL     1     -11.596  12.013  66.360  1.00  0.00    -0.500 NA 
HETATM   10  H   UNL     1     -12.259  11.347  65.964  1.00  0.00     0.000 HD 
BRANCH   9  11
HETATM   11  C   UNL     1     -11.723  12.223  67.787  1.00  0.00    -0.337 C  
BRANCH  11  12
HETATM   12  C   UNL     1     -10.377  12.629  68.394  1.00  0.00    -0.235 C  
BRANCH  12  13
HETATM   13  S   UNL     1     -10.208  14.436  68.595  1.00  0.00    -0.245 SA 
BRANCH  13  14
HETATM   14  C   UNL     1      -8.636  14.698  67.707  1.00  0.00    -0.173 C  
BRANCH  14  15
HETATM   15  C   UNL     1      -8.058  16.033  68.029  1.00  0.00    -0.145 A  
HETATM   16  C   UNL     1      -6.756  16.306  68.394  1.00  0.00    -0.136 A  
HETATM   17  S   UNL     1      -6.557  17.987  68.655  1.00  0.00    -0.237 SA 
HETATM   18  C   UNL     1      -8.219  18.232  68.288  1.00  0.00    -0.298 A  
HETATM   19  N   UNL     1      -8.901  17.138  68.009  1.00  0.00    -0.224 NA 
BRANCH  18  20
HETATM   20  C   UNL     1      -8.823  19.615  68.332  1.00  0.00    -0.312 C  
BRANCH  20  21
HETATM   21  N   UNL     1      -9.061  20.218  67.000  1.00  0.00    -0.364 NA 
HETATM   22  C   UNL     1      -8.052  19.783  66.028  1.00  0.00    -0.322 C  
HETATM   23  C   UNL     1     -10.394  19.838  66.524  1.00  0.00    -0.506 C  
ENDBRANCH  20  21
ENDBRANCH  18  20
ENDBRANCH  14  15
ENDBRANCH  13  14
ENDBRANCH  12  13
ENDBRANCH  11  12
ENDBRANCH   9  11
ENDBRANCH   4   9
ENDBRANCH   2   4
TORSDOF 9
ENDMDL
MODEL       76
REMARK 921   NORMALIZED FREE ENERGY PREDICTED BY IDOCK:   -4.25 KCAL/MOL
REMARK 922        TOTAL FREE ENERGY PREDICTED BY IDOCK:   -7.55 KCAL/MOL
REMARK 923 INTER-LIGAND FREE ENERGY PREDICTED BY IDOCK:   -7.14 KCAL/MOL
REMARK 924 INTRA-LIGAND FREE ENERGY PREDICTED BY IDOCK:   -0.40 KCAL/MOL
REMARK 927      BINDING AFFINITY PREDICTED BY RF-SCORE:    0.00 PKD
ROOT
HETATM    1  C   UNL     1     -10.203   5.076  66.206  1.00  0.00    -0.273 C  
HETATM    2  N   UNL     1     -11.104   6.129  66.618  1.00  0.00    -0.759 NA 
HETATM    3  H   UNL     1     -11.821   6.383  65.939  1.00  0.00     0.000 HD 
ENDROOT
BRANCH   2   4
HETATM    4  C   UNL     1     -11.131   6.842  67.805  1.00  0.00    -0.201 C  
HETATM    5  C   UNL     1     -11.148   6.167  68.974  1.00  0.00    -0.367 C  
HETATM    6  O   UNL     1     -11.149   8.036  70.357  1.00  0.00    -0.250 OA 
HETATM    7  N   UNL     1     -11.172   6.801  70.269  1.00  0.00    -0.309 N  
HETATM    8  O   UNL     1     -11.210   6.031  71.238  1.00  0.00    -0.287 OA 
BRANCH   4   9
HETATM    9  N   UNL     1     -11.158   8.224  67.735  1.00  0.00    -0.390 NA 
HETATM   10  H   UNL     1     -11.910   8.664  68.265  1.00  0.00     0.000 HD 
BRANCH   9  11
HETATM   11  C   UNL     1     -10.290   9.144  67.030  1.00  0.00    -0.263 C  
BRANCH  11  12
HETATM   12  C   UNL     1     -10.630  10.592  67.396  1.00  0.00    -0.256 C  
BRANCH  12  13
HETATM   13  S   UNL     1     -10.940  11.638  65.932  1.00  0.00    -0.249 SA 
BRANCH  13  14
HETATM   14  C   UNL     1     -11.819  13.025  66.727  1.00  0.00    -0.388 C  
BRANCH  14  15
HETATM   15  C   UNL     1     -10.995  14.267  66.693  1.00  0.00    -0.310 A  
HETATM   16  C   UNL     1      -9.860  14.488  65.940  1.00  0.00    -0.321 A  
HETATM   17  S   UNL     1      -9.262  16.067  66.224  1.00  0.00    -0.357 SA 
HETATM   18  C   UNL     1     -10.538  16.339  67.345  1.00  0.00    -0.307 A  
HETATM   19  N   UNL     1     -11.355  15.320  67.526  1.00  0.00    -0.324 NA 
BRANCH  18  20
HETATM   20  C   UNL     1     -10.656  17.655  68.076  1.00  0.00    -0.376 C  
BRANCH  20  21
HETATM   21  N   UNL     1      -9.783  18.727  67.544  1.00  0.00    -0.300 NA 
HETATM   22  C   UNL     1     -10.547  19.696  66.752  1.00  0.00    -0.486 C  
HETATM   23  C   UNL     1      -9.123  19.415  68.657  1.00  0.00    -0.372 C  
ENDBRANCH  20  21
ENDBRANCH  18  20
ENDBRANCH  14  15
ENDBRANCH  13  14
ENDBRANCH  12  13
ENDBRANCH  11  12
ENDBRANCH   9  11
ENDBRANCH   4   9
ENDBRANCH   2   4
TORSDOF 9
ENDMDL
MODEL       77
REMARK 921   NORMALIZED FREE ENERGY PREDICTED BY IDOCK:   -4.24 KCAL/MOL
REMARK 922        TOTAL FREE ENERGY PREDICTED BY IDOCK:   -7.54 KCAL/MOL
REMARK 923 INTER-LIGAND FREE ENERGY PREDICTED BY IDOCK:   -6.97 KCAL/MOL
REMARK 924 INTRA-LIGAND FREE ENERGY PREDICTED BY IDOCK:   -0.57 KCAL/MOL
REMARK 927      BINDING AFFINITY PREDICTED BY RF-SCORE:    0.00 PKD
ROOT
HETATM    1  C   UNL     1      -9.237   8.024  73.137  1.00  0.00    -0.279 C  
HETATM    2  N   UNL     1      -9.610   8.752  71.945  1.00  0.00    -0.300 NA 
HETATM    3  H   UNL     1      -8.854   8.919  71.281  1.00  0.00     0.000 HD 
ENDROOT
BRANCH   2   4
HETATM    4  C   UNL     1     -10.846   9.256  71.578  1.00  0.00    -0.372 C  
HETATM    5  C   UNL     1     -11.954   8.780  72.186  1.00  0.00    -0.366 C  
HETATM    6  O   UNL     1     -13.474  10.127  71.054  1.00  0.00    -0.351 OA 
HETATM    7  N   UNL     1     -13.291   9.232  71.890  1.00  0.00    -0.399 N  
HETATM    8  O   UNL     1     -14.194   8.671  72.525  1.00  0.00    -0.440 OA 
BRANCH   4   9
HETATM    9  N   UNL     1     -10.889  10.218  70.584  1.00  0.00    -0.408 NA 
HETATM   10  H   UNL     1     -11.465  11.031  70.800  1.00  0.00     0.000 HD 
BRANCH   9  11
HETATM   11  C   UNL     1     -10.246  10.256  69.287  1.00  0.00    -0.227 C  
BRANCH  11  12
HETATM   12  C   UNL     1     -11.272  10.540  68.185  1.00  0.00    -0.293 C  
BRANCH  12  13
HETATM   13  S   UNL     1     -10.625  11.647  66.885  1.00  0.00    -0.252 SA 
BRANCH  13  14
HETATM   14  C   UNL     1     -11.972  12.877  66.833  1.00  0.00    -0.335 C  
BRANCH  14  15
HETATM   15  C   UNL     1     -11.690  14.015  67.754  1.00  0.00    -0.368 A  
HETATM   16  C   UNL     1     -11.721  13.991  69.133  1.00  0.00    -0.333 A  
HETATM   17  S   UNL     1     -11.318  15.533  69.759  1.00  0.00    -0.352 SA 
HETATM   18  C   UNL     1     -11.153  16.131  68.155  1.00  0.00    -0.332 A  
HETATM   19  N   UNL     1     -11.402  15.256  67.200  1.00  0.00    -0.294 NA 
BRANCH  18  20
HETATM   20  C   UNL     1     -10.785  17.573  67.903  1.00  0.00    -0.339 C  
BRANCH  20  21
HETATM   21  N   UNL     1      -9.536  18.007  68.570  1.00  0.00    -0.311 NA 
HETATM   22  C   UNL     1      -8.357  17.384  67.958  1.00  0.00    -0.231 C  
HETATM   23  C   UNL     1      -9.418  19.465  68.484  1.00  0.00    -0.389 C  
ENDBRANCH  20  21
ENDBRANCH  18  20
ENDBRANCH  14  15
ENDBRANCH  13  14
ENDBRANCH  12  13
ENDBRANCH  11  12
ENDBRANCH   9  11
ENDBRANCH   4   9
ENDBRANCH   2   4
TORSDOF 9
ENDMDL
MODEL       78
REMARK 921   NORMALIZED FREE ENERGY PREDICTED BY IDOCK:   -4.23 KCAL/MOL
REMARK 922        TOTAL FREE ENERGY PREDICTED BY IDOCK:   -7.52 KCAL/MOL
REMARK 923 INTER-LIGAND FREE ENERGY PREDICTED BY IDOCK:   -6.81 KCAL/MOL
REMARK 924 INTRA-LIGAND FREE ENERGY PREDICTED BY IDOCK:   -0.71 KCAL/MOL
REMARK 927      BINDING AFFINITY PREDICTED BY RF-SCORE:    0.00 PKD
ROOT
HETATM    1  C   UNL     1      -9.858  17.860  66.340  1.00  0.00    -0.337 C  
HETATM    2  N   UNL     1      -9.909  16.519  65.804  1.00  0.00    -0.519 NA 
HETATM    3  H   UNL     1      -9.037  16.174  65.403  1.00  0.00     0.000 HD 
ENDROOT
BRANCH   2   4
HETATM    4  C   UNL     1     -10.975  15.635  65.758  1.00  0.00    -0.248 C  
HETATM    5  C   UNL     1     -11.293  15.053  64.583  1.00  0.00    -0.352 C  
HETATM    6  O   UNL     1     -13.061  13.777  65.390  1.00  0.00    -0.727 OA 
HETATM    7  N   UNL     1     -12.375  14.115  64.416  1.00  0.00    -0.417 N  
HETATM    8  O   UNL     1     -12.543  13.696  63.263  1.00  0.00    -0.816 OA 
BRANCH   4   9
HETATM    9  N   UNL     1     -11.679  15.403  66.927  1.00  0.00    -0.000 NA 
HETATM   10  H   UNL     1     -12.692  15.370  66.816  1.00  0.00     0.000 HD 
BRANCH   9  11
HETATM   11  C   UNL     1     -11.208  15.198  68.281  1.00  0.00    -0.308 C  
BRANCH  11  12
HETATM   12  C   UNL     1     -11.164  13.705  68.616  1.00  0.00    -0.277 C  
BRANCH  12  13
HETATM   13  S   UNL     1      -9.706  12.864  67.907  1.00  0.00    -0.223 SA 
BRANCH  13  14
HETATM   14  C   UNL     1     -10.539  11.759  66.717  1.00  0.00    -0.238 C  
BRANCH  14  15
HETATM   15  C   UNL     1     -10.436  10.337  67.148  1.00  0.00    -0.254 A  
HETATM   16  C   UNL     1     -10.284   9.233  66.334  1.00  0.00    -0.228 A  
HETATM   17  S   UNL     1     -10.205   7.808  67.281  1.00  0.00    -0.302 SA 
HETATM   18  C   UNL     1     -10.401   8.754  68.704  1.00  0.00    -0.205 A  
HETATM   19  N   UNL     1     -10.541  10.050  68.504  1.00  0.00    -0.205 NA 
BRANCH  18  20
HETATM   20  C   UNL     1     -10.441   8.102  70.065  1.00  0.00    -0.231 C  
BRANCH  20  21
HETATM   21  N   UNL     1     -11.435   7.010  70.188  1.00  0.00    -0.279 NA 
HETATM   22  C   UNL     1     -10.782   5.712  70.386  1.00  0.00    -0.282 C  
HETATM   23  C   UNL     1     -12.326   7.286  71.317  1.00  0.00    -0.366 C  
ENDBRANCH  20  21
ENDBRANCH  18  20
ENDBRANCH  14  15
ENDBRANCH  13  14
ENDBRANCH  12  13
ENDBRANCH  11  12
ENDBRANCH   9  11
ENDBRANCH   4   9
ENDBRANCH   2   4
TORSDOF 9
ENDMDL
MODEL       79
REMARK 921   NORMALIZED FREE ENERGY PREDICTED BY IDOCK:   -4.23 KCAL/MOL
REMARK 922        TOTAL FREE ENERGY PREDICTED BY IDOCK:   -7.52 KCAL/MOL
REMARK 923 INTER-LIGAND FREE ENERGY PREDICTED BY IDOCK:   -6.90 KCAL/MOL
REMARK 924 INTRA-LIGAND FREE ENERGY PREDICTED BY IDOCK:   -0.61 KCAL/MOL
REMARK 927      BINDING AFFINITY PREDICTED BY RF-SCORE:    0.00 PKD
ROOT
HETATM    1  C   UNL     1     -12.160  15.407  64.207  1.00  0.00    -0.166 C  
HETATM    2  N   UNL     1     -12.406  14.054  63.757  1.00  0.00    -0.976 NA 
HETATM    3  H   UNL     1     -13.061  13.964  62.981  1.00  0.00     0.000 HD 
ENDROOT
BRANCH   2   4
HETATM    4  C   UNL     1     -11.878  12.865  64.231  1.00  0.00    -0.395 C  
HETATM    5  C   UNL     1     -11.013  12.178  63.457  1.00  0.00    -0.453 C  
HETATM    6  O   UNL     1     -10.629  10.448  64.962  1.00  0.00    -0.190 OA 
HETATM    7  N   UNL     1     -10.397  10.934  63.846  1.00  0.00    -0.356 N  
HETATM    8  O   UNL     1      -9.646  10.425  63.004  1.00  0.00    -0.313 OA 
BRANCH   4   9
HETATM    9  N   UNL     1     -12.280  12.427  65.481  1.00  0.00    -0.604 NA 
HETATM   10  H   UNL     1     -12.672  11.485  65.497  1.00  0.00     0.000 HD 
BRANCH   9  11
HETATM   11  C   UNL     1     -12.233  13.089  66.768  1.00  0.00    -0.194 C  
BRANCH  11  12
HETATM   12  C   UNL     1     -11.676  12.147  67.839  1.00  0.00    -0.336 C  
BRANCH  12  13
HETATM   13  S   UNL     1      -9.902  12.423  68.171  1.00  0.00    -0.214 SA 
BRANCH  13  14
HETATM   14  C   UNL     1      -9.552  13.706  66.922  1.00  0.00    -0.262 C  
BRANCH  14  15
HETATM   15  C   UNL     1      -9.175  14.993  67.571  1.00  0.00    -0.188 A  
HETATM   16  C   UNL     1      -8.079  15.224  68.379  1.00  0.00    -0.137 A  
HETATM   17  S   UNL     1      -8.054  16.859  68.886  1.00  0.00    -0.175 SA 
HETATM   18  C   UNL     1      -9.511  17.141  68.017  1.00  0.00    -0.262 A  
HETATM   19  N   UNL     1     -10.012  16.089  67.400  1.00  0.00    -0.238 NA 
BRANCH  18  20
HETATM   20  C   UNL     1     -10.158  18.506  68.018  1.00  0.00    -0.371 C  
BRANCH  20  21
HETATM   21  N   UNL     1      -9.650  19.421  66.970  1.00  0.00    -0.316 NA 
HETATM   22  C   UNL     1     -10.580  19.509  65.839  1.00  0.00    -0.476 C  
HETATM   23  C   UNL     1      -9.448  20.754  67.542  1.00  0.00    -0.279 C  
ENDBRANCH  20  21
ENDBRANCH  18  20
ENDBRANCH  14  15
ENDBRANCH  13  14
ENDBRANCH  12  13
ENDBRANCH  11  12
ENDBRANCH   9  11
ENDBRANCH   4   9
ENDBRANCH   2   4
TORSDOF 9
ENDMDL
MODEL       80
REMARK 921   NORMALIZED FREE ENERGY PREDICTED BY IDOCK:   -4.23 KCAL/MOL
REMARK 922        TOTAL FREE ENERGY PREDICTED BY IDOCK:   -7.51 KCAL/MOL
REMARK 923 INTER-LIGAND FREE ENERGY PREDICTED BY IDOCK:   -5.97 KCAL/MOL
REMARK 924 INTRA-LIGAND FREE ENERGY PREDICTED BY IDOCK:   -1.54 KCAL/MOL
REMARK 927      BINDING AFFINITY PREDICTED BY RF-SCORE:    0.00 PKD
ROOT
HETATM    1  C   UNL     1     -11.631  14.200  68.526  1.00  0.00    -0.316 C  
HETATM    2  N   UNL     1     -10.976  14.042  67.247  1.00  0.00    -0.290 NA 
HETATM    3  H   UNL     1     -10.308  13.274  67.190  1.00  0.00     0.000 HD 
ENDROOT
BRANCH   2   4
HETATM    4  C   UNL     1     -11.127  14.786  66.089  1.00  0.00    -0.339 C  
HETATM    5  C   UNL     1     -10.782  16.091  66.099  1.00  0.00    -0.244 C  
HETATM    6  O   UNL     1     -11.295  16.515  63.871  1.00  0.00    -1.057 OA 
HETATM    7  N   UNL     1     -10.891  16.961  64.954  1.00  0.00    -0.169 N  
HETATM    8  O   UNL     1     -10.553  18.136  65.146  1.00  0.00    -0.503 OA 
BRANCH   4   9
HETATM    9  N   UNL     1     -11.646  14.154  64.972  1.00  0.00    -0.345 NA 
HETATM   10  H   UNL     1     -11.160  14.360  64.100  1.00  0.00     0.000 HD 
BRANCH   9  11
HETATM   11  C   UNL     1     -12.769  13.249  64.844  1.00  0.00    -0.327 C  
BRANCH  11  12
HETATM   12  C   UNL     1     -12.355  11.980  64.092  1.00  0.00    -0.350 C  
BRANCH  12  13
HETATM   13  S   UNL     1     -10.543  11.799  63.955  1.00  0.00    -0.419 SA 
BRANCH  13  14
HETATM   14  C   UNL     1     -10.293  10.373  65.065  1.00  0.00    -0.179 C  
BRANCH  14  15
HETATM   15  C   UNL     1      -9.464  10.754  66.244  1.00  0.00    -0.181 A  
HETATM   16  C   UNL     1      -9.311  10.040  67.415  1.00  0.00    -0.148 A  
HETATM   17  S   UNL     1      -8.253  10.869  68.477  1.00  0.00    -0.146 SA 
HETATM   18  C   UNL     1      -8.091  12.129  67.317  1.00  0.00    -0.176 A  
HETATM   19  N   UNL     1      -8.792  11.970  66.211  1.00  0.00    -0.132 NA 
BRANCH  18  20
HETATM   20  C   UNL     1      -7.225  13.333  67.602  1.00  0.00    -0.162 C  
BRANCH  20  21
HETATM   21  N   UNL     1      -7.980  14.591  67.803  1.00  0.00    -0.144 NA 
HETATM   22  C   UNL     1      -8.085  14.930  69.227  1.00  0.00    -0.135 C  
HETATM   23  C   UNL     1      -7.310  15.681  67.089  1.00  0.00    -0.212 C  
ENDBRANCH  20  21
ENDBRANCH  18  20
ENDBRANCH  14  15
ENDBRANCH  13  14
ENDBRANCH  12  13
ENDBRANCH  11  12
ENDBRANCH   9  11
ENDBRANCH   4   9
ENDBRANCH   2   4
TORSDOF 9
ENDMDL
MODEL       81
REMARK 921   NORMALIZED FREE ENERGY PREDICTED BY IDOCK:   -4.21 KCAL/MOL
REMARK 922        TOTAL FREE ENERGY PREDICTED BY IDOCK:   -7.49 KCAL/MOL
REMARK 923 INTER-LIGAND FREE ENERGY PREDICTED BY IDOCK:   -6.36 KCAL/MOL
REMARK 924 INTRA-LIGAND FREE ENERGY PREDICTED BY IDOCK:   -1.14 KCAL/MOL
REMARK 927      BINDING AFFINITY PREDICTED BY RF-SCORE:    0.00 PKD
ROOT
HETATM    1  C   UNL     1     -12.035  14.011  68.917  1.00  0.00    -0.352 C  
HETATM    2  N   UNL     1     -12.532  14.293  67.588  1.00  0.00    -0.513 NA 
HETATM    3  H   UNL     1     -13.433  14.768  67.550  1.00  0.00     0.000 HD 
ENDROOT
BRANCH   2   4
HETATM    4  C   UNL     1     -11.956  14.010  66.361  1.00  0.00    -0.438 C  
HETATM    5  C   UNL     1     -12.618  13.213  65.496  1.00  0.00    -0.408 C  
HETATM    6  O   UNL     1     -11.038  13.305  63.793  1.00  0.00    -0.320 OA 
HETATM    7  N   UNL     1     -12.120  12.854  64.191  1.00  0.00    -0.405 N  
HETATM    8  O   UNL     1     -12.845  12.093  63.536  1.00  0.00    -0.768 OA 
BRANCH   4   9
HETATM    9  N   UNL     1     -10.711  14.549  66.086  1.00  0.00    -0.303 NA 
HETATM   10  H   UNL     1      -9.947  13.873  66.072  1.00  0.00     0.000 HD 
BRANCH   9  11
HETATM   11  C   UNL     1     -10.320  15.916  65.814  1.00  0.00    -0.376 C  
BRANCH  11  12
HETATM   12  C   UNL     1      -8.941  16.211  66.413  1.00  0.00    -0.318 C  
BRANCH  12  13
HETATM   13  S   UNL     1      -8.665  15.362  68.005  1.00  0.00    -0.162 SA 
BRANCH  13  14
HETATM   14  C   UNL     1      -7.340  14.209  67.512  1.00  0.00    -0.175 C  
BRANCH  14  15
HETATM   15  C   UNL     1      -7.781  12.793  67.664  1.00  0.00    -0.162 A  
HETATM   16  C   UNL     1      -7.025  11.661  67.437  1.00  0.00    -0.117 A  
HETATM   17  S   UNL     1      -7.956  10.259  67.752  1.00  0.00    -0.102 SA 
HETATM   18  C   UNL     1      -9.303  11.252  68.145  1.00  0.00    -0.181 A  
HETATM   19  N   UNL     1      -9.098  12.549  68.032  1.00  0.00    -0.194 NA 
BRANCH  18  20
HETATM   20  C   UNL     1     -10.622  10.638  68.551  1.00  0.00    -0.200 C  
BRANCH  20  21
HETATM   21  N   UNL     1     -10.668  10.167  69.955  1.00  0.00    -0.275 NA 
HETATM   22  C   UNL     1     -11.895  10.608  70.627  1.00  0.00    -0.363 C  
HETATM   23  C   UNL     1     -10.594   8.704  69.982  1.00  0.00    -0.227 C  
ENDBRANCH  20  21
ENDBRANCH  18  20
ENDBRANCH  14  15
ENDBRANCH  13  14
ENDBRANCH  12  13
ENDBRANCH  11  12
ENDBRANCH   9  11
ENDBRANCH   4   9
ENDBRANCH   2   4
TORSDOF 9
ENDMDL
MODEL       82
REMARK 921   NORMALIZED FREE ENERGY PREDICTED BY IDOCK:   -4.19 KCAL/MOL
REMARK 922        TOTAL FREE ENERGY PREDICTED BY IDOCK:   -7.46 KCAL/MOL
REMARK 923 INTER-LIGAND FREE ENERGY PREDICTED BY IDOCK:   -6.98 KCAL/MOL
REMARK 924 INTRA-LIGAND FREE ENERGY PREDICTED BY IDOCK:   -0.48 KCAL/MOL
REMARK 927      BINDING AFFINITY PREDICTED BY RF-SCORE:    0.00 PKD
ROOT
HETATM    1  C   UNL     1      -8.122  15.963  68.211  1.00  0.00    -0.144 C  
HETATM    2  N   UNL     1      -8.922  15.725  67.030  1.00  0.00    -0.211 NA 
HETATM    3  H   UNL     1      -8.958  14.756  66.714  1.00  0.00     0.000 HD 
ENDROOT
BRANCH   2   4
HETATM    4  C   UNL     1      -9.646  16.627  66.269  1.00  0.00    -0.299 C  
HETATM    5  C   UNL     1      -9.798  17.890  66.718  1.00  0.00    -0.333 C  
HETATM    6  O   UNL     1     -11.032  18.666  64.906  1.00  0.00    -0.494 OA 
HETATM    7  N   UNL     1     -10.525  18.914  66.009  1.00  0.00    -0.471 N  
HETATM    8  O   UNL     1     -10.587  20.012  66.577  1.00  0.00    -0.448 OA 
BRANCH   4   9
HETATM    9  N   UNL     1     -10.199  16.179  65.081  1.00  0.00    -0.542 NA 
HETATM   10  H   UNL     1     -10.250  16.881  64.342  1.00  0.00     0.000 HD 
BRANCH   9  11
HETATM   11  C   UNL     1     -10.716  14.876  64.719  1.00  0.00    -0.341 C  
BRANCH  11  12
HETATM   12  C   UNL     1     -11.936  14.524  65.575  1.00  0.00    -0.312 C  
BRANCH  12  13
HETATM   13  S   UNL     1     -11.995  12.757  66.030  1.00  0.00    -0.398 SA 
BRANCH  13  14
HETATM   14  C   UNL     1     -11.852  12.902  67.843  1.00  0.00    -0.339 C  
BRANCH  14  15
HETATM   15  C   UNL     1     -11.436  11.607  68.451  1.00  0.00    -0.297 A  
HETATM   16  C   UNL     1     -10.551  10.689  67.921  1.00  0.00    -0.228 A  
HETATM   17  S   UNL     1     -10.378   9.357  68.982  1.00  0.00    -0.214 SA 
HETATM   18  C   UNL     1     -11.506  10.079  70.060  1.00  0.00    -0.248 A  
HETATM   19  N   UNL     1     -12.009  11.231  69.660  1.00  0.00    -0.334 NA 
BRANCH  18  20
HETATM   20  C   UNL     1     -11.894   9.390  71.346  1.00  0.00    -0.374 C  
BRANCH  20  21
HETATM   21  N   UNL     1     -11.228   8.085  71.563  1.00  0.00    -0.248 NA 
HETATM   22  C   UNL     1     -10.465   8.076  72.816  1.00  0.00    -0.345 C  
HETATM   23  C   UNL     1     -12.235   7.022  71.595  1.00  0.00    -0.357 C  
ENDBRANCH  20  21
ENDBRANCH  18  20
ENDBRANCH  14  15
ENDBRANCH  13  14
ENDBRANCH  12  13
ENDBRANCH  11  12
ENDBRANCH   9  11
ENDBRANCH   4   9
ENDBRANCH   2   4
TORSDOF 9
ENDMDL
MODEL       83
REMARK 921   NORMALIZED FREE ENERGY PREDICTED BY IDOCK:   -4.17 KCAL/MOL
REMARK 922        TOTAL FREE ENERGY PREDICTED BY IDOCK:   -7.43 KCAL/MOL
REMARK 923 INTER-LIGAND FREE ENERGY PREDICTED BY IDOCK:   -6.88 KCAL/MOL
REMARK 924 INTRA-LIGAND FREE ENERGY PREDICTED BY IDOCK:   -0.55 KCAL/MOL
REMARK 927      BINDING AFFINITY PREDICTED BY RF-SCORE:    0.00 PKD
ROOT
HETATM    1  C   UNL     1     -12.722  11.933  63.475  1.00  0.00    -0.405 C  
HETATM    2  N   UNL     1     -12.426  12.427  64.801  1.00  0.00    -0.512 NA 
HETATM    3  H   UNL     1     -12.788  11.862  65.569  1.00  0.00     0.000 HD 
ENDROOT
BRANCH   2   4
HETATM    4  C   UNL     1     -11.720  13.557  65.176  1.00  0.00    -0.322 C  
HETATM    5  C   UNL     1     -11.892  14.699  64.477  1.00  0.00    -0.431 C  
HETATM    6  O   UNL     1     -10.444  16.004  65.744  1.00  0.00    -0.339 OA 
HETATM    7  N   UNL     1     -11.216  15.937  64.778  1.00  0.00    -0.411 N  
HETATM    8  O   UNL     1     -11.472  16.881  64.019  1.00  0.00    -1.130 OA 
BRANCH   4   9
HETATM    9  N   UNL     1     -10.851  13.457  66.249  1.00  0.00    -0.287 NA 
HETATM   10  H   UNL     1     -10.558  14.349  66.647  1.00  0.00     0.000 HD 
BRANCH   9  11
HETATM   11  C   UNL     1     -10.291  12.288  66.896  1.00  0.00    -0.216 C  
BRANCH  11  12
HETATM   12  C   UNL     1      -8.922  11.946  66.299  1.00  0.00    -0.157 C  
BRANCH  12  13
HETATM   13  S   UNL     1      -8.327  10.293  66.796  1.00  0.00    -0.125 SA 
BRANCH  13  14
HETATM   14  C   UNL     1      -9.627   9.259  66.040  1.00  0.00    -0.270 C  
BRANCH  14  15
HETATM   15  C   UNL     1     -10.015   8.143  66.948  1.00  0.00    -0.273 A  
HETATM   16  C   UNL     1     -10.356   6.857  66.581  1.00  0.00    -0.144 A  
HETATM   17  S   UNL     1     -10.716   5.923  67.970  1.00  0.00    -0.222 SA 
HETATM   18  C   UNL     1     -10.417   7.297  68.960  1.00  0.00    -0.211 A  
HETATM   19  N   UNL     1     -10.091   8.398  68.312  1.00  0.00    -0.192 NA 
BRANCH  18  20
HETATM   20  C   UNL     1     -10.567   7.215  70.460  1.00  0.00    -0.225 C  
BRANCH  20  21
HETATM   21  N   UNL     1     -11.656   8.055  71.011  1.00  0.00    -0.284 NA 
HETATM   22  C   UNL     1     -12.724   7.234  71.591  1.00  0.00    -0.375 C  
HETATM   23  C   UNL     1     -11.112   8.948  72.037  1.00  0.00    -0.351 C  
ENDBRANCH  20  21
ENDBRANCH  18  20
ENDBRANCH  14  15
ENDBRANCH  13  14
ENDBRANCH  12  13
ENDBRANCH  11  12
ENDBRANCH   9  11
ENDBRANCH   4   9
ENDBRANCH   2   4
TORSDOF 9
ENDMDL
MODEL       84
REMARK 921   NORMALIZED FREE ENERGY PREDICTED BY IDOCK:   -4.17 KCAL/MOL
REMARK 922        TOTAL FREE ENERGY PREDICTED BY IDOCK:   -7.43 KCAL/MOL
REMARK 923 INTER-LIGAND FREE ENERGY PREDICTED BY IDOCK:   -6.71 KCAL/MOL
REMARK 924 INTRA-LIGAND FREE ENERGY PREDICTED BY IDOCK:   -0.72 KCAL/MOL
REMARK 927      BINDING AFFINITY PREDICTED BY RF-SCORE:    0.00 PKD
ROOT
HETATM    1  C   UNL     1     -12.856  11.756  63.488  1.00  0.00    -0.220 C  
HETATM    2  N   UNL     1     -12.981  12.651  64.616  1.00  0.00    -0.844 NA 
HETATM    3  H   UNL     1     -13.838  12.553  65.159  1.00  0.00     0.000 HD 
ENDROOT
BRANCH   2   4
HETATM    4  C   UNL     1     -12.102  13.623  65.063  1.00  0.00    -0.392 C  
HETATM    5  C   UNL     1     -12.109  14.835  64.470  1.00  0.00    -0.446 C  
HETATM    6  O   UNL     1     -10.453  15.786  65.797  1.00  0.00    -0.324 OA 
HETATM    7  N   UNL     1     -11.244  15.924  64.854  1.00  0.00    -0.377 N  
HETATM    8  O   UNL     1     -11.366  16.960  64.188  1.00  0.00    -1.208 OA 
BRANCH   4   9
HETATM    9  N   UNL     1     -11.238  13.295  66.094  1.00  0.00    -0.292 NA 
HETATM   10  H   UNL     1     -10.394  13.865  66.142  1.00  0.00     0.000 HD 
BRANCH   9  11
HETATM   11  C   UNL     1     -11.342  12.274  67.116  1.00  0.00    -0.335 C  
BRANCH  11  12
HETATM   12  C   UNL     1     -10.601  11.005  66.686  1.00  0.00    -0.262 C  
BRANCH  12  13
HETATM   13  S   UNL     1      -9.287  10.521  67.857  1.00  0.00    -0.144 SA 
BRANCH  13  14
HETATM   14  C   UNL     1      -7.890  11.464  67.157  1.00  0.00    -0.156 C  
BRANCH  14  15
HETATM   15  C   UNL     1      -7.581  12.658  67.994  1.00  0.00    -0.132 A  
HETATM   16  C   UNL     1      -6.674  12.730  69.031  1.00  0.00    -0.096 A  
HETATM   17  S   UNL     1      -6.655  14.311  69.689  1.00  0.00    -0.118 SA 
HETATM   18  C   UNL     1      -7.868  14.783  68.566  1.00  0.00    -0.130 A  
HETATM   19  N   UNL     1      -8.290  13.829  67.758  1.00  0.00    -0.165 NA 
BRANCH  18  20
HETATM   20  C   UNL     1      -8.411  16.192  68.564  1.00  0.00    -0.197 C  
BRANCH  20  21
HETATM   21  N   UNL     1      -9.885  16.276  68.682  1.00  0.00    -0.222 NA 
HETATM   22  C   UNL     1     -10.344  15.818  69.998  1.00  0.00    -0.278 C  
HETATM   23  C   UNL     1     -10.313  17.662  68.470  1.00  0.00    -0.370 C  
ENDBRANCH  20  21
ENDBRANCH  18  20
ENDBRANCH  14  15
ENDBRANCH  13  14
ENDBRANCH  12  13
ENDBRANCH  11  12
ENDBRANCH   9  11
ENDBRANCH   4   9
ENDBRANCH   2   4
TORSDOF 9
ENDMDL
MODEL       85
REMARK 921   NORMALIZED FREE ENERGY PREDICTED BY IDOCK:   -4.17 KCAL/MOL
REMARK 922        TOTAL FREE ENERGY PREDICTED BY IDOCK:   -7.42 KCAL/MOL
REMARK 923 INTER-LIGAND FREE ENERGY PREDICTED BY IDOCK:   -7.04 KCAL/MOL
REMARK 924 INTRA-LIGAND FREE ENERGY PREDICTED BY IDOCK:   -0.38 KCAL/MOL
REMARK 927      BINDING AFFINITY PREDICTED BY RF-SCORE:    0.00 PKD
ROOT
HETATM    1  C   UNL     1     -10.663   9.472  68.034  1.00  0.00    -0.212 C  
HETATM    2  N   UNL     1     -11.696  10.466  68.228  1.00  0.00    -0.741 NA 
HETATM    3  H   UNL     1     -12.144  10.802  67.376  1.00  0.00     0.000 HD 
ENDROOT
BRANCH   2   4
HETATM    4  C   UNL     1     -12.162  11.024  69.406  1.00  0.00    -0.259 C  
HETATM    5  C   UNL     1     -12.641  10.212  70.372  1.00  0.00    -0.145 C  
HETATM    6  O   UNL     1     -13.134  11.889  71.905  1.00  0.00    -0.458 OA 
HETATM    7  N   UNL     1     -13.147  10.679  71.638  1.00  0.00    -0.447 N  
HETATM    8  O   UNL     1     -13.571   9.799  72.399  1.00  0.00    -0.407 OA 
BRANCH   4   9
HETATM    9  N   UNL     1     -12.130  12.403  69.530  1.00  0.00    -0.236 NA 
HETATM   10  H   UNL     1     -12.962  12.813  69.956  1.00  0.00     0.000 HD 
BRANCH   9  11
HETATM   11  C   UNL     1     -11.107  13.355  69.154  1.00  0.00    -0.213 C  
BRANCH  11  12
HETATM   12  C   UNL     1     -11.678  14.413  68.205  1.00  0.00    -0.342 C  
BRANCH  12  13
HETATM   13  S   UNL     1     -11.239  16.116  68.696  1.00  0.00    -0.359 SA 
BRANCH  13  14
HETATM   14  C   UNL     1     -10.646  16.754  67.093  1.00  0.00    -0.256 C  
BRANCH  14  15
HETATM   15  C   UNL     1      -9.601  17.798  67.289  1.00  0.00    -0.272 A  
HETATM   16  C   UNL     1      -9.222  18.377  68.483  1.00  0.00    -0.328 A  
HETATM   17  S   UNL     1      -7.975  19.519  68.215  1.00  0.00    -0.333 SA 
HETATM   18  C   UNL     1      -8.041  19.183  66.530  1.00  0.00    -0.298 A  
HETATM   19  N   UNL     1      -8.946  18.294  66.168  1.00  0.00    -0.498 NA 
BRANCH  18  20
HETATM   20  C   UNL     1      -7.134  19.905  65.563  1.00  0.00    -0.302 C  
BRANCH  20  21
HETATM   21  N   UNL     1      -6.292  19.011  64.735  1.00  0.00    -0.488 NA 
HETATM   22  C   UNL     1      -5.432  19.776  63.826  1.00  0.00    -0.253 C  
HETATM   23  C   UNL     1      -5.461  18.177  65.608  1.00  0.00    -0.193 C  
ENDBRANCH  20  21
ENDBRANCH  18  20
ENDBRANCH  14  15
ENDBRANCH  13  14
ENDBRANCH  12  13
ENDBRANCH  11  12
ENDBRANCH   9  11
ENDBRANCH   4   9
ENDBRANCH   2   4
TORSDOF 9
ENDMDL
MODEL       86
REMARK 921   NORMALIZED FREE ENERGY PREDICTED BY IDOCK:   -4.17 KCAL/MOL
REMARK 922        TOTAL FREE ENERGY PREDICTED BY IDOCK:   -7.42 KCAL/MOL
REMARK 923 INTER-LIGAND FREE ENERGY PREDICTED BY IDOCK:   -5.96 KCAL/MOL
REMARK 924 INTRA-LIGAND FREE ENERGY PREDICTED BY IDOCK:   -1.46 KCAL/MOL
REMARK 927      BINDING AFFINITY PREDICTED BY RF-SCORE:    0.00 PKD
ROOT
HETATM    1  C   UNL     1     -12.742  13.486  65.622  1.00  0.00    -0.421 C  
HETATM    2  N   UNL     1     -11.838  12.526  66.214  1.00  0.00    -0.505 NA 
HETATM    3  H   UNL     1     -11.891  12.444  67.229  1.00  0.00     0.000 HD 
ENDROOT
BRANCH   2   4
HETATM    4  C   UNL     1     -10.911  11.702  65.599  1.00  0.00    -0.266 C  
HETATM    5  C   UNL     1     -10.451  12.034  64.374  1.00  0.00    -0.312 C  
HETATM    6  O   UNL     1      -9.001  10.231  64.141  1.00  0.00    -0.197 OA 
HETATM    7  N   UNL     1      -9.483  11.257  63.640  1.00  0.00    -0.236 N  
HETATM    8  O   UNL     1      -9.189  11.694  62.520  1.00  0.00    -0.302 OA 
BRANCH   4   9
HETATM    9  N   UNL     1     -10.511  10.558  66.267  1.00  0.00    -0.215 NA 
HETATM   10  H   UNL     1     -10.704   9.686  65.775  1.00  0.00     0.000 HD 
BRANCH   9  11
HETATM   11  C   UNL     1      -9.863  10.401  67.553  1.00  0.00    -0.172 C  
BRANCH  11  12
HETATM   12  C   UNL     1     -10.702   9.511  68.474  1.00  0.00    -0.182 C  
BRANCH  12  13
HETATM   13  S   UNL     1     -10.822  10.167  70.174  1.00  0.00    -0.314 SA 
BRANCH  13  14
HETATM   14  C   UNL     1     -12.379  11.108  70.031  1.00  0.00    -0.279 C  
BRANCH  14  15
HETATM   15  C   UNL     1     -12.122  12.574  70.082  1.00  0.00    -0.292 A  
HETATM   16  C   UNL     1     -12.647  13.477  70.984  1.00  0.00    -0.359 A  
HETATM   17  S   UNL     1     -12.057  15.051  70.655  1.00  0.00    -0.353 SA 
HETATM   18  C   UNL     1     -11.165  14.428  69.323  1.00  0.00    -0.275 A  
HETATM   19  N   UNL     1     -11.303  13.134  69.108  1.00  0.00    -0.279 NA 
BRANCH  18  20
HETATM   20  C   UNL     1     -10.324  15.341  68.464  1.00  0.00    -0.231 C  
BRANCH  20  21
HETATM   21  N   UNL     1      -9.896  14.744  67.177  1.00  0.00    -0.230 NA 
HETATM   22  C   UNL     1     -10.005  15.708  66.077  1.00  0.00    -0.333 C  
HETATM   23  C   UNL     1      -8.510  14.283  67.290  1.00  0.00    -0.210 C  
ENDBRANCH  20  21
ENDBRANCH  18  20
ENDBRANCH  14  15
ENDBRANCH  13  14
ENDBRANCH  12  13
ENDBRANCH  11  12
ENDBRANCH   9  11
ENDBRANCH   4   9
ENDBRANCH   2   4
TORSDOF 9
ENDMDL
MODEL       87
REMARK 921   NORMALIZED FREE ENERGY PREDICTED BY IDOCK:   -4.16 KCAL/MOL
REMARK 922        TOTAL FREE ENERGY PREDICTED BY IDOCK:   -7.42 KCAL/MOL
REMARK 923 INTER-LIGAND FREE ENERGY PREDICTED BY IDOCK:   -6.79 KCAL/MOL
REMARK 924 INTRA-LIGAND FREE ENERGY PREDICTED BY IDOCK:   -0.62 KCAL/MOL
REMARK 927      BINDING AFFINITY PREDICTED BY RF-SCORE:    0.00 PKD
ROOT
HETATM    1  C   UNL     1      -9.082  10.535  62.470  1.00  0.00    -0.292 C  
HETATM    2  N   UNL     1      -9.692  11.667  63.131  1.00  0.00    -0.492 NA 
HETATM    3  H   UNL     1      -9.556  12.567  62.671  1.00  0.00     0.000 HD 
ENDROOT
BRANCH   2   4
HETATM    4  C   UNL     1     -10.434  11.702  64.299  1.00  0.00    -0.331 C  
HETATM    5  C   UNL     1     -11.174  12.797  64.572  1.00  0.00    -0.333 C  
HETATM    6  O   UNL     1     -12.062  12.022  66.576  1.00  0.00    -0.617 OA 
HETATM    7  N   UNL     1     -11.989  12.944  65.752  1.00  0.00    -0.421 N  
HETATM    8  O   UNL     1     -12.584  14.025  65.857  1.00  0.00    -0.488 OA 
BRANCH   4   9
HETATM    9  N   UNL     1     -10.367  10.610  65.146  1.00  0.00    -0.289 NA 
HETATM   10  H   UNL     1     -11.206  10.031  65.165  1.00  0.00     0.000 HD 
BRANCH   9  11
HETATM   11  C   UNL     1      -9.297  10.157  66.011  1.00  0.00    -0.169 C  
BRANCH  11  12
HETATM   12  C   UNL     1      -8.308  11.295  66.285  1.00  0.00    -0.142 C  
BRANCH  12  13
HETATM   13  S   UNL     1      -8.746  12.272  67.764  1.00  0.00    -0.184 SA 
BRANCH  13  14
HETATM   14  C   UNL     1      -8.649  13.953  67.061  1.00  0.00    -0.172 C  
BRANCH  14  15
HETATM   15  C   UNL     1      -9.509  14.900  67.825  1.00  0.00    -0.203 A  
HETATM   16  C   UNL     1     -10.551  14.576  68.670  1.00  0.00    -0.255 A  
HETATM   17  S   UNL     1     -11.238  15.998  69.330  1.00  0.00    -0.352 SA 
HETATM   18  C   UNL     1     -10.120  16.946  68.431  1.00  0.00    -0.304 A  
HETATM   19  N   UNL     1      -9.293  16.263  67.663  1.00  0.00    -0.217 NA 
BRANCH  18  20
HETATM   20  C   UNL     1     -10.143  18.453  68.515  1.00  0.00    -0.384 C  
BRANCH  20  21
HETATM   21  N   UNL     1      -9.644  19.139  67.300  1.00  0.00    -0.308 NA 
HETATM   22  C   UNL     1     -10.364  18.695  66.101  1.00  0.00    -0.443 C  
HETATM   23  C   UNL     1      -9.803  20.587  67.457  1.00  0.00    -0.394 C  
ENDBRANCH  20  21
ENDBRANCH  18  20
ENDBRANCH  14  15
ENDBRANCH  13  14
ENDBRANCH  12  13
ENDBRANCH  11  12
ENDBRANCH   9  11
ENDBRANCH   4   9
ENDBRANCH   2   4
TORSDOF 9
ENDMDL
MODEL       88
REMARK 921   NORMALIZED FREE ENERGY PREDICTED BY IDOCK:   -4.14 KCAL/MOL
REMARK 922        TOTAL FREE ENERGY PREDICTED BY IDOCK:   -7.39 KCAL/MOL
REMARK 923 INTER-LIGAND FREE ENERGY PREDICTED BY IDOCK:   -7.10 KCAL/MOL
REMARK 924 INTRA-LIGAND FREE ENERGY PREDICTED BY IDOCK:   -0.29 KCAL/MOL
REMARK 927      BINDING AFFINITY PREDICTED BY RF-SCORE:    0.00 PKD
ROOT
HETATM    1  C   UNL     1     -13.744   9.163  71.974  1.00  0.00    -0.448 C  
HETATM    2  N   UNL     1     -12.354   9.561  71.956  1.00  0.00    -0.356 NA 
HETATM    3  H   UNL     1     -11.953   9.792  72.865  1.00  0.00     0.000 HD 
ENDROOT
BRANCH   2   4
HETATM    4  C   UNL     1     -11.490   9.674  70.880  1.00  0.00    -0.353 C  
HETATM    5  C   UNL     1     -11.001   8.552  70.311  1.00  0.00    -0.235 C  
HETATM    6  O   UNL     1      -9.753   9.614  68.662  1.00  0.00    -0.150 OA 
HETATM    7  N   UNL     1     -10.101   8.547  69.185  1.00  0.00    -0.197 N  
HETATM    8  O   UNL     1      -9.732   7.428  68.805  1.00  0.00    -0.147 OA 
BRANCH   4   9
HETATM    9  N   UNL     1     -11.153  10.945  70.446  1.00  0.00    -0.459 NA 
HETATM   10  H   UNL     1     -10.160  11.168  70.508  1.00  0.00     0.000 HD 
BRANCH   9  11
HETATM   11  C   UNL     1     -11.984  12.007  69.918  1.00  0.00    -0.318 C  
BRANCH  11  12
HETATM   12  C   UNL     1     -12.331  13.016  71.017  1.00  0.00    -0.244 C  
BRANCH  12  13
HETATM   13  S   UNL     1     -12.506  14.720  70.385  1.00  0.00    -0.345 SA 
BRANCH  13  14
HETATM   14  C   UNL     1     -10.825  14.973  69.720  1.00  0.00    -0.261 C  
BRANCH  14  15
HETATM   15  C   UNL     1     -10.847  15.049  68.232  1.00  0.00    -0.259 A  
HETATM   16  C   UNL     1      -9.971  15.746  67.425  1.00  0.00    -0.237 A  
HETATM   17  S   UNL     1     -10.386  15.528  65.778  1.00  0.00    -0.392 SA 
HETATM   18  C   UNL     1     -11.712  14.541  66.252  1.00  0.00    -0.358 A  
HETATM   19  N   UNL     1     -11.866  14.391  67.553  1.00  0.00    -0.388 NA 
BRANCH  18  20
HETATM   20  C   UNL     1     -12.634  13.938  65.219  1.00  0.00    -0.478 C  
BRANCH  20  21
HETATM   21  N   UNL     1     -12.481  12.475  65.046  1.00  0.00    -0.593 NA 
HETATM   22  C   UNL     1     -12.424  12.106  63.628  1.00  0.00    -0.549 C  
HETATM   23  C   UNL     1     -11.257  12.030  65.718  1.00  0.00    -0.334 C  
ENDBRANCH  20  21
ENDBRANCH  18  20
ENDBRANCH  14  15
ENDBRANCH  13  14
ENDBRANCH  12  13
ENDBRANCH  11  12
ENDBRANCH   9  11
ENDBRANCH   4   9
ENDBRANCH   2   4
TORSDOF 9
ENDMDL
MODEL       89
REMARK 921   NORMALIZED FREE ENERGY PREDICTED BY IDOCK:   -4.14 KCAL/MOL
REMARK 922        TOTAL FREE ENERGY PREDICTED BY IDOCK:   -7.39 KCAL/MOL
REMARK 923 INTER-LIGAND FREE ENERGY PREDICTED BY IDOCK:   -7.01 KCAL/MOL
REMARK 924 INTRA-LIGAND FREE ENERGY PREDICTED BY IDOCK:   -0.37 KCAL/MOL
REMARK 927      BINDING AFFINITY PREDICTED BY RF-SCORE:    0.00 PKD
ROOT
HETATM    1  C   UNL     1     -10.203   8.356  68.721  1.00  0.00    -0.207 C  
HETATM    2  N   UNL     1     -10.108   9.340  69.777  1.00  0.00    -0.193 NA 
HETATM    3  H   UNL     1      -9.160   9.602  70.047  1.00  0.00     0.000 HD 
ENDROOT
BRANCH   2   4
HETATM    4  C   UNL     1     -11.122   9.977  70.472  1.00  0.00    -0.331 C  
HETATM    5  C   UNL     1     -11.921   9.249  71.280  1.00  0.00    -0.340 C  
HETATM    6  O   UNL     1     -13.227  11.021  72.026  1.00  0.00    -0.499 OA 
HETATM    7  N   UNL     1     -13.002   9.803  72.055  1.00  0.00    -0.418 N  
HETATM    8  O   UNL     1     -13.650   8.987  72.724  1.00  0.00    -0.433 OA 
BRANCH   4   9
HETATM    9  N   UNL     1     -11.279  11.340  70.290  1.00  0.00    -0.479 NA 
HETATM   10  H   UNL     1     -10.961  11.915  71.070  1.00  0.00     0.000 HD 
BRANCH   9  11
HETATM   11  C   UNL     1     -11.824  12.081  69.171  1.00  0.00    -0.311 C  
BRANCH  11  12
HETATM   12  C   UNL     1     -10.812  13.113  68.665  1.00  0.00    -0.259 C  
BRANCH  12  13
HETATM   13  S   UNL     1      -9.288  12.350  68.012  1.00  0.00    -0.207 SA 
BRANCH  13  14
HETATM   14  C   UNL     1      -9.663  12.394  66.227  1.00  0.00    -0.246 C  
BRANCH  14  15
HETATM   15  C   UNL     1     -10.058  13.766  65.799  1.00  0.00    -0.307 A  
HETATM   16  C   UNL     1     -11.010  14.098  64.857  1.00  0.00    -0.397 A  
HETATM   17  S   UNL     1     -11.124  15.800  64.709  1.00  0.00    -0.296 SA 
HETATM   18  C   UNL     1      -9.886  15.977  65.889  1.00  0.00    -0.348 A  
HETATM   19  N   UNL     1      -9.390  14.849  66.358  1.00  0.00    -0.287 NA 
BRANCH  18  20
HETATM   20  C   UNL     1      -9.403  17.347  66.302  1.00  0.00    -0.217 C  
BRANCH  20  21
HETATM   21  N   UNL     1     -10.449  18.204  66.907  1.00  0.00    -0.372 NA 
HETATM   22  C   UNL     1     -10.155  18.495  68.314  1.00  0.00    -0.390 C  
HETATM   23  C   UNL     1     -10.545  19.459  66.157  1.00  0.00    -0.477 C  
ENDBRANCH  20  21
ENDBRANCH  18  20
ENDBRANCH  14  15
ENDBRANCH  13  14
ENDBRANCH  12  13
ENDBRANCH  11  12
ENDBRANCH   9  11
ENDBRANCH   4   9
ENDBRANCH   2   4
TORSDOF 9
ENDMDL
MODEL       90
REMARK 921   NORMALIZED FREE ENERGY PREDICTED BY IDOCK:   -4.14 KCAL/MOL
REMARK 922        TOTAL FREE ENERGY PREDICTED BY IDOCK:   -7.38 KCAL/MOL
REMARK 923 INTER-LIGAND FREE ENERGY PREDICTED BY IDOCK:   -6.91 KCAL/MOL
REMARK 924 INTRA-LIGAND FREE ENERGY PREDICTED BY IDOCK:   -0.46 KCAL/MOL
REMARK 927      BINDING AFFINITY PREDICTED BY RF-SCORE:    0.00 PKD
ROOT
HETATM    1  C   UNL     1      -8.795  10.738  65.713  1.00  0.00    -0.188 C  
HETATM    2  N   UNL     1      -9.383  12.057  65.782  1.00  0.00    -0.395 NA 
HETATM    3  H   UNL     1      -8.735  12.814  66.003  1.00  0.00     0.000 HD 
ENDROOT
BRANCH   2   4
HETATM    4  C   UNL     1     -10.700  12.439  65.591  1.00  0.00    -0.264 C  
HETATM    5  C   UNL     1     -11.062  12.973  64.406  1.00  0.00    -0.370 C  
HETATM    6  O   UNL     1     -13.310  13.262  64.923  1.00  0.00    -0.540 OA 
HETATM    7  N   UNL     1     -12.402  13.401  64.092  1.00  0.00    -0.364 N  
HETATM    8  O   UNL     1     -12.554  13.891  62.965  1.00  0.00    -0.694 OA 
BRANCH   4   9
HETATM    9  N   UNL     1     -11.586  12.269  66.641  1.00  0.00    -0.445 NA 
HETATM   10  H   UNL     1     -12.160  11.428  66.584  1.00  0.00     0.000 HD 
BRANCH   9  11
HETATM   11  C   UNL     1     -11.828  13.093  67.807  1.00  0.00    -0.348 C  
BRANCH  11  12
HETATM   12  C   UNL     1     -11.072  12.544  69.021  1.00  0.00    -0.234 C  
BRANCH  12  13
HETATM   13  S   UNL     1     -11.713  10.929  69.583  1.00  0.00    -0.359 SA 
BRANCH  13  14
HETATM   14  C   UNL     1     -10.435   9.831  68.882  1.00  0.00    -0.214 C  
BRANCH  14  15
HETATM   15  C   UNL     1     -10.628   8.428  69.343  1.00  0.00    -0.197 A  
HETATM   16  C   UNL     1     -10.358   7.277  68.630  1.00  0.00    -0.193 A  
HETATM   17  S   UNL     1     -10.730   5.898  69.574  1.00  0.00    -0.359 SA 
HETATM   18  C   UNL     1     -11.246   6.924  70.854  1.00  0.00    -0.289 A  
HETATM   19  N   UNL     1     -11.174   8.216  70.603  1.00  0.00    -0.263 NA 
BRANCH  18  20
HETATM   20  C   UNL     1     -11.772   6.342  72.144  1.00  0.00    -0.321 C  
BRANCH  20  21
HETATM   21  N   UNL     1     -10.732   5.735  73.007  1.00  0.00    -0.240 NA 
HETATM   22  C   UNL     1     -10.276   6.675  74.037  1.00  0.00    -0.369 C  
HETATM   23  C   UNL     1     -11.271   4.532  73.647  1.00  0.00    -0.264 C  
ENDBRANCH  20  21
ENDBRANCH  18  20
ENDBRANCH  14  15
ENDBRANCH  13  14
ENDBRANCH  12  13
ENDBRANCH  11  12
ENDBRANCH   9  11
ENDBRANCH   4   9
ENDBRANCH   2   4
TORSDOF 9
ENDMDL
MODEL       91
REMARK 921   NORMALIZED FREE ENERGY PREDICTED BY IDOCK:   -4.13 KCAL/MOL
REMARK 922        TOTAL FREE ENERGY PREDICTED BY IDOCK:   -7.36 KCAL/MOL
REMARK 923 INTER-LIGAND FREE ENERGY PREDICTED BY IDOCK:   -6.86 KCAL/MOL
REMARK 924 INTRA-LIGAND FREE ENERGY PREDICTED BY IDOCK:   -0.51 KCAL/MOL
REMARK 927      BINDING AFFINITY PREDICTED BY RF-SCORE:    0.00 PKD
ROOT
HETATM    1  C   UNL     1     -14.373   8.048  71.657  1.00  0.00    -0.473 C  
HETATM    2  N   UNL     1     -13.078   7.949  71.023  1.00  0.00    -0.538 NA 
HETATM    3  H   UNL     1     -13.080   7.561  70.080  1.00  0.00     0.000 HD 
ENDROOT
BRANCH   2   4
HETATM    4  C   UNL     1     -11.834   8.308  71.515  1.00  0.00    -0.293 C  
HETATM    5  C   UNL     1     -11.270   7.554  72.482  1.00  0.00    -0.331 C  
HETATM    6  O   UNL     1      -9.305   8.785  72.662  1.00  0.00    -0.300 OA 
HETATM    7  N   UNL     1      -9.980   7.827  73.065  1.00  0.00    -0.269 N  
HETATM    8  O   UNL     1      -9.624   7.048  73.959  1.00  0.00    -0.227 OA 
BRANCH   4   9
HETATM    9  N   UNL     1     -11.231   9.442  70.998  1.00  0.00    -0.311 NA 
HETATM   10  H   UNL     1     -10.212   9.440  71.039  1.00  0.00     0.000 HD 
BRANCH   9  11
HETATM   11  C   UNL     1     -11.815  10.629  70.409  1.00  0.00    -0.349 C  
BRANCH  11  12
HETATM   12  C   UNL     1     -10.922  11.169  69.288  1.00  0.00    -0.247 C  
BRANCH  12  13
HETATM   13  S   UNL     1     -10.717   9.984  67.914  1.00  0.00    -0.274 SA 
BRANCH  13  14
HETATM   14  C   UNL     1      -9.812  11.039  66.732  1.00  0.00    -0.197 C  
BRANCH  14  15
HETATM   15  C   UNL     1     -10.612  12.243  66.370  1.00  0.00    -0.242 A  
HETATM   16  C   UNL     1     -11.849  12.262  65.757  1.00  0.00    -0.352 A  
HETATM   17  S   UNL     1     -12.380  13.876  65.552  1.00  0.00    -0.507 SA 
HETATM   18  C   UNL     1     -10.923  14.438  66.271  1.00  0.00    -0.318 A  
HETATM   19  N   UNL     1     -10.071  13.496  66.627  1.00  0.00    -0.270 NA 
BRANCH  18  20
HETATM   20  C   UNL     1     -10.661  15.917  66.431  1.00  0.00    -0.297 C  
BRANCH  20  21
HETATM   21  N   UNL     1     -10.487  16.356  67.834  1.00  0.00    -0.297 NA 
HETATM   22  C   UNL     1     -10.375  17.816  67.929  1.00  0.00    -0.386 C  
HETATM   23  C   UNL     1     -11.627  15.900  68.634  1.00  0.00    -0.380 C  
ENDBRANCH  20  21
ENDBRANCH  18  20
ENDBRANCH  14  15
ENDBRANCH  13  14
ENDBRANCH  12  13
ENDBRANCH  11  12
ENDBRANCH   9  11
ENDBRANCH   4   9
ENDBRANCH   2   4
TORSDOF 9
ENDMDL
MODEL       92
REMARK 921   NORMALIZED FREE ENERGY PREDICTED BY IDOCK:   -4.13 KCAL/MOL
REMARK 922        TOTAL FREE ENERGY PREDICTED BY IDOCK:   -7.36 KCAL/MOL
REMARK 923 INTER-LIGAND FREE ENERGY PREDICTED BY IDOCK:   -6.05 KCAL/MOL
REMARK 924 INTRA-LIGAND FREE ENERGY PREDICTED BY IDOCK:   -1.31 KCAL/MOL
REMARK 927      BINDING AFFINITY PREDICTED BY RF-SCORE:    0.00 PKD
ROOT
HETATM    1  C   UNL     1     -12.072  14.096  69.311  1.00  0.00    -0.324 C  
HETATM    2  N   UNL     1     -11.608  13.687  68.004  1.00  0.00    -0.313 NA 
HETATM    3  H   UNL     1     -11.405  12.692  67.903  1.00  0.00     0.000 HD 
ENDROOT
BRANCH   2   4
HETATM    4  C   UNL     1     -11.401  14.454  66.870  1.00  0.00    -0.348 C  
HETATM    5  C   UNL     1     -12.153  14.219  65.774  1.00  0.00    -0.405 C  
HETATM    6  O   UNL     1     -11.216  15.885  64.451  1.00  0.00    -0.450 OA 
HETATM    7  N   UNL     1     -12.031  14.956  64.541  1.00  0.00    -0.447 N  
HETATM    8  O   UNL     1     -12.783  14.594  63.628  1.00  0.00    -0.735 OA 
BRANCH   4   9
HETATM    9  N   UNL     1     -10.411  15.420  66.910  1.00  0.00    -0.289 NA 
HETATM   10  H   UNL     1      -9.647  15.276  66.250  1.00  0.00     0.000 HD 
BRANCH   9  11
HETATM   11  C   UNL     1     -10.287  16.602  67.737  1.00  0.00    -0.306 C  
BRANCH  11  12
HETATM   12  C   UNL     1      -8.849  16.758  68.241  1.00  0.00    -0.228 C  
BRANCH  12  13
HETATM   13  S   UNL     1      -8.328  15.388  69.329  1.00  0.00    -0.252 SA 
BRANCH  13  14
HETATM   14  C   UNL     1      -7.180  14.523  68.206  1.00  0.00    -0.119 C  
BRANCH  14  15
HETATM   15  C   UNL     1      -7.643  13.133  67.937  1.00  0.00    -0.147 A  
HETATM   16  C   UNL     1      -7.187  11.977  68.538  1.00  0.00    -0.101 A  
HETATM   17  S   UNL     1      -8.023  10.619  67.915  1.00  0.00    -0.108 SA 
HETATM   18  C   UNL     1      -8.916  11.657  66.875  1.00  0.00    -0.191 A  
HETATM   19  N   UNL     1      -8.608  12.937  66.956  1.00  0.00    -0.193 NA 
BRANCH  18  20
HETATM   20  C   UNL     1      -9.946  11.096  65.923  1.00  0.00    -0.239 C  
BRANCH  20  21
HETATM   21  N   UNL     1      -9.629  11.305  64.491  1.00  0.00    -0.238 NA 
HETATM   22  C   UNL     1      -8.807  10.213  63.960  1.00  0.00    -0.228 C  
HETATM   23  C   UNL     1     -10.874  11.398  63.725  1.00  0.00    -0.395 C  
ENDBRANCH  20  21
ENDBRANCH  18  20
ENDBRANCH  14  15
ENDBRANCH  13  14
ENDBRANCH  12  13
ENDBRANCH  11  12
ENDBRANCH   9  11
ENDBRANCH   4   9
ENDBRANCH   2   4
TORSDOF 9
ENDMDL
MODEL       93
REMARK 921   NORMALIZED FREE ENERGY PREDICTED BY IDOCK:   -4.12 KCAL/MOL
REMARK 922        TOTAL FREE ENERGY PREDICTED BY IDOCK:   -7.36 KCAL/MOL
REMARK 923 INTER-LIGAND FREE ENERGY PREDICTED BY IDOCK:   -5.97 KCAL/MOL
REMARK 924 INTRA-LIGAND FREE ENERGY PREDICTED BY IDOCK:   -1.39 KCAL/MOL
REMARK 927      BINDING AFFINITY PREDICTED BY RF-SCORE:    0.00 PKD
ROOT
HETATM    1  C   UNL     1      -8.269   9.673  70.294  1.00  0.00    -0.191 C  
HETATM    2  N   UNL     1      -9.364  10.392  69.682  1.00  0.00    -0.399 NA 
HETATM    3  H   UNL     1      -9.103  11.029  68.929  1.00  0.00     0.000 HD 
ENDROOT
BRANCH   2   4
HETATM    4  C   UNL     1     -10.717  10.340  69.973  1.00  0.00    -0.292 C  
HETATM    5  C   UNL     1     -11.145   9.509  70.947  1.00  0.00    -0.336 C  
HETATM    6  O   UNL     1     -13.398  10.064  70.794  1.00  0.00    -0.350 OA 
HETATM    7  N   UNL     1     -12.526   9.375  71.341  1.00  0.00    -0.333 N  
HETATM    8  O   UNL     1     -12.746   8.549  72.236  1.00  0.00    -0.356 OA 
BRANCH   4   9
HETATM    9  N   UNL     1     -11.574  11.135  69.233  1.00  0.00    -0.288 NA 
HETATM   10  H   UNL     1     -12.260  10.623  68.678  1.00  0.00     0.000 HD 
BRANCH   9  11
HETATM   11  C   UNL     1     -11.653  12.577  69.119  1.00  0.00    -0.320 C  
BRANCH  11  12
HETATM   12  C   UNL     1     -11.907  12.990  67.667  1.00  0.00    -0.351 C  
BRANCH  12  13
HETATM   13  S   UNL     1     -10.390  12.971  66.651  1.00  0.00    -0.263 SA 
BRANCH  13  14
HETATM   14  C   UNL     1     -10.906  11.799  65.350  1.00  0.00    -0.295 C  
BRANCH  14  15
HETATM   15  C   UNL     1     -10.160  10.514  65.464  1.00  0.00    -0.283 A  
HETATM   16  C   UNL     1      -9.263   9.994  64.553  1.00  0.00    -0.262 A  
HETATM   17  S   UNL     1      -8.650   8.499  65.118  1.00  0.00    -0.112 SA 
HETATM   18  C   UNL     1      -9.635   8.635  66.521  1.00  0.00    -0.237 A  
HETATM   19  N   UNL     1     -10.397   9.710  66.572  1.00  0.00    -0.222 NA 
BRANCH  18  20
HETATM   20  C   UNL     1      -9.625   7.557  67.579  1.00  0.00    -0.142 C  
BRANCH  20  21
HETATM   21  N   UNL     1     -10.840   6.711  67.597  1.00  0.00    -0.294 NA 
HETATM   22  C   UNL     1     -10.713   5.571  66.682  1.00  0.00    -0.261 C  
HETATM   23  C   UNL     1     -11.073   6.221  68.958  1.00  0.00    -0.378 C  
ENDBRANCH  20  21
ENDBRANCH  18  20
ENDBRANCH  14  15
ENDBRANCH  13  14
ENDBRANCH  12  13
ENDBRANCH  11  12
ENDBRANCH   9  11
ENDBRANCH   4   9
ENDBRANCH   2   4
TORSDOF 9
ENDMDL
MODEL       94
REMARK 921   NORMALIZED FREE ENERGY PREDICTED BY IDOCK:   -4.11 KCAL/MOL
REMARK 922        TOTAL FREE ENERGY PREDICTED BY IDOCK:   -7.34 KCAL/MOL
REMARK 923 INTER-LIGAND FREE ENERGY PREDICTED BY IDOCK:   -7.08 KCAL/MOL
REMARK 924 INTRA-LIGAND FREE ENERGY PREDICTED BY IDOCK:   -0.25 KCAL/MOL
REMARK 927      BINDING AFFINITY PREDICTED BY RF-SCORE:    0.00 PKD
ROOT
HETATM    1  C   UNL     1      -8.879  15.598  66.790  1.00  0.00    -0.272 C  
HETATM    2  N   UNL     1      -9.246  14.412  66.049  1.00  0.00    -0.521 NA 
HETATM    3  H   UNL     1      -8.469  13.893  65.640  1.00  0.00     0.000 HD 
ENDROOT
BRANCH   2   4
HETATM    4  C   UNL     1     -10.503  13.881  65.816  1.00  0.00    -0.307 C  
HETATM    5  C   UNL     1     -10.978  13.851  64.552  1.00  0.00    -0.369 C  
HETATM    6  O   UNL     1     -13.002  12.824  65.056  1.00  0.00    -0.811 OA 
HETATM    7  N   UNL     1     -12.267  13.318  64.189  1.00  0.00    -0.410 N  
HETATM    8  O   UNL     1     -12.554  13.392  62.987  1.00  0.00    -0.669 OA 
BRANCH   4   9
HETATM    9  N   UNL     1     -11.226  13.418  66.901  1.00  0.00    -0.300 NA 
HETATM   10  H   UNL     1     -11.218  12.405  67.020  1.00  0.00     0.000 HD 
BRANCH   9  11
HETATM   11  C   UNL     1     -11.993  14.140  67.895  1.00  0.00    -0.343 C  
BRANCH  11  12
HETATM   12  C   UNL     1     -11.742  13.564  69.292  1.00  0.00    -0.330 C  
BRANCH  12  13
HETATM   13  S   UNL     1     -11.541  11.749  69.283  1.00  0.00    -0.341 SA 
BRANCH  13  14
HETATM   14  C   UNL     1     -12.195  11.360  70.942  1.00  0.00    -0.344 C  
BRANCH  14  15
HETATM   15  C   UNL     1     -11.677  10.049  71.425  1.00  0.00    -0.334 A  
HETATM   16  C   UNL     1     -12.335   9.146  72.234  1.00  0.00    -0.309 A  
HETATM   17  S   UNL     1     -11.345   7.776  72.515  1.00  0.00    -0.388 SA 
HETATM   18  C   UNL     1     -10.104   8.488  71.561  1.00  0.00    -0.245 A  
HETATM   19  N   UNL     1     -10.383   9.682  71.075  1.00  0.00    -0.280 NA 
BRANCH  18  20
HETATM   20  C   UNL     1      -8.788   7.778  71.352  1.00  0.00    -0.132 C  
BRANCH  20  21
HETATM   21  N   UNL     1      -8.270   7.090  72.557  1.00  0.00    -0.108 NA 
HETATM   22  C   UNL     1      -7.025   6.369  72.268  1.00  0.00    -0.074 C  
HETATM   23  C   UNL     1      -8.031   8.074  73.616  1.00  0.00    -0.197 C  
ENDBRANCH  20  21
ENDBRANCH  18  20
ENDBRANCH  14  15
ENDBRANCH  13  14
ENDBRANCH  12  13
ENDBRANCH  11  12
ENDBRANCH   9  11
ENDBRANCH   4   9
ENDBRANCH   2   4
TORSDOF 9
ENDMDL
MODEL       95
REMARK 921   NORMALIZED FREE ENERGY PREDICTED BY IDOCK:   -4.10 KCAL/MOL
REMARK 922        TOTAL FREE ENERGY PREDICTED BY IDOCK:   -7.33 KCAL/MOL
REMARK 923 INTER-LIGAND FREE ENERGY PREDICTED BY IDOCK:   -6.73 KCAL/MOL
REMARK 924 INTRA-LIGAND FREE ENERGY PREDICTED BY IDOCK:   -0.59 KCAL/MOL
REMARK 927      BINDING AFFINITY PREDICTED BY RF-SCORE:    0.00 PKD
ROOT
HETATM    1  C   UNL     1      -8.848  16.030  69.270  1.00  0.00    -0.227 C  
HETATM    2  N   UNL     1      -9.786  15.100  69.860  1.00  0.00    -0.471 NA 
HETATM    3  H   UNL     1      -9.383  14.224  70.191  1.00  0.00     0.000 HD 
ENDROOT
BRANCH   2   4
HETATM    4  C   UNL     1     -11.152  15.231  70.037  1.00  0.00    -0.287 C  
HETATM    5  C   UNL     1     -11.629  15.511  71.269  1.00  0.00    -0.404 C  
HETATM    6  O   UNL     1     -13.875  15.588  70.671  1.00  0.00    -0.361 OA 
HETATM    7  N   UNL     1     -13.029  15.675  71.572  1.00  0.00    -0.467 N  
HETATM    8  O   UNL     1     -13.293  15.904  72.759  1.00  0.00    -0.496 OA 
BRANCH   4   9
HETATM    9  N   UNL     1     -11.973  15.050  68.937  1.00  0.00    -0.504 NA 
HETATM   10  H   UNL     1     -12.961  15.238  69.105  1.00  0.00     0.000 HD 
BRANCH   9  11
HETATM   11  C   UNL     1     -11.653  14.636  67.587  1.00  0.00    -0.361 C  
BRANCH  11  12
HETATM   12  C   UNL     1     -12.125  13.201  67.337  1.00  0.00    -0.263 C  
BRANCH  12  13
HETATM   13  S   UNL     1     -10.997  11.952  68.044  1.00  0.00    -0.242 SA 
BRANCH  13  14
HETATM   14  C   UNL     1     -11.860  11.613  69.615  1.00  0.00    -0.352 C  
BRANCH  14  15
HETATM   15  C   UNL     1     -11.503  10.265  70.140  1.00  0.00    -0.309 A  
HETATM   16  C   UNL     1     -11.871   9.724  71.355  1.00  0.00    -0.408 A  
HETATM   17  S   UNL     1     -11.232   8.143  71.514  1.00  0.00    -0.272 SA 
HETATM   18  C   UNL     1     -10.492   8.296  69.969  1.00  0.00    -0.231 A  
HETATM   19  N   UNL     1     -10.679   9.454  69.367  1.00  0.00    -0.226 NA 
BRANCH  18  20
HETATM   20  C   UNL     1      -9.664   7.171  69.396  1.00  0.00    -0.160 C  
BRANCH  20  21
HETATM   21  N   UNL     1     -10.450   5.985  68.983  1.00  0.00    -0.227 NA 
HETATM   22  C   UNL     1     -10.466   5.837  67.523  1.00  0.00    -0.245 C  
HETATM   23  C   UNL     1      -9.874   4.783  69.590  1.00  0.00    -0.221 C  
ENDBRANCH  20  21
ENDBRANCH  18  20
ENDBRANCH  14  15
ENDBRANCH  13  14
ENDBRANCH  12  13
ENDBRANCH  11  12
ENDBRANCH   9  11
ENDBRANCH   4   9
ENDBRANCH   2   4
TORSDOF 9
ENDMDL
MODEL       96
REMARK 921   NORMALIZED FREE ENERGY PREDICTED BY IDOCK:   -4.10 KCAL/MOL
REMARK 922        TOTAL FREE ENERGY PREDICTED BY IDOCK:   -7.32 KCAL/MOL
REMARK 923 INTER-LIGAND FREE ENERGY PREDICTED BY IDOCK:   -6.42 KCAL/MOL
REMARK 924 INTRA-LIGAND FREE ENERGY PREDICTED BY IDOCK:   -0.90 KCAL/MOL
REMARK 927      BINDING AFFINITY PREDICTED BY RF-SCORE:    0.00 PKD
ROOT
HETATM    1  C   UNL     1     -12.617  12.247  63.455  1.00  0.00    -0.476 C  
HETATM    2  N   UNL     1     -11.189  12.450  63.560  1.00  0.00    -0.530 NA 
HETATM    3  H   UNL     1     -10.706  12.621  62.678  1.00  0.00     0.000 HD 
ENDROOT
BRANCH   2   4
HETATM    4  C   UNL     1     -10.385  12.446  64.687  1.00  0.00    -0.307 C  
HETATM    5  C   UNL     1      -9.886  11.274  65.131  1.00  0.00    -0.252 C  
HETATM    6  O   UNL     1      -8.698  12.156  66.925  1.00  0.00    -0.187 OA 
HETATM    7  N   UNL     1      -9.035  11.148  66.289  1.00  0.00    -0.187 N  
HETATM    8  O   UNL     1      -8.686   9.994  66.570  1.00  0.00    -0.131 OA 
BRANCH   4   9
HETATM    9  N   UNL     1     -10.145  13.654  65.320  1.00  0.00    -0.490 NA 
HETATM   10  H   UNL     1      -9.340  13.655  65.947  1.00  0.00     0.000 HD 
BRANCH   9  11
HETATM   11  C   UNL     1     -10.852  14.914  65.235  1.00  0.00    -0.386 C  
BRANCH  11  12
HETATM   12  C   UNL     1      -9.899  16.085  65.492  1.00  0.00    -0.189 C  
BRANCH  12  13
HETATM   13  S   UNL     1     -10.384  17.090  66.937  1.00  0.00    -0.278 SA 
BRANCH  13  14
HETATM   14  C   UNL     1      -9.662  16.076  68.272  1.00  0.00    -0.214 C  
BRANCH  14  15
HETATM   15  C   UNL     1     -10.715  15.286  68.970  1.00  0.00    -0.244 A  
HETATM   16  C   UNL     1     -11.641  15.759  69.878  1.00  0.00    -0.351 A  
HETATM   17  S   UNL     1     -12.654  14.484  70.406  1.00  0.00    -0.319 SA 
HETATM   18  C   UNL     1     -11.778  13.388  69.411  1.00  0.00    -0.325 A  
HETATM   19  N   UNL     1     -10.776  13.917  68.737  1.00  0.00    -0.260 NA 
BRANCH  18  20
HETATM   20  C   UNL     1     -12.143  11.923  69.370  1.00  0.00    -0.216 C  
BRANCH  20  21
HETATM   21  N   UNL     1     -11.733  11.160  70.572  1.00  0.00    -0.332 NA 
HETATM   22  C   UNL     1     -12.890  10.568  71.250  1.00  0.00    -0.431 C  
HETATM   23  C   UNL     1     -10.799  10.101  70.182  1.00  0.00    -0.311 C  
ENDBRANCH  20  21
ENDBRANCH  18  20
ENDBRANCH  14  15
ENDBRANCH  13  14
ENDBRANCH  12  13
ENDBRANCH  11  12
ENDBRANCH   9  11
ENDBRANCH   4   9
ENDBRANCH   2   4
TORSDOF 9
ENDMDL
MODEL       97
REMARK 921   NORMALIZED FREE ENERGY PREDICTED BY IDOCK:   -4.09 KCAL/MOL
REMARK 922        TOTAL FREE ENERGY PREDICTED BY IDOCK:   -7.30 KCAL/MOL
REMARK 923 INTER-LIGAND FREE ENERGY PREDICTED BY IDOCK:   -6.62 KCAL/MOL
REMARK 924 INTRA-LIGAND FREE ENERGY PREDICTED BY IDOCK:   -0.69 KCAL/MOL
REMARK 927      BINDING AFFINITY PREDICTED BY RF-SCORE:    0.00 PKD
ROOT
HETATM    1  C   UNL     1     -11.546  14.740  69.870  1.00  0.00    -0.286 C  
HETATM    2  N   UNL     1     -11.954  14.752  68.483  1.00  0.00    -0.530 NA 
HETATM    3  H   UNL     1     -12.612  15.488  68.227  1.00  0.00     0.000 HD 
ENDROOT
BRANCH   2   4
HETATM    4  C   UNL     1     -11.578  13.907  67.453  1.00  0.00    -0.368 C  
HETATM    5  C   UNL     1     -12.472  13.616  66.484  1.00  0.00    -0.285 C  
HETATM    6  O   UNL     1     -11.067  12.253  65.230  1.00  0.00    -0.298 OA 
HETATM    7  N   UNL     1     -12.192  12.754  65.363  1.00  0.00    -0.468 N  
HETATM    8  O   UNL     1     -13.135  12.576  64.581  1.00  0.00    -0.845 OA 
BRANCH   4   9
HETATM    9  N   UNL     1     -10.297  13.382  67.475  1.00  0.00    -0.225 NA 
HETATM   10  H   UNL     1     -10.248  12.383  67.673  1.00  0.00     0.000 HD 
BRANCH   9  11
HETATM   11  C   UNL     1      -9.016  14.024  67.263  1.00  0.00    -0.218 C  
BRANCH  11  12
HETATM   12  C   UNL     1      -7.978  13.496  68.258  1.00  0.00    -0.147 C  
BRANCH  12  13
HETATM   13  S   UNL     1      -6.335  14.262  68.038  1.00  0.00    -0.165 SA 
BRANCH  13  14
HETATM   14  C   UNL     1      -6.263  15.273  69.555  1.00  0.00    -0.131 C  
BRANCH  14  15
HETATM   15  C   UNL     1      -6.405  16.722  69.238  1.00  0.00    -0.213 A  
HETATM   16  C   UNL     1      -5.652  17.760  69.748  1.00  0.00    -0.227 A  
HETATM   17  S   UNL     1      -6.173  19.249  69.083  1.00  0.00    -0.283 SA 
HETATM   18  C   UNL     1      -7.377  18.415  68.182  1.00  0.00    -0.261 A  
HETATM   19  N   UNL     1      -7.418  17.110  68.369  1.00  0.00    -0.217 NA 
BRANCH  18  20
HETATM   20  C   UNL     1      -8.325  19.167  67.279  1.00  0.00    -0.277 C  
BRANCH  20  21
HETATM   21  N   UNL     1      -9.758  18.963  67.595  1.00  0.00    -0.306 NA 
HETATM   22  C   UNL     1     -10.076  19.415  68.954  1.00  0.00    -0.380 C  
HETATM   23  C   UNL     1     -10.580  19.697  66.630  1.00  0.00    -0.487 C  
ENDBRANCH  20  21
ENDBRANCH  18  20
ENDBRANCH  14  15
ENDBRANCH  13  14
ENDBRANCH  12  13
ENDBRANCH  11  12
ENDBRANCH   9  11
ENDBRANCH   4   9
ENDBRANCH   2   4
TORSDOF 9
ENDMDL
MODEL       98
REMARK 921   NORMALIZED FREE ENERGY PREDICTED BY IDOCK:   -4.08 KCAL/MOL
REMARK 922        TOTAL FREE ENERGY PREDICTED BY IDOCK:   -7.29 KCAL/MOL
REMARK 923 INTER-LIGAND FREE ENERGY PREDICTED BY IDOCK:   -6.59 KCAL/MOL
REMARK 924 INTRA-LIGAND FREE ENERGY PREDICTED BY IDOCK:   -0.70 KCAL/MOL
REMARK 927      BINDING AFFINITY PREDICTED BY RF-SCORE:    0.00 PKD
ROOT
HETATM    1  C   UNL     1     -13.582   8.893  71.940  1.00  0.00    -0.425 C  
HETATM    2  N   UNL     1     -13.246   7.885  70.959  1.00  0.00    -0.541 NA 
HETATM    3  H   UNL     1     -13.801   7.906  70.103  1.00  0.00     0.000 HD 
ENDROOT
BRANCH   2   4
HETATM    4  C   UNL     1     -12.277   6.897  71.016  1.00  0.00    -0.377 C  
HETATM    5  C   UNL     1     -12.040   6.280  72.193  1.00  0.00    -0.252 C  
HETATM    6  O   UNL     1     -10.399   4.834  71.405  1.00  0.00    -0.190 OA 
HETATM    7  N   UNL     1     -11.062   5.235  72.371  1.00  0.00    -0.226 N  
HETATM    8  O   UNL     1     -10.958   4.796  73.523  1.00  0.00    -0.271 OA 
BRANCH   4   9
HETATM    9  N   UNL     1     -11.581   6.600  69.857  1.00  0.00    -0.592 NA 
HETATM   10  H   UNL     1     -11.715   5.650  69.510  1.00  0.00     0.000 HD 
BRANCH   9  11
HETATM   11  C   UNL     1     -10.694   7.420  69.059  1.00  0.00    -0.148 C  
BRANCH  11  12
HETATM   12  C   UNL     1      -9.709   8.178  69.955  1.00  0.00    -0.172 C  
BRANCH  12  13
HETATM   13  S   UNL     1      -9.764   9.985  69.696  1.00  0.00    -0.215 SA 
BRANCH  13  14
HETATM   14  C   UNL     1     -10.894  10.055  68.266  1.00  0.00    -0.241 C  
BRANCH  14  15
HETATM   15  C   UNL     1     -11.326  11.456  67.997  1.00  0.00    -0.303 A  
HETATM   16  C   UNL     1     -11.455  12.061  66.763  1.00  0.00    -0.345 A  
HETATM   17  S   UNL     1     -11.989  13.677  66.952  1.00  0.00    -0.399 SA 
HETATM   18  C   UNL     1     -11.991  13.468  68.659  1.00  0.00    -0.343 A  
HETATM   19  N   UNL     1     -11.598  12.282  69.081  1.00  0.00    -0.297 NA 
BRANCH  18  20
HETATM   20  C   UNL     1     -12.386  14.601  69.574  1.00  0.00    -0.195 C  
BRANCH  20  21
HETATM   21  N   UNL     1     -11.242  15.300  70.206  1.00  0.00    -0.275 NA 
HETATM   22  C   UNL     1     -10.766  16.409  69.371  1.00  0.00    -0.324 C  
HETATM   23  C   UNL     1     -11.648  15.814  71.516  1.00  0.00    -0.459 C  
ENDBRANCH  20  21
ENDBRANCH  18  20
ENDBRANCH  14  15
ENDBRANCH  13  14
ENDBRANCH  12  13
ENDBRANCH  11  12
ENDBRANCH   9  11
ENDBRANCH   4   9
ENDBRANCH   2   4
TORSDOF 9
ENDMDL
MODEL       99
REMARK 921   NORMALIZED FREE ENERGY PREDICTED BY IDOCK:   -4.08 KCAL/MOL
REMARK 922        TOTAL FREE ENERGY PREDICTED BY IDOCK:   -7.29 KCAL/MOL
REMARK 923 INTER-LIGAND FREE ENERGY PREDICTED BY IDOCK:   -6.88 KCAL/MOL
REMARK 924 INTRA-LIGAND FREE ENERGY PREDICTED BY IDOCK:   -0.41 KCAL/MOL
REMARK 927      BINDING AFFINITY PREDICTED BY RF-SCORE:    0.00 PKD
ROOT
HETATM    1  C   UNL     1     -10.150   4.763  66.034  1.00  0.00    -0.257 C  
HETATM    2  N   UNL     1     -11.051   5.830  66.407  1.00  0.00    -0.767 NA 
HETATM    3  H   UNL     1     -11.811   6.010  65.752  1.00  0.00     0.000 HD 
ENDROOT
BRANCH   2   4
HETATM    4  C   UNL     1     -11.027   6.643  67.528  1.00  0.00    -0.338 C  
HETATM    5  C   UNL     1     -11.182   6.083  68.746  1.00  0.00    -0.132 C  
HETATM    6  O   UNL     1     -10.981   8.051  69.968  1.00  0.00    -0.249 OA 
HETATM    7  N   UNL     1     -11.169   6.827  69.981  1.00  0.00    -0.310 N  
HETATM    8  O   UNL     1     -11.351   6.158  71.007  1.00  0.00    -0.307 OA 
BRANCH   4   9
HETATM    9  N   UNL     1     -10.861   8.004  67.342  1.00  0.00    -0.516 NA 
HETATM   10  H   UNL     1     -11.727   8.543  67.335  1.00  0.00     0.000 HD 
BRANCH   9  11
HETATM   11  C   UNL     1      -9.657   8.786  67.156  1.00  0.00    -0.175 C  
BRANCH  11  12
HETATM   12  C   UNL     1      -9.226   8.772  65.687  1.00  0.00    -0.180 C  
BRANCH  12  13
HETATM   13  S   UNL     1      -8.781  10.429  65.063  1.00  0.00    -0.188 SA 
BRANCH  13  14
HETATM   14  C   UNL     1     -10.236  10.762  64.013  1.00  0.00    -0.322 C  
BRANCH  14  15
HETATM   15  C   UNL     1     -10.883  12.050  64.392  1.00  0.00    -0.329 A  
HETATM   16  C   UNL     1     -11.770  12.786  63.633  1.00  0.00    -0.519 A  
HETATM   17  S   UNL     1     -12.254  14.189  64.488  1.00  0.00    -0.418 SA 
HETATM   18  C   UNL     1     -11.235  13.732  65.796  1.00  0.00    -0.297 A  
HETATM   19  N   UNL     1     -10.551  12.619  65.615  1.00  0.00    -0.268 NA 
BRANCH  18  20
HETATM   20  C   UNL     1     -11.131  14.595  67.031  1.00  0.00    -0.333 C  
BRANCH  20  21
HETATM   21  N   UNL     1     -10.563  15.941  66.787  1.00  0.00    -0.317 NA 
HETATM   22  C   UNL     1     -10.639  16.780  67.988  1.00  0.00    -0.347 C  
HETATM   23  C   UNL     1      -9.165  15.812  66.368  1.00  0.00    -0.312 C  
ENDBRANCH  20  21
ENDBRANCH  18  20
ENDBRANCH  14  15
ENDBRANCH  13  14
ENDBRANCH  12  13
ENDBRANCH  11  12
ENDBRANCH   9  11
ENDBRANCH   4   9
ENDBRANCH   2   4
TORSDOF 9
ENDMDL
MODEL      100
REMARK 921   NORMALIZED FREE ENERGY PREDICTED BY IDOCK:   -4.07 KCAL/MOL
REMARK 922        TOTAL FREE ENERGY PREDICTED BY IDOCK:   -7.27 KCAL/MOL
REMARK 923 INTER-LIGAND FREE ENERGY PREDICTED BY IDOCK:   -6.84 KCAL/MOL
REMARK 924 INTRA-LIGAND FREE ENERGY PREDICTED BY IDOCK:   -0.43 KCAL/MOL
REMARK 927      BINDING AFFINITY PREDICTED BY RF-SCORE:    0.00 PKD
ROOT
HETATM    1  C   UNL     1     -10.794   6.158  68.415  1.00  0.00    -0.305 C  
HETATM    2  N   UNL     1     -11.721   6.596  69.435  1.00  0.00    -0.648 NA 
HETATM    3  H   UNL     1     -12.672   6.774  69.114  1.00  0.00     0.000 HD 
ENDROOT
BRANCH   2   4
HETATM    4  C   UNL     1     -11.500   6.807  70.785  1.00  0.00    -0.342 C  
HETATM    5  C   UNL     1     -10.679   5.970  71.454  1.00  0.00    -0.259 C  
HETATM    6  O   UNL     1     -10.847   7.029  73.517  1.00  0.00    -0.341 OA 
HETATM    7  N   UNL     1     -10.371   6.096  72.856  1.00  0.00    -0.190 N  
HETATM    8  O   UNL     1      -9.618   5.227  73.315  1.00  0.00    -0.141 OA 
BRANCH   4   9
HETATM    9  N   UNL     1     -12.151   7.866  71.393  1.00  0.00    -0.302 NA 
HETATM   10  H   UNL     1     -11.552   8.656  71.633  1.00  0.00     0.000 HD 
BRANCH   9  11
HETATM   11  C   UNL     1     -13.547   8.033  71.744  1.00  0.00    -0.348 C  
BRANCH  11  12
HETATM   12  C   UNL     1     -13.802   9.444  72.281  1.00  0.00    -0.371 C  
BRANCH  12  13
HETATM   13  S   UNL     1     -12.888  10.729  71.360  1.00  0.00    -0.456 SA 
BRANCH  13  14
HETATM   14  C   UNL     1     -13.618  12.223  72.110  1.00  0.00    -0.247 C  
BRANCH  14  15
HETATM   15  C   UNL     1     -12.882  13.447  71.685  1.00  0.00    -0.321 A  
HETATM   16  C   UNL     1     -12.851  14.663  72.336  1.00  0.00    -0.359 A  
HETATM   17  S   UNL     1     -11.864  15.767  71.477  1.00  0.00    -0.488 SA 
HETATM   18  C   UNL     1     -11.565  14.561  70.288  1.00  0.00    -0.268 A  
HETATM   19  N   UNL     1     -12.173  13.408  70.490  1.00  0.00    -0.365 NA 
BRANCH  18  20
HETATM   20  C   UNL     1     -10.691  14.855  69.093  1.00  0.00    -0.252 C  
BRANCH  20  21
HETATM   21  N   UNL     1      -9.956  16.139  69.177  1.00  0.00    -0.238 NA 
HETATM   22  C   UNL     1      -8.507  15.933  69.081  1.00  0.00    -0.254 C  
HETATM   23  C   UNL     1     -10.397  17.025  68.097  1.00  0.00    -0.347 C  
ENDBRANCH  20  21
ENDBRANCH  18  20
ENDBRANCH  14  15
ENDBRANCH  13  14
ENDBRANCH  12  13
ENDBRANCH  11  12
ENDBRANCH   9  11
ENDBRANCH   4   9
ENDBRANCH   2   4
TORSDOF 9
ENDMDL
MODEL      101
REMARK 921   NORMALIZED FREE ENERGY PREDICTED BY IDOCK:   -4.06 KCAL/MOL
REMARK 922        TOTAL FREE ENERGY PREDICTED BY IDOCK:   -7.25 KCAL/MOL
REMARK 923 INTER-LIGAND FREE ENERGY PREDICTED BY IDOCK:   -6.38 KCAL/MOL
REMARK 924 INTRA-LIGAND FREE ENERGY PREDICTED BY IDOCK:   -0.88 KCAL/MOL
REMARK 927      BINDING AFFINITY PREDICTED BY RF-SCORE:    0.00 PKD
ROOT
HETATM    1  C   UNL     1     -10.830  10.484  67.780  1.00  0.00    -0.294 C  
HETATM    2  N   UNL     1     -10.750  11.739  67.066  1.00  0.00    -0.234 NA 
HETATM    3  H   UNL     1     -10.297  11.695  66.154  1.00  0.00     0.000 HD 
ENDROOT
BRANCH   2   4
HETATM    4  C   UNL     1     -11.202  12.992  67.446  1.00  0.00    -0.288 C  
HETATM    5  C   UNL     1     -10.592  13.625  68.470  1.00  0.00    -0.250 C  
HETATM    6  O   UNL     1     -11.889  15.553  68.396  1.00  0.00    -0.351 OA 
HETATM    7  N   UNL     1     -10.971  14.931  68.949  1.00  0.00    -0.240 N  
HETATM    8  O   UNL     1     -10.321  15.353  69.914  1.00  0.00    -0.281 OA 
BRANCH   4   9
HETATM    9  N   UNL     1     -12.277  13.531  66.762  1.00  0.00    -0.374 NA 
HETATM   10  H   UNL     1     -13.113  13.679  67.328  1.00  0.00     0.000 HD 
BRANCH   9  11
HETATM   11  C   UNL     1     -12.407  13.918  65.373  1.00  0.00    -0.470 C  
BRANCH  11  12
HETATM   12  C   UNL     1     -11.057  14.376  64.813  1.00  0.00    -0.394 C  
BRANCH  12  13
HETATM   13  S   UNL     1     -10.823  16.184  64.920  1.00  0.00    -0.185 SA 
BRANCH  13  14
HETATM   14  C   UNL     1      -9.341  16.238  65.983  1.00  0.00    -0.326 C  
BRANCH  14  15
HETATM   15  C   UNL     1      -9.282  17.515  66.750  1.00  0.00    -0.265 A  
HETATM   16  C   UNL     1     -10.342  18.336  67.074  1.00  0.00    -0.389 A  
HETATM   17  S   UNL     1      -9.790  19.686  67.972  1.00  0.00    -0.440 SA 
HETATM   18  C   UNL     1      -8.178  19.097  67.848  1.00  0.00    -0.290 A  
HETATM   19  N   UNL     1      -8.039  17.978  67.164  1.00  0.00    -0.210 NA 
BRANCH  18  20
HETATM   20  C   UNL     1      -7.029  19.860  68.463  1.00  0.00    -0.304 C  
BRANCH  20  21
HETATM   21  N   UNL     1      -6.407  19.189  69.628  1.00  0.00    -0.272 NA 
HETATM   22  C   UNL     1      -5.215  18.431  69.236  1.00  0.00    -0.192 C  
HETATM   23  C   UNL     1      -6.042  20.193  70.630  1.00  0.00    -0.326 C  
ENDBRANCH  20  21
ENDBRANCH  18  20
ENDBRANCH  14  15
ENDBRANCH  13  14
ENDBRANCH  12  13
ENDBRANCH  11  12
ENDBRANCH   9  11
ENDBRANCH   4   9
ENDBRANCH   2   4
TORSDOF 9
ENDMDL
MODEL      102
REMARK 921   NORMALIZED FREE ENERGY PREDICTED BY IDOCK:   -4.05 KCAL/MOL
REMARK 922        TOTAL FREE ENERGY PREDICTED BY IDOCK:   -7.25 KCAL/MOL
REMARK 923 INTER-LIGAND FREE ENERGY PREDICTED BY IDOCK:   -6.77 KCAL/MOL
REMARK 924 INTRA-LIGAND FREE ENERGY PREDICTED BY IDOCK:   -0.48 KCAL/MOL
REMARK 927      BINDING AFFINITY PREDICTED BY RF-SCORE:    0.00 PKD
ROOT
HETATM    1  C   UNL     1     -10.848   6.301  68.002  1.00  0.00    -0.326 C  
HETATM    2  N   UNL     1     -11.630   6.713  69.146  1.00  0.00    -0.628 NA 
HETATM    3  H   UNL     1     -12.630   6.820  68.977  1.00  0.00     0.000 HD 
ENDROOT
BRANCH   2   4
HETATM    4  C   UNL     1     -11.213   6.983  70.439  1.00  0.00    -0.299 C  
HETATM    5  C   UNL     1     -11.390   6.046  71.394  1.00  0.00    -0.236 C  
HETATM    6  O   UNL     1     -10.426   7.255  73.130  1.00  0.00    -0.267 OA 
HETATM    7  N   UNL     1     -10.992   6.214  72.769  1.00  0.00    -0.248 N  
HETATM    8  O   UNL     1     -11.252   5.262  73.517  1.00  0.00    -0.296 OA 
BRANCH   4   9
HETATM    9  N   UNL     1     -10.646   8.220  70.695  1.00  0.00    -0.211 NA 
HETATM   10  H   UNL     1      -9.781   8.190  71.236  1.00  0.00     0.000 HD 
BRANCH   9  11
HETATM   11  C   UNL     1     -11.081   9.548  70.318  1.00  0.00    -0.271 C  
BRANCH  11  12
HETATM   12  C   UNL     1     -10.070  10.198  69.369  1.00  0.00    -0.231 C  
BRANCH  12  13
HETATM   13  S   UNL     1     -10.770  10.548  67.720  1.00  0.00    -0.293 SA 
BRANCH  13  14
HETATM   14  C   UNL     1     -11.762  12.028  68.115  1.00  0.00    -0.333 C  
BRANCH  14  15
HETATM   15  C   UNL     1     -11.655  13.046  67.032  1.00  0.00    -0.360 A  
HETATM   16  C   UNL     1     -12.215  12.978  65.773  1.00  0.00    -0.453 A  
HETATM   17  S   UNL     1     -11.829  14.386  64.879  1.00  0.00    -0.436 SA 
HETATM   18  C   UNL     1     -10.926  14.977  66.218  1.00  0.00    -0.338 A  
HETATM   19  N   UNL     1     -10.884  14.178  67.266  1.00  0.00    -0.282 NA 
BRANCH  18  20
HETATM   20  C   UNL     1     -10.214  16.307  66.141  1.00  0.00    -0.346 C  
BRANCH  20  21
HETATM   21  N   UNL     1     -10.241  17.084  67.402  1.00  0.00    -0.306 NA 
HETATM   22  C   UNL     1      -8.927  17.090  68.055  1.00  0.00    -0.230 C  
HETATM   23  C   UNL     1     -10.651  18.462  67.117  1.00  0.00    -0.383 C  
ENDBRANCH  20  21
ENDBRANCH  18  20
ENDBRANCH  14  15
ENDBRANCH  13  14
ENDBRANCH  12  13
ENDBRANCH  11  12
ENDBRANCH   9  11
ENDBRANCH   4   9
ENDBRANCH   2   4
TORSDOF 9
ENDMDL
MODEL      103
REMARK 921   NORMALIZED FREE ENERGY PREDICTED BY IDOCK:   -4.05 KCAL/MOL
REMARK 922        TOTAL FREE ENERGY PREDICTED BY IDOCK:   -7.24 KCAL/MOL
REMARK 923 INTER-LIGAND FREE ENERGY PREDICTED BY IDOCK:   -6.50 KCAL/MOL
REMARK 924 INTRA-LIGAND FREE ENERGY PREDICTED BY IDOCK:   -0.74 KCAL/MOL
REMARK 927      BINDING AFFINITY PREDICTED BY RF-SCORE:    0.00 PKD
ROOT
HETATM    1  C   UNL     1     -11.791  13.471  64.065  1.00  0.00    -0.427 C  
HETATM    2  N   UNL     1     -10.501  14.084  64.290  1.00  0.00    -0.573 NA 
HETATM    3  H   UNL     1      -9.768  13.815  63.634  1.00  0.00     0.000 HD 
ENDROOT
BRANCH   2   4
HETATM    4  C   UNL     1     -10.119  14.985  65.270  1.00  0.00    -0.343 C  
HETATM    5  C   UNL     1     -10.537  16.265  65.182  1.00  0.00    -0.304 C  
HETATM    6  O   UNL     1      -9.526  17.008  67.139  1.00  0.00    -0.235 OA 
HETATM    7  N   UNL     1     -10.208  17.287  66.144  1.00  0.00    -0.342 N  
HETATM    8  O   UNL     1     -10.655  18.415  65.896  1.00  0.00    -0.494 OA 
BRANCH   4   9
HETATM    9  N   UNL     1      -9.306  14.529  66.293  1.00  0.00    -0.430 NA 
HETATM   10  H   UNL     1      -8.516  15.135  66.513  1.00  0.00     0.000 HD 
BRANCH   9  11
HETATM   11  C   UNL     1      -9.397  13.330  67.101  1.00  0.00    -0.240 C  
BRANCH  11  12
HETATM   12  C   UNL     1      -8.280  12.348  66.735  1.00  0.00    -0.025 C  
BRANCH  12  13
HETATM   13  S   UNL     1      -8.872  10.951  65.718  1.00  0.00    -0.187 SA 
BRANCH  13  14
HETATM   14  C   UNL     1     -10.544  10.747  66.420  1.00  0.00    -0.203 C  
BRANCH  14  15
HETATM   15  C   UNL     1     -10.518   9.843  67.603  1.00  0.00    -0.244 A  
HETATM   16  C   UNL     1     -10.086   8.532  67.635  1.00  0.00    -0.213 A  
HETATM   17  S   UNL     1     -10.235   7.901  69.220  1.00  0.00    -0.218 SA 
HETATM   18  C   UNL     1     -10.883   9.404  69.748  1.00  0.00    -0.232 A  
HETATM   19  N   UNL     1     -11.010  10.323  68.811  1.00  0.00    -0.236 NA 
BRANCH  18  20
HETATM   20  C   UNL     1     -11.301   9.601  71.186  1.00  0.00    -0.386 C  
BRANCH  20  21
HETATM   21  N   UNL     1     -12.766   9.675  71.390  1.00  0.00    -0.350 NA 
HETATM   22  C   UNL     1     -13.189   8.862  72.535  1.00  0.00    -0.382 C  
HETATM   23  C   UNL     1     -13.158  11.070  71.608  1.00  0.00    -0.438 C  
ENDBRANCH  20  21
ENDBRANCH  18  20
ENDBRANCH  14  15
ENDBRANCH  13  14
ENDBRANCH  12  13
ENDBRANCH  11  12
ENDBRANCH   9  11
ENDBRANCH   4   9
ENDBRANCH   2   4
TORSDOF 9
ENDMDL
MODEL      104
REMARK 921   NORMALIZED FREE ENERGY PREDICTED BY IDOCK:   -4.04 KCAL/MOL
REMARK 922        TOTAL FREE ENERGY PREDICTED BY IDOCK:   -7.24 KCAL/MOL
REMARK 923 INTER-LIGAND FREE ENERGY PREDICTED BY IDOCK:   -6.67 KCAL/MOL
REMARK 924 INTRA-LIGAND FREE ENERGY PREDICTED BY IDOCK:   -0.57 KCAL/MOL
REMARK 927      BINDING AFFINITY PREDICTED BY RF-SCORE:    0.00 PKD
ROOT
HETATM    1  C   UNL     1     -10.386   5.306  69.345  1.00  0.00    -0.243 C  
HETATM    2  N   UNL     1     -11.455   6.277  69.276  1.00  0.00    -0.558 NA 
HETATM    3  H   UNL     1     -12.270   5.993  68.734  1.00  0.00     0.000 HD 
ENDROOT
BRANCH   2   4
HETATM    4  C   UNL     1     -11.528   7.539  69.843  1.00  0.00     0.039 C  
HETATM    5  C   UNL     1     -12.021   7.668  71.093  1.00  0.00    -0.297 C  
HETATM    6  O   UNL     1     -11.753   9.972  71.245  1.00  0.00    -0.361 OA 
HETATM    7  N   UNL     1     -12.139   8.927  71.785  1.00  0.00    -0.337 N  
HETATM    8  O   UNL     1     -12.635   8.866  72.918  1.00  0.00    -0.269 OA 
BRANCH   4   9
HETATM    9  N   UNL     1     -11.105   8.618  69.086  1.00  0.00    -0.426 NA 
HETATM   10  H   UNL     1     -11.448   9.524  69.405  1.00  0.00     0.000 HD 
BRANCH   9  11
HETATM   11  C   UNL     1     -10.255   8.668  67.916  1.00  0.00    -0.219 C  
BRANCH  11  12
HETATM   12  C   UNL     1     -10.347  10.039  67.240  1.00  0.00    -0.237 C  
BRANCH  12  13
HETATM   13  S   UNL     1     -10.218  11.421  68.426  1.00  0.00    -0.204 SA 
BRANCH  13  14
HETATM   14  C   UNL     1     -10.832  12.783  67.378  1.00  0.00    -0.240 C  
BRANCH  14  15
HETATM   15  C   UNL     1     -11.135  13.991  68.196  1.00  0.00    -0.260 A  
HETATM   16  C   UNL     1     -10.578  15.246  68.059  1.00  0.00    -0.261 A  
HETATM   17  S   UNL     1     -11.243  16.316  69.218  1.00  0.00    -0.284 SA 
HETATM   18  C   UNL     1     -12.208  15.033  69.836  1.00  0.00    -0.309 A  
HETATM   19  N   UNL     1     -12.041  13.867  69.243  1.00  0.00    -0.349 NA 
BRANCH  18  20
HETATM   20  C   UNL     1     -13.141  15.261  71.001  1.00  0.00    -0.482 C  
BRANCH  20  21
HETATM   21  N   UNL     1     -12.889  14.378  72.164  1.00  0.00    -0.332 NA 
HETATM   22  C   UNL     1     -12.786  15.148  73.408  1.00  0.00    -0.537 C  
HETATM   23  C   UNL     1     -13.977  13.404  72.280  1.00  0.00    -0.507 C  
ENDBRANCH  20  21
ENDBRANCH  18  20
ENDBRANCH  14  15
ENDBRANCH  13  14
ENDBRANCH  12  13
ENDBRANCH  11  12
ENDBRANCH   9  11
ENDBRANCH   4   9
ENDBRANCH   2   4
TORSDOF 9
ENDMDL
MODEL      105
REMARK 921   NORMALIZED FREE ENERGY PREDICTED BY IDOCK:   -4.04 KCAL/MOL
REMARK 922        TOTAL FREE ENERGY PREDICTED BY IDOCK:   -7.23 KCAL/MOL
REMARK 923 INTER-LIGAND FREE ENERGY PREDICTED BY IDOCK:   -6.62 KCAL/MOL
REMARK 924 INTRA-LIGAND FREE ENERGY PREDICTED BY IDOCK:   -0.61 KCAL/MOL
REMARK 927      BINDING AFFINITY PREDICTED BY RF-SCORE:    0.00 PKD
ROOT
HETATM    1  C   UNL     1     -13.192  12.184  71.934  1.00  0.00    -0.369 C  
HETATM    2  N   UNL     1     -12.378  11.712  70.835  1.00  0.00    -0.371 NA 
HETATM    3  H   UNL     1     -12.059  12.432  70.187  1.00  0.00     0.000 HD 
ENDROOT
BRANCH   2   4
HETATM    4  C   UNL     1     -11.971  10.422  70.540  1.00  0.00    -0.334 C  
HETATM    5  C   UNL     1     -11.923   9.507  71.530  1.00  0.00    -0.399 C  
HETATM    6  O   UNL     1     -11.219   7.727  70.210  1.00  0.00    -0.263 OA 
HETATM    7  N   UNL     1     -11.521   8.136  71.340  1.00  0.00    -0.256 N  
HETATM    8  O   UNL     1     -11.511   7.438  72.363  1.00  0.00    -0.279 OA 
BRANCH   4   9
HETATM    9  N   UNL     1     -11.613  10.136  69.234  1.00  0.00    -0.462 NA 
HETATM   10  H   UNL     1     -12.210   9.455  68.766  1.00  0.00     0.000 HD 
BRANCH   9  11
HETATM   11  C   UNL     1     -10.526  10.648  68.425  1.00  0.00    -0.188 C  
BRANCH  11  12
HETATM   12  C   UNL     1     -10.948  10.749  66.956  1.00  0.00    -0.227 C  
BRANCH  12  13
HETATM   13  S   UNL     1     -10.646  12.403  66.244  1.00  0.00    -0.256 SA 
BRANCH  13  14
HETATM   14  C   UNL     1     -12.016  13.325  67.018  1.00  0.00    -0.365 C  
BRANCH  14  15
HETATM   15  C   UNL     1     -11.501  14.458  67.837  1.00  0.00    -0.321 A  
HETATM   16  C   UNL     1     -11.874  14.788  69.124  1.00  0.00    -0.305 A  
HETATM   17  S   UNL     1     -11.004  16.163  69.656  1.00  0.00    -0.359 SA 
HETATM   18  C   UNL     1     -10.209  16.239  68.133  1.00  0.00    -0.258 A  
HETATM   19  N   UNL     1     -10.573  15.319  67.262  1.00  0.00    -0.284 NA 
BRANCH  18  20
HETATM   20  C   UNL     1      -9.198  17.323  67.843  1.00  0.00    -0.247 C  
BRANCH  20  21
HETATM   21  N   UNL     1      -9.703  18.699  68.059  1.00  0.00    -0.307 NA 
HETATM   22  C   UNL     1      -8.636  19.692  67.892  1.00  0.00    -0.317 C  
HETATM   23  C   UNL     1     -10.783  18.977  67.109  1.00  0.00    -0.456 C  
ENDBRANCH  20  21
ENDBRANCH  18  20
ENDBRANCH  14  15
ENDBRANCH  13  14
ENDBRANCH  12  13
ENDBRANCH  11  12
ENDBRANCH   9  11
ENDBRANCH   4   9
ENDBRANCH   2   4
TORSDOF 9
ENDMDL
MODEL      106
REMARK 921   NORMALIZED FREE ENERGY PREDICTED BY IDOCK:   -4.03 KCAL/MOL
REMARK 922        TOTAL FREE ENERGY PREDICTED BY IDOCK:   -7.21 KCAL/MOL
REMARK 923 INTER-LIGAND FREE ENERGY PREDICTED BY IDOCK:   -6.76 KCAL/MOL
REMARK 924 INTRA-LIGAND FREE ENERGY PREDICTED BY IDOCK:   -0.46 KCAL/MOL
REMARK 927      BINDING AFFINITY PREDICTED BY RF-SCORE:    0.00 PKD
ROOT
HETATM    1  C   UNL     1     -10.629  14.906  69.347  1.00  0.00    -0.246 C  
HETATM    2  N   UNL     1     -10.925  16.243  68.881  1.00  0.00    -0.314 NA 
HETATM    3  H   UNL     1     -11.655  16.734  69.396  1.00  0.00     0.000 HD 
ENDROOT
BRANCH   2   4
HETATM    4  C   UNL     1     -10.358  16.950  67.834  1.00  0.00    -0.332 C  
HETATM    5  C   UNL     1     -10.568  18.280  67.752  1.00  0.00    -0.393 C  
HETATM    6  O   UNL     1      -9.295  18.630  65.838  1.00  0.00    -0.475 OA 
HETATM    7  N   UNL     1     -10.025  19.118  66.712  1.00  0.00    -0.336 N  
HETATM    8  O   UNL     1     -10.337  20.315  66.776  1.00  0.00    -0.421 OA 
BRANCH   4   9
HETATM    9  N   UNL     1      -9.611  16.248  66.904  1.00  0.00    -0.226 NA 
HETATM   10  H   UNL     1      -8.629  16.519  66.852  1.00  0.00     0.000 HD 
BRANCH   9  11
HETATM   11  C   UNL     1      -9.999  15.191  65.993  1.00  0.00    -0.311 C  
BRANCH  11  12
HETATM   12  C   UNL     1     -11.014  15.708  64.969  1.00  0.00    -0.431 C  
BRANCH  12  13
HETATM   13  S   UNL     1     -12.144  14.404  64.373  1.00  0.00    -0.420 SA 
BRANCH  13  14
HETATM   14  C   UNL     1     -12.062  13.256  65.788  1.00  0.00    -0.441 C  
BRANCH  14  15
HETATM   15  C   UNL     1     -11.203  12.080  65.471  1.00  0.00    -0.321 A  
HETATM   16  C   UNL     1     -10.671  11.751  64.240  1.00  0.00    -0.342 A  
HETATM   17  S   UNL     1      -9.744  10.317  64.364  1.00  0.00    -0.281 SA 
HETATM   18  C   UNL     1     -10.131  10.221  66.037  1.00  0.00    -0.244 A  
HETATM   19  N   UNL     1     -10.921  11.176  66.487  1.00  0.00    -0.249 NA 
BRANCH  18  20
HETATM   20  C   UNL     1      -9.613   9.084  66.885  1.00  0.00    -0.185 C  
BRANCH  20  21
HETATM   21  N   UNL     1     -10.659   8.375  67.657  1.00  0.00    -0.227 NA 
HETATM   22  C   UNL     1     -10.783   6.976  67.232  1.00  0.00    -0.342 C  
HETATM   23  C   UNL     1     -10.330   8.425  69.084  1.00  0.00    -0.220 C  
ENDBRANCH  20  21
ENDBRANCH  18  20
ENDBRANCH  14  15
ENDBRANCH  13  14
ENDBRANCH  12  13
ENDBRANCH  11  12
ENDBRANCH   9  11
ENDBRANCH   4   9
ENDBRANCH   2   4
TORSDOF 9
ENDMDL
MODEL      107
REMARK 921   NORMALIZED FREE ENERGY PREDICTED BY IDOCK:   -4.02 KCAL/MOL
REMARK 922        TOTAL FREE ENERGY PREDICTED BY IDOCK:   -7.21 KCAL/MOL
REMARK 923 INTER-LIGAND FREE ENERGY PREDICTED BY IDOCK:   -6.90 KCAL/MOL
REMARK 924 INTRA-LIGAND FREE ENERGY PREDICTED BY IDOCK:   -0.31 KCAL/MOL
REMARK 927      BINDING AFFINITY PREDICTED BY RF-SCORE:    0.00 PKD
ROOT
HETATM    1  C   UNL     1     -12.868  11.872  63.257  1.00  0.00    -0.161 C  
HETATM    2  N   UNL     1     -11.528  11.339  63.149  1.00  0.00    -0.831 NA 
HETATM    3  H   UNL     1     -11.331  10.822  62.292  1.00  0.00     0.000 HD 
ENDROOT
BRANCH   2   4
HETATM    4  C   UNL     1     -10.475  11.431  64.044  1.00  0.00    -0.378 C  
HETATM    5  C   UNL     1     -10.135  10.345  64.769  1.00  0.00    -0.317 C  
HETATM    6  O   UNL     1      -8.359  11.330  65.900  1.00  0.00    -0.130 OA 
HETATM    7  N   UNL     1      -9.056  10.321  65.725  1.00  0.00    -0.163 N  
HETATM    8  O   UNL     1      -8.897   9.248  66.321  1.00  0.00    -0.135 OA 
BRANCH   4   9
HETATM    9  N   UNL     1      -9.828  12.649  64.164  1.00  0.00    -0.612 NA 
HETATM   10  H   UNL     1      -9.096  12.814  63.473  1.00  0.00     0.000 HD 
BRANCH   9  11
HETATM   11  C   UNL     1     -10.023  13.725  65.113  1.00  0.00    -0.211 C  
BRANCH  11  12
HETATM   12  C   UNL     1     -11.287  14.520  64.774  1.00  0.00    -0.396 C  
BRANCH  12  13
HETATM   13  S   UNL     1     -12.653  14.209  65.945  1.00  0.00    -0.314 SA 
BRANCH  13  14
HETATM   14  C   UNL     1     -11.722  13.417  67.300  1.00  0.00    -0.380 C  
BRANCH  14  15
HETATM   15  C   UNL     1     -11.469  14.382  68.407  1.00  0.00    -0.301 A  
HETATM   16  C   UNL     1     -11.622  14.151  69.759  1.00  0.00    -0.290 A  
HETATM   17  S   UNL     1     -11.202  15.553  70.648  1.00  0.00    -0.371 SA 
HETATM   18  C   UNL     1     -10.868  16.376  69.176  1.00  0.00    -0.329 A  
HETATM   19  N   UNL     1     -11.073  15.673  68.079  1.00  0.00    -0.325 NA 
BRANCH  18  20
HETATM   20  C   UNL     1     -10.410  17.815  69.183  1.00  0.00    -0.157 C  
BRANCH  20  21
HETATM   21  N   UNL     1      -9.677  18.227  67.964  1.00  0.00    -0.299 NA 
HETATM   22  C   UNL     1     -10.420  19.242  67.209  1.00  0.00    -0.462 C  
HETATM   23  C   UNL     1      -8.365  18.759  68.340  1.00  0.00    -0.342 C  
ENDBRANCH  20  21
ENDBRANCH  18  20
ENDBRANCH  14  15
ENDBRANCH  13  14
ENDBRANCH  12  13
ENDBRANCH  11  12
ENDBRANCH   9  11
ENDBRANCH   4   9
ENDBRANCH   2   4
TORSDOF 9
ENDMDL
MODEL      108
REMARK 921   NORMALIZED FREE ENERGY PREDICTED BY IDOCK:   -4.02 KCAL/MOL
REMARK 922        TOTAL FREE ENERGY PREDICTED BY IDOCK:   -7.20 KCAL/MOL
REMARK 923 INTER-LIGAND FREE ENERGY PREDICTED BY IDOCK:   -6.59 KCAL/MOL
REMARK 924 INTRA-LIGAND FREE ENERGY PREDICTED BY IDOCK:   -0.61 KCAL/MOL
REMARK 927      BINDING AFFINITY PREDICTED BY RF-SCORE:    0.00 PKD
ROOT
HETATM    1  C   UNL     1     -12.768  11.842  63.408  1.00  0.00    -0.366 C  
HETATM    2  N   UNL     1     -11.370  11.580  63.153  1.00  0.00    -0.848 NA 
HETATM    3  H   UNL     1     -11.118  11.468  62.171  1.00  0.00     0.000 HD 
ENDROOT
BRANCH   2   4
HETATM    4  C   UNL     1     -10.324  11.458  64.052  1.00  0.00    -0.362 C  
HETATM    5  C   UNL     1      -9.710  10.264  64.186  1.00  0.00    -0.291 C  
HETATM    6  O   UNL     1      -8.154  10.944  65.773  1.00  0.00    -0.157 OA 
HETATM    7  N   UNL     1      -8.609  10.021  65.085  1.00  0.00    -0.148 N  
HETATM    8  O   UNL     1      -8.180   8.859  65.098  1.00  0.00    -0.124 OA 
BRANCH   4   9
HETATM    9  N   UNL     1      -9.968  12.573  64.791  1.00  0.00    -0.468 NA 
HETATM   10  H   UNL     1      -9.223  12.416  65.470  1.00  0.00     0.000 HD 
BRANCH   9  11
HETATM   11  C   UNL     1     -10.482  13.926  64.755  1.00  0.00    -0.429 C  
BRANCH  11  12
HETATM   12  C   UNL     1     -10.665  14.471  66.175  1.00  0.00    -0.310 C  
BRANCH  12  13
HETATM   13  S   UNL     1     -10.112  13.298  67.459  1.00  0.00    -0.226 SA 
BRANCH  13  14
HETATM   14  C   UNL     1     -11.722  12.590  67.943  1.00  0.00    -0.359 C  
BRANCH  14  15
HETATM   15  C   UNL     1     -11.542  11.456  68.893  1.00  0.00    -0.323 A  
HETATM   16  C   UNL     1     -11.980  11.393  70.200  1.00  0.00    -0.377 A  
HETATM   17  S   UNL     1     -11.550   9.887  70.894  1.00  0.00    -0.399 SA 
HETATM   18  C   UNL     1     -10.793   9.434  69.417  1.00  0.00    -0.189 A  
HETATM   19  N   UNL     1     -10.828  10.344  68.464  1.00  0.00    -0.221 NA 
BRANCH  18  20
HETATM   20  C   UNL     1     -10.114   8.092  69.279  1.00  0.00    -0.202 C  
BRANCH  20  21
HETATM   21  N   UNL     1     -10.906   7.083  68.537  1.00  0.00    -0.174 NA 
HETATM   22  C   UNL     1     -10.485   6.997  67.135  1.00  0.00    -0.312 C  
HETATM   23  C   UNL     1     -10.749   5.774  69.177  1.00  0.00    -0.300 C  
ENDBRANCH  20  21
ENDBRANCH  18  20
ENDBRANCH  14  15
ENDBRANCH  13  14
ENDBRANCH  12  13
ENDBRANCH  11  12
ENDBRANCH   9  11
ENDBRANCH   4   9
ENDBRANCH   2   4
TORSDOF 9
ENDMDL
MODEL      109
REMARK 921   NORMALIZED FREE ENERGY PREDICTED BY IDOCK:   -4.01 KCAL/MOL
REMARK 922        TOTAL FREE ENERGY PREDICTED BY IDOCK:   -7.19 KCAL/MOL
REMARK 923 INTER-LIGAND FREE ENERGY PREDICTED BY IDOCK:   -6.50 KCAL/MOL
REMARK 924 INTRA-LIGAND FREE ENERGY PREDICTED BY IDOCK:   -0.69 KCAL/MOL
REMARK 927      BINDING AFFINITY PREDICTED BY RF-SCORE:    0.00 PKD
ROOT
HETATM    1  C   UNL     1     -12.082  12.974  63.474  1.00  0.00    -0.542 C  
HETATM    2  N   UNL     1     -12.788  13.063  64.732  1.00  0.00    -0.745 NA 
HETATM    3  H   UNL     1     -13.805  13.084  64.662  1.00  0.00     0.000 HD 
ENDROOT
BRANCH   2   4
HETATM    4  C   UNL     1     -12.280  13.122  66.018  1.00  0.00    -0.414 C  
HETATM    5  C   UNL     1     -12.252  14.310  66.658  1.00  0.00    -0.381 C  
HETATM    6  O   UNL     1     -11.338  13.520  68.644  1.00  0.00    -0.251 OA 
HETATM    7  N   UNL     1     -11.752  14.492  67.998  1.00  0.00    -0.337 N  
HETATM    8  O   UNL     1     -11.779  15.655  68.422  1.00  0.00    -0.367 OA 
BRANCH   4   9
HETATM    9  N   UNL     1     -11.803  11.953  66.585  1.00  0.00    -0.590 NA 
HETATM   10  H   UNL     1     -12.359  11.598  67.363  1.00  0.00     0.000 HD 
BRANCH   9  11
HETATM   11  C   UNL     1     -10.644  11.152  66.250  1.00  0.00    -0.253 C  
BRANCH  11  12
HETATM   12  C   UNL     1      -9.678  11.081  67.436  1.00  0.00    -0.168 C  
BRANCH  12  13
HETATM   13  S   UNL     1      -7.965  11.522  66.982  1.00  0.00    -0.165 SA 
BRANCH  13  14
HETATM   14  C   UNL     1      -7.559  12.640  68.365  1.00  0.00    -0.132 C  
BRANCH  14  15
HETATM   15  C   UNL     1      -7.340  14.031  67.879  1.00  0.00    -0.157 A  
HETATM   16  C   UNL     1      -6.157  14.741  67.903  1.00  0.00    -0.154 A  
HETATM   17  S   UNL     1      -6.388  16.297  67.227  1.00  0.00    -0.159 SA 
HETATM   18  C   UNL     1      -8.048  15.928  66.969  1.00  0.00    -0.230 A  
HETATM   19  N   UNL     1      -8.429  14.733  67.377  1.00  0.00    -0.188 NA 
BRANCH  18  20
HETATM   20  C   UNL     1      -8.977  16.945  66.350  1.00  0.00    -0.283 C  
BRANCH  20  21
HETATM   21  N   UNL     1      -9.141  18.184  67.146  1.00  0.00    -0.252 NA 
HETATM   22  C   UNL     1      -8.391  19.300  66.560  1.00  0.00    -0.319 C  
HETATM   23  C   UNL     1     -10.562  18.533  67.218  1.00  0.00    -0.413 C  
ENDBRANCH  20  21
ENDBRANCH  18  20
ENDBRANCH  14  15
ENDBRANCH  13  14
ENDBRANCH  12  13
ENDBRANCH  11  12
ENDBRANCH   9  11
ENDBRANCH   4   9
ENDBRANCH   2   4
TORSDOF 9
ENDMDL
MODEL      110
REMARK 921   NORMALIZED FREE ENERGY PREDICTED BY IDOCK:   -4.00 KCAL/MOL
REMARK 922        TOTAL FREE ENERGY PREDICTED BY IDOCK:   -7.18 KCAL/MOL
REMARK 923 INTER-LIGAND FREE ENERGY PREDICTED BY IDOCK:   -6.72 KCAL/MOL
REMARK 924 INTRA-LIGAND FREE ENERGY PREDICTED BY IDOCK:   -0.46 KCAL/MOL
REMARK 927      BINDING AFFINITY PREDICTED BY RF-SCORE:    0.00 PKD
ROOT
HETATM    1  C   UNL     1     -10.107   8.980  66.357  1.00  0.00    -0.281 C  
HETATM    2  N   UNL     1     -10.099  10.225  67.093  1.00  0.00    -0.200 NA 
HETATM    3  H   UNL     1      -9.365  10.883  66.832  1.00  0.00     0.000 HD 
ENDROOT
BRANCH   2   4
HETATM    4  C   UNL     1     -10.947  10.650  68.102  1.00  0.00    -0.269 C  
HETATM    5  C   UNL     1     -10.919  10.014  69.292  1.00  0.00    -0.228 C  
HETATM    6  O   UNL     1     -12.531  11.330  70.331  1.00  0.00    -0.298 OA 
HETATM    7  N   UNL     1     -11.751  10.371  70.415  1.00  0.00    -0.305 N  
HETATM    8  O   UNL     1     -11.614   9.667  71.423  1.00  0.00    -0.358 OA 
BRANCH   4   9
HETATM    9  N   UNL     1     -11.802  11.705  67.833  1.00  0.00    -0.596 NA 
HETATM   10  H   UNL     1     -12.536  11.848  68.526  1.00  0.00     0.000 HD 
BRANCH   9  11
HETATM   11  C   UNL     1     -11.821  12.638  66.725  1.00  0.00    -0.370 C  
BRANCH  11  12
HETATM   12  C   UNL     1     -12.026  14.069  67.230  1.00  0.00    -0.413 C  
BRANCH  12  13
HETATM   13  S   UNL     1     -10.649  14.655  68.275  1.00  0.00    -0.240 SA 
BRANCH  13  14
HETATM   14  C   UNL     1     -11.205  16.365  68.585  1.00  0.00    -0.332 C  
BRANCH  14  15
HETATM   15  C   UNL     1     -10.272  17.348  67.966  1.00  0.00    -0.345 A  
HETATM   16  C   UNL     1     -10.521  18.151  66.871  1.00  0.00    -0.357 A  
HETATM   17  S   UNL     1      -9.155  19.126  66.532  1.00  0.00    -0.347 SA 
HETATM   18  C   UNL     1      -8.320  18.399  67.849  1.00  0.00    -0.261 A  
HETATM   19  N   UNL     1      -8.993  17.469  68.498  1.00  0.00    -0.277 NA 
BRANCH  18  20
HETATM   20  C   UNL     1      -6.903  18.801  68.180  1.00  0.00    -0.237 C  
BRANCH  20  21
HETATM   21  N   UNL     1      -6.780  20.140  68.801  1.00  0.00    -0.300 NA 
HETATM   22  C   UNL     1      -6.271  20.049  70.174  1.00  0.00    -0.358 C  
HETATM   23  C   UNL     1      -5.876  20.968  67.999  1.00  0.00    -0.344 C  
ENDBRANCH  20  21
ENDBRANCH  18  20
ENDBRANCH  14  15
ENDBRANCH  13  14
ENDBRANCH  12  13
ENDBRANCH  11  12
ENDBRANCH   9  11
ENDBRANCH   4   9
ENDBRANCH   2   4
TORSDOF 9
ENDMDL
MODEL      111
REMARK 921   NORMALIZED FREE ENERGY PREDICTED BY IDOCK:   -4.00 KCAL/MOL
REMARK 922        TOTAL FREE ENERGY PREDICTED BY IDOCK:   -7.17 KCAL/MOL
REMARK 923 INTER-LIGAND FREE ENERGY PREDICTED BY IDOCK:   -6.43 KCAL/MOL
REMARK 924 INTRA-LIGAND FREE ENERGY PREDICTED BY IDOCK:   -0.73 KCAL/MOL
REMARK 927      BINDING AFFINITY PREDICTED BY RF-SCORE:    0.00 PKD
ROOT
HETATM    1  C   UNL     1      -8.941  10.216  64.392  1.00  0.00    -0.233 C  
HETATM    2  N   UNL     1      -9.151  11.636  64.558  1.00  0.00    -0.397 NA 
HETATM    3  H   UNL     1      -8.377  12.146  64.984  1.00  0.00     0.000 HD 
ENDROOT
BRANCH   2   4
HETATM    4  C   UNL     1     -10.254  12.403  64.220  1.00  0.00    -0.332 C  
HETATM    5  C   UNL     1     -11.367  11.787  63.769  1.00  0.00    -0.438 C  
HETATM    6  O   UNL     1     -12.643  13.712  63.502  1.00  0.00    -0.754 OA 
HETATM    7  N   UNL     1     -12.574  12.479  63.394  1.00  0.00    -0.404 N  
HETATM    8  O   UNL     1     -13.492  11.761  62.978  1.00  0.00    -0.300 OA 
BRANCH   4   9
HETATM    9  N   UNL     1     -10.154  13.778  64.346  1.00  0.00    -0.752 NA 
HETATM   10  H   UNL     1     -10.310  14.298  63.483  1.00  0.00     0.000 HD 
BRANCH   9  11
HETATM   11  C   UNL     1      -9.866  14.595  65.506  1.00  0.00    -0.292 C  
BRANCH  11  12
HETATM   12  C   UNL     1     -10.959  14.432  66.566  1.00  0.00    -0.316 C  
BRANCH  12  13
HETATM   13  S   UNL     1     -10.286  14.252  68.254  1.00  0.00    -0.248 SA 
BRANCH  13  14
HETATM   14  C   UNL     1      -9.314  12.724  68.035  1.00  0.00    -0.213 C  
BRANCH  14  15
HETATM   15  C   UNL     1      -9.966  11.574  68.723  1.00  0.00    -0.157 A  
HETATM   16  C   UNL     1     -11.185  11.579  69.370  1.00  0.00    -0.259 A  
HETATM   17  S   UNL     1     -11.524  10.023  70.000  1.00  0.00    -0.227 SA 
HETATM   18  C   UNL     1     -10.019   9.458  69.391  1.00  0.00    -0.183 A  
HETATM   19  N   UNL     1      -9.285  10.364  68.773  1.00  0.00    -0.163 NA 
BRANCH  18  20
HETATM   20  C   UNL     1      -9.589   8.026  69.603  1.00  0.00    -0.168 C  
BRANCH  20  21
HETATM   21  N   UNL     1     -10.297   7.045  68.748  1.00  0.00    -0.180 NA 
HETATM   22  C   UNL     1     -10.510   7.570  67.395  1.00  0.00    -0.297 C  
HETATM   23  C   UNL     1      -9.516   5.808  68.676  1.00  0.00    -0.123 C  
ENDBRANCH  20  21
ENDBRANCH  18  20
ENDBRANCH  14  15
ENDBRANCH  13  14
ENDBRANCH  12  13
ENDBRANCH  11  12
ENDBRANCH   9  11
ENDBRANCH   4   9
ENDBRANCH   2   4
TORSDOF 9
ENDMDL
MODEL      112
REMARK 921   NORMALIZED FREE ENERGY PREDICTED BY IDOCK:   -3.99 KCAL/MOL
REMARK 922        TOTAL FREE ENERGY PREDICTED BY IDOCK:   -7.15 KCAL/MOL
REMARK 923 INTER-LIGAND FREE ENERGY PREDICTED BY IDOCK:   -6.75 KCAL/MOL
REMARK 924 INTRA-LIGAND FREE ENERGY PREDICTED BY IDOCK:   -0.40 KCAL/MOL
REMARK 927      BINDING AFFINITY PREDICTED BY RF-SCORE:    0.00 PKD
ROOT
HETATM    1  C   UNL     1      -7.730   7.609  73.916  1.00  0.00    -0.142 C  
HETATM    2  N   UNL     1      -9.066   7.447  74.445  1.00  0.00    -0.416 NA 
HETATM    3  H   UNL     1      -9.263   7.963  75.302  1.00  0.00     0.000 HD 
ENDROOT
BRANCH   2   4
HETATM    4  C   UNL     1     -10.115   6.690  73.953  1.00  0.00    -0.324 C  
HETATM    5  C   UNL     1     -10.080   5.348  74.098  1.00  0.00    -0.237 C  
HETATM    6  O   UNL     1     -12.128   4.920  73.083  1.00  0.00    -0.146 OA 
HETATM    7  N   UNL     1     -11.116   4.461  73.632  1.00  0.00    -0.288 N  
HETATM    8  O   UNL     1     -10.911   3.256  73.826  1.00  0.00    -0.208 OA 
BRANCH   4   9
HETATM    9  N   UNL     1     -11.151   7.350  73.314  1.00  0.00    -0.576 NA 
HETATM   10  H   UNL     1     -12.082   7.119  73.660  1.00  0.00     0.000 HD 
BRANCH   9  11
HETATM   11  C   UNL     1     -11.124   8.314  72.234  1.00  0.00    -0.359 C  
BRANCH  11  12
HETATM   12  C   UNL     1     -12.508   8.939  72.036  1.00  0.00    -0.392 C  
BRANCH  12  13
HETATM   13  S   UNL     1     -12.492  10.336  70.861  1.00  0.00    -0.393 SA 
BRANCH  13  14
HETATM   14  C   UNL     1     -13.181  11.644  71.930  1.00  0.00    -0.369 C  
BRANCH  14  15
HETATM   15  C   UNL     1     -12.883  12.996  71.378  1.00  0.00    -0.292 A  
HETATM   16  C   UNL     1     -13.482  14.187  71.735  1.00  0.00    -0.390 A  
HETATM   17  S   UNL     1     -12.806  15.479  70.837  1.00  0.00    -0.436 SA 
HETATM   18  C   UNL     1     -11.781  14.364  70.022  1.00  0.00    -0.298 A  
HETATM   19  N   UNL     1     -11.936  13.101  70.367  1.00  0.00    -0.311 NA 
BRANCH  18  20
HETATM   20  C   UNL     1     -10.813  14.838  68.965  1.00  0.00    -0.245 C  
BRANCH  20  21
HETATM   21  N   UNL     1     -10.821  14.027  67.725  1.00  0.00    -0.245 NA 
HETATM   22  C   UNL     1     -12.134  14.062  67.071  1.00  0.00    -0.420 C  
HETATM   23  C   UNL     1      -9.802  14.536  66.803  1.00  0.00    -0.265 C  
ENDBRANCH  20  21
ENDBRANCH  18  20
ENDBRANCH  14  15
ENDBRANCH  13  14
ENDBRANCH  12  13
ENDBRANCH  11  12
ENDBRANCH   9  11
ENDBRANCH   4   9
ENDBRANCH   2   4
TORSDOF 9
ENDMDL
MODEL      113
REMARK 921   NORMALIZED FREE ENERGY PREDICTED BY IDOCK:   -3.99 KCAL/MOL
REMARK 922        TOTAL FREE ENERGY PREDICTED BY IDOCK:   -7.15 KCAL/MOL
REMARK 923 INTER-LIGAND FREE ENERGY PREDICTED BY IDOCK:   -6.62 KCAL/MOL
REMARK 924 INTRA-LIGAND FREE ENERGY PREDICTED BY IDOCK:   -0.53 KCAL/MOL
REMARK 927      BINDING AFFINITY PREDICTED BY RF-SCORE:    0.00 PKD
ROOT
HETATM    1  C   UNL     1      -9.838   9.555  65.752  1.00  0.00    -0.293 C  
HETATM    2  N   UNL     1      -9.901  10.951  65.380  1.00  0.00    -0.239 NA 
HETATM    3  H   UNL     1      -9.014  11.370  65.099  1.00  0.00     0.000 HD 
ENDROOT
BRANCH   2   4
HETATM    4  C   UNL     1     -10.994  11.800  65.352  1.00  0.00    -0.297 C  
HETATM    5  C   UNL     1     -11.315  12.417  64.195  1.00  0.00    -0.379 C  
HETATM    6  O   UNL     1     -13.182  13.542  65.006  1.00  0.00    -0.721 OA 
HETATM    7  N   UNL     1     -12.432  13.316  64.046  1.00  0.00    -0.303 N  
HETATM    8  O   UNL     1     -12.568  13.814  62.920  1.00  0.00    -0.611 OA 
BRANCH   4   9
HETATM    9  N   UNL     1     -11.701  11.991  66.527  1.00  0.00    -0.575 NA 
HETATM   10  H   UNL     1     -12.693  11.762  66.470  1.00  0.00     0.000 HD 
BRANCH   9  11
HETATM   11  C   UNL     1     -11.258  12.462  67.822  1.00  0.00    -0.275 C  
BRANCH  11  12
HETATM   12  C   UNL     1     -11.840  11.592  68.940  1.00  0.00    -0.341 C  
BRANCH  12  13
HETATM   13  S   UNL     1     -10.604  10.467  69.677  1.00  0.00    -0.218 SA 
BRANCH  13  14
HETATM   14  C   UNL     1     -11.563   9.848  71.100  1.00  0.00    -0.389 C  
BRANCH  14  15
HETATM   15  C   UNL     1     -11.383   8.378  71.266  1.00  0.00    -0.266 A  
HETATM   16  C   UNL     1     -11.643   7.634  72.398  1.00  0.00    -0.336 A  
HETATM   17  S   UNL     1     -11.293   5.983  72.112  1.00  0.00    -0.293 SA 
HETATM   18  C   UNL     1     -10.799   6.374  70.512  1.00  0.00    -0.279 A  
HETATM   19  N   UNL     1     -10.862   7.654  70.200  1.00  0.00    -0.248 NA 
BRANCH  18  20
HETATM   20  C   UNL     1     -10.299   5.301  69.574  1.00  0.00    -0.263 C  
BRANCH  20  21
HETATM   21  N   UNL     1      -8.861   5.408  69.238  1.00  0.00    -0.101 NA 
HETATM   22  C   UNL     1      -8.041   5.576  70.443  1.00  0.00    -0.103 C  
HETATM   23  C   UNL     1      -8.436   4.203  68.522  1.00  0.00    -0.091 C  
ENDBRANCH  20  21
ENDBRANCH  18  20
ENDBRANCH  14  15
ENDBRANCH  13  14
ENDBRANCH  12  13
ENDBRANCH  11  12
ENDBRANCH   9  11
ENDBRANCH   4   9
ENDBRANCH   2   4
TORSDOF 9
ENDMDL
MODEL      114
REMARK 921   NORMALIZED FREE ENERGY PREDICTED BY IDOCK:   -3.98 KCAL/MOL
REMARK 922        TOTAL FREE ENERGY PREDICTED BY IDOCK:   -7.13 KCAL/MOL
REMARK 923 INTER-LIGAND FREE ENERGY PREDICTED BY IDOCK:   -6.63 KCAL/MOL
REMARK 924 INTRA-LIGAND FREE ENERGY PREDICTED BY IDOCK:   -0.51 KCAL/MOL
REMARK 927      BINDING AFFINITY PREDICTED BY RF-SCORE:    0.00 PKD
ROOT
HETATM    1  C   UNL     1      -8.752   9.504  62.373  1.00  0.00    -0.226 C  
HETATM    2  N   UNL     1      -9.394   9.370  63.662  1.00  0.00    -0.425 NA 
HETATM    3  H   UNL     1      -9.830   8.466  63.841  1.00  0.00     0.000 HD 
ENDROOT
BRANCH   2   4
HETATM    4  C   UNL     1      -9.500  10.295  64.687  1.00  0.00    -0.293 C  
HETATM    5  C   UNL     1      -8.489  10.409  65.574  1.00  0.00    -0.167 C  
HETATM    6  O   UNL     1      -9.438  12.114  66.837  1.00  0.00    -0.199 OA 
HETATM    7  N   UNL     1      -8.486  11.338  66.676  1.00  0.00    -0.164 N  
HETATM    8  O   UNL     1      -7.488  11.293  67.407  1.00  0.00    -0.104 OA 
BRANCH   4   9
HETATM    9  N   UNL     1     -10.656  11.052  64.763  1.00  0.00    -0.308 NA 
HETATM   10  H   UNL     1     -11.305  10.768  65.497  1.00  0.00     0.000 HD 
BRANCH   9  11
HETATM   11  C   UNL     1     -11.092  12.182  63.970  1.00  0.00    -0.386 C  
BRANCH  11  12
HETATM   12  C   UNL     1     -12.321  12.842  64.602  1.00  0.00    -0.439 C  
BRANCH  12  13
HETATM   13  S   UNL     1     -12.234  14.666  64.582  1.00  0.00    -0.369 SA 
BRANCH  13  14
HETATM   14  C   UNL     1     -10.568  14.901  65.287  1.00  0.00    -0.401 C  
BRANCH  14  15
HETATM   15  C   UNL     1     -10.615  15.794  66.479  1.00  0.00    -0.306 A  
HETATM   16  C   UNL     1     -10.333  17.145  66.514  1.00  0.00    -0.306 A  
HETATM   17  S   UNL     1     -10.533  17.748  68.104  1.00  0.00    -0.352 SA 
HETATM   18  C   UNL     1     -10.958  16.170  68.640  1.00  0.00    -0.336 A  
HETATM   19  N   UNL     1     -10.936  15.235  67.710  1.00  0.00    -0.303 NA 
BRANCH  18  20
HETATM   20  C   UNL     1     -11.291  15.911  70.090  1.00  0.00    -0.365 C  
BRANCH  20  21
HETATM   21  N   UNL     1     -12.470  15.038  70.297  1.00  0.00    -0.341 NA 
HETATM   22  C   UNL     1     -12.081  13.627  70.394  1.00  0.00    -0.351 C  
HETATM   23  C   UNL     1     -13.164  15.439  71.523  1.00  0.00    -0.490 C  
ENDBRANCH  20  21
ENDBRANCH  18  20
ENDBRANCH  14  15
ENDBRANCH  13  14
ENDBRANCH  12  13
ENDBRANCH  11  12
ENDBRANCH   9  11
ENDBRANCH   4   9
ENDBRANCH   2   4
TORSDOF 9
ENDMDL
MODEL      115
REMARK 921   NORMALIZED FREE ENERGY PREDICTED BY IDOCK:   -3.97 KCAL/MOL
REMARK 922        TOTAL FREE ENERGY PREDICTED BY IDOCK:   -7.13 KCAL/MOL
REMARK 923 INTER-LIGAND FREE ENERGY PREDICTED BY IDOCK:   -6.70 KCAL/MOL
REMARK 924 INTRA-LIGAND FREE ENERGY PREDICTED BY IDOCK:   -0.43 KCAL/MOL
REMARK 927      BINDING AFFINITY PREDICTED BY RF-SCORE:    0.00 PKD
ROOT
HETATM    1  C   UNL     1     -10.663  14.654  65.061  1.00  0.00    -0.430 C  
HETATM    2  N   UNL     1      -9.935  15.441  66.031  1.00  0.00    -0.299 NA 
HETATM    3  H   UNL     1      -9.033  15.060  66.316  1.00  0.00     0.000 HD 
ENDROOT
BRANCH   2   4
HETATM    4  C   UNL     1     -10.290  16.639  66.629  1.00  0.00    -0.296 C  
HETATM    5  C   UNL     1     -10.263  17.771  65.894  1.00  0.00    -0.225 C  
HETATM    6  O   UNL     1     -10.997  19.196  67.578  1.00  0.00    -0.456 OA 
HETATM    7  N   UNL     1     -10.616  19.072  66.406  1.00  0.00    -0.425 N  
HETATM    8  O   UNL     1     -10.512  20.006  65.601  1.00  0.00    -0.458 OA 
BRANCH   4   9
HETATM    9  N   UNL     1     -10.640  16.621  67.968  1.00  0.00    -0.325 NA 
HETATM   10  H   UNL     1     -10.130  17.282  68.552  1.00  0.00     0.000 HD 
BRANCH   9  11
HETATM   11  C   UNL     1     -11.616  15.813  68.671  1.00  0.00    -0.386 C  
BRANCH  11  12
HETATM   12  C   UNL     1     -10.920  14.730  69.500  1.00  0.00    -0.266 C  
BRANCH  12  13
HETATM   13  S   UNL     1     -10.672  13.178  68.571  1.00  0.00    -0.258 SA 
BRANCH  13  14
HETATM   14  C   UNL     1     -11.970  12.150  69.336  1.00  0.00    -0.270 C  
BRANCH  14  15
HETATM   15  C   UNL     1     -11.413  10.849  69.803  1.00  0.00    -0.313 A  
HETATM   16  C   UNL     1     -10.436  10.096  69.184  1.00  0.00    -0.222 A  
HETATM   17  S   UNL     1     -10.115   8.683  70.095  1.00  0.00    -0.190 SA 
HETATM   18  C   UNL     1     -11.311   9.157  71.236  1.00  0.00    -0.336 A  
HETATM   19  N   UNL     1     -11.937  10.284  70.959  1.00  0.00    -0.359 NA 
BRANCH  18  20
HETATM   20  C   UNL     1     -11.617   8.294  72.437  1.00  0.00    -0.396 C  
BRANCH  20  21
HETATM   21  N   UNL     1     -10.901   6.998  72.453  1.00  0.00    -0.229 NA 
HETATM   22  C   UNL     1     -10.219   6.779  73.733  1.00  0.00    -0.349 C  
HETATM   23  C   UNL     1     -11.854   5.911  72.215  1.00  0.00    -0.208 C  
ENDBRANCH  20  21
ENDBRANCH  18  20
ENDBRANCH  14  15
ENDBRANCH  13  14
ENDBRANCH  12  13
ENDBRANCH  11  12
ENDBRANCH   9  11
ENDBRANCH   4   9
ENDBRANCH   2   4
TORSDOF 9
ENDMDL
MODEL      116
REMARK 921   NORMALIZED FREE ENERGY PREDICTED BY IDOCK:   -3.96 KCAL/MOL
REMARK 922        TOTAL FREE ENERGY PREDICTED BY IDOCK:   -7.12 KCAL/MOL
REMARK 923 INTER-LIGAND FREE ENERGY PREDICTED BY IDOCK:   -6.56 KCAL/MOL
REMARK 924 INTRA-LIGAND FREE ENERGY PREDICTED BY IDOCK:   -0.56 KCAL/MOL
REMARK 927      BINDING AFFINITY PREDICTED BY RF-SCORE:    0.00 PKD
ROOT
HETATM    1  C   UNL     1     -12.774  15.706  71.297  1.00  0.00    -0.475 C  
HETATM    2  N   UNL     1     -13.052  14.942  70.101  1.00  0.00    -0.607 NA 
HETATM    3  H   UNL     1     -13.939  15.153  69.643  1.00  0.00     0.000 HD 
ENDROOT
BRANCH   2   4
HETATM    4  C   UNL     1     -12.285  13.964  69.490  1.00  0.00    -0.306 C  
HETATM    5  C   UNL     1     -12.006  14.078  68.174  1.00  0.00    -0.347 C  
HETATM    6  O   UNL     1     -10.721  12.147  68.009  1.00  0.00    -0.200 OA 
HETATM    7  N   UNL     1     -11.215  13.127  67.434  1.00  0.00    -0.275 N  
HETATM    8  O   UNL     1     -11.078  13.373  66.228  1.00  0.00    -0.290 OA 
BRANCH   4   9
HETATM    9  N   UNL     1     -11.852  12.899  70.260  1.00  0.00    -0.535 NA 
HETATM   10  H   UNL     1     -10.840  12.774  70.287  1.00  0.00     0.000 HD 
BRANCH   9  11
HETATM   11  C   UNL     1     -12.605  11.935  71.035  1.00  0.00    -0.283 C  
BRANCH  11  12
HETATM   12  C   UNL     1     -11.912  10.569  71.016  1.00  0.00    -0.364 C  
BRANCH  12  13
HETATM   13  S   UNL     1     -12.982   9.223  71.629  1.00  0.00    -0.399 SA 
BRANCH  13  14
HETATM   14  C   UNL     1     -11.728   8.184  72.451  1.00  0.00    -0.399 C  
BRANCH  14  15
HETATM   15  C   UNL     1     -11.244   7.111  71.538  1.00  0.00    -0.245 A  
HETATM   16  C   UNL     1     -10.583   5.953  71.896  1.00  0.00    -0.231 A  
HETATM   17  S   UNL     1     -10.235   5.018  70.505  1.00  0.00    -0.217 SA 
HETATM   18  C   UNL     1     -10.966   6.225  69.522  1.00  0.00    -0.379 A  
HETATM   19  N   UNL     1     -11.425   7.277  70.170  1.00  0.00    -0.213 NA 
BRANCH  18  20
HETATM   20  C   UNL     1     -11.022   6.067  68.021  1.00  0.00    -0.245 C  
BRANCH  20  21
HETATM   21  N   UNL     1      -9.804   6.527  67.314  1.00  0.00    -0.132 NA 
HETATM   22  C   UNL     1      -9.457   5.630  66.207  1.00  0.00    -0.155 C  
HETATM   23  C   UNL     1     -10.021   7.881  66.798  1.00  0.00    -0.263 C  
ENDBRANCH  20  21
ENDBRANCH  18  20
ENDBRANCH  14  15
ENDBRANCH  13  14
ENDBRANCH  12  13
ENDBRANCH  11  12
ENDBRANCH   9  11
ENDBRANCH   4   9
ENDBRANCH   2   4
TORSDOF 9
ENDMDL
MODEL      117
REMARK 921   NORMALIZED FREE ENERGY PREDICTED BY IDOCK:   -3.93 KCAL/MOL
REMARK 922        TOTAL FREE ENERGY PREDICTED BY IDOCK:   -7.07 KCAL/MOL
REMARK 923 INTER-LIGAND FREE ENERGY PREDICTED BY IDOCK:   -6.64 KCAL/MOL
REMARK 924 INTRA-LIGAND FREE ENERGY PREDICTED BY IDOCK:   -0.43 KCAL/MOL
REMARK 927      BINDING AFFINITY PREDICTED BY RF-SCORE:    0.00 PKD
ROOT
HETATM    1  C   UNL     1     -11.527  14.653  69.075  1.00  0.00    -0.291 C  
HETATM    2  N   UNL     1     -10.557  15.042  68.076  1.00  0.00    -0.246 NA 
HETATM    3  H   UNL     1      -9.583  14.852  68.314  1.00  0.00     0.000 HD 
ENDROOT
BRANCH   2   4
HETATM    4  C   UNL     1     -10.762  15.635  66.841  1.00  0.00    -0.307 C  
HETATM    5  C   UNL     1     -10.637  16.974  66.729  1.00  0.00    -0.191 C  
HETATM    6  O   UNL     1     -11.085  17.089  64.451  1.00  0.00    -1.144 OA 
HETATM    7  N   UNL     1     -10.821  17.698  65.496  1.00  0.00    -0.131 N  
HETATM    8  O   UNL     1     -10.692  18.927  65.577  1.00  0.00    -0.556 OA 
BRANCH   4   9
HETATM    9  N   UNL     1     -11.107  14.820  65.777  1.00  0.00    -0.331 NA 
HETATM   10  H   UNL     1     -10.393  14.738  65.053  1.00  0.00     0.000 HD 
BRANCH   9  11
HETATM   11  C   UNL     1     -12.317  14.065  65.526  1.00  0.00    -0.483 C  
BRANCH  11  12
HETATM   12  C   UNL     1     -12.022  12.562  65.518  1.00  0.00    -0.442 C  
BRANCH  12  13
HETATM   13  S   UNL     1     -10.358  12.163  66.155  1.00  0.00    -0.242 SA 
BRANCH  13  14
HETATM   14  C   UNL     1     -10.645  10.450  66.712  1.00  0.00    -0.205 C  
BRANCH  14  15
HETATM   15  C   UNL     1     -10.916  10.405  68.177  1.00  0.00    -0.281 A  
HETATM   16  C   UNL     1     -11.972  10.993  68.842  1.00  0.00    -0.262 A  
HETATM   17  S   UNL     1     -11.872  10.661  70.519  1.00  0.00    -0.380 SA 
HETATM   18  C   UNL     1     -10.420   9.779  70.248  1.00  0.00    -0.288 A  
HETATM   19  N   UNL     1     -10.009   9.743  68.995  1.00  0.00    -0.175 NA 
BRANCH  18  20
HETATM   20  C   UNL     1      -9.681   9.138  71.397  1.00  0.00    -0.268 C  
BRANCH  20  21
HETATM   21  N   UNL     1      -9.399   7.695  71.212  1.00  0.00    -0.149 NA 
HETATM   22  C   UNL     1      -7.964   7.411  71.323  1.00  0.00    -0.096 C  
HETATM   23  C   UNL     1     -10.131   6.922  72.218  1.00  0.00    -0.176 C  
ENDBRANCH  20  21
ENDBRANCH  18  20
ENDBRANCH  14  15
ENDBRANCH  13  14
ENDBRANCH  12  13
ENDBRANCH  11  12
ENDBRANCH   9  11
ENDBRANCH   4   9
ENDBRANCH   2   4
TORSDOF 9
ENDMDL
MODEL      118
REMARK 921   NORMALIZED FREE ENERGY PREDICTED BY IDOCK:   -3.93 KCAL/MOL
REMARK 922        TOTAL FREE ENERGY PREDICTED BY IDOCK:   -7.06 KCAL/MOL
REMARK 923 INTER-LIGAND FREE ENERGY PREDICTED BY IDOCK:   -5.83 KCAL/MOL
REMARK 924 INTRA-LIGAND FREE ENERGY PREDICTED BY IDOCK:   -1.23 KCAL/MOL
REMARK 927      BINDING AFFINITY PREDICTED BY RF-SCORE:    0.00 PKD
ROOT
HETATM    1  C   UNL     1     -10.518  18.272  68.108  1.00  0.00    -0.338 C  
HETATM    2  N   UNL     1     -10.716  16.853  67.918  1.00  0.00    -0.355 NA 
HETATM    3  H   UNL     1     -10.333  16.469  67.054  1.00  0.00     0.000 HD 
ENDROOT
BRANCH   2   4
HETATM    4  C   UNL     1     -11.352  15.940  68.743  1.00  0.00    -0.378 C  
HETATM    5  C   UNL     1     -11.106  15.974  70.070  1.00  0.00    -0.362 C  
HETATM    6  O   UNL     1     -12.534  14.233  70.647  1.00  0.00    -0.317 OA 
HETATM    7  N   UNL     1     -11.713  15.080  71.024  1.00  0.00    -0.311 N  
HETATM    8  O   UNL     1     -11.356  15.234  72.199  1.00  0.00    -0.442 OA 
BRANCH   4   9
HETATM    9  N   UNL     1     -12.203  15.018  68.160  1.00  0.00    -0.531 NA 
HETATM   10  H   UNL     1     -13.095  14.896  68.640  1.00  0.00     0.000 HD 
BRANCH   9  11
HETATM   11  C   UNL     1     -12.032  14.200  66.977  1.00  0.00    -0.439 C  
BRANCH  11  12
HETATM   12  C   UNL     1     -10.971  13.122  67.217  1.00  0.00    -0.268 C  
BRANCH  12  13
HETATM   13  S   UNL     1      -9.315  13.615  66.628  1.00  0.00    -0.223 SA 
BRANCH  13  14
HETATM   14  C   UNL     1      -8.420  13.645  68.217  1.00  0.00    -0.170 C  
BRANCH  14  15
HETATM   15  C   UNL     1      -7.378  14.710  68.222  1.00  0.00    -0.117 A  
HETATM   16  C   UNL     1      -6.018  14.539  68.058  1.00  0.00    -0.151 A  
HETATM   17  S   UNL     1      -5.221  16.053  68.127  1.00  0.00    -0.119 SA 
HETATM   18  C   UNL     1      -6.734  16.827  68.392  1.00  0.00    -0.154 A  
HETATM   19  N   UNL     1      -7.776  16.022  68.451  1.00  0.00    -0.142 NA 
BRANCH  18  20
HETATM   20  C   UNL     1      -6.813  18.324  68.575  1.00  0.00    -0.249 C  
BRANCH  20  21
HETATM   21  N   UNL     1      -6.469  19.105  67.364  1.00  0.00    -0.186 NA 
HETATM   22  C   UNL     1      -7.117  18.553  66.170  1.00  0.00    -0.266 C  
HETATM   23  C   UNL     1      -6.885  20.498  67.547  1.00  0.00    -0.315 C  
ENDBRANCH  20  21
ENDBRANCH  18  20
ENDBRANCH  14  15
ENDBRANCH  13  14
ENDBRANCH  12  13
ENDBRANCH  11  12
ENDBRANCH   9  11
ENDBRANCH   4   9
ENDBRANCH   2   4
TORSDOF 9
ENDMDL
MODEL      119
REMARK 921   NORMALIZED FREE ENERGY PREDICTED BY IDOCK:   -3.92 KCAL/MOL
REMARK 922        TOTAL FREE ENERGY PREDICTED BY IDOCK:   -7.05 KCAL/MOL
REMARK 923 INTER-LIGAND FREE ENERGY PREDICTED BY IDOCK:   -6.41 KCAL/MOL
REMARK 924 INTRA-LIGAND FREE ENERGY PREDICTED BY IDOCK:   -0.63 KCAL/MOL
REMARK 927      BINDING AFFINITY PREDICTED BY RF-SCORE:    0.00 PKD
ROOT
HETATM    1  C   UNL     1     -12.165   6.653  71.857  1.00  0.00    -0.335 C  
HETATM    2  N   UNL     1     -12.581   7.973  72.277  1.00  0.00    -0.496 NA 
HETATM    3  H   UNL     1     -13.126   8.007  73.137  1.00  0.00     0.000 HD 
ENDROOT
BRANCH   2   4
HETATM    4  C   UNL     1     -12.342   9.197  71.676  1.00  0.00    -0.360 C  
HETATM    5  C   UNL     1     -13.063  10.270  72.065  1.00  0.00    -0.425 C  
HETATM    6  O   UNL     1     -12.036  11.804  70.652  1.00  0.00    -0.368 OA 
HETATM    7  N   UNL     1     -12.898  11.593  71.515  1.00  0.00    -0.401 N  
HETATM    8  O   UNL     1     -13.660  12.456  71.970  1.00  0.00    -0.421 OA 
BRANCH   4   9
HETATM    9  N   UNL     1     -11.379   9.259  70.684  1.00  0.00    -0.264 NA 
HETATM   10  H   UNL     1     -11.746   9.340  69.736  1.00  0.00     0.000 HD 
BRANCH   9  11
HETATM   11  C   UNL     1      -9.934   9.227  70.775  1.00  0.00    -0.290 C  
BRANCH  11  12
HETATM   12  C   UNL     1      -9.349   8.264  69.738  1.00  0.00    -0.158 C  
BRANCH  12  13
HETATM   13  S   UNL     1     -10.072   8.488  68.077  1.00  0.00    -0.209 SA 
BRANCH  13  14
HETATM   14  C   UNL     1      -9.074   9.901  67.496  1.00  0.00    -0.134 C  
BRANCH  14  15
HETATM   15  C   UNL     1      -9.946  11.038  67.090  1.00  0.00    -0.187 A  
HETATM   16  C   UNL     1     -11.278  11.215  67.405  1.00  0.00    -0.294 A  
HETATM   17  S   UNL     1     -11.856  12.676  66.724  1.00  0.00    -0.307 SA 
HETATM   18  C   UNL     1     -10.305  12.960  66.039  1.00  0.00    -0.283 A  
HETATM   19  N   UNL     1      -9.405  12.025  66.273  1.00  0.00    -0.227 NA 
BRANCH  18  20
HETATM   20  C   UNL     1     -10.044  14.191  65.203  1.00  0.00    -0.317 C  
BRANCH  20  21
HETATM   21  N   UNL     1     -10.873  15.362  65.569  1.00  0.00    -0.356 NA 
HETATM   22  C   UNL     1     -10.056  16.438  66.141  1.00  0.00    -0.346 C  
HETATM   23  C   UNL     1     -11.571  15.857  64.380  1.00  0.00    -0.234 C  
ENDBRANCH  20  21
ENDBRANCH  18  20
ENDBRANCH  14  15
ENDBRANCH  13  14
ENDBRANCH  12  13
ENDBRANCH  11  12
ENDBRANCH   9  11
ENDBRANCH   4   9
ENDBRANCH   2   4
TORSDOF 9
ENDMDL
MODEL      120
REMARK 921   NORMALIZED FREE ENERGY PREDICTED BY IDOCK:   -3.92 KCAL/MOL
REMARK 922        TOTAL FREE ENERGY PREDICTED BY IDOCK:   -7.05 KCAL/MOL
REMARK 923 INTER-LIGAND FREE ENERGY PREDICTED BY IDOCK:   -6.54 KCAL/MOL
REMARK 924 INTRA-LIGAND FREE ENERGY PREDICTED BY IDOCK:   -0.51 KCAL/MOL
REMARK 927      BINDING AFFINITY PREDICTED BY RF-SCORE:    0.00 PKD
ROOT
HETATM    1  C   UNL     1     -10.779  16.171  68.867  1.00  0.00    -0.280 C  
HETATM    2  N   UNL     1     -11.929  15.792  69.657  1.00  0.00    -0.350 NA 
HETATM    3  H   UNL     1     -12.831  15.884  69.190  1.00  0.00     0.000 HD 
ENDROOT
BRANCH   2   4
HETATM    4  C   UNL     1     -11.979  15.322  70.959  1.00  0.00    -0.343 C  
HETATM    5  C   UNL     1     -12.246  16.188  71.959  1.00  0.00    -0.453 C  
HETATM    6  O   UNL     1     -12.179  14.630  73.682  1.00  0.00    -0.324 OA 
HETATM    7  N   UNL     1     -12.329  15.813  73.348  1.00  0.00    -0.470 N  
HETATM    8  O   UNL     1     -12.558  16.739  74.137  1.00  0.00    -0.600 OA 
BRANCH   4   9
HETATM    9  N   UNL     1     -11.734  13.977  71.175  1.00  0.00    -0.458 NA 
HETATM   10  H   UNL     1     -10.971  13.780  71.822  1.00  0.00     0.000 HD 
BRANCH   9  11
HETATM   11  C   UNL     1     -12.387  12.805  70.630  1.00  0.00    -0.297 C  
BRANCH  11  12
HETATM   12  C   UNL     1     -11.549  12.196  69.502  1.00  0.00    -0.315 C  
BRANCH  12  13
HETATM   13  S   UNL     1     -10.870  10.556  69.931  1.00  0.00    -0.251 SA 
BRANCH  13  14
HETATM   14  C   UNL     1     -12.171   9.975  71.072  1.00  0.00    -0.365 C  
BRANCH  14  15
HETATM   15  C   UNL     1     -11.830   8.637  71.631  1.00  0.00    -0.323 A  
HETATM   16  C   UNL     1     -12.527   7.460  71.447  1.00  0.00    -0.368 A  
HETATM   17  S   UNL     1     -11.750   6.178  72.275  1.00  0.00    -0.248 SA 
HETATM   18  C   UNL     1     -10.555   7.279  72.839  1.00  0.00    -0.301 A  
HETATM   19  N   UNL     1     -10.721   8.532  72.463  1.00  0.00    -0.300 NA 
BRANCH  18  20
HETATM   20  C   UNL     1      -9.432   6.808  73.731  1.00  0.00    -0.188 C  
BRANCH  20  21
HETATM   21  N   UNL     1      -8.556   5.782  73.118  1.00  0.00    -0.117 NA 
HETATM   22  C   UNL     1      -7.172   6.255  73.011  1.00  0.00    -0.087 C  
HETATM   23  C   UNL     1      -8.595   4.562  73.927  1.00  0.00    -0.102 C  
ENDBRANCH  20  21
ENDBRANCH  18  20
ENDBRANCH  14  15
ENDBRANCH  13  14
ENDBRANCH  12  13
ENDBRANCH  11  12
ENDBRANCH   9  11
ENDBRANCH   4   9
ENDBRANCH   2   4
TORSDOF 9
ENDMDL
MODEL      121
REMARK 921   NORMALIZED FREE ENERGY PREDICTED BY IDOCK:   -3.92 KCAL/MOL
REMARK 922        TOTAL FREE ENERGY PREDICTED BY IDOCK:   -7.05 KCAL/MOL
REMARK 923 INTER-LIGAND FREE ENERGY PREDICTED BY IDOCK:   -5.88 KCAL/MOL
REMARK 924 INTRA-LIGAND FREE ENERGY PREDICTED BY IDOCK:   -1.16 KCAL/MOL
REMARK 927      BINDING AFFINITY PREDICTED BY RF-SCORE:    0.00 PKD
ROOT
HETATM    1  C   UNL     1     -12.075  14.598  67.821  1.00  0.00    -0.176 C  
HETATM    2  N   UNL     1     -11.546  14.342  69.142  1.00  0.00    -0.287 NA 
HETATM    3  H   UNL     1     -10.538  14.459  69.240  1.00  0.00     0.000 HD 
ENDROOT
BRANCH   2   4
HETATM    4  C   UNL     1     -12.215  13.962  70.293  1.00  0.00    -0.358 C  
HETATM    5  C   UNL     1     -12.880  14.896  71.004  1.00  0.00    -0.362 C  
HETATM    6  O   UNL     1     -13.687  13.457  72.642  1.00  0.00    -0.687 OA 
HETATM    7  N   UNL     1     -13.615  14.617  72.212  1.00  0.00    -0.394 N  
HETATM    8  O   UNL     1     -14.146  15.597  72.751  1.00  0.00    -0.544 OA 
BRANCH   4   9
HETATM    9  N   UNL     1     -12.154  12.632  70.672  1.00  0.00    -0.507 NA 
HETATM   10  H   UNL     1     -12.098  12.476  71.678  1.00  0.00     0.000 HD 
BRANCH   9  11
HETATM   11  C   UNL     1     -12.158  11.426  69.869  1.00  0.00    -0.330 C  
BRANCH  11  12
HETATM   12  C   UNL     1     -10.725  10.963  69.587  1.00  0.00    -0.180 C  
BRANCH  12  13
HETATM   13  S   UNL     1     -10.128  11.473  67.939  1.00  0.00    -0.194 SA 
BRANCH  13  14
HETATM   14  C   UNL     1      -8.328  11.376  68.222  1.00  0.00    -0.152 C  
BRANCH  14  15
HETATM   15  C   UNL     1      -7.715  12.734  68.224  1.00  0.00    -0.136 A  
HETATM   16  C   UNL     1      -6.433  13.066  67.832  1.00  0.00    -0.130 A  
HETATM   17  S   UNL     1      -6.183  14.751  67.999  1.00  0.00    -0.164 SA 
HETATM   18  C   UNL     1      -7.785  14.921  68.601  1.00  0.00    -0.127 A  
HETATM   19  N   UNL     1      -8.471  13.799  68.700  1.00  0.00    -0.107 NA 
BRANCH  18  20
HETATM   20  C   UNL     1      -8.316  16.273  69.012  1.00  0.00    -0.239 C  
BRANCH  20  21
HETATM   21  N   UNL     1      -9.379  16.804  68.127  1.00  0.00    -0.229 NA 
HETATM   22  C   UNL     1     -10.231  17.766  68.833  1.00  0.00    -0.345 C  
HETATM   23  C   UNL     1      -8.768  17.452  66.964  1.00  0.00    -0.234 C  
ENDBRANCH  20  21
ENDBRANCH  18  20
ENDBRANCH  14  15
ENDBRANCH  13  14
ENDBRANCH  12  13
ENDBRANCH  11  12
ENDBRANCH   9  11
ENDBRANCH   4   9
ENDBRANCH   2   4
TORSDOF 9
ENDMDL
MODEL      122
REMARK 921   NORMALIZED FREE ENERGY PREDICTED BY IDOCK:   -3.92 KCAL/MOL
REMARK 922        TOTAL FREE ENERGY PREDICTED BY IDOCK:   -7.04 KCAL/MOL
REMARK 923 INTER-LIGAND FREE ENERGY PREDICTED BY IDOCK:   -6.36 KCAL/MOL
REMARK 924 INTRA-LIGAND FREE ENERGY PREDICTED BY IDOCK:   -0.68 KCAL/MOL
REMARK 927      BINDING AFFINITY PREDICTED BY RF-SCORE:    0.00 PKD
ROOT
HETATM    1  C   UNL     1     -11.183  16.047  64.607  1.00  0.00    -0.330 C  
HETATM    2  N   UNL     1     -10.607  15.610  65.860  1.00  0.00    -0.329 NA 
HETATM    3  H   UNL     1      -9.595  15.714  65.935  1.00  0.00     0.000 HD 
ENDROOT
BRANCH   2   4
HETATM    4  C   UNL     1     -11.234  15.071  66.970  1.00  0.00    -0.328 C  
HETATM    5  C   UNL     1     -10.931  15.556  68.193  1.00  0.00    -0.312 C  
HETATM    6  O   UNL     1     -12.385  14.188  69.385  1.00  0.00    -0.326 OA 
HETATM    7  N   UNL     1     -11.523  15.078  69.418  1.00  0.00    -0.281 N  
HETATM    8  O   UNL     1     -11.112  15.618  70.453  1.00  0.00    -0.296 OA 
BRANCH   4   9
HETATM    9  N   UNL     1     -12.136  14.041  66.773  1.00  0.00    -0.447 NA 
HETATM   10  H   UNL     1     -12.959  14.071  67.375  1.00  0.00     0.000 HD 
BRANCH   9  11
HETATM   11  C   UNL     1     -12.100  12.926  65.848  1.00  0.00    -0.444 C  
BRANCH  11  12
HETATM   12  C   UNL     1     -11.379  11.729  66.476  1.00  0.00    -0.305 C  
BRANCH  12  13
HETATM   13  S   UNL     1      -9.607  11.664  66.044  1.00  0.00    -0.230 SA 
BRANCH  13  14
HETATM   14  C   UNL     1      -8.890  11.510  67.715  1.00  0.00    -0.153 C  
BRANCH  14  15
HETATM   15  C   UNL     1      -9.512  10.380  68.460  1.00  0.00    -0.159 A  
HETATM   16  C   UNL     1      -9.506   9.047  68.100  1.00  0.00    -0.142 A  
HETATM   17  S   UNL     1     -10.340   8.116  69.271  1.00  0.00    -0.212 SA 
HETATM   18  C   UNL     1     -10.672   9.550  70.161  1.00  0.00    -0.257 A  
HETATM   19  N   UNL     1     -10.217  10.665  69.623  1.00  0.00    -0.170 NA 
BRANCH  18  20
HETATM   20  C   UNL     1     -11.464   9.495  71.445  1.00  0.00    -0.392 C  
BRANCH  20  21
HETATM   21  N   UNL     1     -12.899   9.828  71.289  1.00  0.00    -0.357 NA 
HETATM   22  C   UNL     1     -13.750   8.890  72.030  1.00  0.00    -0.459 C  
HETATM   23  C   UNL     1     -13.138  11.191  71.772  1.00  0.00    -0.431 C  
ENDBRANCH  20  21
ENDBRANCH  18  20
ENDBRANCH  14  15
ENDBRANCH  13  14
ENDBRANCH  12  13
ENDBRANCH  11  12
ENDBRANCH   9  11
ENDBRANCH   4   9
ENDBRANCH   2   4
TORSDOF 9
ENDMDL
MODEL      123
REMARK 921   NORMALIZED FREE ENERGY PREDICTED BY IDOCK:   -3.92 KCAL/MOL
REMARK 922        TOTAL FREE ENERGY PREDICTED BY IDOCK:   -7.04 KCAL/MOL
REMARK 923 INTER-LIGAND FREE ENERGY PREDICTED BY IDOCK:   -6.43 KCAL/MOL
REMARK 924 INTRA-LIGAND FREE ENERGY PREDICTED BY IDOCK:   -0.61 KCAL/MOL
REMARK 927      BINDING AFFINITY PREDICTED BY RF-SCORE:    0.00 PKD
ROOT
HETATM    1  C   UNL     1     -10.756   4.280  74.147  1.00  0.00    -0.240 C  
HETATM    2  N   UNL     1     -10.329   5.343  73.266  1.00  0.00    -0.191 NA 
HETATM    3  H   UNL     1      -9.491   5.845  73.560  1.00  0.00     0.000 HD 
ENDROOT
BRANCH   2   4
HETATM    4  C   UNL     1     -10.896   5.776  72.079  1.00  0.00    -0.251 C  
HETATM    5  C   UNL     1     -10.357   5.371  70.910  1.00  0.00    -0.242 C  
HETATM    6  O   UNL     1     -11.868   6.473  69.528  1.00  0.00    -0.266 OA 
HETATM    7  N   UNL     1     -10.864   5.752  69.615  1.00  0.00    -0.353 N  
HETATM    8  O   UNL     1     -10.235   5.309  68.646  1.00  0.00    -0.179 OA 
BRANCH   4   9
HETATM    9  N   UNL     1     -11.985   6.627  72.150  1.00  0.00    -0.416 NA 
HETATM   10  H   UNL     1     -12.856   6.237  71.788  1.00  0.00     0.000 HD 
BRANCH   9  11
HETATM   11  C   UNL     1     -12.089   7.980  72.656  1.00  0.00    -0.227 C  
BRANCH  11  12
HETATM   12  C   UNL     1     -11.132   8.910  71.906  1.00  0.00    -0.372 C  
BRANCH  12  13
HETATM   13  S   UNL     1     -12.003  10.150  70.888  1.00  0.00    -0.394 SA 
BRANCH  13  14
HETATM   14  C   UNL     1     -11.034  10.019  69.347  1.00  0.00    -0.244 C  
BRANCH  14  15
HETATM   15  C   UNL     1     -11.209  11.233  68.503  1.00  0.00    -0.252 A  
HETATM   16  C   UNL     1     -11.761  12.438  68.888  1.00  0.00    -0.324 A  
HETATM   17  S   UNL     1     -11.741  13.542  67.579  1.00  0.00    -0.375 SA 
HETATM   18  C   UNL     1     -11.022  12.336  66.585  1.00  0.00    -0.278 A  
HETATM   19  N   UNL     1     -10.823  11.171  67.169  1.00  0.00    -0.259 NA 
BRANCH  18  20
HETATM   20  C   UNL     1     -10.692  12.623  65.140  1.00  0.00    -0.292 C  
BRANCH  20  21
HETATM   21  N   UNL     1     -11.221  11.622  64.185  1.00  0.00    -0.357 NA 
HETATM   22  C   UNL     1     -12.301  12.182  63.366  1.00  0.00    -0.538 C  
HETATM   23  C   UNL     1     -10.137  11.159  63.314  1.00  0.00    -0.380 C  
ENDBRANCH  20  21
ENDBRANCH  18  20
ENDBRANCH  14  15
ENDBRANCH  13  14
ENDBRANCH  12  13
ENDBRANCH  11  12
ENDBRANCH   9  11
ENDBRANCH   4   9
ENDBRANCH   2   4
TORSDOF 9
ENDMDL
MODEL      124
REMARK 921   NORMALIZED FREE ENERGY PREDICTED BY IDOCK:   -3.92 KCAL/MOL
REMARK 922        TOTAL FREE ENERGY PREDICTED BY IDOCK:   -7.04 KCAL/MOL
REMARK 923 INTER-LIGAND FREE ENERGY PREDICTED BY IDOCK:   -6.70 KCAL/MOL
REMARK 924 INTRA-LIGAND FREE ENERGY PREDICTED BY IDOCK:   -0.34 KCAL/MOL
REMARK 927      BINDING AFFINITY PREDICTED BY RF-SCORE:    0.00 PKD
ROOT
HETATM    1  C   UNL     1     -11.094   6.400  67.539  1.00  0.00    -0.306 C  
HETATM    2  N   UNL     1     -10.684   7.385  68.515  1.00  0.00    -0.373 NA 
HETATM    3  H   UNL     1      -9.954   8.028  68.207  1.00  0.00     0.000 HD 
ENDROOT
BRANCH   2   4
HETATM    4  C   UNL     1     -11.141   7.579  69.807  1.00  0.00    -0.129 C  
HETATM    5  C   UNL     1     -11.121   6.543  70.672  1.00  0.00    -0.309 C  
HETATM    6  O   UNL     1     -11.973   7.706  72.496  1.00  0.00    -0.288 OA 
HETATM    7  N   UNL     1     -11.566   6.628  72.041  1.00  0.00    -0.287 N  
HETATM    8  O   UNL     1     -11.500   5.575  72.688  1.00  0.00    -0.296 OA 
BRANCH   4   9
HETATM    9  N   UNL     1     -11.618   8.833  70.147  1.00  0.00    -0.462 NA 
HETATM   10  H   UNL     1     -12.606   8.860  70.401  1.00  0.00     0.000 HD 
BRANCH   9  11
HETATM   11  C   UNL     1     -10.941  10.112  70.202  1.00  0.00    -0.316 C  
BRANCH  11  12
HETATM   12  C   UNL     1     -11.913  11.251  69.878  1.00  0.00    -0.365 C  
BRANCH  12  13
HETATM   13  S   UNL     1     -11.597  12.007  68.246  1.00  0.00    -0.342 SA 
BRANCH  13  14
HETATM   14  C   UNL     1     -11.435  13.755  68.744  1.00  0.00    -0.303 C  
BRANCH  14  15
HETATM   15  C   UNL     1     -11.187  14.625  67.561  1.00  0.00    -0.333 A  
HETATM   16  C   UNL     1     -11.539  14.364  66.252  1.00  0.00    -0.372 A  
HETATM   17  S   UNL     1     -11.055  15.660  65.242  1.00  0.00    -0.262 SA 
HETATM   18  C   UNL     1     -10.392  16.466  66.609  1.00  0.00    -0.292 A  
HETATM   19  N   UNL     1     -10.494  15.815  67.751  1.00  0.00    -0.276 NA 
BRANCH  18  20
HETATM   20  C   UNL     1      -9.714  17.807  66.460  1.00  0.00    -0.320 C  
BRANCH  20  21
HETATM   21  N   UNL     1     -10.605  18.968  66.691  1.00  0.00    -0.421 NA 
HETATM   22  C   UNL     1     -10.122  19.801  67.797  1.00  0.00    -0.419 C  
HETATM   23  C   UNL     1     -10.683  19.774  65.470  1.00  0.00    -0.227 C  
ENDBRANCH  20  21
ENDBRANCH  18  20
ENDBRANCH  14  15
ENDBRANCH  13  14
ENDBRANCH  12  13
ENDBRANCH  11  12
ENDBRANCH   9  11
ENDBRANCH   4   9
ENDBRANCH   2   4
TORSDOF 9
ENDMDL
MODEL      125
REMARK 921   NORMALIZED FREE ENERGY PREDICTED BY IDOCK:   -3.90 KCAL/MOL
REMARK 922        TOTAL FREE ENERGY PREDICTED BY IDOCK:   -7.02 KCAL/MOL
REMARK 923 INTER-LIGAND FREE ENERGY PREDICTED BY IDOCK:   -6.87 KCAL/MOL
REMARK 924 INTRA-LIGAND FREE ENERGY PREDICTED BY IDOCK:   -0.15 KCAL/MOL
REMARK 927      BINDING AFFINITY PREDICTED BY RF-SCORE:    0.00 PKD
ROOT
HETATM    1  C   UNL     1     -12.090  13.015  63.339  1.00  0.00    -0.515 C  
HETATM    2  N   UNL     1     -12.736  12.868  64.624  1.00  0.00    -0.709 NA 
HETATM    3  H   UNL     1     -13.718  12.593  64.591  1.00  0.00     0.000 HD 
ENDROOT
BRANCH   2   4
HETATM    4  C   UNL     1     -12.211  13.046  65.893  1.00  0.00    -0.432 C  
HETATM    5  C   UNL     1     -12.039  14.300  66.361  1.00  0.00    -0.419 C  
HETATM    6  O   UNL     1     -11.202  13.692  68.443  1.00  0.00    -0.249 OA 
HETATM    7  N   UNL     1     -11.507  14.607  67.665  1.00  0.00    -0.332 N  
HETATM    8  O   UNL     1     -11.394  15.812  67.923  1.00  0.00    -0.338 OA 
BRANCH   4   9
HETATM    9  N   UNL     1     -11.868  11.919  66.619  1.00  0.00    -0.590 NA 
HETATM   10  H   UNL     1     -12.384  11.799  67.491  1.00  0.00     0.000 HD 
BRANCH   9  11
HETATM   11  C   UNL     1     -10.894  10.884  66.341  1.00  0.00    -0.145 C  
BRANCH  11  12
HETATM   12  C   UNL     1     -10.770   9.927  67.531  1.00  0.00    -0.272 C  
BRANCH  12  13
HETATM   13  S   UNL     1      -9.037   9.512  67.928  1.00  0.00    -0.124 SA 
BRANCH  13  14
HETATM   14  C   UNL     1      -9.001   9.997  69.687  1.00  0.00    -0.202 C  
BRANCH  14  15
HETATM   15  C   UNL     1     -10.197   9.475  70.408  1.00  0.00    -0.279 A  
HETATM   16  C   UNL     1     -11.259  10.212  70.892  1.00  0.00    -0.307 A  
HETATM   17  S   UNL     1     -12.401   9.178  71.639  1.00  0.00    -0.384 SA 
HETATM   18  C   UNL     1     -11.396   7.828  71.288  1.00  0.00    -0.264 A  
HETATM   19  N   UNL     1     -10.264   8.113  70.673  1.00  0.00    -0.195 NA 
BRANCH  18  20
HETATM   20  C   UNL     1     -11.801   6.435  71.706  1.00  0.00    -0.321 C  
BRANCH  20  21
HETATM   21  N   UNL     1     -11.049   5.904  72.866  1.00  0.00    -0.268 NA 
HETATM   22  C   UNL     1      -9.923   5.067  72.437  1.00  0.00    -0.178 C  
HETATM   23  C   UNL     1     -10.549   7.019  73.675  1.00  0.00    -0.345 C  
ENDBRANCH  20  21
ENDBRANCH  18  20
ENDBRANCH  14  15
ENDBRANCH  13  14
ENDBRANCH  12  13
ENDBRANCH  11  12
ENDBRANCH   9  11
ENDBRANCH   4   9
ENDBRANCH   2   4
TORSDOF 9
ENDMDL
MODEL      126
REMARK 921   NORMALIZED FREE ENERGY PREDICTED BY IDOCK:   -3.89 KCAL/MOL
REMARK 922        TOTAL FREE ENERGY PREDICTED BY IDOCK:   -7.01 KCAL/MOL
REMARK 923 INTER-LIGAND FREE ENERGY PREDICTED BY IDOCK:   -6.41 KCAL/MOL
REMARK 924 INTRA-LIGAND FREE ENERGY PREDICTED BY IDOCK:   -0.60 KCAL/MOL
REMARK 927      BINDING AFFINITY PREDICTED BY RF-SCORE:    0.00 PKD
ROOT
HETATM    1  C   UNL     1     -14.278  14.561  71.986  1.00  0.00    -0.544 C  
HETATM    2  N   UNL     1     -13.190  14.366  71.055  1.00  0.00    -0.356 NA 
HETATM    3  H   UNL     1     -12.884  15.203  70.558  1.00  0.00     0.000 HD 
ENDROOT
BRANCH   2   4
HETATM    4  C   UNL     1     -12.504  13.205  70.741  1.00  0.00    -0.308 C  
HETATM    5  C   UNL     1     -12.871  12.048  71.329  1.00  0.00    -0.265 C  
HETATM    6  O   UNL     1     -11.310  10.700  70.257  1.00  0.00    -0.298 OA 
HETATM    7  N   UNL     1     -12.235  10.779  71.077  1.00  0.00    -0.368 N  
HETATM    8  O   UNL     1     -12.684   9.821  71.721  1.00  0.00    -0.370 OA 
BRANCH   4   9
HETATM    9  N   UNL     1     -11.453  13.292  69.844  1.00  0.00    -0.502 NA 
HETATM   10  H   UNL     1     -10.606  12.799  70.129  1.00  0.00     0.000 HD 
BRANCH   9  11
HETATM   11  C   UNL     1     -11.362  13.970  68.568  1.00  0.00    -0.277 C  
BRANCH  11  12
HETATM   12  C   UNL     1     -11.526  12.973  67.416  1.00  0.00    -0.332 C  
BRANCH  12  13
HETATM   13  S   UNL     1     -12.504  13.649  66.030  1.00  0.00    -0.386 SA 
BRANCH  13  14
HETATM   14  C   UNL     1     -11.151  14.109  64.895  1.00  0.00    -0.385 C  
BRANCH  14  15
HETATM   15  C   UNL     1     -10.431  15.317  65.386  1.00  0.00    -0.398 A  
HETATM   16  C   UNL     1     -10.806  16.634  65.209  1.00  0.00    -0.183 A  
HETATM   17  S   UNL     1      -9.673  17.676  65.959  1.00  0.00    -0.064 SA 
HETATM   18  C   UNL     1      -8.752  16.308  66.448  1.00  0.00    -0.319 A  
HETATM   19  N   UNL     1      -9.232  15.141  66.065  1.00  0.00    -0.289 NA 
BRANCH  18  20
HETATM   20  C   UNL     1      -7.471  16.479  67.228  1.00  0.00    -0.164 C  
BRANCH  20  21
HETATM   21  N   UNL     1      -7.657  16.557  68.695  1.00  0.00    -0.200 NA 
HETATM   22  C   UNL     1      -7.095  15.382  69.370  1.00  0.00    -0.193 C  
HETATM   23  C   UNL     1      -7.010  17.769  69.205  1.00  0.00    -0.209 C  
ENDBRANCH  20  21
ENDBRANCH  18  20
ENDBRANCH  14  15
ENDBRANCH  13  14
ENDBRANCH  12  13
ENDBRANCH  11  12
ENDBRANCH   9  11
ENDBRANCH   4   9
ENDBRANCH   2   4
TORSDOF 9
ENDMDL
MODEL      127
REMARK 921   NORMALIZED FREE ENERGY PREDICTED BY IDOCK:   -3.87 KCAL/MOL
REMARK 922        TOTAL FREE ENERGY PREDICTED BY IDOCK:   -6.97 KCAL/MOL
REMARK 923 INTER-LIGAND FREE ENERGY PREDICTED BY IDOCK:   -6.55 KCAL/MOL
REMARK 924 INTRA-LIGAND FREE ENERGY PREDICTED BY IDOCK:   -0.42 KCAL/MOL
REMARK 927      BINDING AFFINITY PREDICTED BY RF-SCORE:    0.00 PKD
ROOT
HETATM    1  C   UNL     1     -10.094  18.166  68.385  1.00  0.00    -0.388 C  
HETATM    2  N   UNL     1     -10.686  16.901  68.009  1.00  0.00    -0.364 NA 
HETATM    3  H   UNL     1     -10.536  16.619  67.041  1.00  0.00     0.000 HD 
ENDROOT
BRANCH   2   4
HETATM    4  C   UNL     1     -11.426  16.018  68.778  1.00  0.00    -0.375 C  
HETATM    5  C   UNL     1     -11.252  16.010  70.116  1.00  0.00    -0.373 C  
HETATM    6  O   UNL     1     -12.823  14.359  70.576  1.00  0.00    -0.351 OA 
HETATM    7  N   UNL     1     -11.969  15.141  71.016  1.00  0.00    -0.304 N  
HETATM    8  O   UNL     1     -11.668  15.249  72.212  1.00  0.00    -0.402 OA 
BRANCH   4   9
HETATM    9  N   UNL     1     -12.303  15.167  68.129  1.00  0.00    -0.403 NA 
HETATM   10  H   UNL     1     -13.287  15.313  68.355  1.00  0.00     0.000 HD 
BRANCH   9  11
HETATM   11  C   UNL     1     -12.049  14.103  67.180  1.00  0.00    -0.397 C  
BRANCH  11  12
HETATM   12  C   UNL     1     -11.048  13.096  67.754  1.00  0.00    -0.262 C  
BRANCH  12  13
HETATM   13  S   UNL     1     -11.724  11.402  67.847  1.00  0.00    -0.162 SA 
BRANCH  13  14
HETATM   14  C   UNL     1     -11.831  11.214  69.659  1.00  0.00    -0.348 C  
BRANCH  14  15
HETATM   15  C   UNL     1     -10.809  10.250  70.156  1.00  0.00    -0.302 A  
HETATM   16  C   UNL     1      -9.616   9.921  69.547  1.00  0.00    -0.225 A  
HETATM   17  S   UNL     1      -8.766   8.776  70.495  1.00  0.00    -0.193 SA 
HETATM   18  C   UNL     1     -10.052   8.780  71.637  1.00  0.00    -0.319 A  
HETATM   19  N   UNL     1     -11.070   9.562  71.335  1.00  0.00    -0.371 NA 
BRANCH  18  20
HETATM   20  C   UNL     1      -9.996   7.905  72.866  1.00  0.00    -0.294 C  
BRANCH  20  21
HETATM   21  N   UNL     1     -10.033   6.452  72.581  1.00  0.00    -0.171 NA 
HETATM   22  C   UNL     1     -10.481   5.689  73.751  1.00  0.00    -0.270 C  
HETATM   23  C   UNL     1     -10.937   6.199  71.456  1.00  0.00    -0.273 C  
ENDBRANCH  20  21
ENDBRANCH  18  20
ENDBRANCH  14  15
ENDBRANCH  13  14
ENDBRANCH  12  13
ENDBRANCH  11  12
ENDBRANCH   9  11
ENDBRANCH   4   9
ENDBRANCH   2   4
TORSDOF 9
ENDMDL
MODEL      128
REMARK 921   NORMALIZED FREE ENERGY PREDICTED BY IDOCK:   -3.87 KCAL/MOL
REMARK 922        TOTAL FREE ENERGY PREDICTED BY IDOCK:   -6.97 KCAL/MOL
REMARK 923 INTER-LIGAND FREE ENERGY PREDICTED BY IDOCK:   -6.53 KCAL/MOL
REMARK 924 INTRA-LIGAND FREE ENERGY PREDICTED BY IDOCK:   -0.44 KCAL/MOL
REMARK 927      BINDING AFFINITY PREDICTED BY RF-SCORE:    0.00 PKD
ROOT
HETATM    1  C   UNL     1     -10.370   5.553  68.395  1.00  0.00    -0.176 C  
HETATM    2  N   UNL     1     -11.176   6.668  68.837  1.00  0.00    -0.541 NA 
HETATM    3  H   UNL     1     -11.859   7.010  68.161  1.00  0.00     0.000 HD 
ENDROOT
BRANCH   2   4
HETATM    4  C   UNL     1     -11.153   7.338  70.049  1.00  0.00    -0.240 C  
HETATM    5  C   UNL     1     -10.980   6.631  71.185  1.00  0.00    -0.257 C  
HETATM    6  O   UNL     1     -11.028   8.448  72.636  1.00  0.00    -0.353 OA 
HETATM    7  N   UNL     1     -10.933   7.220  72.500  1.00  0.00    -0.262 N  
HETATM    8  O   UNL     1     -10.792   6.422  73.436  1.00  0.00    -0.263 OA 
BRANCH   4   9
HETATM    9  N   UNL     1     -11.328   8.711  70.037  1.00  0.00    -0.448 NA 
HETATM   10  H   UNL     1     -12.134   9.044  70.566  1.00  0.00     0.000 HD 
BRANCH   9  11
HETATM   11  C   UNL     1     -10.551   9.751  69.395  1.00  0.00    -0.228 C  
BRANCH  11  12
HETATM   12  C   UNL     1     -11.341  10.383  68.246  1.00  0.00    -0.224 C  
BRANCH  12  13
HETATM   13  S   UNL     1     -10.425  11.721  67.408  1.00  0.00    -0.217 SA 
BRANCH  13  14
HETATM   14  C   UNL     1     -11.776  12.927  67.185  1.00  0.00    -0.377 C  
BRANCH  14  15
HETATM   15  C   UNL     1     -11.575  14.119  68.055  1.00  0.00    -0.334 A  
HETATM   16  C   UNL     1     -11.797  14.200  69.415  1.00  0.00    -0.330 A  
HETATM   17  S   UNL     1     -11.417  15.770  69.982  1.00  0.00    -0.378 SA 
HETATM   18  C   UNL     1     -11.005  16.240  68.380  1.00  0.00    -0.351 A  
HETATM   19  N   UNL     1     -11.158  15.305  67.463  1.00  0.00    -0.320 NA 
BRANCH  18  20
HETATM   20  C   UNL     1     -10.541  17.646  68.083  1.00  0.00    -0.356 C  
BRANCH  20  21
HETATM   21  N   UNL     1      -9.072  17.790  67.963  1.00  0.00    -0.263 NA 
HETATM   22  C   UNL     1      -8.658  17.896  66.560  1.00  0.00    -0.255 C  
HETATM   23  C   UNL     1      -8.638  18.984  68.693  1.00  0.00    -0.354 C  
ENDBRANCH  20  21
ENDBRANCH  18  20
ENDBRANCH  14  15
ENDBRANCH  13  14
ENDBRANCH  12  13
ENDBRANCH  11  12
ENDBRANCH   9  11
ENDBRANCH   4   9
ENDBRANCH   2   4
TORSDOF 9
ENDMDL
MODEL      129
REMARK 921   NORMALIZED FREE ENERGY PREDICTED BY IDOCK:   -3.87 KCAL/MOL
REMARK 922        TOTAL FREE ENERGY PREDICTED BY IDOCK:   -6.96 KCAL/MOL
REMARK 923 INTER-LIGAND FREE ENERGY PREDICTED BY IDOCK:   -6.36 KCAL/MOL
REMARK 924 INTRA-LIGAND FREE ENERGY PREDICTED BY IDOCK:   -0.60 KCAL/MOL
REMARK 927      BINDING AFFINITY PREDICTED BY RF-SCORE:    0.00 PKD
ROOT
HETATM    1  C   UNL     1     -12.279  12.696  63.456  1.00  0.00    -0.547 C  
HETATM    2  N   UNL     1     -12.604  12.988  64.835  1.00  0.00    -0.633 NA 
HETATM    3  H   UNL     1     -13.295  12.370  65.261  1.00  0.00     0.000 HD 
ENDROOT
BRANCH   2   4
HETATM    4  C   UNL     1     -12.111  13.986  65.657  1.00  0.00    -0.417 C  
HETATM    5  C   UNL     1     -11.321  14.942  65.125  1.00  0.00    -0.379 C  
HETATM    6  O   UNL     1     -11.007  16.147  67.089  1.00  0.00    -0.266 OA 
HETATM    7  N   UNL     1     -10.755  16.032  65.882  1.00  0.00    -0.309 N  
HETATM    8  O   UNL     1     -10.033  16.806  65.240  1.00  0.00    -0.546 OA 
BRANCH   4   9
HETATM    9  N   UNL     1     -12.440  13.945  67.001  1.00  0.00    -0.476 NA 
HETATM   10  H   UNL     1     -13.078  14.679  67.308  1.00  0.00     0.000 HD 
BRANCH   9  11
HETATM   11  C   UNL     1     -12.025  13.026  68.041  1.00  0.00    -0.290 C  
BRANCH  11  12
HETATM   12  C   UNL     1     -10.523  12.742  67.941  1.00  0.00    -0.220 C  
BRANCH  12  13
HETATM   13  S   UNL     1     -10.112  10.992  68.257  1.00  0.00    -0.185 SA 
BRANCH  13  14
HETATM   14  C   UNL     1     -10.586  10.270  66.650  1.00  0.00    -0.162 C  
BRANCH  14  15
HETATM   15  C   UNL     1      -9.969   8.926  66.466  1.00  0.00    -0.288 A  
HETATM   16  C   UNL     1      -8.822   8.632  65.756  1.00  0.00    -0.193 A  
HETATM   17  S   UNL     1      -8.496   6.953  65.833  1.00  0.00    -0.142 SA 
HETATM   18  C   UNL     1      -9.912   6.731  66.785  1.00  0.00    -0.178 A  
HETATM   19  N   UNL     1     -10.609   7.825  67.020  1.00  0.00    -0.352 NA 
BRANCH  18  20
HETATM   20  C   UNL     1     -10.311   5.356  67.264  1.00  0.00    -0.220 C  
BRANCH  20  21
HETATM   21  N   UNL     1      -9.630   4.922  68.505  1.00  0.00    -0.143 NA 
HETATM   22  C   UNL     1     -10.404   5.286  69.697  1.00  0.00    -0.278 C  
HETATM   23  C   UNL     1      -9.435   3.470  68.473  1.00  0.00    -0.141 C  
ENDBRANCH  20  21
ENDBRANCH  18  20
ENDBRANCH  14  15
ENDBRANCH  13  14
ENDBRANCH  12  13
ENDBRANCH  11  12
ENDBRANCH   9  11
ENDBRANCH   4   9
ENDBRANCH   2   4
TORSDOF 9
ENDMDL
MODEL      130
REMARK 921   NORMALIZED FREE ENERGY PREDICTED BY IDOCK:   -3.86 KCAL/MOL
REMARK 922        TOTAL FREE ENERGY PREDICTED BY IDOCK:   -6.96 KCAL/MOL
REMARK 923 INTER-LIGAND FREE ENERGY PREDICTED BY IDOCK:   -6.52 KCAL/MOL
REMARK 924 INTRA-LIGAND FREE ENERGY PREDICTED BY IDOCK:   -0.44 KCAL/MOL
REMARK 927      BINDING AFFINITY PREDICTED BY RF-SCORE:    0.00 PKD
ROOT
HETATM    1  C   UNL     1     -10.354  16.611  65.390  1.00  0.00    -0.190 C  
HETATM    2  N   UNL     1     -11.084  15.681  64.556  1.00  0.00    -0.728 NA 
HETATM    3  H   UNL     1     -11.674  16.106  63.841  1.00  0.00     0.000 HD 
ENDROOT
BRANCH   2   4
HETATM    4  C   UNL     1     -11.095  14.297  64.592  1.00  0.00    -0.363 C  
HETATM    5  C   UNL     1     -12.022  13.631  63.872  1.00  0.00    -0.408 C  
HETATM    6  O   UNL     1     -11.320  11.492  64.453  1.00  0.00    -0.299 OA 
HETATM    7  N   UNL     1     -12.127  12.194  63.828  1.00  0.00    -0.496 N  
HETATM    8  O   UNL     1     -13.051  11.749  63.135  1.00  0.00    -0.568 OA 
BRANCH   4   9
HETATM    9  N   UNL     1     -10.158  13.659  65.385  1.00  0.00    -0.442 NA 
HETATM   10  H   UNL     1      -9.383  13.235  64.875  1.00  0.00     0.000 HD 
BRANCH   9  11
HETATM   11  C   UNL     1     -10.101  13.495  66.823  1.00  0.00    -0.268 C  
BRANCH  11  12
HETATM   12  C   UNL     1      -8.674  13.714  67.334  1.00  0.00    -0.213 C  
BRANCH  12  13
HETATM   13  S   UNL     1      -8.002  12.256  68.202  1.00  0.00    -0.163 SA 
BRANCH  13  14
HETATM   14  C   UNL     1      -9.182  10.987  67.631  1.00  0.00    -0.149 C  
BRANCH  14  15
HETATM   15  C   UNL     1      -9.995  10.466  68.765  1.00  0.00    -0.188 A  
HETATM   16  C   UNL     1     -10.953  11.153  69.483  1.00  0.00    -0.220 A  
HETATM   17  S   UNL     1     -11.628  10.139  70.687  1.00  0.00    -0.365 SA 
HETATM   18  C   UNL     1     -10.586   8.866  70.186  1.00  0.00    -0.222 A  
HETATM   19  N   UNL     1      -9.763   9.166  69.200  1.00  0.00    -0.160 NA 
BRANCH  18  20
HETATM   20  C   UNL     1     -10.618   7.525  70.879  1.00  0.00    -0.220 C  
BRANCH  20  21
HETATM   21  N   UNL     1     -11.448   7.493  72.105  1.00  0.00    -0.278 NA 
HETATM   22  C   UNL     1     -12.530   6.508  71.994  1.00  0.00    -0.213 C  
HETATM   23  C   UNL     1     -10.605   7.165  73.257  1.00  0.00    -0.364 C  
ENDBRANCH  20  21
ENDBRANCH  18  20
ENDBRANCH  14  15
ENDBRANCH  13  14
ENDBRANCH  12  13
ENDBRANCH  11  12
ENDBRANCH   9  11
ENDBRANCH   4   9
ENDBRANCH   2   4
TORSDOF 9
ENDMDL
MODEL      131
REMARK 921   NORMALIZED FREE ENERGY PREDICTED BY IDOCK:   -3.86 KCAL/MOL
REMARK 922        TOTAL FREE ENERGY PREDICTED BY IDOCK:   -6.95 KCAL/MOL
REMARK 923 INTER-LIGAND FREE ENERGY PREDICTED BY IDOCK:   -6.50 KCAL/MOL
REMARK 924 INTRA-LIGAND FREE ENERGY PREDICTED BY IDOCK:   -0.45 KCAL/MOL
REMARK 927      BINDING AFFINITY PREDICTED BY RF-SCORE:    0.00 PKD
ROOT
HETATM    1  C   UNL     1      -8.804  10.593  62.505  1.00  0.00    -0.275 C  
HETATM    2  N   UNL     1     -10.132  10.846  63.018  1.00  0.00    -0.638 NA 
HETATM    3  H   UNL     1     -10.849  11.011  62.312  1.00  0.00     0.000 HD 
ENDROOT
BRANCH   2   4
HETATM    4  C   UNL     1     -10.569  10.895  64.331  1.00  0.00    -0.273 C  
HETATM    5  C   UNL     1     -10.064  10.016  65.222  1.00  0.00    -0.229 C  
HETATM    6  O   UNL     1     -11.249  10.798  67.063  1.00  0.00    -0.288 OA 
HETATM    7  N   UNL     1     -10.439   9.976  66.614  1.00  0.00    -0.204 N  
HETATM    8  O   UNL     1      -9.896   9.089  67.286  1.00  0.00    -0.170 OA 
BRANCH   4   9
HETATM    9  N   UNL     1     -11.523  11.840  64.665  1.00  0.00    -0.275 NA 
HETATM   10  H   UNL     1     -12.214  11.527  65.347  1.00  0.00     0.000 HD 
BRANCH   9  11
HETATM   11  C   UNL     1     -11.697  13.202  64.203  1.00  0.00    -0.418 C  
BRANCH  11  12
HETATM   12  C   UNL     1     -12.657  13.963  65.122  1.00  0.00    -0.434 C  
BRANCH  12  13
HETATM   13  S   UNL     1     -12.029  14.119  66.829  1.00  0.00    -0.441 SA 
BRANCH  13  14
HETATM   14  C   UNL     1     -10.311  14.623  66.478  1.00  0.00    -0.282 C  
BRANCH  14  15
HETATM   15  C   UNL     1     -10.005  15.942  67.100  1.00  0.00    -0.240 A  
HETATM   16  C   UNL     1     -10.747  16.597  68.062  1.00  0.00    -0.350 A  
HETATM   17  S   UNL     1      -9.998  18.080  68.477  1.00  0.00    -0.402 SA 
HETATM   18  C   UNL     1      -8.754  17.760  67.334  1.00  0.00    -0.235 A  
HETATM   19  N   UNL     1      -8.884  16.635  66.659  1.00  0.00    -0.227 NA 
BRANCH  18  20
HETATM   20  C   UNL     1      -7.629  18.746  67.123  1.00  0.00    -0.230 C  
BRANCH  20  21
HETATM   21  N   UNL     1      -7.187  18.873  65.714  1.00  0.00    -0.423 NA 
HETATM   22  C   UNL     1      -6.982  20.276  65.343  1.00  0.00    -0.266 C  
HETATM   23  C   UNL     1      -5.940  18.128  65.526  1.00  0.00    -0.201 C  
ENDBRANCH  20  21
ENDBRANCH  18  20
ENDBRANCH  14  15
ENDBRANCH  13  14
ENDBRANCH  12  13
ENDBRANCH  11  12
ENDBRANCH   9  11
ENDBRANCH   4   9
ENDBRANCH   2   4
TORSDOF 9
ENDMDL
MODEL      132
REMARK 921   NORMALIZED FREE ENERGY PREDICTED BY IDOCK:   -3.85 KCAL/MOL
REMARK 922        TOTAL FREE ENERGY PREDICTED BY IDOCK:   -6.95 KCAL/MOL
REMARK 923 INTER-LIGAND FREE ENERGY PREDICTED BY IDOCK:   -6.89 KCAL/MOL
REMARK 924 INTRA-LIGAND FREE ENERGY PREDICTED BY IDOCK:   -0.05 KCAL/MOL
REMARK 927      BINDING AFFINITY PREDICTED BY RF-SCORE:    0.00 PKD
ROOT
HETATM    1  C   UNL     1     -12.608  11.782  63.566  1.00  0.00    -0.367 C  
HETATM    2  N   UNL     1     -12.837  12.553  64.767  1.00  0.00    -0.820 NA 
HETATM    3  H   UNL     1     -13.611  12.235  65.350  1.00  0.00     0.000 HD 
ENDROOT
BRANCH   2   4
HETATM    4  C   UNL     1     -12.155  13.663  65.237  1.00  0.00    -0.406 C  
HETATM    5  C   UNL     1     -12.041  14.748  64.443  1.00  0.00    -0.440 C  
HETATM    6  O   UNL     1     -10.858  16.059  65.955  1.00  0.00    -0.286 OA 
HETATM    7  N   UNL     1     -11.360  15.959  64.827  1.00  0.00    -0.367 N  
HETATM    8  O   UNL     1     -11.329  16.848  63.966  1.00  0.00    -1.109 OA 
BRANCH   4   9
HETATM    9  N   UNL     1     -11.602  13.598  66.505  1.00  0.00    -0.349 NA 
HETATM   10  H   UNL     1     -10.979  14.371  66.740  1.00  0.00     0.000 HD 
BRANCH   9  11
HETATM   11  C   UNL     1     -11.765  12.609  67.550  1.00  0.00    -0.368 C  
BRANCH  11  12
HETATM   12  C   UNL     1     -10.490  11.775  67.707  1.00  0.00    -0.194 C  
BRANCH  12  13
HETATM   13  S   UNL     1     -10.820   9.979  67.742  1.00  0.00    -0.246 SA 
BRANCH  13  14
HETATM   14  C   UNL     1     -10.914   9.720  69.546  1.00  0.00    -0.227 C  
BRANCH  14  15
HETATM   15  C   UNL     1     -10.750   8.279  69.886  1.00  0.00    -0.234 A  
HETATM   16  C   UNL     1     -10.958   7.690  71.117  1.00  0.00    -0.246 A  
HETATM   17  S   UNL     1     -10.654   6.007  71.024  1.00  0.00    -0.258 SA 
HETATM   18  C   UNL     1     -10.246   6.182  69.362  1.00  0.00    -0.197 A  
HETATM   19  N   UNL     1     -10.305   7.414  68.894  1.00  0.00    -0.203 NA 
BRANCH  18  20
HETATM   20  C   UNL     1      -9.820   4.988  68.542  1.00  0.00    -0.151 C  
BRANCH  20  21
HETATM   21  N   UNL     1      -9.435   3.804  69.345  1.00  0.00    -0.183 NA 
HETATM   22  C   UNL     1      -9.248   2.621  68.499  1.00  0.00    -0.185 C  
HETATM   23  C   UNL     1      -8.194   4.089  70.069  1.00  0.00    -0.057 C  
ENDBRANCH  20  21
ENDBRANCH  18  20
ENDBRANCH  14  15
ENDBRANCH  13  14
ENDBRANCH  12  13
ENDBRANCH  11  12
ENDBRANCH   9  11
ENDBRANCH   4   9
ENDBRANCH   2   4
TORSDOF 9
ENDMDL
MODEL      133
REMARK 921   NORMALIZED FREE ENERGY PREDICTED BY IDOCK:   -3.84 KCAL/MOL
REMARK 922        TOTAL FREE ENERGY PREDICTED BY IDOCK:   -6.92 KCAL/MOL
REMARK 923 INTER-LIGAND FREE ENERGY PREDICTED BY IDOCK:   -5.69 KCAL/MOL
REMARK 924 INTRA-LIGAND FREE ENERGY PREDICTED BY IDOCK:   -1.23 KCAL/MOL
REMARK 927      BINDING AFFINITY PREDICTED BY RF-SCORE:    0.00 PKD
ROOT
HETATM    1  C   UNL     1     -12.334  14.085  66.515  1.00  0.00    -0.404 C  
HETATM    2  N   UNL     1     -12.280  13.852  67.941  1.00  0.00    -0.483 NA 
HETATM    3  H   UNL     1     -12.485  12.898  68.236  1.00  0.00     0.000 HD 
ENDROOT
BRANCH   2   4
HETATM    4  C   UNL     1     -11.990  14.741  68.962  1.00  0.00    -0.273 C  
HETATM    5  C   UNL     1     -12.514  14.526  70.187  1.00  0.00    -0.321 C  
HETATM    6  O   UNL     1     -11.533  16.363  71.220  1.00  0.00    -0.396 OA 
HETATM    7  N   UNL     1     -12.278  15.379  71.325  1.00  0.00    -0.335 N  
HETATM    8  O   UNL     1     -12.857  15.047  72.368  1.00  0.00    -0.311 OA 
BRANCH   4   9
HETATM    9  N   UNL     1     -11.183  15.827  68.670  1.00  0.00    -0.329 NA 
HETATM   10  H   UNL     1     -11.610  16.737  68.845  1.00  0.00     0.000 HD 
BRANCH   9  11
HETATM   11  C   UNL     1      -9.829  15.879  68.157  1.00  0.00    -0.214 C  
BRANCH  11  12
HETATM   12  C   UNL     1      -8.836  15.362  69.202  1.00  0.00    -0.249 C  
BRANCH  12  13
HETATM   13  S   UNL     1      -7.745  14.050  68.553  1.00  0.00    -0.140 SA 
BRANCH  13  14
HETATM   14  C   UNL     1      -8.773  13.454  67.168  1.00  0.00    -0.215 C  
BRANCH  14  15
HETATM   15  C   UNL     1      -9.375  12.128  67.484  1.00  0.00    -0.181 A  
HETATM   16  C   UNL     1      -9.486  11.045  66.636  1.00  0.00    -0.184 A  
HETATM   17  S   UNL     1     -10.239   9.737  67.445  1.00  0.00    -0.246 SA 
HETATM   18  C   UNL     1     -10.386  10.707  68.857  1.00  0.00    -0.207 A  
HETATM   19  N   UNL     1      -9.929  11.939  68.745  1.00  0.00    -0.147 NA 
BRANCH  18  20
HETATM   20  C   UNL     1     -11.034  10.158  70.106  1.00  0.00    -0.316 C  
BRANCH  20  21
HETATM   21  N   UNL     1     -10.596   8.790  70.468  1.00  0.00    -0.207 NA 
HETATM   22  C   UNL     1      -9.623   8.813  71.566  1.00  0.00    -0.284 C  
HETATM   23  C   UNL     1     -11.761   7.994  70.864  1.00  0.00    -0.251 C  
ENDBRANCH  20  21
ENDBRANCH  18  20
ENDBRANCH  14  15
ENDBRANCH  13  14
ENDBRANCH  12  13
ENDBRANCH  11  12
ENDBRANCH   9  11
ENDBRANCH   4   9
ENDBRANCH   2   4
TORSDOF 9
ENDMDL
MODEL      134
REMARK 921   NORMALIZED FREE ENERGY PREDICTED BY IDOCK:   -3.83 KCAL/MOL
REMARK 922        TOTAL FREE ENERGY PREDICTED BY IDOCK:   -6.91 KCAL/MOL
REMARK 923 INTER-LIGAND FREE ENERGY PREDICTED BY IDOCK:   -6.71 KCAL/MOL
REMARK 924 INTRA-LIGAND FREE ENERGY PREDICTED BY IDOCK:   -0.20 KCAL/MOL
REMARK 927      BINDING AFFINITY PREDICTED BY RF-SCORE:    0.00 PKD
ROOT
HETATM    1  C   UNL     1     -10.213  17.739  68.780  1.00  0.00    -0.373 C  
HETATM    2  N   UNL     1     -10.455  16.321  68.933  1.00  0.00    -0.254 NA 
HETATM    3  H   UNL     1      -9.994  15.882  69.729  1.00  0.00     0.000 HD 
ENDROOT
BRANCH   2   4
HETATM    4  C   UNL     1     -11.225  15.476  68.151  1.00  0.00    -0.343 C  
HETATM    5  C   UNL     1     -10.919  15.332  66.845  1.00  0.00    -0.315 C  
HETATM    6  O   UNL     1     -12.596  13.799  66.349  1.00  0.00    -0.389 OA 
HETATM    7  N   UNL     1     -11.644  14.477  65.938  1.00  0.00    -0.353 N  
HETATM    8  O   UNL     1     -11.242  14.482  64.767  1.00  0.00    -0.374 OA 
BRANCH   4   9
HETATM    9  N   UNL     1     -12.293  14.829  68.749  1.00  0.00    -0.588 NA 
HETATM   10  H   UNL     1     -13.066  14.611  68.121  1.00  0.00     0.000 HD 
BRANCH   9  11
HETATM   11  C   UNL     1     -12.488  14.413  70.122  1.00  0.00    -0.339 C  
BRANCH  11  12
HETATM   12  C   UNL     1     -11.961  12.990  70.334  1.00  0.00    -0.258 C  
BRANCH  12  13
HETATM   13  S   UNL     1     -12.895  12.072  71.606  1.00  0.00    -0.204 SA 
BRANCH  13  14
HETATM   14  C   UNL     1     -12.916  10.417  70.837  1.00  0.00    -0.387 C  
BRANCH  14  15
HETATM   15  C   UNL     1     -11.650   9.683  71.119  1.00  0.00    -0.381 A  
HETATM   16  C   UNL     1     -10.535   9.612  70.308  1.00  0.00    -0.283 A  
HETATM   17  S   UNL     1      -9.323   8.661  71.055  1.00  0.00    -0.223 SA 
HETATM   18  C   UNL     1     -10.370   8.392  72.392  1.00  0.00    -0.329 A  
HETATM   19  N   UNL     1     -11.562   8.948  72.295  1.00  0.00    -0.325 NA 
BRANCH  18  20
HETATM   20  C   UNL     1      -9.929   7.540  73.558  1.00  0.00    -0.315 C  
BRANCH  20  21
HETATM   21  N   UNL     1     -10.538   6.190  73.590  1.00  0.00    -0.269 NA 
HETATM   22  C   UNL     1     -10.976   5.769  72.255  1.00  0.00    -0.262 C  
HETATM   23  C   UNL     1      -9.564   5.228  74.111  1.00  0.00    -0.143 C  
ENDBRANCH  20  21
ENDBRANCH  18  20
ENDBRANCH  14  15
ENDBRANCH  13  14
ENDBRANCH  12  13
ENDBRANCH  11  12
ENDBRANCH   9  11
ENDBRANCH   4   9
ENDBRANCH   2   4
TORSDOF 9
ENDMDL
MODEL      135
REMARK 921   NORMALIZED FREE ENERGY PREDICTED BY IDOCK:   -3.83 KCAL/MOL
REMARK 922        TOTAL FREE ENERGY PREDICTED BY IDOCK:   -6.91 KCAL/MOL
REMARK 923 INTER-LIGAND FREE ENERGY PREDICTED BY IDOCK:   -5.85 KCAL/MOL
REMARK 924 INTRA-LIGAND FREE ENERGY PREDICTED BY IDOCK:   -1.05 KCAL/MOL
REMARK 927      BINDING AFFINITY PREDICTED BY RF-SCORE:    0.00 PKD
ROOT
HETATM    1  C   UNL     1      -8.461   8.173  65.149  1.00  0.00    -0.116 C  
HETATM    2  N   UNL     1      -8.639   9.405  65.883  1.00  0.00    -0.136 NA 
HETATM    3  H   UNL     1      -7.781   9.911  66.105  1.00  0.00     0.000 HD 
ENDROOT
BRANCH   2   4
HETATM    4  C   UNL     1      -9.809   9.997  66.328  1.00  0.00    -0.236 C  
HETATM    5  C   UNL     1     -10.083   9.996  67.650  1.00  0.00    -0.190 C  
HETATM    6  O   UNL     1     -12.090  11.160  67.504  1.00  0.00    -0.444 OA 
HETATM    7  N   UNL     1     -11.265  10.585  68.228  1.00  0.00    -0.294 N  
HETATM    8  O   UNL     1     -11.370  10.472  69.456  1.00  0.00    -0.243 OA 
BRANCH   4   9
HETATM    9  N   UNL     1     -10.658  10.551  65.385  1.00  0.00    -0.148 NA 
HETATM   10  H   UNL     1     -11.629  10.642  65.685  1.00  0.00     0.000 HD 
BRANCH   9  11
HETATM   11  C   UNL     1     -10.389  11.023  64.043  1.00  0.00    -0.371 C  
BRANCH  11  12
HETATM   12  C   UNL     1     -11.619  11.728  63.463  1.00  0.00    -0.387 C  
BRANCH  12  13
HETATM   13  S   UNL     1     -12.219  13.090  64.522  1.00  0.00    -0.420 SA 
BRANCH  13  14
HETATM   14  C   UNL     1     -10.663  14.019  64.737  1.00  0.00    -0.427 C  
BRANCH  14  15
HETATM   15  C   UNL     1     -10.198  13.959  66.151  1.00  0.00    -0.301 A  
HETATM   16  C   UNL     1      -8.931  13.637  66.594  1.00  0.00    -0.120 A  
HETATM   17  S   UNL     1      -8.867  13.709  68.304  1.00  0.00    -0.160 SA 
HETATM   18  C   UNL     1     -10.532  14.141  68.338  1.00  0.00    -0.254 A  
HETATM   19  N   UNL     1     -11.121  14.209  67.160  1.00  0.00    -0.299 NA 
BRANCH  18  20
HETATM   20  C   UNL     1     -11.240  14.380  69.650  1.00  0.00    -0.232 C  
BRANCH  20  21
HETATM   21  N   UNL     1     -10.796  15.597  70.369  1.00  0.00    -0.328 NA 
HETATM   22  C   UNL     1     -10.764  16.763  69.478  1.00  0.00    -0.273 C  
HETATM   23  C   UNL     1     -11.704  15.861  71.488  1.00  0.00    -0.475 C  
ENDBRANCH  20  21
ENDBRANCH  18  20
ENDBRANCH  14  15
ENDBRANCH  13  14
ENDBRANCH  12  13
ENDBRANCH  11  12
ENDBRANCH   9  11
ENDBRANCH   4   9
ENDBRANCH   2   4
TORSDOF 9
ENDMDL
MODEL      136
REMARK 921   NORMALIZED FREE ENERGY PREDICTED BY IDOCK:   -3.83 KCAL/MOL
REMARK 922        TOTAL FREE ENERGY PREDICTED BY IDOCK:   -6.90 KCAL/MOL
REMARK 923 INTER-LIGAND FREE ENERGY PREDICTED BY IDOCK:   -6.50 KCAL/MOL
REMARK 924 INTRA-LIGAND FREE ENERGY PREDICTED BY IDOCK:   -0.40 KCAL/MOL
REMARK 927      BINDING AFFINITY PREDICTED BY RF-SCORE:    0.00 PKD
ROOT
HETATM    1  C   UNL     1      -9.994  16.572  69.408  1.00  0.00    -0.187 C  
HETATM    2  N   UNL     1     -11.238  16.515  70.144  1.00  0.00    -0.456 NA 
HETATM    3  H   UNL     1     -11.978  17.125  69.798  1.00  0.00     0.000 HD 
ENDROOT
BRANCH   2   4
HETATM    4  C   UNL     1     -11.565  15.749  71.250  1.00  0.00    -0.441 C  
HETATM    5  C   UNL     1     -11.946  16.370  72.386  1.00  0.00    -0.468 C  
HETATM    6  O   UNL     1     -12.321  14.440  73.627  1.00  0.00    -0.310 OA 
HETATM    7  N   UNL     1     -12.315  15.678  73.596  1.00  0.00    -0.512 N  
HETATM    8  O   UNL     1     -12.615  16.403  74.553  1.00  0.00    -0.754 OA 
BRANCH   4   9
HETATM    9  N   UNL     1     -11.468  14.373  71.141  1.00  0.00    -0.504 NA 
HETATM   10  H   UNL     1     -10.690  13.957  71.654  1.00  0.00     0.000 HD 
BRANCH   9  11
HETATM   11  C   UNL     1     -12.293  13.428  70.417  1.00  0.00    -0.312 C  
BRANCH  11  12
HETATM   12  C   UNL     1     -11.804  13.282  68.973  1.00  0.00    -0.321 C  
BRANCH  12  13
HETATM   13  S   UNL     1     -11.625  11.539  68.459  1.00  0.00    -0.320 SA 
BRANCH  13  14
HETATM   14  C   UNL     1     -11.452  11.767  66.657  1.00  0.00    -0.267 C  
BRANCH  14  15
HETATM   15  C   UNL     1     -10.488  10.785  66.086  1.00  0.00    -0.214 A  
HETATM   16  C   UNL     1      -9.738  10.932  64.937  1.00  0.00    -0.266 A  
HETATM   17  S   UNL     1      -8.765   9.545  64.686  1.00  0.00    -0.214 SA 
HETATM   18  C   UNL     1      -9.425   8.836  66.108  1.00  0.00    -0.247 A  
HETATM   19  N   UNL     1     -10.332   9.563  66.731  1.00  0.00    -0.243 NA 
BRANCH  18  20
HETATM   20  C   UNL     1      -8.995   7.459  66.554  1.00  0.00    -0.159 C  
BRANCH  20  21
HETATM   21  N   UNL     1      -7.931   7.458  67.584  1.00  0.00    -0.113 NA 
HETATM   22  C   UNL     1      -8.415   6.903  68.853  1.00  0.00    -0.125 C  
HETATM   23  C   UNL     1      -6.792   6.669  67.108  1.00  0.00    -0.069 C  
ENDBRANCH  20  21
ENDBRANCH  18  20
ENDBRANCH  14  15
ENDBRANCH  13  14
ENDBRANCH  12  13
ENDBRANCH  11  12
ENDBRANCH   9  11
ENDBRANCH   4   9
ENDBRANCH   2   4
TORSDOF 9
ENDMDL
MODEL      137
REMARK 921   NORMALIZED FREE ENERGY PREDICTED BY IDOCK:   -3.82 KCAL/MOL
REMARK 922        TOTAL FREE ENERGY PREDICTED BY IDOCK:   -6.90 KCAL/MOL
REMARK 923 INTER-LIGAND FREE ENERGY PREDICTED BY IDOCK:   -6.32 KCAL/MOL
REMARK 924 INTRA-LIGAND FREE ENERGY PREDICTED BY IDOCK:   -0.58 KCAL/MOL
REMARK 927      BINDING AFFINITY PREDICTED BY RF-SCORE:    0.00 PKD
ROOT
HETATM    1  C   UNL     1      -9.131  16.132  69.117  1.00  0.00    -0.243 C  
HETATM    2  N   UNL     1      -9.889  15.464  70.151  1.00  0.00    -0.420 NA 
HETATM    3  H   UNL     1      -9.337  14.932  70.824  1.00  0.00     0.000 HD 
ENDROOT
BRANCH   2   4
HETATM    4  C   UNL     1     -11.258  15.443  70.358  1.00  0.00    -0.323 C  
HETATM    5  C   UNL     1     -11.739  15.708  71.591  1.00  0.00    -0.446 C  
HETATM    6  O   UNL     1     -13.989  15.506  71.045  1.00  0.00    -0.535 OA 
HETATM    7  N   UNL     1     -13.142  15.720  71.922  1.00  0.00    -0.453 N  
HETATM    8  O   UNL     1     -13.406  15.959  73.108  1.00  0.00    -0.547 OA 
BRANCH   4   9
HETATM    9  N   UNL     1     -12.074  15.131  69.284  1.00  0.00    -0.513 NA 
HETATM   10  H   UNL     1     -12.724  15.868  69.014  1.00  0.00     0.000 HD 
BRANCH   9  11
HETATM   11  C   UNL     1     -12.152  13.927  68.483  1.00  0.00    -0.296 C  
BRANCH  11  12
HETATM   12  C   UNL     1     -11.931  12.686  69.353  1.00  0.00    -0.260 C  
BRANCH  12  13
HETATM   13  S   UNL     1     -11.589  11.185  68.372  1.00  0.00    -0.286 SA 
BRANCH  13  14
HETATM   14  C   UNL     1      -9.768  11.161  68.471  1.00  0.00    -0.196 C  
BRANCH  14  15
HETATM   15  C   UNL     1      -9.275   9.822  68.899  1.00  0.00    -0.155 A  
HETATM   16  C   UNL     1      -8.075   9.232  68.556  1.00  0.00    -0.106 A  
HETATM   17  S   UNL     1      -7.943   7.693  69.296  1.00  0.00    -0.128 SA 
HETATM   18  C   UNL     1      -9.496   7.908  70.002  1.00  0.00    -0.157 A  
HETATM   19  N   UNL     1     -10.101   9.040  69.698  1.00  0.00    -0.190 NA 
BRANCH  18  20
HETATM   20  C   UNL     1     -10.103   6.834  70.872  1.00  0.00    -0.190 C  
BRANCH  20  21
HETATM   21  N   UNL     1     -11.099   7.333  71.849  1.00  0.00    -0.234 NA 
HETATM   22  C   UNL     1     -12.163   6.350  72.078  1.00  0.00    -0.269 C  
HETATM   23  C   UNL     1     -10.430   7.634  73.117  1.00  0.00    -0.374 C  
ENDBRANCH  20  21
ENDBRANCH  18  20
ENDBRANCH  14  15
ENDBRANCH  13  14
ENDBRANCH  12  13
ENDBRANCH  11  12
ENDBRANCH   9  11
ENDBRANCH   4   9
ENDBRANCH   2   4
TORSDOF 9
ENDMDL
MODEL      138
REMARK 921   NORMALIZED FREE ENERGY PREDICTED BY IDOCK:   -3.82 KCAL/MOL
REMARK 922        TOTAL FREE ENERGY PREDICTED BY IDOCK:   -6.89 KCAL/MOL
REMARK 923 INTER-LIGAND FREE ENERGY PREDICTED BY IDOCK:   -5.58 KCAL/MOL
REMARK 924 INTRA-LIGAND FREE ENERGY PREDICTED BY IDOCK:   -1.32 KCAL/MOL
REMARK 927      BINDING AFFINITY PREDICTED BY RF-SCORE:    0.00 PKD
ROOT
HETATM    1  C   UNL     1      -9.224  10.360  64.480  1.00  0.00    -0.246 C  
HETATM    2  N   UNL     1     -10.317  10.579  65.401  1.00  0.00    -0.258 NA 
HETATM    3  H   UNL     1     -10.440   9.860  66.113  1.00  0.00     0.000 HD 
ENDROOT
BRANCH   2   4
HETATM    4  C   UNL     1     -11.220  11.627  65.453  1.00  0.00    -0.199 C  
HETATM    5  C   UNL     1     -11.555  12.261  64.309  1.00  0.00    -0.371 C  
HETATM    6  O   UNL     1     -13.055  13.757  65.267  1.00  0.00    -0.756 OA 
HETATM    7  N   UNL     1     -12.487  13.359  64.241  1.00  0.00    -0.302 N  
HETATM    8  O   UNL     1     -12.661  13.840  63.113  1.00  0.00    -0.793 OA 
BRANCH   4   9
HETATM    9  N   UNL     1     -11.727  11.989  66.689  1.00  0.00    -0.577 NA 
HETATM   10  H   UNL     1     -12.711  11.759  66.832  1.00  0.00     0.000 HD 
BRANCH   9  11
HETATM   11  C   UNL     1     -11.086  12.642  67.812  1.00  0.00    -0.247 C  
BRANCH  11  12
HETATM   12  C   UNL     1     -10.103  13.710  67.324  1.00  0.00    -0.239 C  
BRANCH  12  13
HETATM   13  S   UNL     1      -8.368  13.142  67.355  1.00  0.00    -0.185 SA 
BRANCH  13  14
HETATM   14  C   UNL     1      -8.515  11.773  68.552  1.00  0.00    -0.125 C  
BRANCH  14  15
HETATM   15  C   UNL     1      -7.942  10.515  67.996  1.00  0.00    -0.106 A  
HETATM   16  C   UNL     1      -6.695  10.353  67.427  1.00  0.00    -0.072 A  
HETATM   17  S   UNL     1      -6.476   8.726  66.939  1.00  0.00    -0.061 SA 
HETATM   18  C   UNL     1      -8.060   8.356  67.496  1.00  0.00    -0.110 A  
HETATM   19  N   UNL     1      -8.734   9.373  67.996  1.00  0.00    -0.124 NA 
BRANCH  18  20
HETATM   20  C   UNL     1      -8.616   6.957  67.367  1.00  0.00    -0.121 C  
BRANCH  20  21
HETATM   21  N   UNL     1      -9.928   6.761  68.025  1.00  0.00    -0.140 NA 
HETATM   22  C   UNL     1     -10.958   6.365  67.059  1.00  0.00    -0.389 C  
HETATM   23  C   UNL     1      -9.806   5.730  69.059  1.00  0.00    -0.158 C  
ENDBRANCH  20  21
ENDBRANCH  18  20
ENDBRANCH  14  15
ENDBRANCH  13  14
ENDBRANCH  12  13
ENDBRANCH  11  12
ENDBRANCH   9  11
ENDBRANCH   4   9
ENDBRANCH   2   4
TORSDOF 9
ENDMDL
MODEL      139
REMARK 921   NORMALIZED FREE ENERGY PREDICTED BY IDOCK:   -3.82 KCAL/MOL
REMARK 922        TOTAL FREE ENERGY PREDICTED BY IDOCK:   -6.89 KCAL/MOL
REMARK 923 INTER-LIGAND FREE ENERGY PREDICTED BY IDOCK:   -6.44 KCAL/MOL
REMARK 924 INTRA-LIGAND FREE ENERGY PREDICTED BY IDOCK:   -0.44 KCAL/MOL
REMARK 927      BINDING AFFINITY PREDICTED BY RF-SCORE:    0.00 PKD
ROOT
HETATM    1  C   UNL     1     -10.889  15.848  64.958  1.00  0.00    -0.426 C  
HETATM    2  N   UNL     1     -10.022  16.116  66.083  1.00  0.00    -0.313 NA 
HETATM    3  H   UNL     1      -9.252  15.459  66.209  1.00  0.00     0.000 HD 
ENDROOT
BRANCH   2   4
HETATM    4  C   UNL     1     -10.088  17.139  67.014  1.00  0.00    -0.297 C  
HETATM    5  C   UNL     1      -9.537  18.335  66.714  1.00  0.00    -0.299 C  
HETATM    6  O   UNL     1     -10.113  19.396  68.701  1.00  0.00    -0.410 OA 
HETATM    7  N   UNL     1      -9.550  19.472  67.600  1.00  0.00    -0.322 N  
HETATM    8  O   UNL     1      -8.977  20.484  67.175  1.00  0.00    -0.346 OA 
BRANCH   4   9
HETATM    9  N   UNL     1     -10.705  16.879  68.225  1.00  0.00    -0.368 NA 
HETATM   10  H   UNL     1     -11.479  17.503  68.453  1.00  0.00     0.000 HD 
BRANCH   9  11
HETATM   11  C   UNL     1     -10.429  15.864  69.220  1.00  0.00    -0.253 C  
BRANCH  11  12
HETATM   12  C   UNL     1     -11.733  15.271  69.762  1.00  0.00    -0.323 C  
BRANCH  12  13
HETATM   13  S   UNL     1     -11.935  13.505  69.344  1.00  0.00    -0.309 SA 
BRANCH  13  14
HETATM   14  C   UNL     1     -12.666  12.903  70.904  1.00  0.00    -0.207 C  
BRANCH  14  15
HETATM   15  C   UNL     1     -12.447  11.438  71.064  1.00  0.00    -0.383 A  
HETATM   16  C   UNL     1     -13.114  10.590  71.925  1.00  0.00    -0.462 A  
HETATM   17  S   UNL     1     -12.527   8.991  71.749  1.00  0.00    -0.396 SA 
HETATM   18  C   UNL     1     -11.414   9.540  70.559  1.00  0.00    -0.276 A  
HETATM   19  N   UNL     1     -11.447  10.835  70.311  1.00  0.00    -0.313 NA 
BRANCH  18  20
HETATM   20  C   UNL     1     -10.458   8.578  69.895  1.00  0.00    -0.219 C  
BRANCH  20  21
HETATM   21  N   UNL     1      -9.653   7.770  70.840  1.00  0.00    -0.167 NA 
HETATM   22  C   UNL     1      -8.940   6.691  70.149  1.00  0.00    -0.152 C  
HETATM   23  C   UNL     1      -8.687   8.636  71.522  1.00  0.00    -0.202 C  
ENDBRANCH  20  21
ENDBRANCH  18  20
ENDBRANCH  14  15
ENDBRANCH  13  14
ENDBRANCH  12  13
ENDBRANCH  11  12
ENDBRANCH   9  11
ENDBRANCH   4   9
ENDBRANCH   2   4
TORSDOF 9
ENDMDL
MODEL      140
REMARK 921   NORMALIZED FREE ENERGY PREDICTED BY IDOCK:   -3.81 KCAL/MOL
REMARK 922        TOTAL FREE ENERGY PREDICTED BY IDOCK:   -6.88 KCAL/MOL
REMARK 923 INTER-LIGAND FREE ENERGY PREDICTED BY IDOCK:   -6.21 KCAL/MOL
REMARK 924 INTRA-LIGAND FREE ENERGY PREDICTED BY IDOCK:   -0.67 KCAL/MOL
REMARK 927      BINDING AFFINITY PREDICTED BY RF-SCORE:    0.00 PKD
ROOT
HETATM    1  C   UNL     1      -9.116  16.129  69.099  1.00  0.00    -0.243 C  
HETATM    2  N   UNL     1      -9.898  15.452  70.109  1.00  0.00    -0.420 NA 
HETATM    3  H   UNL     1      -9.361  14.913  70.789  1.00  0.00     0.000 HD 
ENDROOT
BRANCH   2   4
HETATM    4  C   UNL     1     -11.271  15.431  70.285  1.00  0.00    -0.309 C  
HETATM    5  C   UNL     1     -11.778  15.672  71.512  1.00  0.00    -0.433 C  
HETATM    6  O   UNL     1     -14.017  15.488  70.913  1.00  0.00    -0.489 OA 
HETATM    7  N   UNL     1     -13.188  15.682  71.813  1.00  0.00    -0.476 N  
HETATM    8  O   UNL     1     -13.478  15.897  72.997  1.00  0.00    -0.551 OA 
BRANCH   4   9
HETATM    9  N   UNL     1     -12.064  15.144  69.187  1.00  0.00    -0.534 NA 
HETATM   10  H   UNL     1     -12.719  15.882  68.929  1.00  0.00     0.000 HD 
BRANCH   9  11
HETATM   11  C   UNL     1     -12.112  13.966  68.347  1.00  0.00    -0.291 C  
BRANCH  11  12
HETATM   12  C   UNL     1     -11.894  12.700  69.181  1.00  0.00    -0.297 C  
BRANCH  12  13
HETATM   13  S   UNL     1     -11.575  11.223  68.156  1.00  0.00    -0.260 SA 
BRANCH  13  14
HETATM   14  C   UNL     1     -11.581  11.991  66.501  1.00  0.00    -0.314 C  
BRANCH  14  15
HETATM   15  C   UNL     1     -10.518  11.406  65.637  1.00  0.00    -0.262 A  
HETATM   16  C   UNL     1     -10.540  11.283  64.263  1.00  0.00    -0.358 A  
HETATM   17  S   UNL     1      -9.091  10.556  63.712  1.00  0.00    -0.256 SA 
HETATM   18  C   UNL     1      -8.544  10.434  65.338  1.00  0.00    -0.174 A  
HETATM   19  N   UNL     1      -9.386  10.881  66.250  1.00  0.00    -0.174 NA 
BRANCH  18  20
HETATM   20  C   UNL     1      -7.203   9.818  65.657  1.00  0.00    -0.106 C  
BRANCH  20  21
HETATM   21  N   UNL     1      -6.610  10.278  66.934  1.00  0.00    -0.073 NA 
HETATM   22  C   UNL     1      -5.839   9.212  67.581  1.00  0.00    -0.046 C  
HETATM   23  C   UNL     1      -5.738  11.428  66.680  1.00  0.00    -0.142 C  
ENDBRANCH  20  21
ENDBRANCH  18  20
ENDBRANCH  14  15
ENDBRANCH  13  14
ENDBRANCH  12  13
ENDBRANCH  11  12
ENDBRANCH   9  11
ENDBRANCH   4   9
ENDBRANCH   2   4
TORSDOF 9
ENDMDL
MODEL      141
REMARK 921   NORMALIZED FREE ENERGY PREDICTED BY IDOCK:   -3.81 KCAL/MOL
REMARK 922        TOTAL FREE ENERGY PREDICTED BY IDOCK:   -6.88 KCAL/MOL
REMARK 923 INTER-LIGAND FREE ENERGY PREDICTED BY IDOCK:   -6.37 KCAL/MOL
REMARK 924 INTRA-LIGAND FREE ENERGY PREDICTED BY IDOCK:   -0.51 KCAL/MOL
REMARK 927      BINDING AFFINITY PREDICTED BY RF-SCORE:    0.00 PKD
ROOT
HETATM    1  C   UNL     1     -11.028   5.756  69.614  1.00  0.00    -0.315 C  
HETATM    2  N   UNL     1     -10.845   6.678  70.712  1.00  0.00    -0.240 NA 
HETATM    3  H   UNL     1     -10.157   6.396  71.410  1.00  0.00     0.000 HD 
ENDROOT
BRANCH   2   4
HETATM    4  C   UNL     1     -11.471   7.891  70.950  1.00  0.00    -0.281 C  
HETATM    5  C   UNL     1     -12.622   7.907  71.654  1.00  0.00    -0.321 C  
HETATM    6  O   UNL     1     -12.926  10.211  71.609  1.00  0.00    -0.385 OA 
HETATM    7  N   UNL     1     -13.357   9.106  71.967  1.00  0.00    -0.411 N  
HETATM    8  O   UNL     1     -14.407   8.937  72.602  1.00  0.00    -0.613 OA 
BRANCH   4   9
HETATM    9  N   UNL     1     -10.890   9.036  70.434  1.00  0.00    -0.237 NA 
HETATM   10  H   UNL     1     -10.537   9.689  71.133  1.00  0.00     0.000 HD 
BRANCH   9  11
HETATM   11  C   UNL     1     -10.702   9.455  69.060  1.00  0.00    -0.187 C  
BRANCH  11  12
HETATM   12  C   UNL     1      -9.212   9.625  68.747  1.00  0.00    -0.141 C  
BRANCH  12  13
HETATM   13  S   UNL     1      -8.899  10.030  66.995  1.00  0.00    -0.138 SA 
BRANCH  13  14
HETATM   14  C   UNL     1      -8.562  11.816  67.148  1.00  0.00    -0.168 C  
BRANCH  14  15
HETATM   15  C   UNL     1      -9.824  12.581  67.353  1.00  0.00    -0.201 A  
HETATM   16  C   UNL     1     -10.574  13.218  66.385  1.00  0.00    -0.284 A  
HETATM   17  S   UNL     1     -11.947  13.956  67.094  1.00  0.00    -0.400 SA 
HETATM   18  C   UNL     1     -11.439  13.398  68.639  1.00  0.00    -0.310 A  
HETATM   19  N   UNL     1     -10.307  12.722  68.649  1.00  0.00    -0.215 NA 
BRANCH  18  20
HETATM   20  C   UNL     1     -12.243  13.715  69.877  1.00  0.00    -0.304 C  
BRANCH  20  21
HETATM   21  N   UNL     1     -12.398  15.163  70.148  1.00  0.00    -0.343 NA 
HETATM   22  C   UNL     1     -13.402  15.408  71.188  1.00  0.00    -0.508 C  
HETATM   23  C   UNL     1     -11.110  15.720  70.570  1.00  0.00    -0.365 C  
ENDBRANCH  20  21
ENDBRANCH  18  20
ENDBRANCH  14  15
ENDBRANCH  13  14
ENDBRANCH  12  13
ENDBRANCH  11  12
ENDBRANCH   9  11
ENDBRANCH   4   9
ENDBRANCH   2   4
TORSDOF 9
ENDMDL
MODEL      142
REMARK 921   NORMALIZED FREE ENERGY PREDICTED BY IDOCK:   -3.81 KCAL/MOL
REMARK 922        TOTAL FREE ENERGY PREDICTED BY IDOCK:   -6.87 KCAL/MOL
REMARK 923 INTER-LIGAND FREE ENERGY PREDICTED BY IDOCK:   -6.05 KCAL/MOL
REMARK 924 INTRA-LIGAND FREE ENERGY PREDICTED BY IDOCK:   -0.83 KCAL/MOL
REMARK 927      BINDING AFFINITY PREDICTED BY RF-SCORE:    0.00 PKD
ROOT
HETATM    1  C   UNL     1      -7.774  15.857  69.099  1.00  0.00    -0.220 C  
HETATM    2  N   UNL     1      -9.068  16.175  68.539  1.00  0.00    -0.199 NA 
HETATM    3  H   UNL     1      -9.206  17.153  68.284  1.00  0.00     0.000 HD 
ENDROOT
BRANCH   2   4
HETATM    4  C   UNL     1     -10.148  15.341  68.301  1.00  0.00    -0.225 C  
HETATM    5  C   UNL     1     -10.678  14.647  69.330  1.00  0.00    -0.243 C  
HETATM    6  O   UNL     1     -12.362  13.610  68.106  1.00  0.00    -0.233 OA 
HETATM    7  N   UNL     1     -11.804  13.755  69.203  1.00  0.00    -0.334 N  
HETATM    8  O   UNL     1     -12.146  13.179  70.244  1.00  0.00    -0.349 OA 
BRANCH   4   9
HETATM    9  N   UNL     1     -10.624  15.246  67.005  1.00  0.00    -0.300 NA 
HETATM   10  H   UNL     1     -11.370  14.564  66.873  1.00  0.00     0.000 HD 
BRANCH   9  11
HETATM   11  C   UNL     1     -10.232  15.959  65.807  1.00  0.00    -0.365 C  
BRANCH  11  12
HETATM   12  C   UNL     1     -11.125  15.562  64.628  1.00  0.00    -0.359 C  
BRANCH  12  13
HETATM   13  S   UNL     1     -12.365  14.299  65.073  1.00  0.00    -0.390 SA 
BRANCH  13  14
HETATM   14  C   UNL     1     -12.111  13.122  63.702  1.00  0.00    -0.513 C  
BRANCH  14  15
HETATM   15  C   UNL     1     -11.147  12.054  64.089  1.00  0.00    -0.368 A  
HETATM   16  C   UNL     1     -10.359  11.302  63.241  1.00  0.00    -0.347 A  
HETATM   17  S   UNL     1      -9.403  10.204  64.143  1.00  0.00    -0.287 SA 
HETATM   18  C   UNL     1     -10.118  10.788  65.594  1.00  0.00    -0.267 A  
HETATM   19  N   UNL     1     -11.031  11.726  65.434  1.00  0.00    -0.305 NA 
BRANCH  18  20
HETATM   20  C   UNL     1      -9.725  10.211  66.933  1.00  0.00    -0.187 C  
BRANCH  20  21
HETATM   21  N   UNL     1      -9.795  11.176  68.055  1.00  0.00    -0.170 NA 
HETATM   22  C   UNL     1     -10.169  10.513  69.309  1.00  0.00    -0.225 C  
HETATM   23  C   UNL     1      -8.495  11.831  68.217  1.00  0.00    -0.161 C  
ENDBRANCH  20  21
ENDBRANCH  18  20
ENDBRANCH  14  15
ENDBRANCH  13  14
ENDBRANCH  12  13
ENDBRANCH  11  12
ENDBRANCH   9  11
ENDBRANCH   4   9
ENDBRANCH   2   4
TORSDOF 9
ENDMDL
MODEL      143
REMARK 921   NORMALIZED FREE ENERGY PREDICTED BY IDOCK:   -3.80 KCAL/MOL
REMARK 922        TOTAL FREE ENERGY PREDICTED BY IDOCK:   -6.87 KCAL/MOL
REMARK 923 INTER-LIGAND FREE ENERGY PREDICTED BY IDOCK:   -6.20 KCAL/MOL
REMARK 924 INTRA-LIGAND FREE ENERGY PREDICTED BY IDOCK:   -0.67 KCAL/MOL
REMARK 927      BINDING AFFINITY PREDICTED BY RF-SCORE:    0.00 PKD
ROOT
HETATM    1  C   UNL     1     -11.615  10.524  69.905  1.00  0.00    -0.307 C  
HETATM    2  N   UNL     1     -12.324   9.439  70.545  1.00  0.00    -0.488 NA 
HETATM    3  H   UNL     1     -13.339   9.537  70.575  1.00  0.00     0.000 HD 
ENDROOT
BRANCH   2   4
HETATM    4  C   UNL     1     -11.821   8.285  71.121  1.00  0.00    -0.275 C  
HETATM    5  C   UNL     1     -11.067   8.385  72.236  1.00  0.00    -0.368 C  
HETATM    6  O   UNL     1     -10.708   6.105  72.517  1.00  0.00    -0.205 OA 
HETATM    7  N   UNL     1     -10.495   7.255  72.925  1.00  0.00    -0.251 N  
HETATM    8  O   UNL     1      -9.809   7.529  73.919  1.00  0.00    -0.282 OA 
BRANCH   4   9
HETATM    9  N   UNL     1     -12.104   7.075  70.511  1.00  0.00    -0.583 NA 
HETATM   10  H   UNL     1     -12.741   6.472  71.032  1.00  0.00     0.000 HD 
BRANCH   9  11
HETATM   11  C   UNL     1     -11.641   6.528  69.253  1.00  0.00    -0.111 C  
BRANCH  11  12
HETATM   12  C   UNL     1     -10.287   7.133  68.868  1.00  0.00    -0.196 C  
BRANCH  12  13
HETATM   13  S   UNL     1     -10.197   7.600  67.105  1.00  0.00    -0.318 SA 
BRANCH  13  14
HETATM   14  C   UNL     1      -9.032   9.001  67.218  1.00  0.00    -0.127 C  
BRANCH  14  15
HETATM   15  C   UNL     1      -9.409  10.084  66.268  1.00  0.00    -0.168 A  
HETATM   16  C   UNL     1      -9.627   9.957  64.911  1.00  0.00    -0.288 A  
HETATM   17  S   UNL     1     -10.047  11.474  64.236  1.00  0.00    -0.316 SA 
HETATM   18  C   UNL     1      -9.886  12.198  65.788  1.00  0.00    -0.245 A  
HETATM   19  N   UNL     1      -9.521  11.380  66.756  1.00  0.00    -0.179 NA 
BRANCH  18  20
HETATM   20  C   UNL     1     -10.120  13.678  65.977  1.00  0.00    -0.312 C  
BRANCH  20  21
HETATM   21  N   UNL     1     -11.230  14.227  65.164  1.00  0.00    -0.328 NA 
HETATM   22  C   UNL     1     -12.497  14.204  65.902  1.00  0.00    -0.453 C  
HETATM   23  C   UNL     1     -10.915  15.605  64.776  1.00  0.00    -0.400 C  
ENDBRANCH  20  21
ENDBRANCH  18  20
ENDBRANCH  14  15
ENDBRANCH  13  14
ENDBRANCH  12  13
ENDBRANCH  11  12
ENDBRANCH   9  11
ENDBRANCH   4   9
ENDBRANCH   2   4
TORSDOF 9
ENDMDL
MODEL      144
REMARK 921   NORMALIZED FREE ENERGY PREDICTED BY IDOCK:   -3.80 KCAL/MOL
REMARK 922        TOTAL FREE ENERGY PREDICTED BY IDOCK:   -6.87 KCAL/MOL
REMARK 923 INTER-LIGAND FREE ENERGY PREDICTED BY IDOCK:   -6.72 KCAL/MOL
REMARK 924 INTRA-LIGAND FREE ENERGY PREDICTED BY IDOCK:   -0.14 KCAL/MOL
REMARK 927      BINDING AFFINITY PREDICTED BY RF-SCORE:    0.00 PKD
ROOT
HETATM    1  C   UNL     1      -8.676  14.556  67.295  1.00  0.00    -0.210 C  
HETATM    2  N   UNL     1     -10.072  14.179  67.290  1.00  0.00    -0.253 NA 
HETATM    3  H   UNL     1     -10.483  14.009  68.207  1.00  0.00     0.000 HD 
ENDROOT
BRANCH   2   4
HETATM    4  C   UNL     1     -10.929  14.016  66.215  1.00  0.00    -0.300 C  
HETATM    5  C   UNL     1     -11.220  15.083  65.441  1.00  0.00    -0.356 C  
HETATM    6  O   UNL     1     -12.607  13.958  63.952  1.00  0.00    -0.697 OA 
HETATM    7  N   UNL     1     -12.094  15.032  64.295  1.00  0.00    -0.408 N  
HETATM    8  O   UNL     1     -12.270  16.110  63.713  1.00  0.00    -0.934 OA 
BRANCH   4   9
HETATM    9  N   UNL     1     -11.466  12.759  65.995  1.00  0.00    -0.331 NA 
HETATM   10  H   UNL     1     -12.157  12.715  65.245  1.00  0.00     0.000 HD 
BRANCH   9  11
HETATM   11  C   UNL     1     -11.204  11.498  66.656  1.00  0.00    -0.271 C  
BRANCH  11  12
HETATM   12  C   UNL     1      -9.863  10.916  66.196  1.00  0.00    -0.222 C  
BRANCH  12  13
HETATM   13  S   UNL     1      -8.940  10.111  67.550  1.00  0.00    -0.130 SA 
BRANCH  13  14
HETATM   14  C   UNL     1      -9.997   8.648  67.815  1.00  0.00    -0.190 C  
BRANCH  14  15
HETATM   15  C   UNL     1     -10.527   8.619  69.208  1.00  0.00    -0.217 A  
HETATM   16  C   UNL     1     -10.725   9.701  70.042  1.00  0.00    -0.259 A  
HETATM   17  S   UNL     1     -11.359   9.179  71.544  1.00  0.00    -0.392 SA 
HETATM   18  C   UNL     1     -11.305   7.551  70.991  1.00  0.00    -0.273 A  
HETATM   19  N   UNL     1     -10.826   7.386  69.774  1.00  0.00    -0.247 NA 
BRANCH  18  20
HETATM   20  C   UNL     1     -11.751   6.418  71.884  1.00  0.00    -0.328 C  
BRANCH  20  21
HETATM   21  N   UNL     1     -10.674   5.846  72.725  1.00  0.00    -0.224 NA 
HETATM   22  C   UNL     1      -9.427   5.696  71.968  1.00  0.00    -0.150 C  
HETATM   23  C   UNL     1     -10.444   6.717  73.881  1.00  0.00    -0.327 C  
ENDBRANCH  20  21
ENDBRANCH  18  20
ENDBRANCH  14  15
ENDBRANCH  13  14
ENDBRANCH  12  13
ENDBRANCH  11  12
ENDBRANCH   9  11
ENDBRANCH   4   9
ENDBRANCH   2   4
TORSDOF 9
ENDMDL
MODEL      145
REMARK 921   NORMALIZED FREE ENERGY PREDICTED BY IDOCK:   -3.80 KCAL/MOL
REMARK 922        TOTAL FREE ENERGY PREDICTED BY IDOCK:   -6.86 KCAL/MOL
REMARK 923 INTER-LIGAND FREE ENERGY PREDICTED BY IDOCK:   -6.27 KCAL/MOL
REMARK 924 INTRA-LIGAND FREE ENERGY PREDICTED BY IDOCK:   -0.58 KCAL/MOL
REMARK 927      BINDING AFFINITY PREDICTED BY RF-SCORE:    0.00 PKD
ROOT
HETATM    1  C   UNL     1     -11.718  15.679  68.492  1.00  0.00    -0.327 C  
HETATM    2  N   UNL     1     -11.811  14.247  68.315  1.00  0.00    -0.393 NA 
HETATM    3  H   UNL     1     -11.705  13.694  69.165  1.00  0.00     0.000 HD 
ENDROOT
BRANCH   2   4
HETATM    4  C   UNL     1     -12.024  13.521  67.156  1.00  0.00    -0.381 C  
HETATM    5  C   UNL     1     -12.256  14.182  66.002  1.00  0.00    -0.443 C  
HETATM    6  O   UNL     1     -12.449  12.298  64.653  1.00  0.00    -0.432 OA 
HETATM    7  N   UNL     1     -12.486  13.534  64.735  1.00  0.00    -0.377 N  
HETATM    8  O   UNL     1     -12.707  14.292  63.782  1.00  0.00    -0.779 OA 
BRANCH   4   9
HETATM    9  N   UNL     1     -12.006  12.140  67.240  1.00  0.00    -0.578 NA 
HETATM   10  H   UNL     1     -12.773  11.672  66.758  1.00  0.00     0.000 HD 
BRANCH   9  11
HETATM   11  C   UNL     1     -11.072  11.252  67.901  1.00  0.00    -0.267 C  
BRANCH  11  12
HETATM   12  C   UNL     1     -10.214  10.510  66.873  1.00  0.00    -0.229 C  
BRANCH  12  13
HETATM   13  S   UNL     1     -10.215   8.701  67.124  1.00  0.00    -0.299 SA 
BRANCH  13  14
HETATM   14  C   UNL     1      -8.443   8.439  67.473  1.00  0.00    -0.129 C  
BRANCH  14  15
HETATM   15  C   UNL     1      -8.198   8.340  68.940  1.00  0.00    -0.116 A  
HETATM   16  C   UNL     1      -6.974   8.246  69.571  1.00  0.00    -0.046 A  
HETATM   17  S   UNL     1      -7.190   8.163  71.267  1.00  0.00    -0.073 SA 
HETATM   18  C   UNL     1      -8.894   8.235  71.045  1.00  0.00    -0.150 A  
HETATM   19  N   UNL     1      -9.296   8.294  69.790  1.00  0.00    -0.158 NA 
BRANCH  18  20
HETATM   20  C   UNL     1      -9.829   8.194  72.229  1.00  0.00    -0.260 C  
BRANCH  20  21
HETATM   21  N   UNL     1     -10.381   6.851  72.523  1.00  0.00    -0.190 NA 
HETATM   22  C   UNL     1     -10.320   6.549  73.957  1.00  0.00    -0.340 C  
HETATM   23  C   UNL     1     -11.772   6.784  72.067  1.00  0.00    -0.306 C  
ENDBRANCH  20  21
ENDBRANCH  18  20
ENDBRANCH  14  15
ENDBRANCH  13  14
ENDBRANCH  12  13
ENDBRANCH  11  12
ENDBRANCH   9  11
ENDBRANCH   4   9
ENDBRANCH   2   4
TORSDOF 9
ENDMDL
MODEL      146
REMARK 921   NORMALIZED FREE ENERGY PREDICTED BY IDOCK:   -3.78 KCAL/MOL
REMARK 922        TOTAL FREE ENERGY PREDICTED BY IDOCK:   -6.84 KCAL/MOL
REMARK 923 INTER-LIGAND FREE ENERGY PREDICTED BY IDOCK:   -6.65 KCAL/MOL
REMARK 924 INTRA-LIGAND FREE ENERGY PREDICTED BY IDOCK:   -0.19 KCAL/MOL
REMARK 927      BINDING AFFINITY PREDICTED BY RF-SCORE:    0.00 PKD
ROOT
HETATM    1  C   UNL     1     -10.098  16.983  66.609  1.00  0.00    -0.306 C  
HETATM    2  N   UNL     1     -10.245  15.548  66.710  1.00  0.00    -0.273 NA 
HETATM    3  H   UNL     1      -9.486  15.064  67.189  1.00  0.00     0.000 HD 
ENDROOT
BRANCH   2   4
HETATM    4  C   UNL     1     -11.269  14.739  66.247  1.00  0.00    -0.343 C  
HETATM    5  C   UNL     1     -11.463  14.625  64.916  1.00  0.00    -0.401 C  
HETATM    6  O   UNL     1     -13.246  13.137  65.037  1.00  0.00    -0.694 OA 
HETATM    7  N   UNL     1     -12.491  13.809  64.320  1.00  0.00    -0.312 N  
HETATM    8  O   UNL     1     -12.544  13.838  63.084  1.00  0.00    -0.793 OA 
BRANCH   4   9
HETATM    9  N   UNL     1     -12.062  14.095  67.180  1.00  0.00    -0.521 NA 
HETATM   10  H   UNL     1     -12.722  13.423  66.789  1.00  0.00     0.000 HD 
BRANCH   9  11
HETATM   11  C   UNL     1     -12.106  14.223  68.622  1.00  0.00    -0.260 C  
BRANCH  11  12
HETATM   12  C   UNL     1     -11.472  13.000  69.291  1.00  0.00    -0.289 C  
BRANCH  12  13
HETATM   13  S   UNL     1     -11.217  11.612  68.132  1.00  0.00    -0.290 SA 
BRANCH  13  14
HETATM   14  C   UNL     1      -9.589  11.026  68.708  1.00  0.00    -0.187 C  
BRANCH  14  15
HETATM   15  C   UNL     1      -9.712   9.718  69.412  1.00  0.00    -0.202 A  
HETATM   16  C   UNL     1      -9.135   9.367  70.615  1.00  0.00    -0.233 A  
HETATM   17  S   UNL     1      -9.567   7.763  71.031  1.00  0.00    -0.159 SA 
HETATM   18  C   UNL     1     -10.471   7.638  69.573  1.00  0.00    -0.227 A  
HETATM   19  N   UNL     1     -10.445   8.707  68.801  1.00  0.00    -0.209 NA 
BRANCH  18  20
HETATM   20  C   UNL     1     -11.198   6.362  69.223  1.00  0.00    -0.375 C  
BRANCH  20  21
HETATM   21  N   UNL     1     -10.608   5.618  68.086  1.00  0.00    -0.207 NA 
HETATM   22  C   UNL     1     -10.970   6.227  66.802  1.00  0.00    -0.255 C  
HETATM   23  C   UNL     1      -9.150   5.594  68.223  1.00  0.00    -0.110 C  
ENDBRANCH  20  21
ENDBRANCH  18  20
ENDBRANCH  14  15
ENDBRANCH  13  14
ENDBRANCH  12  13
ENDBRANCH  11  12
ENDBRANCH   9  11
ENDBRANCH   4   9
ENDBRANCH   2   4
TORSDOF 9
ENDMDL
MODEL      147
REMARK 921   NORMALIZED FREE ENERGY PREDICTED BY IDOCK:   -3.78 KCAL/MOL
REMARK 922        TOTAL FREE ENERGY PREDICTED BY IDOCK:   -6.83 KCAL/MOL
REMARK 923 INTER-LIGAND FREE ENERGY PREDICTED BY IDOCK:   -6.36 KCAL/MOL
REMARK 924 INTRA-LIGAND FREE ENERGY PREDICTED BY IDOCK:   -0.47 KCAL/MOL
REMARK 927      BINDING AFFINITY PREDICTED BY RF-SCORE:    0.00 PKD
ROOT
HETATM    1  C   UNL     1     -10.276  19.579  66.108  1.00  0.00    -0.496 C  
HETATM    2  N   UNL     1     -10.099  18.158  65.908  1.00  0.00    -0.583 NA 
HETATM    3  H   UNL     1      -9.578  17.896  65.071  1.00  0.00     0.000 HD 
ENDROOT
BRANCH   2   4
HETATM    4  C   UNL     1     -10.535  17.103  66.691  1.00  0.00    -0.259 C  
HETATM    5  C   UNL     1     -10.621  17.271  68.027  1.00  0.00    -0.394 C  
HETATM    6  O   UNL     1     -11.425  15.143  68.509  1.00  0.00    -0.290 OA 
HETATM    7  N   UNL     1     -11.066  16.248  68.940  1.00  0.00    -0.335 N  
HETATM    8  O   UNL     1     -11.061  16.564  70.137  1.00  0.00    -0.348 OA 
BRANCH   4   9
HETATM    9  N   UNL     1     -10.847  15.910  66.062  1.00  0.00    -0.273 NA 
HETATM   10  H   UNL     1     -10.787  15.084  66.657  1.00  0.00     0.000 HD 
BRANCH   9  11
HETATM   11  C   UNL     1     -11.246  15.647  64.695  1.00  0.00    -0.369 C  
BRANCH  11  12
HETATM   12  C   UNL     1     -11.751  14.208  64.548  1.00  0.00    -0.413 C  
BRANCH  12  13
HETATM   13  S   UNL     1     -10.653  12.988  65.349  1.00  0.00    -0.298 SA 
BRANCH  13  14
HETATM   14  C   UNL     1     -10.869  11.584  64.205  1.00  0.00    -0.372 C  
BRANCH  14  15
HETATM   15  C   UNL     1     -10.019  10.430  64.612  1.00  0.00    -0.338 A  
HETATM   16  C   UNL     1      -9.070   9.787  63.842  1.00  0.00    -0.233 A  
HETATM   17  S   UNL     1      -8.340   8.524  64.739  1.00  0.00    -0.122 SA 
HETATM   18  C   UNL     1      -9.351   8.903  66.078  1.00  0.00    -0.242 A  
HETATM   19  N   UNL     1     -10.201   9.891  65.880  1.00  0.00    -0.237 NA 
BRANCH  18  20
HETATM   20  C   UNL     1      -9.264   8.109  67.359  1.00  0.00    -0.137 C  
BRANCH  20  21
HETATM   21  N   UNL     1      -9.439   6.648  67.183  1.00  0.00    -0.132 NA 
HETATM   22  C   UNL     1      -8.718   5.895  68.215  1.00  0.00    -0.112 C  
HETATM   23  C   UNL     1     -10.866   6.318  67.243  1.00  0.00    -0.375 C  
ENDBRANCH  20  21
ENDBRANCH  18  20
ENDBRANCH  14  15
ENDBRANCH  13  14
ENDBRANCH  12  13
ENDBRANCH  11  12
ENDBRANCH   9  11
ENDBRANCH   4   9
ENDBRANCH   2   4
TORSDOF 9
ENDMDL
MODEL      148
REMARK 921   NORMALIZED FREE ENERGY PREDICTED BY IDOCK:   -3.77 KCAL/MOL
REMARK 922        TOTAL FREE ENERGY PREDICTED BY IDOCK:   -6.82 KCAL/MOL
REMARK 923 INTER-LIGAND FREE ENERGY PREDICTED BY IDOCK:   -6.40 KCAL/MOL
REMARK 924 INTRA-LIGAND FREE ENERGY PREDICTED BY IDOCK:   -0.42 KCAL/MOL
REMARK 927      BINDING AFFINITY PREDICTED BY RF-SCORE:    0.00 PKD
ROOT
HETATM    1  C   UNL     1     -14.298  14.482  72.193  1.00  0.00    -0.510 C  
HETATM    2  N   UNL     1     -13.174  14.181  71.335  1.00  0.00    -0.345 NA 
HETATM    3  H   UNL     1     -12.737  14.986  70.887  1.00  0.00     0.000 HD 
ENDROOT
BRANCH   2   4
HETATM    4  C   UNL     1     -12.606  12.954  71.036  1.00  0.00    -0.287 C  
HETATM    5  C   UNL     1     -13.064  11.850  71.663  1.00  0.00    -0.328 C  
HETATM    6  O   UNL     1     -11.661  10.337  70.591  1.00  0.00    -0.297 OA 
HETATM    7  N   UNL     1     -12.555  10.522  71.429  1.00  0.00    -0.404 N  
HETATM    8  O   UNL     1     -13.074   9.626  72.107  1.00  0.00    -0.414 OA 
BRANCH   4   9
HETATM    9  N   UNL     1     -11.574  12.921  70.114  1.00  0.00    -0.535 NA 
HETATM   10  H   UNL     1     -10.800  12.304  70.361  1.00  0.00     0.000 HD 
BRANCH   9  11
HETATM   11  C   UNL     1     -11.417  13.622  68.857  1.00  0.00    -0.303 C  
BRANCH  11  12
HETATM   12  C   UNL     1     -11.798  12.714  67.683  1.00  0.00    -0.329 C  
BRANCH  12  13
HETATM   13  S   UNL     1     -12.374  13.649  66.224  1.00  0.00    -0.374 SA 
BRANCH  13  14
HETATM   14  C   UNL     1     -10.778  13.916  65.381  1.00  0.00    -0.325 C  
BRANCH  14  15
HETATM   15  C   UNL     1     -10.293  12.657  64.748  1.00  0.00    -0.312 A  
HETATM   16  C   UNL     1     -10.549  12.224  63.463  1.00  0.00    -0.448 A  
HETATM   17  S   UNL     1      -9.772  10.725  63.181  1.00  0.00    -0.348 SA 
HETATM   18  C   UNL     1      -9.169  10.744  64.791  1.00  0.00    -0.214 A  
HETATM   19  N   UNL     1      -9.532  11.784  65.516  1.00  0.00    -0.206 NA 
BRANCH  18  20
HETATM   20  C   UNL     1      -8.316   9.611  65.309  1.00  0.00    -0.134 C  
BRANCH  20  21
HETATM   21  N   UNL     1      -7.051   9.411  64.566  1.00  0.00    -0.097 NA 
HETATM   22  C   UNL     1      -5.972  10.240  65.113  1.00  0.00    -0.130 C  
HETATM   23  C   UNL     1      -6.664   8.000  64.630  1.00  0.00    -0.059 C  
ENDBRANCH  20  21
ENDBRANCH  18  20
ENDBRANCH  14  15
ENDBRANCH  13  14
ENDBRANCH  12  13
ENDBRANCH  11  12
ENDBRANCH   9  11
ENDBRANCH   4   9
ENDBRANCH   2   4
TORSDOF 9
ENDMDL
MODEL      149
REMARK 921   NORMALIZED FREE ENERGY PREDICTED BY IDOCK:   -3.77 KCAL/MOL
REMARK 922        TOTAL FREE ENERGY PREDICTED BY IDOCK:   -6.82 KCAL/MOL
REMARK 923 INTER-LIGAND FREE ENERGY PREDICTED BY IDOCK:   -6.35 KCAL/MOL
REMARK 924 INTRA-LIGAND FREE ENERGY PREDICTED BY IDOCK:   -0.46 KCAL/MOL
REMARK 927      BINDING AFFINITY PREDICTED BY RF-SCORE:    0.00 PKD
ROOT
HETATM    1  C   UNL     1     -11.986  10.925  69.532  1.00  0.00    -0.330 C  
HETATM    2  N   UNL     1     -12.103  11.173  68.113  1.00  0.00    -0.737 NA 
HETATM    3  H   UNL     1     -13.025  11.473  67.795  1.00  0.00     0.000 HD 
ENDROOT
BRANCH   2   4
HETATM    4  C   UNL     1     -11.141  11.062  67.123  1.00  0.00    -0.267 C  
HETATM    5  C   UNL     1     -10.247  10.053  67.189  1.00  0.00    -0.228 C  
HETATM    6  O   UNL     1      -9.110  10.581  65.230  1.00  0.00    -0.172 OA 
HETATM    7  N   UNL     1      -9.206   9.835  66.215  1.00  0.00    -0.156 N  
HETATM    8  O   UNL     1      -8.458   8.876  66.442  1.00  0.00    -0.112 OA 
BRANCH   4   9
HETATM    9  N   UNL     1     -11.131  12.010  66.115  1.00  0.00    -0.309 NA 
HETATM   10  H   UNL     1     -10.207  12.231  65.744  1.00  0.00     0.000 HD 
BRANCH   9  11
HETATM   11  C   UNL     1     -12.223  12.738  65.501  1.00  0.00    -0.463 C  
BRANCH  11  12
HETATM   12  C   UNL     1     -12.045  14.246  65.703  1.00  0.00    -0.393 C  
BRANCH  12  13
HETATM   13  S   UNL     1     -10.335  14.805  65.392  1.00  0.00    -0.404 SA 
BRANCH  13  14
HETATM   14  C   UNL     1      -9.845  15.253  67.092  1.00  0.00    -0.224 C  
BRANCH  14  15
HETATM   15  C   UNL     1      -9.826  16.733  67.268  1.00  0.00    -0.260 A  
HETATM   16  C   UNL     1     -10.771  17.502  67.916  1.00  0.00    -0.339 A  
HETATM   17  S   UNL     1     -10.318  19.153  67.873  1.00  0.00    -0.409 SA 
HETATM   18  C   UNL     1      -8.910  18.734  66.978  1.00  0.00    -0.294 A  
HETATM   19  N   UNL     1      -8.782  17.451  66.699  1.00  0.00    -0.248 NA 
BRANCH  18  20
HETATM   20  C   UNL     1      -7.936  19.796  66.530  1.00  0.00    -0.319 C  
BRANCH  20  21
HETATM   21  N   UNL     1      -6.623  19.746  67.214  1.00  0.00    -0.198 NA 
HETATM   22  C   UNL     1      -5.648  18.965  66.444  1.00  0.00    -0.153 C  
HETATM   23  C   UNL     1      -6.119  21.108  67.403  1.00  0.00    -0.339 C  
ENDBRANCH  20  21
ENDBRANCH  18  20
ENDBRANCH  14  15
ENDBRANCH  13  14
ENDBRANCH  12  13
ENDBRANCH  11  12
ENDBRANCH   9  11
ENDBRANCH   4   9
ENDBRANCH   2   4
TORSDOF 9
ENDMDL
MODEL      150
REMARK 921   NORMALIZED FREE ENERGY PREDICTED BY IDOCK:   -3.77 KCAL/MOL
REMARK 922        TOTAL FREE ENERGY PREDICTED BY IDOCK:   -6.81 KCAL/MOL
REMARK 923 INTER-LIGAND FREE ENERGY PREDICTED BY IDOCK:   -6.63 KCAL/MOL
REMARK 924 INTRA-LIGAND FREE ENERGY PREDICTED BY IDOCK:   -0.19 KCAL/MOL
REMARK 927      BINDING AFFINITY PREDICTED BY RF-SCORE:    0.00 PKD
ROOT
HETATM    1  C   UNL     1     -12.446  12.469  64.628  1.00  0.00    -0.463 C  
HETATM    2  N   UNL     1     -12.384  12.886  66.011  1.00  0.00    -0.534 NA 
HETATM    3  H   UNL     1     -12.746  12.214  66.687  1.00  0.00     0.000 HD 
ENDROOT
BRANCH   2   4
HETATM    4  C   UNL     1     -11.903  14.069  66.547  1.00  0.00    -0.417 C  
HETATM    5  C   UNL     1     -11.034  14.809  65.827  1.00  0.00    -0.334 C  
HETATM    6  O   UNL     1     -10.801  16.525  67.378  1.00  0.00    -0.294 OA 
HETATM    7  N   UNL     1     -10.472  16.057  66.279  1.00  0.00    -0.315 N  
HETATM    8  O   UNL     1      -9.673  16.593  65.501  1.00  0.00    -0.538 OA 
BRANCH   4   9
HETATM    9  N   UNL     1     -12.326  14.428  67.815  1.00  0.00    -0.603 NA 
HETATM   10  H   UNL     1     -13.127  15.060  67.835  1.00  0.00     0.000 HD 
BRANCH   9  11
HETATM   11  C   UNL     1     -11.814  14.053  69.117  1.00  0.00    -0.350 C  
BRANCH  11  12
HETATM   12  C   UNL     1     -11.039  12.735  69.031  1.00  0.00    -0.233 C  
BRANCH  12  13
HETATM   13  S   UNL     1     -11.710  11.446  70.137  1.00  0.00    -0.303 SA 
BRANCH  13  14
HETATM   14  C   UNL     1     -10.754  10.008  69.548  1.00  0.00    -0.244 C  
BRANCH  14  15
HETATM   15  C   UNL     1     -10.754   8.916  70.562  1.00  0.00    -0.230 A  
HETATM   16  C   UNL     1     -10.982   9.045  71.917  1.00  0.00    -0.353 A  
HETATM   17  S   UNL     1     -10.889   7.514  72.678  1.00  0.00    -0.346 SA 
HETATM   18  C   UNL     1     -10.529   6.791  71.160  1.00  0.00    -0.214 A  
HETATM   19  N   UNL     1     -10.456   7.626  70.142  1.00  0.00    -0.222 NA 
BRANCH  18  20
HETATM   20  C   UNL     1     -10.284   5.305  71.052  1.00  0.00    -0.229 C  
BRANCH  20  21
HETATM   21  N   UNL     1      -9.505   4.733  72.174  1.00  0.00    -0.136 NA 
HETATM   22  C   UNL     1      -9.741   3.292  72.311  1.00  0.00    -0.153 C  
HETATM   23  C   UNL     1      -8.077   4.976  71.950  1.00  0.00    -0.115 C  
ENDBRANCH  20  21
ENDBRANCH  18  20
ENDBRANCH  14  15
ENDBRANCH  13  14
ENDBRANCH  12  13
ENDBRANCH  11  12
ENDBRANCH   9  11
ENDBRANCH   4   9
ENDBRANCH   2   4
TORSDOF 9
ENDMDL
MODEL      151
REMARK 921   NORMALIZED FREE ENERGY PREDICTED BY IDOCK:   -3.75 KCAL/MOL
REMARK 922        TOTAL FREE ENERGY PREDICTED BY IDOCK:   -6.79 KCAL/MOL
REMARK 923 INTER-LIGAND FREE ENERGY PREDICTED BY IDOCK:   -6.24 KCAL/MOL
REMARK 924 INTRA-LIGAND FREE ENERGY PREDICTED BY IDOCK:   -0.55 KCAL/MOL
REMARK 927      BINDING AFFINITY PREDICTED BY RF-SCORE:    0.00 PKD
ROOT
HETATM    1  C   UNL     1      -8.862  10.965  62.365  1.00  0.00    -0.313 C  
HETATM    2  N   UNL     1     -10.191  10.732  62.883  1.00  0.00    -0.751 NA 
HETATM    3  H   UNL     1     -10.786  10.135  62.309  1.00  0.00     0.000 HD 
ENDROOT
BRANCH   2   4
HETATM    4  C   UNL     1     -10.771  11.205  64.048  1.00  0.00    -0.339 C  
HETATM    5  C   UNL     1     -11.739  12.142  63.965  1.00  0.00    -0.430 C  
HETATM    6  O   UNL     1     -12.141  12.309  66.249  1.00  0.00    -0.626 OA 
HETATM    7  N   UNL     1     -12.417  12.703  65.107  1.00  0.00    -0.502 N  
HETATM    8  O   UNL     1     -13.263  13.570  64.851  1.00  0.00    -0.661 OA 
BRANCH   4   9
HETATM    9  N   UNL     1     -10.312  10.703  65.254  1.00  0.00    -0.279 NA 
HETATM   10  H   UNL     1     -10.459  11.317  66.056  1.00  0.00     0.000 HD 
BRANCH   9  11
HETATM   11  C   UNL     1      -9.659   9.448  65.560  1.00  0.00    -0.258 C  
BRANCH  11  12
HETATM   12  C   UNL     1      -8.194   9.682  65.943  1.00  0.00    -0.119 C  
BRANCH  12  13
HETATM   13  S   UNL     1      -7.672   8.689  67.383  1.00  0.00    -0.098 SA 
BRANCH  13  14
HETATM   14  C   UNL     1      -8.753   7.236  67.162  1.00  0.00    -0.121 C  
BRANCH  14  15
HETATM   15  C   UNL     1      -9.540   6.964  68.398  1.00  0.00    -0.126 A  
HETATM   16  C   UNL     1     -10.805   6.417  68.471  1.00  0.00    -0.314 A  
HETATM   17  S   UNL     1     -11.297   6.286  70.106  1.00  0.00    -0.367 SA 
HETATM   18  C   UNL     1      -9.806   6.985  70.601  1.00  0.00    -0.182 A  
HETATM   19  N   UNL     1      -8.989   7.323  69.622  1.00  0.00    -0.141 NA 
BRANCH  18  20
HETATM   20  C   UNL     1      -9.509   7.213  72.064  1.00  0.00    -0.137 C  
BRANCH  20  21
HETATM   21  N   UNL     1      -9.161   5.984  72.813  1.00  0.00    -0.142 NA 
HETATM   22  C   UNL     1      -7.735   5.949  73.154  1.00  0.00    -0.102 C  
HETATM   23  C   UNL     1      -9.958   5.919  74.041  1.00  0.00    -0.227 C  
ENDBRANCH  20  21
ENDBRANCH  18  20
ENDBRANCH  14  15
ENDBRANCH  13  14
ENDBRANCH  12  13
ENDBRANCH  11  12
ENDBRANCH   9  11
ENDBRANCH   4   9
ENDBRANCH   2   4
TORSDOF 9
ENDMDL
MODEL      152
REMARK 921   NORMALIZED FREE ENERGY PREDICTED BY IDOCK:   -3.74 KCAL/MOL
REMARK 922        TOTAL FREE ENERGY PREDICTED BY IDOCK:   -6.78 KCAL/MOL
REMARK 923 INTER-LIGAND FREE ENERGY PREDICTED BY IDOCK:   -6.23 KCAL/MOL
REMARK 924 INTRA-LIGAND FREE ENERGY PREDICTED BY IDOCK:   -0.55 KCAL/MOL
REMARK 927      BINDING AFFINITY PREDICTED BY RF-SCORE:    0.00 PKD
ROOT
HETATM    1  C   UNL     1     -13.055   9.807  72.092  1.00  0.00    -0.422 C  
HETATM    2  N   UNL     1     -11.756   9.394  71.611  1.00  0.00    -0.381 NA 
HETATM    3  H   UNL     1     -10.961   9.879  72.027  1.00  0.00     0.000 HD 
ENDROOT
BRANCH   2   4
HETATM    4  C   UNL     1     -11.438   8.434  70.666  1.00  0.00    -0.219 C  
HETATM    5  C   UNL     1     -11.181   7.173  71.074  1.00  0.00    -0.269 C  
HETATM    6  O   UNL     1     -10.806   6.284  68.958  1.00  0.00    -0.267 OA 
HETATM    7  N   UNL     1     -10.845   6.091  70.182  1.00  0.00    -0.310 N  
HETATM    8  O   UNL     1     -10.616   5.004  70.727  1.00  0.00    -0.193 OA 
BRANCH   4   9
HETATM    9  N   UNL     1     -11.382   8.821  69.338  1.00  0.00    -0.391 NA 
HETATM   10  H   UNL     1     -12.106   8.416  68.744  1.00  0.00     0.000 HD 
BRANCH   9  11
HETATM   11  C   UNL     1     -10.461   9.707  68.657  1.00  0.00    -0.210 C  
BRANCH  11  12
HETATM   12  C   UNL     1     -10.381   9.360  67.168  1.00  0.00    -0.258 C  
BRANCH  12  13
HETATM   13  S   UNL     1      -9.067  10.280  66.296  1.00  0.00    -0.158 SA 
BRANCH  13  14
HETATM   14  C   UNL     1      -9.965  10.730  64.773  1.00  0.00    -0.320 C  
BRANCH  14  15
HETATM   15  C   UNL     1     -10.597  12.073  64.904  1.00  0.00    -0.291 A  
HETATM   16  C   UNL     1     -11.303  12.755  63.934  1.00  0.00    -0.442 A  
HETATM   17  S   UNL     1     -11.847  14.258  64.548  1.00  0.00    -0.435 SA 
HETATM   18  C   UNL     1     -11.088  13.909  66.051  1.00  0.00    -0.289 A  
HETATM   19  N   UNL     1     -10.445  12.759  66.103  1.00  0.00    -0.263 NA 
BRANCH  18  20
HETATM   20  C   UNL     1     -11.147  14.896  67.192  1.00  0.00    -0.332 C  
BRANCH  20  21
HETATM   21  N   UNL     1      -9.982  15.806  67.271  1.00  0.00    -0.235 NA 
HETATM   22  C   UNL     1     -10.220  17.047  66.525  1.00  0.00    -0.320 C  
HETATM   23  C   UNL     1      -9.705  16.124  68.674  1.00  0.00    -0.227 C  
ENDBRANCH  20  21
ENDBRANCH  18  20
ENDBRANCH  14  15
ENDBRANCH  13  14
ENDBRANCH  12  13
ENDBRANCH  11  12
ENDBRANCH   9  11
ENDBRANCH   4   9
ENDBRANCH   2   4
TORSDOF 9
ENDMDL
MODEL      153
REMARK 921   NORMALIZED FREE ENERGY PREDICTED BY IDOCK:   -3.74 KCAL/MOL
REMARK 922        TOTAL FREE ENERGY PREDICTED BY IDOCK:   -6.77 KCAL/MOL
REMARK 923 INTER-LIGAND FREE ENERGY PREDICTED BY IDOCK:   -6.68 KCAL/MOL
REMARK 924 INTRA-LIGAND FREE ENERGY PREDICTED BY IDOCK:   -0.09 KCAL/MOL
REMARK 927      BINDING AFFINITY PREDICTED BY RF-SCORE:    0.00 PKD
ROOT
HETATM    1  C   UNL     1     -10.177  16.767  69.283  1.00  0.00    -0.278 C  
HETATM    2  N   UNL     1     -11.415  16.643  70.020  1.00  0.00    -0.297 NA 
HETATM    3  H   UNL     1     -12.187  17.214  69.677  1.00  0.00     0.000 HD 
ENDROOT
BRANCH   2   4
HETATM    4  C   UNL     1     -11.700  15.859  71.125  1.00  0.00    -0.442 C  
HETATM    5  C   UNL     1     -11.974  16.461  72.302  1.00  0.00    -0.439 C  
HETATM    6  O   UNL     1     -12.349  14.512  73.513  1.00  0.00    -0.296 OA 
HETATM    7  N   UNL     1     -12.290  15.749  73.516  1.00  0.00    -0.491 N  
HETATM    8  O   UNL     1     -12.491  16.458  74.510  1.00  0.00    -0.737 OA 
BRANCH   4   9
HETATM    9  N   UNL     1     -11.672  14.484  70.973  1.00  0.00    -0.456 NA 
HETATM   10  H   UNL     1     -11.169  13.983  71.706  1.00  0.00     0.000 HD 
BRANCH   9  11
HETATM   11  C   UNL     1     -12.242  13.642  69.941  1.00  0.00    -0.304 C  
BRANCH  11  12
HETATM   12  C   UNL     1     -11.135  12.962  69.129  1.00  0.00    -0.190 C  
BRANCH  12  13
HETATM   13  S   UNL     1     -11.505  11.213  68.756  1.00  0.00    -0.328 SA 
BRANCH  13  14
HETATM   14  C   UNL     1      -9.850  10.489  69.011  1.00  0.00    -0.212 C  
BRANCH  14  15
HETATM   15  C   UNL     1      -9.880   9.456  70.085  1.00  0.00    -0.232 A  
HETATM   16  C   UNL     1      -8.835   9.083  70.905  1.00  0.00    -0.240 A  
HETATM   17  S   UNL     1      -9.345   7.864  71.994  1.00  0.00    -0.178 SA 
HETATM   18  C   UNL     1     -10.912   7.901  71.286  1.00  0.00    -0.238 A  
HETATM   19  N   UNL     1     -11.058   8.746  70.284  1.00  0.00    -0.242 NA 
BRANCH  18  20
HETATM   20  C   UNL     1     -12.005   6.985  71.783  1.00  0.00    -0.326 C  
BRANCH  20  21
HETATM   21  N   UNL     1     -13.183   7.690  72.341  1.00  0.00     0.087 NA 
HETATM   22  C   UNL     1     -12.957   9.137  72.411  1.00  0.00    -0.398 C  
HETATM   23  C   UNL     1     -14.355   7.417  71.506  1.00  0.00    -0.440 C  
ENDBRANCH  20  21
ENDBRANCH  18  20
ENDBRANCH  14  15
ENDBRANCH  13  14
ENDBRANCH  12  13
ENDBRANCH  11  12
ENDBRANCH   9  11
ENDBRANCH   4   9
ENDBRANCH   2   4
TORSDOF 9
ENDMDL
MODEL      154
REMARK 921   NORMALIZED FREE ENERGY PREDICTED BY IDOCK:   -3.74 KCAL/MOL
REMARK 922        TOTAL FREE ENERGY PREDICTED BY IDOCK:   -6.77 KCAL/MOL
REMARK 923 INTER-LIGAND FREE ENERGY PREDICTED BY IDOCK:   -6.14 KCAL/MOL
REMARK 924 INTRA-LIGAND FREE ENERGY PREDICTED BY IDOCK:   -0.63 KCAL/MOL
REMARK 927      BINDING AFFINITY PREDICTED BY RF-SCORE:    0.00 PKD
ROOT
HETATM    1  C   UNL     1      -9.872  17.704  67.896  1.00  0.00    -0.300 C  
HETATM    2  N   UNL     1     -10.567  16.448  67.720  1.00  0.00    -0.314 NA 
HETATM    3  H   UNL     1     -10.465  16.017  66.801  1.00  0.00     0.000 HD 
ENDROOT
BRANCH   2   4
HETATM    4  C   UNL     1     -11.350  15.748  68.622  1.00  0.00    -0.369 C  
HETATM    5  C   UNL     1     -11.189  15.974  69.943  1.00  0.00    -0.361 C  
HETATM    6  O   UNL     1     -12.833  14.496  70.664  1.00  0.00    -0.345 OA 
HETATM    7  N   UNL     1     -11.950  15.309  70.971  1.00  0.00    -0.310 N  
HETATM    8  O   UNL     1     -11.656  15.617  72.133  1.00  0.00    -0.410 OA 
BRANCH   4   9
HETATM    9  N   UNL     1     -12.257  14.830  68.121  1.00  0.00    -0.589 NA 
HETATM   10  H   UNL     1     -13.235  15.043  68.318  1.00  0.00     0.000 HD 
BRANCH   9  11
HETATM   11  C   UNL     1     -12.041  13.616  67.362  1.00  0.00    -0.337 C  
BRANCH  11  12
HETATM   12  C   UNL     1     -12.320  13.853  65.875  1.00  0.00    -0.483 C  
BRANCH  12  13
HETATM   13  S   UNL     1     -10.950  13.302  64.801  1.00  0.00    -0.371 SA 
BRANCH  13  14
HETATM   14  C   UNL     1     -11.133  11.495  64.974  1.00  0.00    -0.201 C  
BRANCH  14  15
HETATM   15  C   UNL     1     -10.082  10.937  65.871  1.00  0.00    -0.252 A  
HETATM   16  C   UNL     1      -8.895  11.541  66.232  1.00  0.00    -0.186 A  
HETATM   17  S   UNL     1      -8.012  10.522  67.288  1.00  0.00    -0.116 SA 
HETATM   18  C   UNL     1      -9.256   9.340  67.174  1.00  0.00    -0.130 A  
HETATM   19  N   UNL     1     -10.263   9.658  66.384  1.00  0.00    -0.240 NA 
BRANCH  18  20
HETATM   20  C   UNL     1      -9.144   8.029  67.913  1.00  0.00    -0.132 C  
BRANCH  20  21
HETATM   21  N   UNL     1     -10.432   7.508  68.427  1.00  0.00    -0.193 NA 
HETATM   22  C   UNL     1     -10.640   6.111  68.033  1.00  0.00    -0.268 C  
HETATM   23  C   UNL     1     -10.452   7.612  69.889  1.00  0.00    -0.231 C  
ENDBRANCH  20  21
ENDBRANCH  18  20
ENDBRANCH  14  15
ENDBRANCH  13  14
ENDBRANCH  12  13
ENDBRANCH  11  12
ENDBRANCH   9  11
ENDBRANCH   4   9
ENDBRANCH   2   4
TORSDOF 9
ENDMDL
MODEL      155
REMARK 921   NORMALIZED FREE ENERGY PREDICTED BY IDOCK:   -3.73 KCAL/MOL
REMARK 922        TOTAL FREE ENERGY PREDICTED BY IDOCK:   -6.76 KCAL/MOL
REMARK 923 INTER-LIGAND FREE ENERGY PREDICTED BY IDOCK:   -6.18 KCAL/MOL
REMARK 924 INTRA-LIGAND FREE ENERGY PREDICTED BY IDOCK:   -0.58 KCAL/MOL
REMARK 927      BINDING AFFINITY PREDICTED BY RF-SCORE:    0.00 PKD
ROOT
HETATM    1  C   UNL     1     -11.892   7.045  71.576  1.00  0.00    -0.314 C  
HETATM    2  N   UNL     1     -11.805   7.973  70.470  1.00  0.00    -0.476 NA 
HETATM    3  H   UNL     1     -12.630   8.019  69.872  1.00  0.00     0.000 HD 
ENDROOT
BRANCH   2   4
HETATM    4  C   UNL     1     -10.761   8.807  70.109  1.00  0.00    -0.224 C  
HETATM    5  C   UNL     1      -9.591   8.719  70.775  1.00  0.00    -0.208 C  
HETATM    6  O   UNL     1      -8.471  10.352  69.557  1.00  0.00    -0.160 OA 
HETATM    7  N   UNL     1      -8.436   9.531  70.484  1.00  0.00    -0.198 N  
HETATM    8  O   UNL     1      -7.452   9.336  71.210  1.00  0.00    -0.284 OA 
BRANCH   4   9
HETATM    9  N   UNL     1     -10.976   9.713  69.084  1.00  0.00    -0.365 NA 
HETATM   10  H   UNL     1     -10.438   9.534  68.236  1.00  0.00     0.000 HD 
BRANCH   9  11
HETATM   11  C   UNL     1     -11.842  10.872  69.022  1.00  0.00    -0.299 C  
BRANCH  11  12
HETATM   12  C   UNL     1     -11.880  11.588  70.375  1.00  0.00    -0.320 C  
BRANCH  12  13
HETATM   13  S   UNL     1     -12.172  13.384  70.217  1.00  0.00    -0.292 SA 
BRANCH  13  14
HETATM   14  C   UNL     1     -11.809  13.598  68.441  1.00  0.00    -0.372 C  
BRANCH  14  15
HETATM   15  C   UNL     1     -10.765  14.641  68.233  1.00  0.00    -0.239 A  
HETATM   16  C   UNL     1      -9.466  14.440  67.812  1.00  0.00    -0.211 A  
HETATM   17  S   UNL     1      -8.642  15.937  67.709  1.00  0.00    -0.160 SA 
HETATM   18  C   UNL     1     -10.060  16.745  68.252  1.00  0.00    -0.274 A  
HETATM   19  N   UNL     1     -11.087  15.962  68.520  1.00  0.00    -0.321 NA 
BRANCH  18  20
HETATM   20  C   UNL     1     -10.074  18.245  68.430  1.00  0.00    -0.391 C  
BRANCH  20  21
HETATM   21  N   UNL     1      -9.453  18.996  67.315  1.00  0.00    -0.304 NA 
HETATM   22  C   UNL     1     -10.427  19.866  66.648  1.00  0.00    -0.460 C  
HETATM   23  C   UNL     1      -8.345  19.806  67.829  1.00  0.00    -0.306 C  
ENDBRANCH  20  21
ENDBRANCH  18  20
ENDBRANCH  14  15
ENDBRANCH  13  14
ENDBRANCH  12  13
ENDBRANCH  11  12
ENDBRANCH   9  11
ENDBRANCH   4   9
ENDBRANCH   2   4
TORSDOF 9
ENDMDL
MODEL      156
REMARK 921   NORMALIZED FREE ENERGY PREDICTED BY IDOCK:   -3.73 KCAL/MOL
REMARK 922        TOTAL FREE ENERGY PREDICTED BY IDOCK:   -6.76 KCAL/MOL
REMARK 923 INTER-LIGAND FREE ENERGY PREDICTED BY IDOCK:   -6.34 KCAL/MOL
REMARK 924 INTRA-LIGAND FREE ENERGY PREDICTED BY IDOCK:   -0.42 KCAL/MOL
REMARK 927      BINDING AFFINITY PREDICTED BY RF-SCORE:    0.00 PKD
ROOT
HETATM    1  C   UNL     1      -9.737  11.123  63.141  1.00  0.00    -0.376 C  
HETATM    2  N   UNL     1      -9.937  11.022  64.570  1.00  0.00    -0.282 NA 
HETATM    3  H   UNL     1      -9.584  10.169  65.002  1.00  0.00     0.000 HD 
ENDROOT
BRANCH   2   4
HETATM    4  C   UNL     1     -10.540  11.921  65.434  1.00  0.00    -0.271 C  
HETATM    5  C   UNL     1     -11.638  12.590  65.022  1.00  0.00    -0.349 C  
HETATM    6  O   UNL     1     -11.982  13.771  66.995  1.00  0.00    -0.387 OA 
HETATM    7  N   UNL     1     -12.351  13.543  65.835  1.00  0.00    -0.455 N  
HETATM    8  O   UNL     1     -13.324  14.083  65.291  1.00  0.00    -0.741 OA 
BRANCH   4   9
HETATM    9  N   UNL     1      -9.972  12.105  66.682  1.00  0.00    -0.204 NA 
HETATM   10  H   UNL     1     -10.641  12.253  67.438  1.00  0.00     0.000 HD 
BRANCH   9  11
HETATM   11  C   UNL     1      -8.582  12.120  67.088  1.00  0.00    -0.185 C  
BRANCH  11  12
HETATM   12  C   UNL     1      -8.186  13.507  67.601  1.00  0.00    -0.178 C  
BRANCH  12  13
HETATM   13  S   UNL     1      -6.393  13.663  67.907  1.00  0.00    -0.162 SA 
BRANCH  13  14
HETATM   14  C   UNL     1      -6.403  15.049  69.093  1.00  0.00    -0.108 C  
BRANCH  14  15
HETATM   15  C   UNL     1      -6.793  16.322  68.423  1.00  0.00    -0.137 A  
HETATM   16  C   UNL     1      -6.181  16.904  67.331  1.00  0.00    -0.158 A  
HETATM   17  S   UNL     1      -6.987  18.355  66.909  1.00  0.00    -0.199 SA 
HETATM   18  C   UNL     1      -8.077  18.121  68.218  1.00  0.00    -0.297 A  
HETATM   19  N   UNL     1      -7.855  17.046  68.950  1.00  0.00    -0.246 NA 
BRANCH  18  20
HETATM   20  C   UNL     1      -9.173  19.120  68.497  1.00  0.00    -0.376 C  
BRANCH  20  21
HETATM   21  N   UNL     1     -10.447  18.839  67.796  1.00  0.00    -0.417 NA 
HETATM   22  C   UNL     1     -10.578  19.646  66.579  1.00  0.00    -0.482 C  
HETATM   23  C   UNL     1     -10.509  17.416  67.449  1.00  0.00    -0.336 C  
ENDBRANCH  20  21
ENDBRANCH  18  20
ENDBRANCH  14  15
ENDBRANCH  13  14
ENDBRANCH  12  13
ENDBRANCH  11  12
ENDBRANCH   9  11
ENDBRANCH   4   9
ENDBRANCH   2   4
TORSDOF 9
ENDMDL
MODEL      157
REMARK 921   NORMALIZED FREE ENERGY PREDICTED BY IDOCK:   -3.73 KCAL/MOL
REMARK 922        TOTAL FREE ENERGY PREDICTED BY IDOCK:   -6.76 KCAL/MOL
REMARK 923 INTER-LIGAND FREE ENERGY PREDICTED BY IDOCK:   -5.37 KCAL/MOL
REMARK 924 INTRA-LIGAND FREE ENERGY PREDICTED BY IDOCK:   -1.38 KCAL/MOL
REMARK 927      BINDING AFFINITY PREDICTED BY RF-SCORE:    0.00 PKD
ROOT
HETATM    1  C   UNL     1     -11.559  14.555  65.312  1.00  0.00    -0.359 C  
HETATM    2  N   UNL     1     -11.310  15.182  66.591  1.00  0.00    -0.286 NA 
HETATM    3  H   UNL     1     -12.066  15.103  67.271  1.00  0.00     0.000 HD 
ENDROOT
BRANCH   2   4
HETATM    4  C   UNL     1     -10.192  15.874  67.023  1.00  0.00    -0.283 C  
HETATM    5  C   UNL     1      -9.402  16.479  66.110  1.00  0.00    -0.304 C  
HETATM    6  O   UNL     1      -7.885  17.375  67.627  1.00  0.00    -0.187 OA 
HETATM    7  N   UNL     1      -8.218  17.230  66.443  1.00  0.00    -0.271 N  
HETATM    8  O   UNL     1      -7.597  17.699  65.479  1.00  0.00    -0.440 OA 
BRANCH   4   9
HETATM    9  N   UNL     1      -9.925  15.898  68.381  1.00  0.00    -0.219 NA 
HETATM   10  H   UNL     1      -9.146  15.308  68.674  1.00  0.00     0.000 HD 
BRANCH   9  11
HETATM   11  C   UNL     1     -10.573  16.625  69.452  1.00  0.00    -0.333 C  
BRANCH  11  12
HETATM   12  C   UNL     1     -11.089  15.660  70.524  1.00  0.00    -0.355 C  
BRANCH  12  13
HETATM   13  S   UNL     1     -12.622  14.804  70.025  1.00  0.00    -0.161 SA 
BRANCH  13  14
HETATM   14  C   UNL     1     -12.197  13.100  70.522  1.00  0.00    -0.328 C  
BRANCH  14  15
HETATM   15  C   UNL     1     -11.606  12.345  69.381  1.00  0.00    -0.307 A  
HETATM   16  C   UNL     1     -12.015  11.118  68.899  1.00  0.00    -0.298 A  
HETATM   17  S   UNL     1     -11.041  10.652  67.570  1.00  0.00    -0.248 SA 
HETATM   18  C   UNL     1     -10.130  12.100  67.742  1.00  0.00    -0.199 A  
HETATM   19  N   UNL     1     -10.499  12.884  68.737  1.00  0.00    -0.205 NA 
BRANCH  18  20
HETATM   20  C   UNL     1      -8.972  12.397  66.819  1.00  0.00    -0.205 C  
BRANCH  20  21
HETATM   21  N   UNL     1      -7.639  12.255  67.450  1.00  0.00    -0.150 NA 
HETATM   22  C   UNL     1      -6.721  11.494  66.597  1.00  0.00    -0.077 C  
HETATM   23  C   UNL     1      -7.078  13.583  67.710  1.00  0.00    -0.159 C  
ENDBRANCH  20  21
ENDBRANCH  18  20
ENDBRANCH  14  15
ENDBRANCH  13  14
ENDBRANCH  12  13
ENDBRANCH  11  12
ENDBRANCH   9  11
ENDBRANCH   4   9
ENDBRANCH   2   4
TORSDOF 9
ENDMDL
MODEL      158
REMARK 921   NORMALIZED FREE ENERGY PREDICTED BY IDOCK:   -3.71 KCAL/MOL
REMARK 922        TOTAL FREE ENERGY PREDICTED BY IDOCK:   -6.73 KCAL/MOL
REMARK 923 INTER-LIGAND FREE ENERGY PREDICTED BY IDOCK:   -6.02 KCAL/MOL
REMARK 924 INTRA-LIGAND FREE ENERGY PREDICTED BY IDOCK:   -0.71 KCAL/MOL
REMARK 927      BINDING AFFINITY PREDICTED BY RF-SCORE:    0.00 PKD
ROOT
HETATM    1  C   UNL     1     -10.978  11.131  68.630  1.00  0.00    -0.220 C  
HETATM    2  N   UNL     1     -12.262  11.012  69.283  1.00  0.00    -0.538 NA 
HETATM    3  H   UNL     1     -13.050  11.412  68.774  1.00  0.00     0.000 HD 
ENDROOT
BRANCH   2   4
HETATM    4  C   UNL     1     -12.574  10.431  70.501  1.00  0.00    -0.302 C  
HETATM    5  C   UNL     1     -12.213   9.151  70.727  1.00  0.00    -0.100 C  
HETATM    6  O   UNL     1     -13.046   9.022  72.894  1.00  0.00    -0.334 OA 
HETATM    7  N   UNL     1     -12.479   8.445  71.956  1.00  0.00    -0.339 N  
HETATM    8  O   UNL     1     -12.100   7.267  71.986  1.00  0.00    -0.296 OA 
BRANCH   4   9
HETATM    9  N   UNL     1     -13.262  11.194  71.429  1.00  0.00    -0.292 NA 
HETATM   10  H   UNL     1     -14.210  10.873  71.627  1.00  0.00     0.000 HD 
BRANCH   9  11
HETATM   11  C   UNL     1     -12.854  12.373  72.163  1.00  0.00    -0.068 C  
BRANCH  11  12
HETATM   12  C   UNL     1     -13.111  13.637  71.338  1.00  0.00    -0.319 C  
BRANCH  12  13
HETATM   13  S   UNL     1     -11.570  14.469  70.819  1.00  0.00    -0.142 SA 
BRANCH  13  14
HETATM   14  C   UNL     1     -12.250  15.633  69.589  1.00  0.00    -0.240 C  
BRANCH  14  15
HETATM   15  C   UNL     1     -11.665  15.385  68.241  1.00  0.00    -0.297 A  
HETATM   16  C   UNL     1     -10.716  16.152  67.596  1.00  0.00    -0.318 A  
HETATM   17  S   UNL     1     -10.344  15.469  66.070  1.00  0.00    -0.349 SA 
HETATM   18  C   UNL     1     -11.485  14.215  66.364  1.00  0.00    -0.354 A  
HETATM   19  N   UNL     1     -12.129  14.297  67.511  1.00  0.00    -0.366 NA 
BRANCH  18  20
HETATM   20  C   UNL     1     -11.727  13.137  65.335  1.00  0.00    -0.350 C  
BRANCH  20  21
HETATM   21  N   UNL     1     -10.539  12.796  64.519  1.00  0.00    -0.338 NA 
HETATM   22  C   UNL     1      -9.597  11.958  65.269  1.00  0.00    -0.138 C  
HETATM   23  C   UNL     1     -10.966  12.089  63.308  1.00  0.00    -0.325 C  
ENDBRANCH  20  21
ENDBRANCH  18  20
ENDBRANCH  14  15
ENDBRANCH  13  14
ENDBRANCH  12  13
ENDBRANCH  11  12
ENDBRANCH   9  11
ENDBRANCH   4   9
ENDBRANCH   2   4
TORSDOF 9
ENDMDL
MODEL      159
REMARK 921   NORMALIZED FREE ENERGY PREDICTED BY IDOCK:   -3.70 KCAL/MOL
REMARK 922        TOTAL FREE ENERGY PREDICTED BY IDOCK:   -6.71 KCAL/MOL
REMARK 923 INTER-LIGAND FREE ENERGY PREDICTED BY IDOCK:   -5.96 KCAL/MOL
REMARK 924 INTRA-LIGAND FREE ENERGY PREDICTED BY IDOCK:   -0.75 KCAL/MOL
REMARK 927      BINDING AFFINITY PREDICTED BY RF-SCORE:    0.00 PKD
ROOT
HETATM    1  C   UNL     1     -12.417  12.184  63.390  1.00  0.00    -0.512 C  
HETATM    2  N   UNL     1     -10.992  12.232  63.628  1.00  0.00    -0.435 NA 
HETATM    3  H   UNL     1     -10.411  12.298  62.792  1.00  0.00     0.000 HD 
ENDROOT
BRANCH   2   4
HETATM    4  C   UNL     1     -10.304  12.203  64.829  1.00  0.00    -0.288 C  
HETATM    5  C   UNL     1     -10.122  11.019  65.451  1.00  0.00    -0.269 C  
HETATM    6  O   UNL     1      -8.913  11.851  67.254  1.00  0.00    -0.166 OA 
HETATM    7  N   UNL     1      -9.418  10.865  66.700  1.00  0.00    -0.176 N  
HETATM    8  O   UNL     1      -9.365   9.710  67.142  1.00  0.00    -0.136 OA 
BRANCH   4   9
HETATM    9  N   UNL     1      -9.847  13.402  65.348  1.00  0.00    -0.509 NA 
HETATM   10  H   UNL     1      -8.832  13.482  65.409  1.00  0.00     0.000 HD 
BRANCH   9  11
HETATM   11  C   UNL     1     -10.578  14.561  65.817  1.00  0.00    -0.317 C  
BRANCH  11  12
HETATM   12  C   UNL     1     -11.325  14.237  67.114  1.00  0.00    -0.337 C  
BRANCH  12  13
HETATM   13  S   UNL     1     -11.533  15.695  68.193  1.00  0.00    -0.274 SA 
BRANCH  13  14
HETATM   14  C   UNL     1     -10.367  15.258  69.527  1.00  0.00    -0.262 C  
BRANCH  14  15
HETATM   15  C   UNL     1      -8.989  15.721  69.203  1.00  0.00    -0.256 A  
HETATM   16  C   UNL     1      -7.805  15.093  69.532  1.00  0.00    -0.186 A  
HETATM   17  S   UNL     1      -6.475  15.993  68.939  1.00  0.00    -0.134 SA 
HETATM   18  C   UNL     1      -7.562  17.167  68.307  1.00  0.00    -0.224 A  
HETATM   19  N   UNL     1      -8.839  16.930  68.535  1.00  0.00    -0.243 NA 
BRANCH  18  20
HETATM   20  C   UNL     1      -7.045  18.386  67.583  1.00  0.00    -0.209 C  
BRANCH  20  21
HETATM   21  N   UNL     1      -7.336  19.668  68.265  1.00  0.00    -0.307 NA 
HETATM   22  C   UNL     1      -6.613  19.773  69.537  1.00  0.00    -0.353 C  
HETATM   23  C   UNL     1      -6.955  20.782  67.393  1.00  0.00    -0.364 C  
ENDBRANCH  20  21
ENDBRANCH  18  20
ENDBRANCH  14  15
ENDBRANCH  13  14
ENDBRANCH  12  13
ENDBRANCH  11  12
ENDBRANCH   9  11
ENDBRANCH   4   9
ENDBRANCH   2   4
TORSDOF 9
ENDMDL
MODEL      160
REMARK 921   NORMALIZED FREE ENERGY PREDICTED BY IDOCK:   -3.70 KCAL/MOL
REMARK 922        TOTAL FREE ENERGY PREDICTED BY IDOCK:   -6.71 KCAL/MOL
REMARK 923 INTER-LIGAND FREE ENERGY PREDICTED BY IDOCK:   -6.47 KCAL/MOL
REMARK 924 INTRA-LIGAND FREE ENERGY PREDICTED BY IDOCK:   -0.24 KCAL/MOL
REMARK 927      BINDING AFFINITY PREDICTED BY RF-SCORE:    0.00 PKD
ROOT
HETATM    1  C   UNL     1      -7.276   8.702  68.859  1.00  0.00    -0.077 C  
HETATM    2  N   UNL     1      -7.973   9.884  69.313  1.00  0.00    -0.109 NA 
HETATM    3  H   UNL     1      -7.470  10.763  69.191  1.00  0.00     0.000 HD 
ENDROOT
BRANCH   2   4
HETATM    4  C   UNL     1      -9.228   9.993  69.888  1.00  0.00    -0.158 C  
HETATM    5  C   UNL     1      -9.549   9.181  70.917  1.00  0.00    -0.279 C  
HETATM    6  O   UNL     1     -11.687  10.027  71.263  1.00  0.00    -0.361 OA 
HETATM    7  N   UNL     1     -10.820   9.207  71.597  1.00  0.00    -0.360 N  
HETATM    8  O   UNL     1     -10.955   8.377  72.505  1.00  0.00    -0.356 OA 
BRANCH   4   9
HETATM    9  N   UNL     1     -10.107  10.924  69.363  1.00  0.00    -0.411 NA 
HETATM   10  H   UNL     1     -10.864  11.198  69.990  1.00  0.00     0.000 HD 
BRANCH   9  11
HETATM   11  C   UNL     1     -10.124  11.572  68.068  1.00  0.00    -0.186 C  
BRANCH  11  12
HETATM   12  C   UNL     1     -11.558  11.929  67.663  1.00  0.00    -0.312 C  
BRANCH  12  13
HETATM   13  S   UNL     1     -11.714  12.326  65.888  1.00  0.00    -0.331 SA 
BRANCH  13  14
HETATM   14  C   UNL     1     -12.221  14.075  66.009  1.00  0.00    -0.458 C  
BRANCH  14  15
HETATM   15  C   UNL     1     -11.066  14.940  66.381  1.00  0.00    -0.342 A  
HETATM   16  C   UNL     1      -9.884  15.089  65.683  1.00  0.00    -0.345 A  
HETATM   17  S   UNL     1      -8.859  16.197  66.491  1.00  0.00    -0.326 SA 
HETATM   18  C   UNL     1     -10.045  16.384  67.722  1.00  0.00    -0.262 A  
HETATM   19  N   UNL     1     -11.135  15.656  67.569  1.00  0.00    -0.317 NA 
BRANCH  18  20
HETATM   20  C   UNL     1      -9.800  17.299  68.898  1.00  0.00    -0.286 C  
BRANCH  20  21
HETATM   21  N   UNL     1      -9.997  18.737  68.601  1.00  0.00    -0.384 NA 
HETATM   22  C   UNL     1      -8.715  19.444  68.505  1.00  0.00    -0.367 C  
HETATM   23  C   UNL     1     -10.729  18.879  67.340  1.00  0.00    -0.444 C  
ENDBRANCH  20  21
ENDBRANCH  18  20
ENDBRANCH  14  15
ENDBRANCH  13  14
ENDBRANCH  12  13
ENDBRANCH  11  12
ENDBRANCH   9  11
ENDBRANCH   4   9
ENDBRANCH   2   4
TORSDOF 9
ENDMDL
MODEL      161
REMARK 921   NORMALIZED FREE ENERGY PREDICTED BY IDOCK:   -3.68 KCAL/MOL
REMARK 922        TOTAL FREE ENERGY PREDICTED BY IDOCK:   -6.69 KCAL/MOL
REMARK 923 INTER-LIGAND FREE ENERGY PREDICTED BY IDOCK:   -6.08 KCAL/MOL
REMARK 924 INTRA-LIGAND FREE ENERGY PREDICTED BY IDOCK:   -0.60 KCAL/MOL
REMARK 927      BINDING AFFINITY PREDICTED BY RF-SCORE:    0.00 PKD
ROOT
HETATM    1  C   UNL     1     -11.914  13.551  69.448  1.00  0.00    -0.330 C  
HETATM    2  N   UNL     1     -12.270  14.533  68.449  1.00  0.00    -0.608 NA 
HETATM    3  H   UNL     1     -13.013  15.180  68.715  1.00  0.00     0.000 HD 
ENDROOT
BRANCH   2   4
HETATM    4  C   UNL     1     -11.746  14.721  67.181  1.00  0.00    -0.334 C  
HETATM    5  C   UNL     1     -10.861  15.719  66.979  1.00  0.00    -0.273 C  
HETATM    6  O   UNL     1     -10.501  15.298  64.721  1.00  0.00    -0.357 OA 
HETATM    7  N   UNL     1     -10.247  16.005  65.706  1.00  0.00    -0.356 N  
HETATM    8  O   UNL     1      -9.476  16.973  65.693  1.00  0.00    -0.526 OA 
BRANCH   4   9
HETATM    9  N   UNL     1     -12.173  13.878  66.169  1.00  0.00    -0.449 NA 
HETATM   10  H   UNL     1     -12.567  14.352  65.356  1.00  0.00     0.000 HD 
BRANCH   9  11
HETATM   11  C   UNL     1     -12.150  12.433  66.079  1.00  0.00    -0.254 C  
BRANCH  11  12
HETATM   12  C   UNL     1     -10.763  11.893  66.440  1.00  0.00    -0.266 C  
BRANCH  12  13
HETATM   13  S   UNL     1     -10.834  10.309  67.346  1.00  0.00    -0.244 SA 
BRANCH  13  14
HETATM   14  C   UNL     1      -9.476  10.575  68.536  1.00  0.00    -0.164 C  
BRANCH  14  15
HETATM   15  C   UNL     1      -9.738   9.852  69.812  1.00  0.00    -0.236 A  
HETATM   16  C   UNL     1     -10.947   9.738  70.467  1.00  0.00    -0.321 A  
HETATM   17  S   UNL     1     -10.761   8.805  71.891  1.00  0.00    -0.358 SA 
HETATM   18  C   UNL     1      -9.084   8.637  71.551  1.00  0.00    -0.239 A  
HETATM   19  N   UNL     1      -8.666   9.250  70.461  1.00  0.00    -0.220 NA 
BRANCH  18  20
HETATM   20  C   UNL     1      -8.181   7.863  72.482  1.00  0.00    -0.139 C  
BRANCH  20  21
HETATM   21  N   UNL     1      -8.813   6.669  73.090  1.00  0.00    -0.124 NA 
HETATM   22  C   UNL     1      -8.224   5.430  72.571  1.00  0.00    -0.114 C  
HETATM   23  C   UNL     1      -8.648   6.718  74.545  1.00  0.00    -0.173 C  
ENDBRANCH  20  21
ENDBRANCH  18  20
ENDBRANCH  14  15
ENDBRANCH  13  14
ENDBRANCH  12  13
ENDBRANCH  11  12
ENDBRANCH   9  11
ENDBRANCH   4   9
ENDBRANCH   2   4
TORSDOF 9
ENDMDL
MODEL      162
REMARK 921   NORMALIZED FREE ENERGY PREDICTED BY IDOCK:   -3.68 KCAL/MOL
REMARK 922        TOTAL FREE ENERGY PREDICTED BY IDOCK:   -6.68 KCAL/MOL
REMARK 923 INTER-LIGAND FREE ENERGY PREDICTED BY IDOCK:   -5.85 KCAL/MOL
REMARK 924 INTRA-LIGAND FREE ENERGY PREDICTED BY IDOCK:   -0.83 KCAL/MOL
REMARK 927      BINDING AFFINITY PREDICTED BY RF-SCORE:    0.00 PKD
ROOT
HETATM    1  C   UNL     1      -7.096   9.143  64.391  1.00  0.00    -0.091 C  
HETATM    2  N   UNL     1      -7.630   9.406  65.708  1.00  0.00    -0.098 NA 
HETATM    3  H   UNL     1      -7.861   8.581  66.260  1.00  0.00     0.000 HD 
ENDROOT
BRANCH   2   4
HETATM    4  C   UNL     1      -7.873  10.621  66.326  1.00  0.00    -0.150 C  
HETATM    5  C   UNL     1      -6.833  11.440  66.592  1.00  0.00    -0.108 C  
HETATM    6  O   UNL     1      -8.085  13.157  67.537  1.00  0.00    -0.158 OA 
HETATM    7  N   UNL     1      -6.965  12.728  67.226  1.00  0.00    -0.126 N  
HETATM    8  O   UNL     1      -5.905  13.338  67.417  1.00  0.00    -0.327 OA 
BRANCH   4   9
HETATM    9  N   UNL     1      -9.180  10.933  66.661  1.00  0.00    -0.165 NA 
HETATM   10  H   UNL     1      -9.308  11.265  67.616  1.00  0.00     0.000 HD 
BRANCH   9  11
HETATM   11  C   UNL     1     -10.392  10.862  65.872  1.00  0.00    -0.250 C  
BRANCH  11  12
HETATM   12  C   UNL     1     -10.238  11.657  64.573  1.00  0.00    -0.291 C  
BRANCH  12  13
HETATM   13  S   UNL     1     -11.182  13.220  64.584  1.00  0.00    -0.367 SA 
BRANCH  13  14
HETATM   14  C   UNL     1     -11.912  13.126  66.253  1.00  0.00    -0.415 C  
BRANCH  14  15
HETATM   15  C   UNL     1     -11.561  14.331  67.057  1.00  0.00    -0.386 A  
HETATM   16  C   UNL     1     -11.905  14.580  68.370  1.00  0.00    -0.316 A  
HETATM   17  S   UNL     1     -11.269  16.090  68.869  1.00  0.00    -0.362 SA 
HETATM   18  C   UNL     1     -10.600  16.317  67.301  1.00  0.00    -0.298 A  
HETATM   19  N   UNL     1     -10.845  15.350  66.439  1.00  0.00    -0.315 NA 
BRANCH  18  20
HETATM   20  C   UNL     1      -9.826  17.569  66.967  1.00  0.00    -0.295 C  
BRANCH  20  21
HETATM   21  N   UNL     1     -10.579  18.827  67.183  1.00  0.00    -0.423 NA 
HETATM   22  C   UNL     1      -9.958  19.649  68.227  1.00  0.00    -0.436 C  
HETATM   23  C   UNL     1     -10.632  19.585  65.931  1.00  0.00    -0.476 C  
ENDBRANCH  20  21
ENDBRANCH  18  20
ENDBRANCH  14  15
ENDBRANCH  13  14
ENDBRANCH  12  13
ENDBRANCH  11  12
ENDBRANCH   9  11
ENDBRANCH   4   9
ENDBRANCH   2   4
TORSDOF 9
ENDMDL
MODEL      163
REMARK 921   NORMALIZED FREE ENERGY PREDICTED BY IDOCK:   -3.67 KCAL/MOL
REMARK 922        TOTAL FREE ENERGY PREDICTED BY IDOCK:   -6.67 KCAL/MOL
REMARK 923 INTER-LIGAND FREE ENERGY PREDICTED BY IDOCK:   -5.93 KCAL/MOL
REMARK 924 INTRA-LIGAND FREE ENERGY PREDICTED BY IDOCK:   -0.74 KCAL/MOL
REMARK 927      BINDING AFFINITY PREDICTED BY RF-SCORE:    0.00 PKD
ROOT
HETATM    1  C   UNL     1      -8.803  12.450  68.254  1.00  0.00    -0.174 C  
HETATM    2  N   UNL     1      -8.945  13.877  68.441  1.00  0.00    -0.196 NA 
HETATM    3  H   UNL     1      -8.683  14.225  69.364  1.00  0.00     0.000 HD 
ENDROOT
BRANCH   2   4
HETATM    4  C   UNL     1      -9.384  14.837  67.546  1.00  0.00    -0.194 C  
HETATM    5  C   UNL     1      -8.493  15.711  67.032  1.00  0.00    -0.226 C  
HETATM    6  O   UNL     1      -9.999  16.859  65.683  1.00  0.00    -0.552 OA 
HETATM    7  N   UNL     1      -8.834  16.748  66.090  1.00  0.00    -0.286 N  
HETATM    8  O   UNL     1      -7.897  17.477  65.740  1.00  0.00    -0.544 OA 
BRANCH   4   9
HETATM    9  N   UNL     1     -10.732  14.866  67.232  1.00  0.00    -0.287 NA 
HETATM   10  H   UNL     1     -11.245  15.657  67.622  1.00  0.00     0.000 HD 
BRANCH   9  11
HETATM   11  C   UNL     1     -11.531  13.954  66.439  1.00  0.00    -0.344 C  
BRANCH  11  12
HETATM   12  C   UNL     1     -10.821  13.622  65.123  1.00  0.00    -0.334 C  
BRANCH  12  13
HETATM   13  S   UNL     1     -11.717  12.378  64.131  1.00  0.00    -0.439 SA 
BRANCH  13  14
HETATM   14  C   UNL     1     -10.300  11.498  63.392  1.00  0.00    -0.418 C  
BRANCH  14  15
HETATM   15  C   UNL     1      -9.698  10.545  64.366  1.00  0.00    -0.328 A  
HETATM   16  C   UNL     1      -8.478   9.909  64.257  1.00  0.00    -0.173 A  
HETATM   17  S   UNL     1      -8.207   8.915  65.625  1.00  0.00    -0.133 SA 
HETATM   18  C   UNL     1      -9.737   9.381  66.256  1.00  0.00    -0.264 A  
HETATM   19  N   UNL     1     -10.431  10.206  65.497  1.00  0.00    -0.114 NA 
BRANCH  18  20
HETATM   20  C   UNL     1     -10.230   8.829  67.573  1.00  0.00    -0.246 C  
BRANCH  20  21
HETATM   21  N   UNL     1      -9.994   7.378  67.751  1.00  0.00    -0.158 NA 
HETATM   22  C   UNL     1      -9.921   7.018  69.171  1.00  0.00    -0.165 C  
HETATM   23  C   UNL     1     -11.075   6.626  67.110  1.00  0.00    -0.357 C  
ENDBRANCH  20  21
ENDBRANCH  18  20
ENDBRANCH  14  15
ENDBRANCH  13  14
ENDBRANCH  12  13
ENDBRANCH  11  12
ENDBRANCH   9  11
ENDBRANCH   4   9
ENDBRANCH   2   4
TORSDOF 9
ENDMDL
MODEL      164
REMARK 921   NORMALIZED FREE ENERGY PREDICTED BY IDOCK:   -3.67 KCAL/MOL
REMARK 922        TOTAL FREE ENERGY PREDICTED BY IDOCK:   -6.67 KCAL/MOL
REMARK 923 INTER-LIGAND FREE ENERGY PREDICTED BY IDOCK:   -6.13 KCAL/MOL
REMARK 924 INTRA-LIGAND FREE ENERGY PREDICTED BY IDOCK:   -0.54 KCAL/MOL
REMARK 927      BINDING AFFINITY PREDICTED BY RF-SCORE:    0.00 PKD
ROOT
HETATM    1  C   UNL     1     -12.316  14.492  71.070  1.00  0.00    -0.347 C  
HETATM    2  N   UNL     1     -12.606  15.299  69.906  1.00  0.00    -0.604 NA 
HETATM    3  H   UNL     1     -13.576  15.598  69.812  1.00  0.00     0.000 HD 
ENDROOT
BRANCH   2   4
HETATM    4  C   UNL     1     -11.753  15.723  68.901  1.00  0.00    -0.394 C  
HETATM    5  C   UNL     1     -10.797  16.630  69.192  1.00  0.00    -0.315 C  
HETATM    6  O   UNL     1      -9.867  16.725  67.063  1.00  0.00    -0.247 OA 
HETATM    7  N   UNL     1      -9.851  17.139  68.230  1.00  0.00    -0.274 N  
HETATM    8  O   UNL     1      -9.057  17.985  68.662  1.00  0.00    -0.298 OA 
BRANCH   4   9
HETATM    9  N   UNL     1     -11.935  15.204  67.631  1.00  0.00    -0.395 NA 
HETATM   10  H   UNL     1     -12.171  15.893  66.917  1.00  0.00     0.000 HD 
BRANCH   9  11
HETATM   11  C   UNL     1     -11.844  13.840  67.152  1.00  0.00    -0.406 C  
BRANCH  11  12
HETATM   12  C   UNL     1     -10.852  13.037  68.000  1.00  0.00    -0.242 C  
BRANCH  12  13
HETATM   13  S   UNL     1     -11.527  11.430  68.545  1.00  0.00    -0.320 SA 
BRANCH  13  14
HETATM   14  C   UNL     1     -10.934  10.371  67.183  1.00  0.00    -0.196 C  
BRANCH  14  15
HETATM   15  C   UNL     1     -10.526   9.030  67.689  1.00  0.00    -0.260 A  
HETATM   16  C   UNL     1     -10.067   7.966  66.940  1.00  0.00    -0.291 A  
HETATM   17  S   UNL     1      -9.712   6.637  67.960  1.00  0.00    -0.124 SA 
HETATM   18  C   UNL     1     -10.214   7.559  69.322  1.00  0.00    -0.201 A  
HETATM   19  N   UNL     1     -10.644   8.776  69.050  1.00  0.00    -0.206 NA 
BRANCH  18  20
HETATM   20  C   UNL     1     -10.183   6.965  70.710  1.00  0.00    -0.195 C  
BRANCH  20  21
HETATM   21  N   UNL     1     -10.456   7.937  71.794  1.00  0.00    -0.214 NA 
HETATM   22  C   UNL     1     -11.108   7.291  72.939  1.00  0.00    -0.325 C  
HETATM   23  C   UNL     1      -9.199   8.549  72.229  1.00  0.00    -0.272 C  
ENDBRANCH  20  21
ENDBRANCH  18  20
ENDBRANCH  14  15
ENDBRANCH  13  14
ENDBRANCH  12  13
ENDBRANCH  11  12
ENDBRANCH   9  11
ENDBRANCH   4   9
ENDBRANCH   2   4
TORSDOF 9
ENDMDL
MODEL      165
REMARK 921   NORMALIZED FREE ENERGY PREDICTED BY IDOCK:   -3.67 KCAL/MOL
REMARK 922        TOTAL FREE ENERGY PREDICTED BY IDOCK:   -6.66 KCAL/MOL
REMARK 923 INTER-LIGAND FREE ENERGY PREDICTED BY IDOCK:   -5.66 KCAL/MOL
REMARK 924 INTRA-LIGAND FREE ENERGY PREDICTED BY IDOCK:   -1.00 KCAL/MOL
REMARK 927      BINDING AFFINITY PREDICTED BY RF-SCORE:    0.00 PKD
ROOT
HETATM    1  C   UNL     1     -10.142  17.711  66.393  1.00  0.00    -0.356 C  
HETATM    2  N   UNL     1     -10.624  16.612  67.199  1.00  0.00    -0.299 NA 
HETATM    3  H   UNL     1     -11.506  16.778  67.684  1.00  0.00     0.000 HD 
ENDROOT
BRANCH   2   4
HETATM    4  C   UNL     1     -10.058  15.365  67.406  1.00  0.00    -0.233 C  
HETATM    5  C   UNL     1      -8.879  15.281  68.058  1.00  0.00    -0.169 C  
HETATM    6  O   UNL     1      -8.708  12.964  67.995  1.00  0.00    -0.174 OA 
HETATM    7  N   UNL     1      -8.199  14.041  68.335  1.00  0.00    -0.147 N  
HETATM    8  O   UNL     1      -7.114  14.148  68.922  1.00  0.00    -0.102 OA 
BRANCH   4   9
HETATM    9  N   UNL     1     -10.726  14.257  66.915  1.00  0.00    -0.288 NA 
HETATM   10  H   UNL     1     -10.134  13.579  66.436  1.00  0.00     0.000 HD 
BRANCH   9  11
HETATM   11  C   UNL     1     -12.130  13.906  66.973  1.00  0.00    -0.415 C  
BRANCH  11  12
HETATM   12  C   UNL     1     -12.773  14.029  65.588  1.00  0.00    -0.481 C  
BRANCH  12  13
HETATM   13  S   UNL     1     -11.544  14.075  64.239  1.00  0.00    -0.282 SA 
BRANCH  13  14
HETATM   14  C   UNL     1     -11.793  12.408  63.541  1.00  0.00    -0.521 C  
BRANCH  14  15
HETATM   15  C   UNL     1     -10.667  11.503  63.908  1.00  0.00    -0.395 A  
HETATM   16  C   UNL     1      -9.784  10.886  63.045  1.00  0.00    -0.350 A  
HETATM   17  S   UNL     1      -8.654   9.950  63.928  1.00  0.00    -0.214 SA 
HETATM   18  C   UNL     1      -9.430  10.411  65.392  1.00  0.00    -0.232 A  
HETATM   19  N   UNL     1     -10.481  11.194  65.250  1.00  0.00    -0.272 NA 
BRANCH  18  20
HETATM   20  C   UNL     1      -8.931   9.900  66.723  1.00  0.00    -0.138 C  
BRANCH  20  21
HETATM   21  N   UNL     1     -10.004   9.571  67.689  1.00  0.00    -0.169 NA 
HETATM   22  C   UNL     1     -10.529   8.219  67.467  1.00  0.00    -0.255 C  
HETATM   23  C   UNL     1      -9.481   9.675  69.054  1.00  0.00    -0.168 C  
ENDBRANCH  20  21
ENDBRANCH  18  20
ENDBRANCH  14  15
ENDBRANCH  13  14
ENDBRANCH  12  13
ENDBRANCH  11  12
ENDBRANCH   9  11
ENDBRANCH   4   9
ENDBRANCH   2   4
TORSDOF 9
ENDMDL
MODEL      166
REMARK 921   NORMALIZED FREE ENERGY PREDICTED BY IDOCK:   -3.65 KCAL/MOL
REMARK 922        TOTAL FREE ENERGY PREDICTED BY IDOCK:   -6.63 KCAL/MOL
REMARK 923 INTER-LIGAND FREE ENERGY PREDICTED BY IDOCK:   -6.40 KCAL/MOL
REMARK 924 INTRA-LIGAND FREE ENERGY PREDICTED BY IDOCK:   -0.23 KCAL/MOL
REMARK 927      BINDING AFFINITY PREDICTED BY RF-SCORE:    0.00 PKD
ROOT
HETATM    1  C   UNL     1     -10.085   8.618  66.685  1.00  0.00    -0.294 C  
HETATM    2  N   UNL     1     -10.857   9.280  67.713  1.00  0.00    -0.480 NA 
HETATM    3  H   UNL     1     -11.144   8.689  68.494  1.00  0.00     0.000 HD 
ENDROOT
BRANCH   2   4
HETATM    4  C   UNL     1     -11.261  10.602  67.789  1.00  0.00    -0.313 C  
HETATM    5  C   UNL     1     -10.717  11.503  66.943  1.00  0.00    -0.263 C  
HETATM    6  O   UNL     1     -11.928  13.338  67.699  1.00  0.00    -0.355 OA 
HETATM    7  N   UNL     1     -11.064  12.902  66.926  1.00  0.00    -0.270 N  
HETATM    8  O   UNL     1     -10.450  13.592  66.101  1.00  0.00    -0.286 OA 
BRANCH   4   9
HETATM    9  N   UNL     1     -12.200  10.943  68.747  1.00  0.00    -0.793 NA 
HETATM   10  H   UNL     1     -13.164  10.961  68.414  1.00  0.00     0.000 HD 
BRANCH   9  11
HETATM   11  C   UNL     1     -12.033  11.276  70.147  1.00  0.00    -0.369 C  
BRANCH  11  12
HETATM   12  C   UNL     1     -11.716  10.022  70.966  1.00  0.00    -0.392 C  
BRANCH  12  13
HETATM   13  S   UNL     1     -13.055   9.577  72.125  1.00  0.00    -0.425 SA 
BRANCH  13  14
HETATM   14  C   UNL     1     -13.416   7.886  71.541  1.00  0.00    -0.306 C  
BRANCH  14  15
HETATM   15  C   UNL     1     -12.171   7.070  71.469  1.00  0.00    -0.368 A  
HETATM   16  C   UNL     1     -11.611   6.511  70.338  1.00  0.00    -0.407 A  
HETATM   17  S   UNL     1     -10.177   5.669  70.745  1.00  0.00    -0.241 SA 
HETATM   18  C   UNL     1     -10.412   6.085  72.397  1.00  0.00    -0.201 A  
HETATM   19  N   UNL     1     -11.498   6.788  72.652  1.00  0.00    -0.221 NA 
BRANCH  18  20
HETATM   20  C   UNL     1      -9.438   5.625  73.455  1.00  0.00    -0.138 C  
BRANCH  20  21
HETATM   21  N   UNL     1      -8.372   4.727  72.952  1.00  0.00    -0.101 NA 
HETATM   22  C   UNL     1      -7.190   5.484  72.528  1.00  0.00    -0.093 C  
HETATM   23  C   UNL     1      -7.996   3.779  74.005  1.00  0.00    -0.082 C  
ENDBRANCH  20  21
ENDBRANCH  18  20
ENDBRANCH  14  15
ENDBRANCH  13  14
ENDBRANCH  12  13
ENDBRANCH  11  12
ENDBRANCH   9  11
ENDBRANCH   4   9
ENDBRANCH   2   4
TORSDOF 9
ENDMDL
MODEL      167
REMARK 921   NORMALIZED FREE ENERGY PREDICTED BY IDOCK:   -3.64 KCAL/MOL
REMARK 922        TOTAL FREE ENERGY PREDICTED BY IDOCK:   -6.63 KCAL/MOL
REMARK 923 INTER-LIGAND FREE ENERGY PREDICTED BY IDOCK:   -6.22 KCAL/MOL
REMARK 924 INTRA-LIGAND FREE ENERGY PREDICTED BY IDOCK:   -0.40 KCAL/MOL
REMARK 927      BINDING AFFINITY PREDICTED BY RF-SCORE:    0.00 PKD
ROOT
HETATM    1  C   UNL     1     -11.473  15.707  68.407  1.00  0.00    -0.369 C  
HETATM    2  N   UNL     1     -12.276  14.645  67.845  1.00  0.00    -0.603 NA 
HETATM    3  H   UNL     1     -13.225  14.573  68.212  1.00  0.00     0.000 HD 
ENDROOT
BRANCH   2   4
HETATM    4  C   UNL     1     -11.939  13.711  66.879  1.00  0.00    -0.410 C  
HETATM    5  C   UNL     1     -12.439  13.849  65.633  1.00  0.00    -0.505 C  
HETATM    6  O   UNL     1     -11.389  11.985  64.721  1.00  0.00    -0.317 OA 
HETATM    7  N   UNL     1     -12.154  12.944  64.547  1.00  0.00    -0.389 N  
HETATM    8  O   UNL     1     -12.715  13.206  63.475  1.00  0.00    -0.711 OA 
BRANCH   4   9
HETATM    9  N   UNL     1     -11.114  12.663  67.247  1.00  0.00    -0.266 NA 
HETATM   10  H   UNL     1     -10.672  12.173  66.468  1.00  0.00     0.000 HD 
BRANCH   9  11
HETATM   11  C   UNL     1     -10.777  12.149  68.558  1.00  0.00    -0.232 C  
BRANCH  11  12
HETATM   12  C   UNL     1     -11.639  10.929  68.897  1.00  0.00    -0.309 C  
BRANCH  12  13
HETATM   13  S   UNL     1     -11.239  10.211  70.527  1.00  0.00    -0.345 SA 
BRANCH  13  14
HETATM   14  C   UNL     1      -9.520   9.682  70.215  1.00  0.00    -0.248 C  
BRANCH  14  15
HETATM   15  C   UNL     1      -9.182   8.471  71.015  1.00  0.00    -0.182 A  
HETATM   16  C   UNL     1      -8.328   8.405  72.097  1.00  0.00    -0.164 A  
HETATM   17  S   UNL     1      -8.261   6.804  72.699  1.00  0.00    -0.106 SA 
HETATM   18  C   UNL     1      -9.353   6.305  71.467  1.00  0.00    -0.148 A  
HETATM   19  N   UNL     1      -9.736   7.254  70.636  1.00  0.00    -0.176 NA 
BRANCH  18  20
HETATM   20  C   UNL     1      -9.787   4.863  71.358  1.00  0.00    -0.186 C  
BRANCH  20  21
HETATM   21  N   UNL     1      -9.954   4.178  72.661  1.00  0.00    -0.150 NA 
HETATM   22  C   UNL     1     -11.280   4.435  73.234  1.00  0.00    -0.271 C  
HETATM   23  C   UNL     1      -9.771   2.735  72.480  1.00  0.00    -0.137 C  
ENDBRANCH  20  21
ENDBRANCH  18  20
ENDBRANCH  14  15
ENDBRANCH  13  14
ENDBRANCH  12  13
ENDBRANCH  11  12
ENDBRANCH   9  11
ENDBRANCH   4   9
ENDBRANCH   2   4
TORSDOF 9
ENDMDL
MODEL      168
REMARK 921   NORMALIZED FREE ENERGY PREDICTED BY IDOCK:   -3.64 KCAL/MOL
REMARK 922        TOTAL FREE ENERGY PREDICTED BY IDOCK:   -6.62 KCAL/MOL
REMARK 923 INTER-LIGAND FREE ENERGY PREDICTED BY IDOCK:   -6.04 KCAL/MOL
REMARK 924 INTRA-LIGAND FREE ENERGY PREDICTED BY IDOCK:   -0.58 KCAL/MOL
REMARK 927      BINDING AFFINITY PREDICTED BY RF-SCORE:    0.00 PKD
ROOT
HETATM    1  C   UNL     1     -10.805  13.382  68.163  1.00  0.00    -0.255 C  
HETATM    2  N   UNL     1     -10.318  13.580  66.816  1.00  0.00    -0.261 NA 
HETATM    3  H   UNL     1      -9.711  14.389  66.685  1.00  0.00     0.000 HD 
ENDROOT
BRANCH   2   4
HETATM    4  C   UNL     1     -10.559  12.826  65.679  1.00  0.00    -0.275 C  
HETATM    5  C   UNL     1     -11.798  12.823  65.146  1.00  0.00    -0.391 C  
HETATM    6  O   UNL     1     -11.312  11.419  63.358  1.00  0.00    -0.337 OA 
HETATM    7  N   UNL     1     -12.164  12.083  63.964  1.00  0.00    -0.413 N  
HETATM    8  O   UNL     1     -13.352  12.173  63.626  1.00  0.00    -0.678 OA 
BRANCH   4   9
HETATM    9  N   UNL     1      -9.511  12.092  65.151  1.00  0.00    -0.439 NA 
HETATM   10  H   UNL     1      -9.234  12.362  64.207  1.00  0.00     0.000 HD 
BRANCH   9  11
HETATM   11  C   UNL     1      -8.746  11.003  65.722  1.00  0.00    -0.174 C  
BRANCH  11  12
HETATM   12  C   UNL     1      -9.377   9.655  65.362  1.00  0.00    -0.259 C  
BRANCH  12  13
HETATM   13  S   UNL     1      -9.089   8.377  66.634  1.00  0.00    -0.176 SA 
BRANCH  13  14
HETATM   14  C   UNL     1      -8.520   9.435  68.008  1.00  0.00    -0.120 C  
BRANCH  14  15
HETATM   15  C   UNL     1      -9.464   9.368  69.158  1.00  0.00    -0.163 A  
HETATM   16  C   UNL     1     -10.766   9.826  69.190  1.00  0.00    -0.221 A  
HETATM   17  S   UNL     1     -11.461   9.522  70.725  1.00  0.00    -0.332 SA 
HETATM   18  C   UNL     1      -9.979   8.823  71.248  1.00  0.00    -0.263 A  
HETATM   19  N   UNL     1      -9.008   8.828  70.355  1.00  0.00    -0.155 NA 
BRANCH  18  20
HETATM   20  C   UNL     1      -9.832   8.286  72.651  1.00  0.00    -0.287 C  
BRANCH  20  21
HETATM   21  N   UNL     1     -10.682   7.109  72.945  1.00  0.00    -0.274 NA 
HETATM   22  C   UNL     1     -10.610   6.114  71.870  1.00  0.00    -0.220 C  
HETATM   23  C   UNL     1     -10.252   6.499  74.206  1.00  0.00    -0.350 C  
ENDBRANCH  20  21
ENDBRANCH  18  20
ENDBRANCH  14  15
ENDBRANCH  13  14
ENDBRANCH  12  13
ENDBRANCH  11  12
ENDBRANCH   9  11
ENDBRANCH   4   9
ENDBRANCH   2   4
TORSDOF 9
ENDMDL
MODEL      169
REMARK 921   NORMALIZED FREE ENERGY PREDICTED BY IDOCK:   -3.64 KCAL/MOL
REMARK 922        TOTAL FREE ENERGY PREDICTED BY IDOCK:   -6.62 KCAL/MOL
REMARK 923 INTER-LIGAND FREE ENERGY PREDICTED BY IDOCK:   -5.96 KCAL/MOL
REMARK 924 INTRA-LIGAND FREE ENERGY PREDICTED BY IDOCK:   -0.65 KCAL/MOL
REMARK 927      BINDING AFFINITY PREDICTED BY RF-SCORE:    0.00 PKD
ROOT
HETATM    1  C   UNL     1     -14.146   8.595  72.236  1.00  0.00    -0.420 C  
HETATM    2  N   UNL     1     -13.480   9.122  71.065  1.00  0.00    -0.564 NA 
HETATM    3  H   UNL     1     -14.091   9.353  70.282  1.00  0.00     0.000 HD 
ENDROOT
BRANCH   2   4
HETATM    4  C   UNL     1     -12.132   9.357  70.857  1.00  0.00    -0.255 C  
HETATM    5  C   UNL     1     -11.245   8.960  71.794  1.00  0.00    -0.362 C  
HETATM    6  O   UNL     1      -9.339   9.674  70.672  1.00  0.00    -0.239 OA 
HETATM    7  N   UNL     1      -9.820   9.147  71.684  1.00  0.00    -0.286 N  
HETATM    8  O   UNL     1      -9.155   8.744  72.647  1.00  0.00    -0.354 OA 
BRANCH   4   9
HETATM    9  N   UNL     1     -11.756  10.010  69.695  1.00  0.00    -0.453 NA 
HETATM   10  H   UNL     1     -11.135   9.476  69.087  1.00  0.00     0.000 HD 
BRANCH   9  11
HETATM   11  C   UNL     1     -12.103  11.327  69.205  1.00  0.00    -0.303 C  
BRANCH  11  12
HETATM   12  C   UNL     1     -11.891  12.381  70.296  1.00  0.00    -0.232 C  
BRANCH  12  13
HETATM   13  S   UNL     1     -12.168  14.084  69.698  1.00  0.00    -0.280 SA 
BRANCH  13  14
HETATM   14  C   UNL     1     -11.802  13.851  67.926  1.00  0.00    -0.378 C  
BRANCH  14  15
HETATM   15  C   UNL     1     -10.672  14.723  67.497  1.00  0.00    -0.269 A  
HETATM   16  C   UNL     1     -10.358  15.095  66.206  1.00  0.00    -0.294 A  
HETATM   17  S   UNL     1      -8.981  16.113  66.204  1.00  0.00    -0.305 SA 
HETATM   18  C   UNL     1      -8.884  15.969  67.915  1.00  0.00    -0.180 A  
HETATM   19  N   UNL     1      -9.799  15.197  68.468  1.00  0.00    -0.214 NA 
BRANCH  18  20
HETATM   20  C   UNL     1      -7.790  16.666  68.688  1.00  0.00    -0.234 C  
BRANCH  20  21
HETATM   21  N   UNL     1      -6.632  15.803  69.015  1.00  0.00    -0.126 NA 
HETATM   22  C   UNL     1      -5.622  15.835  67.952  1.00  0.00    -0.142 C  
HETATM   23  C   UNL     1      -6.030  16.251  70.274  1.00  0.00    -0.067 C  
ENDBRANCH  20  21
ENDBRANCH  18  20
ENDBRANCH  14  15
ENDBRANCH  13  14
ENDBRANCH  12  13
ENDBRANCH  11  12
ENDBRANCH   9  11
ENDBRANCH   4   9
ENDBRANCH   2   4
TORSDOF 9
ENDMDL
MODEL      170
REMARK 921   NORMALIZED FREE ENERGY PREDICTED BY IDOCK:   -3.63 KCAL/MOL
REMARK 922        TOTAL FREE ENERGY PREDICTED BY IDOCK:   -6.61 KCAL/MOL
REMARK 923 INTER-LIGAND FREE ENERGY PREDICTED BY IDOCK:   -6.20 KCAL/MOL
REMARK 924 INTRA-LIGAND FREE ENERGY PREDICTED BY IDOCK:   -0.41 KCAL/MOL
REMARK 927      BINDING AFFINITY PREDICTED BY RF-SCORE:    0.00 PKD
ROOT
HETATM    1  C   UNL     1     -12.403  14.554  64.109  1.00  0.00    -0.286 C  
HETATM    2  N   UNL     1     -11.711  14.311  65.356  1.00  0.00    -0.344 NA 
HETATM    3  H   UNL     1     -11.679  13.337  65.656  1.00  0.00     0.000 HD 
ENDROOT
BRANCH   2   4
HETATM    4  C   UNL     1     -11.087  15.214  66.200  1.00  0.00    -0.311 C  
HETATM    5  C   UNL     1     -10.491  16.302  65.669  1.00  0.00    -0.368 C  
HETATM    6  O   UNL     1      -9.782  17.222  67.683  1.00  0.00    -0.262 OA 
HETATM    7  N   UNL     1      -9.816  17.311  66.448  1.00  0.00    -0.289 N  
HETATM    8  O   UNL     1      -9.303  18.230  65.798  1.00  0.00    -0.460 OA 
BRANCH   4   9
HETATM    9  N   UNL     1     -11.089  14.944  67.557  1.00  0.00    -0.307 NA 
HETATM   10  H   UNL     1     -10.907  15.752  68.154  1.00  0.00     0.000 HD 
BRANCH   9  11
HETATM   11  C   UNL     1     -11.307  13.701  68.267  1.00  0.00    -0.289 C  
BRANCH  11  12
HETATM   12  C   UNL     1     -10.050  12.826  68.220  1.00  0.00    -0.237 C  
BRANCH  12  13
HETATM   13  S   UNL     1     -10.375  11.095  68.701  1.00  0.00    -0.209 SA 
BRANCH  13  14
HETATM   14  C   UNL     1     -11.996  11.301  69.512  1.00  0.00    -0.351 C  
BRANCH  14  15
HETATM   15  C   UNL     1     -12.213  10.249  70.545  1.00  0.00    -0.301 A  
HETATM   16  C   UNL     1     -13.420   9.853  71.084  1.00  0.00    -0.240 A  
HETATM   17  S   UNL     1     -13.173   8.604  72.229  1.00  0.00    -0.355 SA 
HETATM   18  C   UNL     1     -11.479   8.692  71.946  1.00  0.00    -0.348 A  
HETATM   19  N   UNL     1     -11.101   9.605  71.073  1.00  0.00    -0.342 NA 
BRANCH  18  20
HETATM   20  C   UNL     1     -10.524   7.793  72.695  1.00  0.00    -0.302 C  
BRANCH  20  21
HETATM   21  N   UNL     1     -10.594   6.368  72.299  1.00  0.00    -0.208 NA 
HETATM   22  C   UNL     1     -10.549   6.214  70.841  1.00  0.00    -0.242 C  
HETATM   23  C   UNL     1      -9.475   5.639  72.903  1.00  0.00    -0.147 C  
ENDBRANCH  20  21
ENDBRANCH  18  20
ENDBRANCH  14  15
ENDBRANCH  13  14
ENDBRANCH  12  13
ENDBRANCH  11  12
ENDBRANCH   9  11
ENDBRANCH   4   9
ENDBRANCH   2   4
TORSDOF 9
ENDMDL
MODEL      171
REMARK 921   NORMALIZED FREE ENERGY PREDICTED BY IDOCK:   -3.62 KCAL/MOL
REMARK 922        TOTAL FREE ENERGY PREDICTED BY IDOCK:   -6.58 KCAL/MOL
REMARK 923 INTER-LIGAND FREE ENERGY PREDICTED BY IDOCK:   -6.01 KCAL/MOL
REMARK 924 INTRA-LIGAND FREE ENERGY PREDICTED BY IDOCK:   -0.57 KCAL/MOL
REMARK 927      BINDING AFFINITY PREDICTED BY RF-SCORE:    0.00 PKD
ROOT
HETATM    1  C   UNL     1     -11.189  14.961  68.647  1.00  0.00    -0.275 C  
HETATM    2  N   UNL     1     -12.249  14.330  67.892  1.00  0.00    -0.595 NA 
HETATM    3  H   UNL     1     -13.195  14.536  68.210  1.00  0.00     0.000 HD 
ENDROOT
BRANCH   2   4
HETATM    4  C   UNL     1     -12.160  13.485  66.799  1.00  0.00    -0.375 C  
HETATM    5  C   UNL     1     -12.317  13.997  65.560  1.00  0.00    -0.483 C  
HETATM    6  O   UNL     1     -11.992  12.004  64.407  1.00  0.00    -0.347 OA 
HETATM    7  N   UNL     1     -12.241  13.217  64.350  1.00  0.00    -0.396 N  
HETATM    8  O   UNL     1     -12.434  13.843  63.300  1.00  0.00    -0.817 OA 
BRANCH   4   9
HETATM    9  N   UNL     1     -11.931  12.140  67.032  1.00  0.00    -0.598 NA 
HETATM   10  H   UNL     1     -12.447  11.506  66.422  1.00  0.00     0.000 HD 
BRANCH   9  11
HETATM   11  C   UNL     1     -11.075  11.488  68.002  1.00  0.00    -0.254 C  
BRANCH  11  12
HETATM   12  C   UNL     1     -11.907  10.910  69.151  1.00  0.00    -0.317 C  
BRANCH  12  13
HETATM   13  S   UNL     1     -10.881  10.121  70.440  1.00  0.00    -0.259 SA 
BRANCH  13  14
HETATM   14  C   UNL     1     -10.888   8.402  69.827  1.00  0.00    -0.183 C  
BRANCH  14  15
HETATM   15  C   UNL     1      -9.625   8.091  69.100  1.00  0.00    -0.156 A  
HETATM   16  C   UNL     1      -8.498   8.884  69.020  1.00  0.00    -0.133 A  
HETATM   17  S   UNL     1      -7.295   8.105  68.083  1.00  0.00    -0.097 SA 
HETATM   18  C   UNL     1      -8.362   6.781  67.830  1.00  0.00    -0.119 A  
HETATM   19  N   UNL     1      -9.553   6.904  68.382  1.00  0.00    -0.127 NA 
BRANCH  18  20
HETATM   20  C   UNL     1      -7.937   5.596  66.995  1.00  0.00    -0.102 C  
BRANCH  20  21
HETATM   21  N   UNL     1      -8.612   5.505  65.679  1.00  0.00    -0.144 NA 
HETATM   22  C   UNL     1      -8.006   6.416  64.702  1.00  0.00    -0.118 C  
HETATM   23  C   UNL     1      -8.529   4.129  65.183  1.00  0.00    -0.114 C  
ENDBRANCH  20  21
ENDBRANCH  18  20
ENDBRANCH  14  15
ENDBRANCH  13  14
ENDBRANCH  12  13
ENDBRANCH  11  12
ENDBRANCH   9  11
ENDBRANCH   4   9
ENDBRANCH   2   4
TORSDOF 9
ENDMDL
MODEL      172
REMARK 921   NORMALIZED FREE ENERGY PREDICTED BY IDOCK:   -3.61 KCAL/MOL
REMARK 922        TOTAL FREE ENERGY PREDICTED BY IDOCK:   -6.57 KCAL/MOL
REMARK 923 INTER-LIGAND FREE ENERGY PREDICTED BY IDOCK:   -6.13 KCAL/MOL
REMARK 924 INTRA-LIGAND FREE ENERGY PREDICTED BY IDOCK:   -0.44 KCAL/MOL
REMARK 927      BINDING AFFINITY PREDICTED BY RF-SCORE:    0.00 PKD
ROOT
HETATM    1  C   UNL     1     -12.904  15.691  71.568  1.00  0.00    -0.471 C  
HETATM    2  N   UNL     1     -13.139  14.849  70.417  1.00  0.00    -0.618 NA 
HETATM    3  H   UNL     1     -14.082  14.887  70.032  1.00  0.00     0.000 HD 
ENDROOT
BRANCH   2   4
HETATM    4  C   UNL     1     -12.264  13.997  69.763  1.00  0.00    -0.341 C  
HETATM    5  C   UNL     1     -11.811  14.337  68.538  1.00  0.00    -0.347 C  
HETATM    6  O   UNL     1     -10.454  12.475  68.233  1.00  0.00    -0.221 OA 
HETATM    7  N   UNL     1     -10.896  13.534  67.767  1.00  0.00    -0.249 N  
HETATM    8  O   UNL     1     -10.603  13.984  66.652  1.00  0.00    -0.272 OA 
BRANCH   4   9
HETATM    9  N   UNL     1     -11.907  12.820  70.397  1.00  0.00    -0.550 NA 
HETATM   10  H   UNL     1     -10.913  12.596  70.354  1.00  0.00     0.000 HD 
BRANCH   9  11
HETATM   11  C   UNL     1     -12.717  11.854  71.109  1.00  0.00    -0.284 C  
BRANCH  11  12
HETATM   12  C   UNL     1     -12.069  10.467  71.063  1.00  0.00    -0.387 C  
BRANCH  12  13
HETATM   13  S   UNL     1     -13.186   9.144  71.643  1.00  0.00    -0.387 SA 
BRANCH  13  14
HETATM   14  C   UNL     1     -11.985   8.099  72.535  1.00  0.00    -0.350 C  
BRANCH  14  15
HETATM   15  C   UNL     1     -11.408   7.063  71.633  1.00  0.00    -0.257 A  
HETATM   16  C   UNL     1     -11.496   7.020  70.257  1.00  0.00    -0.287 A  
HETATM   17  S   UNL     1     -10.670   5.646  69.655  1.00  0.00    -0.278 SA 
HETATM   18  C   UNL     1     -10.272   5.192  71.265  1.00  0.00    -0.222 A  
HETATM   19  N   UNL     1     -10.737   5.989  72.207  1.00  0.00    -0.220 NA 
BRANCH  18  20
HETATM   20  C   UNL     1      -9.475   3.938  71.539  1.00  0.00    -0.155 C  
BRANCH  20  21
HETATM   21  N   UNL     1      -8.371   4.118  72.510  1.00  0.00    -0.099 NA 
HETATM   22  C   UNL     1      -7.808   2.829  72.924  1.00  0.00    -0.051 C  
HETATM   23  C   UNL     1      -7.320   4.941  71.906  1.00  0.00    -0.080 C  
ENDBRANCH  20  21
ENDBRANCH  18  20
ENDBRANCH  14  15
ENDBRANCH  13  14
ENDBRANCH  12  13
ENDBRANCH  11  12
ENDBRANCH   9  11
ENDBRANCH   4   9
ENDBRANCH   2   4
TORSDOF 9
ENDMDL
MODEL      173
REMARK 921   NORMALIZED FREE ENERGY PREDICTED BY IDOCK:   -3.60 KCAL/MOL
REMARK 922        TOTAL FREE ENERGY PREDICTED BY IDOCK:   -6.56 KCAL/MOL
REMARK 923 INTER-LIGAND FREE ENERGY PREDICTED BY IDOCK:   -5.37 KCAL/MOL
REMARK 924 INTRA-LIGAND FREE ENERGY PREDICTED BY IDOCK:   -1.20 KCAL/MOL
REMARK 927      BINDING AFFINITY PREDICTED BY RF-SCORE:    0.00 PKD
ROOT
HETATM    1  C   UNL     1      -7.368  11.031  69.147  1.00  0.00    -0.121 C  
HETATM    2  N   UNL     1      -8.455  11.507  68.321  1.00  0.00    -0.153 NA 
HETATM    3  H   UNL     1      -8.176  12.015  67.482  1.00  0.00     0.000 HD 
ENDROOT
BRANCH   2   4
HETATM    4  C   UNL     1      -9.820  11.371  68.508  1.00  0.00    -0.198 C  
HETATM    5  C   UNL     1     -10.269  10.703  69.591  1.00  0.00    -0.116 C  
HETATM    6  O   UNL     1     -12.535  10.980  69.150  1.00  0.00    -0.432 OA 
HETATM    7  N   UNL     1     -11.665  10.503  69.892  1.00  0.00    -0.280 N  
HETATM    8  O   UNL     1     -11.901   9.845  70.914  1.00  0.00    -0.304 OA 
BRANCH   4   9
HETATM    9  N   UNL     1     -10.665  11.916  67.557  1.00  0.00    -0.217 NA 
HETATM   10  H   UNL     1     -11.166  11.233  66.989  1.00  0.00     0.000 HD 
BRANCH   9  11
HETATM   11  C   UNL     1     -10.953  13.300  67.240  1.00  0.00    -0.268 C  
BRANCH  11  12
HETATM   12  C   UNL     1     -12.000  13.391  66.126  1.00  0.00    -0.413 C  
BRANCH  12  13
HETATM   13  S   UNL     1     -11.258  13.654  64.478  1.00  0.00    -0.376 SA 
BRANCH  13  14
HETATM   14  C   UNL     1     -11.643  12.044  63.709  1.00  0.00    -0.476 C  
BRANCH  14  15
HETATM   15  C   UNL     1     -10.487  11.111  63.821  1.00  0.00    -0.381 A  
HETATM   16  C   UNL     1      -9.544  10.839  62.850  1.00  0.00    -0.338 A  
HETATM   17  S   UNL     1      -8.401   9.708  63.439  1.00  0.00    -0.187 SA 
HETATM   18  C   UNL     1      -9.250   9.641  64.933  1.00  0.00    -0.246 A  
HETATM   19  N   UNL     1     -10.333  10.390  64.999  1.00  0.00    -0.262 NA 
BRANCH  18  20
HETATM   20  C   UNL     1      -8.774   8.745  66.052  1.00  0.00    -0.167 C  
BRANCH  20  21
HETATM   21  N   UNL     1      -9.373   7.390  66.043  1.00  0.00    -0.055 NA 
HETATM   22  C   UNL     1      -8.341   6.349  65.987  1.00  0.00    -0.132 C  
HETATM   23  C   UNL     1     -10.186   7.209  67.248  1.00  0.00    -0.245 C  
ENDBRANCH  20  21
ENDBRANCH  18  20
ENDBRANCH  14  15
ENDBRANCH  13  14
ENDBRANCH  12  13
ENDBRANCH  11  12
ENDBRANCH   9  11
ENDBRANCH   4   9
ENDBRANCH   2   4
TORSDOF 9
ENDMDL
MODEL      174
REMARK 921   NORMALIZED FREE ENERGY PREDICTED BY IDOCK:   -3.60 KCAL/MOL
REMARK 922        TOTAL FREE ENERGY PREDICTED BY IDOCK:   -6.56 KCAL/MOL
REMARK 923 INTER-LIGAND FREE ENERGY PREDICTED BY IDOCK:   -5.93 KCAL/MOL
REMARK 924 INTRA-LIGAND FREE ENERGY PREDICTED BY IDOCK:   -0.63 KCAL/MOL
REMARK 927      BINDING AFFINITY PREDICTED BY RF-SCORE:    0.00 PKD
ROOT
HETATM    1  C   UNL     1     -12.705  11.078  71.096  1.00  0.00    -0.419 C  
HETATM    2  N   UNL     1     -11.871  12.188  70.693  1.00  0.00    -0.466 NA 
HETATM    3  H   UNL     1     -10.936  11.939  70.372  1.00  0.00     0.000 HD 
ENDROOT
BRANCH   2   4
HETATM    4  C   UNL     1     -12.163  13.542  70.681  1.00  0.00    -0.358 C  
HETATM    5  C   UNL     1     -12.834  14.077  71.722  1.00  0.00    -0.340 C  
HETATM    6  O   UNL     1     -12.849  16.263  70.930  1.00  0.00    -0.003 OA 
HETATM    7  N   UNL     1     -13.187  15.471  71.821  1.00  0.00    -0.454 N  
HETATM    8  O   UNL     1     -13.825  15.787  72.834  1.00  0.00    -0.575 OA 
BRANCH   4   9
HETATM    9  N   UNL     1     -11.763  14.284  69.583  1.00  0.00    -0.289 NA 
HETATM   10  H   UNL     1     -11.193  15.101  69.804  1.00  0.00     0.000 HD 
BRANCH   9  11
HETATM   11  C   UNL     1     -12.023  14.087  68.172  1.00  0.00    -0.347 C  
BRANCH  11  12
HETATM   12  C   UNL     1     -10.733  14.237  67.360  1.00  0.00    -0.282 C  
BRANCH  12  13
HETATM   13  S   UNL     1     -10.457  12.846  66.209  1.00  0.00    -0.274 SA 
BRANCH  13  14
HETATM   14  C   UNL     1     -11.272  11.508  67.144  1.00  0.00    -0.301 C  
BRANCH  14  15
HETATM   15  C   UNL     1     -10.533  10.223  66.989  1.00  0.00    -0.244 A  
HETATM   16  C   UNL     1      -9.474   9.974  66.140  1.00  0.00    -0.190 A  
HETATM   17  S   UNL     1      -8.944   8.356  66.317  1.00  0.00    -0.185 SA 
HETATM   18  C   UNL     1     -10.172   8.092  67.492  1.00  0.00    -0.245 A  
HETATM   19  N   UNL     1     -10.953   9.127  67.732  1.00  0.00    -0.079 NA 
BRANCH  18  20
HETATM   20  C   UNL     1     -10.334   6.742  68.149  1.00  0.00    -0.188 C  
BRANCH  20  21
HETATM   21  N   UNL     1     -10.122   6.750  69.615  1.00  0.00    -0.179 NA 
HETATM   22  C   UNL     1     -11.397   6.706  70.340  1.00  0.00    -0.365 C  
HETATM   23  C   UNL     1      -9.303   5.596  69.995  1.00  0.00    -0.149 C  
ENDBRANCH  20  21
ENDBRANCH  18  20
ENDBRANCH  14  15
ENDBRANCH  13  14
ENDBRANCH  12  13
ENDBRANCH  11  12
ENDBRANCH   9  11
ENDBRANCH   4   9
ENDBRANCH   2   4
TORSDOF 9
ENDMDL
MODEL      175
REMARK 921   NORMALIZED FREE ENERGY PREDICTED BY IDOCK:   -3.60 KCAL/MOL
REMARK 922        TOTAL FREE ENERGY PREDICTED BY IDOCK:   -6.55 KCAL/MOL
REMARK 923 INTER-LIGAND FREE ENERGY PREDICTED BY IDOCK:   -6.06 KCAL/MOL
REMARK 924 INTRA-LIGAND FREE ENERGY PREDICTED BY IDOCK:   -0.50 KCAL/MOL
REMARK 927      BINDING AFFINITY PREDICTED BY RF-SCORE:    0.00 PKD
ROOT
HETATM    1  C   UNL     1     -10.461  18.966  66.019  1.00  0.00    -0.446 C  
HETATM    2  N   UNL     1     -10.349  17.539  65.809  1.00  0.00    -0.603 NA 
HETATM    3  H   UNL     1     -10.029  17.257  64.883  1.00  0.00     0.000 HD 
ENDROOT
BRANCH   2   4
HETATM    4  C   UNL     1     -10.614  16.503  66.688  1.00  0.00    -0.216 C  
HETATM    5  C   UNL     1     -10.637  16.756  68.013  1.00  0.00    -0.347 C  
HETATM    6  O   UNL     1     -11.164  14.594  68.686  1.00  0.00    -0.252 OA 
HETATM    7  N   UNL     1     -10.907  15.759  69.019  1.00  0.00    -0.232 N  
HETATM    8  O   UNL     1     -10.863  16.160  70.190  1.00  0.00    -0.332 OA 
BRANCH   4   9
HETATM    9  N   UNL     1     -10.829  15.241  66.160  1.00  0.00    -0.320 NA 
HETATM   10  H   UNL     1     -11.562  14.703  66.623  1.00  0.00     0.000 HD 
BRANCH   9  11
HETATM   11  C   UNL     1     -10.180  14.562  65.058  1.00  0.00    -0.365 C  
BRANCH  11  12
HETATM   12  C   UNL     1     -10.795  13.176  64.842  1.00  0.00    -0.332 C  
BRANCH  12  13
HETATM   13  S   UNL     1      -9.853  11.848  65.666  1.00  0.00    -0.235 SA 
BRANCH  13  14
HETATM   14  C   UNL     1     -11.059  11.366  66.947  1.00  0.00    -0.295 C  
BRANCH  14  15
HETATM   15  C   UNL     1     -10.661  10.086  67.599  1.00  0.00    -0.284 A  
HETATM   16  C   UNL     1     -10.155   8.962  66.978  1.00  0.00    -0.261 A  
HETATM   17  S   UNL     1      -9.835   7.742  68.136  1.00  0.00    -0.173 SA 
HETATM   18  C   UNL     1     -10.413   8.782  69.378  1.00  0.00    -0.222 A  
HETATM   19  N   UNL     1     -10.843   9.961  68.971  1.00  0.00    -0.222 NA 
BRANCH  18  20
HETATM   20  C   UNL     1     -10.444   8.324  70.817  1.00  0.00    -0.196 C  
BRANCH  20  21
HETATM   21  N   UNL     1     -10.750   6.885  70.991  1.00  0.00    -0.228 NA 
HETATM   22  C   UNL     1      -9.661   6.186  71.682  1.00  0.00    -0.158 C  
HETATM   23  C   UNL     1     -11.989   6.740  71.758  1.00  0.00    -0.339 C  
ENDBRANCH  20  21
ENDBRANCH  18  20
ENDBRANCH  14  15
ENDBRANCH  13  14
ENDBRANCH  12  13
ENDBRANCH  11  12
ENDBRANCH   9  11
ENDBRANCH   4   9
ENDBRANCH   2   4
TORSDOF 9
ENDMDL
MODEL      176
REMARK 921   NORMALIZED FREE ENERGY PREDICTED BY IDOCK:   -3.59 KCAL/MOL
REMARK 922        TOTAL FREE ENERGY PREDICTED BY IDOCK:   -6.54 KCAL/MOL
REMARK 923 INTER-LIGAND FREE ENERGY PREDICTED BY IDOCK:   -6.04 KCAL/MOL
REMARK 924 INTRA-LIGAND FREE ENERGY PREDICTED BY IDOCK:   -0.50 KCAL/MOL
REMARK 927      BINDING AFFINITY PREDICTED BY RF-SCORE:    0.00 PKD
ROOT
HETATM    1  C   UNL     1     -12.155  12.687  63.337  1.00  0.00    -0.525 C  
HETATM    2  N   UNL     1     -12.721  12.805  64.662  1.00  0.00    -0.707 NA 
HETATM    3  H   UNL     1     -13.737  12.721  64.713  1.00  0.00     0.000 HD 
ENDROOT
BRANCH   2   4
HETATM    4  C   UNL     1     -12.081  13.015  65.872  1.00  0.00    -0.444 C  
HETATM    5  C   UNL     1     -12.232  14.203  66.495  1.00  0.00    -0.433 C  
HETATM    6  O   UNL     1     -10.927  13.694  68.351  1.00  0.00    -0.244 OA 
HETATM    7  N   UNL     1     -11.619  14.533  67.758  1.00  0.00    -0.348 N  
HETATM    8  O   UNL     1     -11.844  15.676  68.175  1.00  0.00    -0.286 OA 
BRANCH   4   9
HETATM    9  N   UNL     1     -11.295  11.995  66.379  1.00  0.00    -0.341 NA 
HETATM   10  H   UNL     1     -11.684  11.522  67.195  1.00  0.00     0.000 HD 
BRANCH   9  11
HETATM   11  C   UNL     1     -10.012  11.491  65.937  1.00  0.00    -0.230 C  
BRANCH  11  12
HETATM   12  C   UNL     1     -10.123  10.019  65.525  1.00  0.00    -0.255 C  
BRANCH  12  13
HETATM   13  S   UNL     1      -8.545   9.117  65.691  1.00  0.00    -0.168 SA 
BRANCH  13  14
HETATM   14  C   UNL     1      -9.183   7.451  66.077  1.00  0.00    -0.041 C  
BRANCH  14  15
HETATM   15  C   UNL     1      -9.241   7.231  67.549  1.00  0.00    -0.130 A  
HETATM   16  C   UNL     1      -8.512   6.314  68.279  1.00  0.00    -0.114 A  
HETATM   17  S   UNL     1      -8.908   6.433  69.940  1.00  0.00    -0.143 SA 
HETATM   18  C   UNL     1     -10.036   7.679  69.573  1.00  0.00    -0.192 A  
HETATM   19  N   UNL     1     -10.141   7.983  68.294  1.00  0.00    -0.190 NA 
BRANCH  18  20
HETATM   20  C   UNL     1     -10.855   8.325  70.664  1.00  0.00    -0.236 C  
BRANCH  20  21
HETATM   21  N   UNL     1     -11.367   7.378  71.682  1.00  0.00    -0.251 NA 
HETATM   22  C   UNL     1     -10.861   7.706  73.020  1.00  0.00    -0.400 C  
HETATM   23  C   UNL     1     -12.831   7.415  71.691  1.00  0.00    -0.367 C  
ENDBRANCH  20  21
ENDBRANCH  18  20
ENDBRANCH  14  15
ENDBRANCH  13  14
ENDBRANCH  12  13
ENDBRANCH  11  12
ENDBRANCH   9  11
ENDBRANCH   4   9
ENDBRANCH   2   4
TORSDOF 9
ENDMDL
MODEL      177
REMARK 921   NORMALIZED FREE ENERGY PREDICTED BY IDOCK:   -3.58 KCAL/MOL
REMARK 922        TOTAL FREE ENERGY PREDICTED BY IDOCK:   -6.53 KCAL/MOL
REMARK 923 INTER-LIGAND FREE ENERGY PREDICTED BY IDOCK:   -5.97 KCAL/MOL
REMARK 924 INTRA-LIGAND FREE ENERGY PREDICTED BY IDOCK:   -0.56 KCAL/MOL
REMARK 927      BINDING AFFINITY PREDICTED BY RF-SCORE:    0.00 PKD
ROOT
HETATM    1  C   UNL     1     -10.648   4.537  74.029  1.00  0.00    -0.276 C  
HETATM    2  N   UNL     1     -10.273   5.623  73.151  1.00  0.00    -0.182 NA 
HETATM    3  H   UNL     1      -9.583   6.272  73.529  1.00  0.00     0.000 HD 
ENDROOT
BRANCH   2   4
HETATM    4  C   UNL     1     -10.718   5.907  71.871  1.00  0.00    -0.239 C  
HETATM    5  C   UNL     1     -10.141   5.282  70.824  1.00  0.00    -0.224 C  
HETATM    6  O   UNL     1     -11.453   6.266  69.175  1.00  0.00    -0.394 OA 
HETATM    7  N   UNL     1     -10.525   5.492  69.450  1.00  0.00    -0.284 N  
HETATM    8  O   UNL     1      -9.874   4.855  68.612  1.00  0.00    -0.157 OA 
BRANCH   4   9
HETATM    9  N   UNL     1     -11.731   6.839  71.726  1.00  0.00    -0.296 NA 
HETATM   10  H   UNL     1     -12.511   6.535  71.143  1.00  0.00     0.000 HD 
BRANCH   9  11
HETATM   11  C   UNL     1     -11.861   8.175  72.269  1.00  0.00    -0.382 C  
BRANCH  11  12
HETATM   12  C   UNL     1     -10.827   9.114  71.642  1.00  0.00    -0.372 C  
BRANCH  12  13
HETATM   13  S   UNL     1     -11.559  10.261  70.424  1.00  0.00    -0.349 SA 
BRANCH  13  14
HETATM   14  C   UNL     1     -10.239  10.254  69.164  1.00  0.00    -0.218 C  
BRANCH  14  15
HETATM   15  C   UNL     1     -10.541  11.220  68.071  1.00  0.00    -0.195 A  
HETATM   16  C   UNL     1     -10.445  10.992  66.713  1.00  0.00    -0.251 A  
HETATM   17  S   UNL     1     -10.905  12.394  65.845  1.00  0.00    -0.281 SA 
HETATM   18  C   UNL     1     -11.177  13.214  67.332  1.00  0.00    -0.287 A  
HETATM   19  N   UNL     1     -10.924  12.510  68.418  1.00  0.00    -0.235 NA 
BRANCH  18  20
HETATM   20  C   UNL     1     -11.637  14.652  67.347  1.00  0.00    -0.389 C  
BRANCH  20  21
HETATM   21  N   UNL     1     -10.542  15.641  67.483  1.00  0.00    -0.291 NA 
HETATM   22  C   UNL     1     -10.361  16.412  66.249  1.00  0.00    -0.329 C  
HETATM   23  C   UNL     1     -10.843  16.552  68.590  1.00  0.00    -0.345 C  
ENDBRANCH  20  21
ENDBRANCH  18  20
ENDBRANCH  14  15
ENDBRANCH  13  14
ENDBRANCH  12  13
ENDBRANCH  11  12
ENDBRANCH   9  11
ENDBRANCH   4   9
ENDBRANCH   2   4
TORSDOF 9
ENDMDL
MODEL      178
REMARK 921   NORMALIZED FREE ENERGY PREDICTED BY IDOCK:   -3.57 KCAL/MOL
REMARK 922        TOTAL FREE ENERGY PREDICTED BY IDOCK:   -6.51 KCAL/MOL
REMARK 923 INTER-LIGAND FREE ENERGY PREDICTED BY IDOCK:   -5.98 KCAL/MOL
REMARK 924 INTRA-LIGAND FREE ENERGY PREDICTED BY IDOCK:   -0.54 KCAL/MOL
REMARK 927      BINDING AFFINITY PREDICTED BY RF-SCORE:    0.00 PKD
ROOT
HETATM    1  C   UNL     1      -9.105  15.793  66.233  1.00  0.00    -0.338 C  
HETATM    2  N   UNL     1      -9.317  14.364  66.190  1.00  0.00    -0.490 NA 
HETATM    3  H   UNL     1      -8.488  13.793  66.358  1.00  0.00     0.000 HD 
ENDROOT
BRANCH   2   4
HETATM    4  C   UNL     1     -10.485  13.659  65.953  1.00  0.00    -0.296 C  
HETATM    5  C   UNL     1     -11.070  13.750  64.740  1.00  0.00    -0.377 C  
HETATM    6  O   UNL     1     -12.836  12.306  65.191  1.00  0.00    -0.522 OA 
HETATM    7  N   UNL     1     -12.283  13.059  64.378  1.00  0.00    -0.398 N  
HETATM    8  O   UNL     1     -12.695  13.274  63.230  1.00  0.00    -0.658 OA 
BRANCH   4   9
HETATM    9  N   UNL     1     -11.010  12.903  66.986  1.00  0.00    -0.257 NA 
HETATM   10  H   UNL     1     -11.257  11.946  66.733  1.00  0.00     0.000 HD 
BRANCH   9  11
HETATM   11  C   UNL     1     -11.266  13.251  68.368  1.00  0.00    -0.280 C  
BRANCH  11  12
HETATM   12  C   UNL     1     -10.820  12.120  69.300  1.00  0.00    -0.051 C  
BRANCH  12  13
HETATM   13  S   UNL     1     -12.073  10.802  69.462  1.00  0.00    -0.204 SA 
BRANCH  13  14
HETATM   14  C   UNL     1     -11.310   9.817  70.795  1.00  0.00    -0.342 C  
BRANCH  14  15
HETATM   15  C   UNL     1     -10.988   8.441  70.323  1.00  0.00    -0.232 A  
HETATM   16  C   UNL     1     -11.557   7.261  70.757  1.00  0.00    -0.302 A  
HETATM   17  S   UNL     1     -10.875   5.933  69.919  1.00  0.00    -0.366 SA 
HETATM   18  C   UNL     1      -9.855   7.015  69.055  1.00  0.00    -0.154 A  
HETATM   19  N   UNL     1      -9.984   8.288  69.374  1.00  0.00    -0.184 NA 
BRANCH  18  20
HETATM   20  C   UNL     1      -8.867   6.497  68.036  1.00  0.00    -0.114 C  
BRANCH  20  21
HETATM   21  N   UNL     1      -9.143   6.928  66.646  1.00  0.00    -0.146 NA 
HETATM   22  C   UNL     1      -8.339   8.099  66.280  1.00  0.00    -0.119 C  
HETATM   23  C   UNL     1      -8.851   5.826  65.727  1.00  0.00    -0.146 C  
ENDBRANCH  20  21
ENDBRANCH  18  20
ENDBRANCH  14  15
ENDBRANCH  13  14
ENDBRANCH  12  13
ENDBRANCH  11  12
ENDBRANCH   9  11
ENDBRANCH   4   9
ENDBRANCH   2   4
TORSDOF 9
ENDMDL
MODEL      179
REMARK 921   NORMALIZED FREE ENERGY PREDICTED BY IDOCK:   -3.57 KCAL/MOL
REMARK 922        TOTAL FREE ENERGY PREDICTED BY IDOCK:   -6.51 KCAL/MOL
REMARK 923 INTER-LIGAND FREE ENERGY PREDICTED BY IDOCK:   -6.16 KCAL/MOL
REMARK 924 INTRA-LIGAND FREE ENERGY PREDICTED BY IDOCK:   -0.36 KCAL/MOL
REMARK 927      BINDING AFFINITY PREDICTED BY RF-SCORE:    0.00 PKD
ROOT
HETATM    1  C   UNL     1     -12.947   9.805  71.179  1.00  0.00    -0.348 C  
HETATM    2  N   UNL     1     -12.488  10.092  69.838  1.00  0.00    -0.521 NA 
HETATM    3  H   UNL     1     -13.176   9.948  69.100  1.00  0.00     0.000 HD 
ENDROOT
BRANCH   2   4
HETATM    4  C   UNL     1     -11.246  10.536  69.415  1.00  0.00    -0.269 C  
HETATM    5  C   UNL     1     -10.177   9.724  69.557  1.00  0.00    -0.221 C  
HETATM    6  O   UNL     1      -8.623  11.168  68.607  1.00  0.00    -0.151 OA 
HETATM    7  N   UNL     1      -8.840  10.076  69.149  1.00  0.00    -0.157 N  
HETATM    8  O   UNL     1      -7.973   9.222  69.375  1.00  0.00    -0.090 OA 
BRANCH   4   9
HETATM    9  N   UNL     1     -11.158  11.808  68.878  1.00  0.00    -0.228 NA 
HETATM   10  H   UNL     1     -10.706  12.496  69.481  1.00  0.00     0.000 HD 
BRANCH   9  11
HETATM   11  C   UNL     1     -11.603  12.320  67.599  1.00  0.00    -0.354 C  
BRANCH  11  12
HETATM   12  C   UNL     1     -11.885  13.823  67.688  1.00  0.00    -0.378 C  
BRANCH  12  13
HETATM   13  S   UNL     1     -10.360  14.823  67.790  1.00  0.00    -0.245 SA 
BRANCH  13  14
HETATM   14  C   UNL     1     -11.048  16.360  68.492  1.00  0.00    -0.357 C  
BRANCH  14  15
HETATM   15  C   UNL     1     -10.272  17.548  68.037  1.00  0.00    -0.354 A  
HETATM   16  C   UNL     1     -10.755  18.635  67.336  1.00  0.00    -0.402 A  
HETATM   17  S   UNL     1      -9.494  19.756  67.044  1.00  0.00    -0.390 SA 
HETATM   18  C   UNL     1      -8.390  18.710  67.849  1.00  0.00    -0.272 A  
HETATM   19  N   UNL     1      -8.906  17.581  68.293  1.00  0.00    -0.266 NA 
BRANCH  18  20
HETATM   20  C   UNL     1      -6.933  19.081  67.981  1.00  0.00    -0.232 C  
BRANCH  20  21
HETATM   21  N   UNL     1      -6.544  19.551  69.331  1.00  0.00    -0.327 NA 
HETATM   22  C   UNL     1      -5.738  18.549  70.035  1.00  0.00    -0.239 C  
HETATM   23  C   UNL     1      -5.782  20.797  69.213  1.00  0.00    -0.355 C  
ENDBRANCH  20  21
ENDBRANCH  18  20
ENDBRANCH  14  15
ENDBRANCH  13  14
ENDBRANCH  12  13
ENDBRANCH  11  12
ENDBRANCH   9  11
ENDBRANCH   4   9
ENDBRANCH   2   4
TORSDOF 9
ENDMDL
MODEL      180
REMARK 921   NORMALIZED FREE ENERGY PREDICTED BY IDOCK:   -3.57 KCAL/MOL
REMARK 922        TOTAL FREE ENERGY PREDICTED BY IDOCK:   -6.51 KCAL/MOL
REMARK 923 INTER-LIGAND FREE ENERGY PREDICTED BY IDOCK:   -6.48 KCAL/MOL
REMARK 924 INTRA-LIGAND FREE ENERGY PREDICTED BY IDOCK:   -0.03 KCAL/MOL
REMARK 927      BINDING AFFINITY PREDICTED BY RF-SCORE:    0.00 PKD
ROOT
HETATM    1  C   UNL     1      -8.359   8.876  70.450  1.00  0.00    -0.149 C  
HETATM    2  N   UNL     1      -9.409   9.524  71.203  1.00  0.00    -0.337 NA 
HETATM    3  H   UNL     1      -9.126  10.358  71.719  1.00  0.00     0.000 HD 
ENDROOT
BRANCH   2   4
HETATM    4  C   UNL     1     -10.743   9.174  71.324  1.00  0.00    -0.331 C  
HETATM    5  C   UNL     1     -11.060   7.906  71.659  1.00  0.00    -0.244 C  
HETATM    6  O   UNL     1     -13.366   8.206  71.673  1.00  0.00    -0.335 OA 
HETATM    7  N   UNL     1     -12.411   7.430  71.818  1.00  0.00    -0.326 N  
HETATM    8  O   UNL     1     -12.522   6.230  72.105  1.00  0.00    -0.291 OA 
BRANCH   4   9
HETATM    9  N   UNL     1     -11.696  10.147  71.074  1.00  0.00    -0.366 NA 
HETATM   10  H   UNL     1     -12.224  10.448  71.894  1.00  0.00     0.000 HD 
BRANCH   9  11
HETATM   11  C   UNL     1     -12.065  10.805  69.838  1.00  0.00    -0.337 C  
BRANCH  11  12
HETATM   12  C   UNL     1     -11.994  12.326  69.996  1.00  0.00    -0.304 C  
BRANCH  12  13
HETATM   13  S   UNL     1     -11.747  13.192  68.408  1.00  0.00    -0.359 SA 
BRANCH  13  14
HETATM   14  C   UNL     1     -11.716  14.917  69.000  1.00  0.00    -0.319 C  
BRANCH  14  15
HETATM   15  C   UNL     1     -10.610  15.682  68.357  1.00  0.00    -0.252 A  
HETATM   16  C   UNL     1      -9.787  15.248  67.337  1.00  0.00    -0.217 A  
HETATM   17  S   UNL     1      -8.670  16.477  66.919  1.00  0.00    -0.225 SA 
HETATM   18  C   UNL     1      -9.342  17.490  68.136  1.00  0.00    -0.276 A  
HETATM   19  N   UNL     1     -10.323  16.954  68.836  1.00  0.00    -0.314 NA 
BRANCH  18  20
HETATM   20  C   UNL     1      -8.791  18.875  68.377  1.00  0.00    -0.344 C  
BRANCH  20  21
HETATM   21  N   UNL     1      -9.197  19.876  67.364  1.00  0.00    -0.335 NA 
HETATM   22  C   UNL     1      -8.378  19.774  66.152  1.00  0.00    -0.345 C  
HETATM   23  C   UNL     1     -10.608  19.678  67.020  1.00  0.00    -0.480 C  
ENDBRANCH  20  21
ENDBRANCH  18  20
ENDBRANCH  14  15
ENDBRANCH  13  14
ENDBRANCH  12  13
ENDBRANCH  11  12
ENDBRANCH   9  11
ENDBRANCH   4   9
ENDBRANCH   2   4
TORSDOF 9
ENDMDL
MODEL      181
REMARK 921   NORMALIZED FREE ENERGY PREDICTED BY IDOCK:   -3.56 KCAL/MOL
REMARK 922        TOTAL FREE ENERGY PREDICTED BY IDOCK:   -6.50 KCAL/MOL
REMARK 923 INTER-LIGAND FREE ENERGY PREDICTED BY IDOCK:   -5.99 KCAL/MOL
REMARK 924 INTRA-LIGAND FREE ENERGY PREDICTED BY IDOCK:   -0.51 KCAL/MOL
REMARK 927      BINDING AFFINITY PREDICTED BY RF-SCORE:    0.00 PKD
ROOT
HETATM    1  C   UNL     1     -10.752   5.703  68.334  1.00  0.00    -0.156 C  
HETATM    2  N   UNL     1     -11.571   6.369  69.322  1.00  0.00    -0.607 NA 
HETATM    3  H   UNL     1     -12.552   6.488  69.069  1.00  0.00     0.000 HD 
ENDROOT
BRANCH   2   4
HETATM    4  C   UNL     1     -11.213   6.868  70.563  1.00  0.00    -0.307 C  
HETATM    5  C   UNL     1     -11.190   6.032  71.623  1.00  0.00    -0.268 C  
HETATM    6  O   UNL     1     -10.486   7.606  73.183  1.00  0.00    -0.327 OA 
HETATM    7  N   UNL     1     -10.829   6.437  72.959  1.00  0.00    -0.255 N  
HETATM    8  O   UNL     1     -10.885   5.547  73.818  1.00  0.00    -0.282 OA 
BRANCH   4   9
HETATM    9  N   UNL     1     -10.909   8.214  70.661  1.00  0.00    -0.229 NA 
HETATM   10  H   UNL     1      -9.948   8.417  70.936  1.00  0.00     0.000 HD 
BRANCH   9  11
HETATM   11  C   UNL     1     -11.736   9.381  70.435  1.00  0.00    -0.144 C  
BRANCH  11  12
HETATM   12  C   UNL     1     -10.911  10.517  69.822  1.00  0.00    -0.281 C  
BRANCH  12  13
HETATM   13  S   UNL     1      -9.611   9.915  68.690  1.00  0.00    -0.162 SA 
BRANCH  13  14
HETATM   14  C   UNL     1     -10.638   9.488  67.243  1.00  0.00    -0.248 C  
BRANCH  14  15
HETATM   15  C   UNL     1     -10.516  10.524  66.179  1.00  0.00    -0.168 A  
HETATM   16  C   UNL     1      -9.935  10.371  64.937  1.00  0.00    -0.339 A  
HETATM   17  S   UNL     1     -10.038  11.833  64.052  1.00  0.00    -0.342 SA 
HETATM   18  C   UNL     1     -10.827  12.575  65.389  1.00  0.00    -0.282 A  
HETATM   19  N   UNL     1     -10.991  11.803  66.445  1.00  0.00    -0.284 NA 
BRANCH  18  20
HETATM   20  C   UNL     1     -11.252  14.022  65.328  1.00  0.00    -0.319 C  
BRANCH  20  21
HETATM   21  N   UNL     1     -10.615  14.888  66.347  1.00  0.00    -0.299 NA 
HETATM   22  C   UNL     1     -10.458  16.262  65.860  1.00  0.00    -0.345 C  
HETATM   23  C   UNL     1     -11.431  14.890  67.564  1.00  0.00    -0.348 C  
ENDBRANCH  20  21
ENDBRANCH  18  20
ENDBRANCH  14  15
ENDBRANCH  13  14
ENDBRANCH  12  13
ENDBRANCH  11  12
ENDBRANCH   9  11
ENDBRANCH   4   9
ENDBRANCH   2   4
TORSDOF 9
ENDMDL
MODEL      182
REMARK 921   NORMALIZED FREE ENERGY PREDICTED BY IDOCK:   -3.56 KCAL/MOL
REMARK 922        TOTAL FREE ENERGY PREDICTED BY IDOCK:   -6.50 KCAL/MOL
REMARK 923 INTER-LIGAND FREE ENERGY PREDICTED BY IDOCK:   -6.09 KCAL/MOL
REMARK 924 INTRA-LIGAND FREE ENERGY PREDICTED BY IDOCK:   -0.41 KCAL/MOL
REMARK 927      BINDING AFFINITY PREDICTED BY RF-SCORE:    0.00 PKD
ROOT
HETATM    1  C   UNL     1     -14.108   8.940  71.892  1.00  0.00    -0.388 C  
HETATM    2  N   UNL     1     -13.034   8.603  70.985  1.00  0.00    -0.502 NA 
HETATM    3  H   UNL     1     -13.307   8.062  70.165  1.00  0.00     0.000 HD 
ENDROOT
BRANCH   2   4
HETATM    4  C   UNL     1     -11.687   8.911  71.073  1.00  0.00    -0.289 C  
HETATM    5  C   UNL     1     -10.935   8.302  72.013  1.00  0.00    -0.306 C  
HETATM    6  O   UNL     1      -8.924   9.321  71.445  1.00  0.00    -0.311 OA 
HETATM    7  N   UNL     1      -9.524   8.538  72.194  1.00  0.00    -0.284 N  
HETATM    8  O   UNL     1      -8.995   7.912  73.122  1.00  0.00    -0.189 OA 
BRANCH   4   9
HETATM    9  N   UNL     1     -11.175   9.851  70.194  1.00  0.00    -0.271 NA 
HETATM   10  H   UNL     1     -10.392   9.524  69.628  1.00  0.00     0.000 HD 
BRANCH   9  11
HETATM   11  C   UNL     1     -11.573  11.222  69.951  1.00  0.00    -0.334 C  
BRANCH  11  12
HETATM   12  C   UNL     1     -11.900  11.433  68.470  1.00  0.00    -0.294 C  
BRANCH  12  13
HETATM   13  S   UNL     1     -11.214  12.990  67.808  1.00  0.00    -0.296 SA 
BRANCH  13  14
HETATM   14  C   UNL     1     -11.984  12.986  66.154  1.00  0.00    -0.427 C  
BRANCH  14  15
HETATM   15  C   UNL     1     -11.115  12.289  65.163  1.00  0.00    -0.317 A  
HETATM   16  C   UNL     1     -10.947  12.617  63.833  1.00  0.00    -0.424 A  
HETATM   17  S   UNL     1      -9.842  11.537  63.095  1.00  0.00    -0.341 SA 
HETATM   18  C   UNL     1      -9.681  10.696  64.586  1.00  0.00    -0.302 A  
HETATM   19  N   UNL     1     -10.415  11.163  65.578  1.00  0.00    -0.266 NA 
BRANCH  18  20
HETATM   20  C   UNL     1      -8.780   9.490  64.698  1.00  0.00    -0.205 C  
BRANCH  20  21
HETATM   21  N   UNL     1      -7.918   9.262  63.515  1.00  0.00    -0.135 NA 
HETATM   22  C   UNL     1      -6.502   9.469  63.835  1.00  0.00    -0.100 C  
HETATM   23  C   UNL     1      -8.114   7.895  63.025  1.00  0.00    -0.108 C  
ENDBRANCH  20  21
ENDBRANCH  18  20
ENDBRANCH  14  15
ENDBRANCH  13  14
ENDBRANCH  12  13
ENDBRANCH  11  12
ENDBRANCH   9  11
ENDBRANCH   4   9
ENDBRANCH   2   4
TORSDOF 9
ENDMDL
MODEL      183
REMARK 921   NORMALIZED FREE ENERGY PREDICTED BY IDOCK:   -3.55 KCAL/MOL
REMARK 922        TOTAL FREE ENERGY PREDICTED BY IDOCK:   -6.48 KCAL/MOL
REMARK 923 INTER-LIGAND FREE ENERGY PREDICTED BY IDOCK:   -5.96 KCAL/MOL
REMARK 924 INTRA-LIGAND FREE ENERGY PREDICTED BY IDOCK:   -0.52 KCAL/MOL
REMARK 927      BINDING AFFINITY PREDICTED BY RF-SCORE:    0.00 PKD
ROOT
HETATM    1  C   UNL     1     -11.262  17.277  64.977  1.00  0.00     0.487 C  
HETATM    2  N   UNL     1     -11.526  16.087  64.199  1.00  0.00    -1.123 NA 
HETATM    3  H   UNL     1     -11.429  16.194  63.189  1.00  0.00     0.000 HD 
ENDROOT
BRANCH   2   4
HETATM    4  C   UNL     1     -11.890  14.823  64.630  1.00  0.00    -0.436 C  
HETATM    5  C   UNL     1     -12.064  13.844  63.717  1.00  0.00    -0.285 C  
HETATM    6  O   UNL     1     -12.591  12.162  65.233  1.00  0.00    -0.494 OA 
HETATM    7  N   UNL     1     -12.437  12.491  64.049  1.00  0.00    -0.438 N  
HETATM    8  O   UNL     1     -12.577  11.727  63.085  1.00  0.00    -0.514 OA 
BRANCH   4   9
HETATM    9  N   UNL     1     -12.078  14.627  65.987  1.00  0.00    -0.267 NA 
HETATM   10  H   UNL     1     -13.052  14.519  66.273  1.00  0.00     0.000 HD 
BRANCH   9  11
HETATM   11  C   UNL     1     -11.116  14.551  67.067  1.00  0.00    -0.322 C  
BRANCH  11  12
HETATM   12  C   UNL     1      -9.902  13.716  66.649  1.00  0.00    -0.284 C  
BRANCH  12  13
HETATM   13  S   UNL     1      -8.970  13.060  68.075  1.00  0.00    -0.204 SA 
BRANCH  13  14
HETATM   14  C   UNL     1      -7.286  13.586  67.609  1.00  0.00    -0.174 C  
BRANCH  14  15
HETATM   15  C   UNL     1      -6.949  14.899  68.227  1.00  0.00    -0.117 A  
HETATM   16  C   UNL     1      -5.887  15.171  69.067  1.00  0.00    -0.097 A  
HETATM   17  S   UNL     1      -5.900  16.823  69.518  1.00  0.00    -0.205 SA 
HETATM   18  C   UNL     1      -7.327  17.057  68.585  1.00  0.00    -0.229 A  
HETATM   19  N   UNL     1      -7.792  15.978  67.987  1.00  0.00    -0.135 NA 
BRANCH  18  20
HETATM   20  C   UNL     1      -7.988  18.412  68.515  1.00  0.00    -0.314 C  
BRANCH  20  21
HETATM   21  N   UNL     1      -8.049  18.990  67.152  1.00  0.00    -0.260 NA 
HETATM   22  C   UNL     1      -9.053  20.056  67.066  1.00  0.00    -0.360 C  
HETATM   23  C   UNL     1      -6.734  19.526  66.791  1.00  0.00    -0.195 C  
ENDBRANCH  20  21
ENDBRANCH  18  20
ENDBRANCH  14  15
ENDBRANCH  13  14
ENDBRANCH  12  13
ENDBRANCH  11  12
ENDBRANCH   9  11
ENDBRANCH   4   9
ENDBRANCH   2   4
TORSDOF 9
ENDMDL
MODEL      184
REMARK 921   NORMALIZED FREE ENERGY PREDICTED BY IDOCK:   -3.54 KCAL/MOL
REMARK 922        TOTAL FREE ENERGY PREDICTED BY IDOCK:   -6.47 KCAL/MOL
REMARK 923 INTER-LIGAND FREE ENERGY PREDICTED BY IDOCK:   -5.89 KCAL/MOL
REMARK 924 INTRA-LIGAND FREE ENERGY PREDICTED BY IDOCK:   -0.58 KCAL/MOL
REMARK 927      BINDING AFFINITY PREDICTED BY RF-SCORE:    0.00 PKD
ROOT
HETATM    1  C   UNL     1      -9.625  10.180  64.908  1.00  0.00    -0.306 C  
HETATM    2  N   UNL     1     -10.265   9.650  66.091  1.00  0.00    -0.245 NA 
HETATM    3  H   UNL     1     -10.952  10.263  66.530  1.00  0.00     0.000 HD 
ENDROOT
BRANCH   2   4
HETATM    4  C   UNL     1     -10.078   8.427  66.713  1.00  0.00    -0.303 C  
HETATM    5  C   UNL     1      -9.304   7.498  66.113  1.00  0.00    -0.069 C  
HETATM    6  O   UNL     1      -9.501   5.880  67.771  1.00  0.00    -0.113 OA 
HETATM    7  N   UNL     1      -9.034   6.195  66.668  1.00  0.00    -0.126 N  
HETATM    8  O   UNL     1      -8.322   5.458  65.973  1.00  0.00    -0.114 OA 
BRANCH   4   9
HETATM    9  N   UNL     1     -10.715   8.207  67.922  1.00  0.00    -0.456 NA 
HETATM   10  H   UNL     1     -11.508   7.567  67.878  1.00  0.00     0.000 HD 
BRANCH   9  11
HETATM   11  C   UNL     1     -10.436   8.739  69.240  1.00  0.00    -0.219 C  
BRANCH  11  12
HETATM   12  C   UNL     1     -11.427   8.183  70.267  1.00  0.00    -0.065 C  
BRANCH  12  13
HETATM   13  S   UNL     1     -11.421   9.119  71.835  1.00  0.00    -0.285 SA 
BRANCH  13  14
HETATM   14  C   UNL     1     -13.009  10.003  71.670  1.00  0.00    -0.449 C  
BRANCH  14  15
HETATM   15  C   UNL     1     -12.787  11.447  71.377  1.00  0.00    -0.397 A  
HETATM   16  C   UNL     1     -13.326  12.522  72.055  1.00  0.00    -0.426 A  
HETATM   17  S   UNL     1     -12.777  13.989  71.363  1.00  0.00    -0.373 SA 
HETATM   18  C   UNL     1     -11.882  13.095  70.199  1.00  0.00    -0.257 A  
HETATM   19  N   UNL     1     -11.991  11.784  70.290  1.00  0.00    -0.354 NA 
BRANCH  18  20
HETATM   20  C   UNL     1     -11.070  13.803  69.140  1.00  0.00    -0.240 C  
BRANCH  20  21
HETATM   21  N   UNL     1     -11.861  14.698  68.264  1.00  0.00    -0.318 NA 
HETATM   22  C   UNL     1     -11.234  16.019  68.143  1.00  0.00    -0.325 C  
HETATM   23  C   UNL     1     -11.988  14.093  66.936  1.00  0.00    -0.449 C  
ENDBRANCH  20  21
ENDBRANCH  18  20
ENDBRANCH  14  15
ENDBRANCH  13  14
ENDBRANCH  12  13
ENDBRANCH  11  12
ENDBRANCH   9  11
ENDBRANCH   4   9
ENDBRANCH   2   4
TORSDOF 9
ENDMDL
MODEL      185
REMARK 921   NORMALIZED FREE ENERGY PREDICTED BY IDOCK:   -3.54 KCAL/MOL
REMARK 922        TOTAL FREE ENERGY PREDICTED BY IDOCK:   -6.47 KCAL/MOL
REMARK 923 INTER-LIGAND FREE ENERGY PREDICTED BY IDOCK:   -6.08 KCAL/MOL
REMARK 924 INTRA-LIGAND FREE ENERGY PREDICTED BY IDOCK:   -0.38 KCAL/MOL
REMARK 927      BINDING AFFINITY PREDICTED BY RF-SCORE:    0.00 PKD
ROOT
HETATM    1  C   UNL     1      -9.985  16.973  66.299  1.00  0.00    -0.310 C  
HETATM    2  N   UNL     1     -10.325  15.655  66.785  1.00  0.00    -0.281 NA 
HETATM    3  H   UNL     1      -9.741  15.303  67.543  1.00  0.00     0.000 HD 
ENDROOT
BRANCH   2   4
HETATM    4  C   UNL     1     -11.333  14.802  66.368  1.00  0.00    -0.339 C  
HETATM    5  C   UNL     1     -11.495  14.576  65.047  1.00  0.00    -0.382 C  
HETATM    6  O   UNL     1     -13.271  13.090  65.250  1.00  0.00    -0.636 OA 
HETATM    7  N   UNL     1     -12.504  13.706  64.497  1.00  0.00    -0.327 N  
HETATM    8  O   UNL     1     -12.527  13.632  63.261  1.00  0.00    -0.801 OA 
BRANCH   4   9
HETATM    9  N   UNL     1     -12.145  14.231  67.333  1.00  0.00    -0.567 NA 
HETATM   10  H   UNL     1     -12.848  13.586  66.973  1.00  0.00     0.000 HD 
BRANCH   9  11
HETATM   11  C   UNL     1     -12.156  14.402  68.771  1.00  0.00    -0.241 C  
BRANCH  11  12
HETATM   12  C   UNL     1     -11.842  13.078  69.473  1.00  0.00    -0.323 C  
BRANCH  12  13
HETATM   13  S   UNL     1     -11.469  11.727  68.303  1.00  0.00    -0.327 SA 
BRANCH  13  14
HETATM   14  C   UNL     1      -9.914  11.110  69.033  1.00  0.00    -0.137 C  
BRANCH  14  15
HETATM   15  C   UNL     1      -9.280  10.091  68.150  1.00  0.00    -0.128 A  
HETATM   16  C   UNL     1      -8.691  10.310  66.921  1.00  0.00    -0.126 A  
HETATM   17  S   UNL     1      -8.089   8.839  66.284  1.00  0.00    -0.109 SA 
HETATM   18  C   UNL     1      -8.672   8.010  67.674  1.00  0.00    -0.126 A  
HETATM   19  N   UNL     1      -9.300   8.762  68.557  1.00  0.00    -0.141 NA 
BRANCH  18  20
HETATM   20  C   UNL     1      -8.491   6.517  67.814  1.00  0.00    -0.118 C  
BRANCH  20  21
HETATM   21  N   UNL     1      -9.747   5.771  68.059  1.00  0.00    -0.119 NA 
HETATM   22  C   UNL     1     -10.825   6.234  67.179  1.00  0.00    -0.381 C  
HETATM   23  C   UNL     1      -9.516   4.341  67.840  1.00  0.00    -0.165 C  
ENDBRANCH  20  21
ENDBRANCH  18  20
ENDBRANCH  14  15
ENDBRANCH  13  14
ENDBRANCH  12  13
ENDBRANCH  11  12
ENDBRANCH   9  11
ENDBRANCH   4   9
ENDBRANCH   2   4
TORSDOF 9
ENDMDL
MODEL      186
REMARK 921   NORMALIZED FREE ENERGY PREDICTED BY IDOCK:   -3.53 KCAL/MOL
REMARK 922        TOTAL FREE ENERGY PREDICTED BY IDOCK:   -6.46 KCAL/MOL
REMARK 923 INTER-LIGAND FREE ENERGY PREDICTED BY IDOCK:   -5.97 KCAL/MOL
REMARK 924 INTRA-LIGAND FREE ENERGY PREDICTED BY IDOCK:   -0.49 KCAL/MOL
REMARK 927      BINDING AFFINITY PREDICTED BY RF-SCORE:    0.00 PKD
ROOT
HETATM    1  C   UNL     1     -11.724  12.224  68.554  1.00  0.00    -0.331 C  
HETATM    2  N   UNL     1     -12.243  10.901  68.824  1.00  0.00    -0.793 NA 
HETATM    3  H   UNL     1     -12.663  10.425  68.026  1.00  0.00     0.000 HD 
ENDROOT
BRANCH   2   4
HETATM    4  C   UNL     1     -12.250  10.191  70.012  1.00  0.00    -0.051 C  
HETATM    5  C   UNL     1     -11.543   9.044  70.094  1.00  0.00     0.011 C  
HETATM    6  O   UNL     1     -12.060   8.574  72.311  1.00  0.00    -0.358 OA 
HETATM    7  N   UNL     1     -11.472   8.225  71.278  1.00  0.00    -0.267 N  
HETATM    8  O   UNL     1     -10.797   7.193  71.172  1.00  0.00    -0.235 OA 
BRANCH   4   9
HETATM    9  N   UNL     1     -13.004  10.686  71.062  1.00  0.00    -0.378 NA 
HETATM   10  H   UNL     1     -13.920  10.252  71.172  1.00  0.00     0.000 HD 
BRANCH   9  11
HETATM   11  C   UNL     1     -12.700  11.720  72.029  1.00  0.00     0.017 C  
BRANCH  11  12
HETATM   12  C   UNL     1     -13.393  13.032  71.650  1.00  0.00    -0.292 C  
BRANCH  12  13
HETATM   13  S   UNL     1     -12.326  14.493  71.895  1.00  0.00    -0.274 SA 
BRANCH  13  14
HETATM   14  C   UNL     1     -12.717  15.418  70.372  1.00  0.00    -0.362 C  
BRANCH  14  15
HETATM   15  C   UNL     1     -11.472  15.834  69.667  1.00  0.00    -0.346 A  
HETATM   16  C   UNL     1     -10.175  15.513  70.016  1.00  0.00    -0.273 A  
HETATM   17  S   UNL     1      -9.076  16.209  68.904  1.00  0.00    -0.255 SA 
HETATM   18  C   UNL     1     -10.395  16.906  68.049  1.00  0.00    -0.334 A  
HETATM   19  N   UNL     1     -11.587  16.665  68.560  1.00  0.00    -0.060 NA 
BRANCH  18  20
HETATM   20  C   UNL     1     -10.158  17.759  66.826  1.00  0.00    -0.349 C  
BRANCH  20  21
HETATM   21  N   UNL     1      -9.358  18.980  67.081  1.00  0.00    -0.301 NA 
HETATM   22  C   UNL     1      -8.108  18.970  66.314  1.00  0.00    -0.285 C  
HETATM   23  C   UNL     1     -10.144  20.162  66.720  1.00  0.00    -0.457 C  
ENDBRANCH  20  21
ENDBRANCH  18  20
ENDBRANCH  14  15
ENDBRANCH  13  14
ENDBRANCH  12  13
ENDBRANCH  11  12
ENDBRANCH   9  11
ENDBRANCH   4   9
ENDBRANCH   2   4
TORSDOF 9
ENDMDL
MODEL      187
REMARK 921   NORMALIZED FREE ENERGY PREDICTED BY IDOCK:   -3.53 KCAL/MOL
REMARK 922        TOTAL FREE ENERGY PREDICTED BY IDOCK:   -6.45 KCAL/MOL
REMARK 923 INTER-LIGAND FREE ENERGY PREDICTED BY IDOCK:   -5.92 KCAL/MOL
REMARK 924 INTRA-LIGAND FREE ENERGY PREDICTED BY IDOCK:   -0.53 KCAL/MOL
REMARK 927      BINDING AFFINITY PREDICTED BY RF-SCORE:    0.00 PKD
ROOT
HETATM    1  C   UNL     1     -14.389   7.719  71.493  1.00  0.00    -0.447 C  
HETATM    2  N   UNL     1     -13.023   7.351  71.194  1.00  0.00    -0.559 NA 
HETATM    3  H   UNL     1     -12.901   6.742  70.385  1.00  0.00     0.000 HD 
ENDROOT
BRANCH   2   4
HETATM    4  C   UNL     1     -11.857   7.708  71.850  1.00  0.00    -0.294 C  
HETATM    5  C   UNL     1     -11.361   6.886  72.799  1.00  0.00    -0.199 C  
HETATM    6  O   UNL     1      -9.490   8.169  73.308  1.00  0.00    -0.270 OA 
HETATM    7  N   UNL     1     -10.155   7.150  73.543  1.00  0.00    -0.294 N  
HETATM    8  O   UNL     1      -9.857   6.301  74.393  1.00  0.00    -0.238 OA 
BRANCH   4   9
HETATM    9  N   UNL     1     -11.260   8.910  71.511  1.00  0.00    -0.299 NA 
HETATM   10  H   UNL     1     -10.921   9.457  72.302  1.00  0.00     0.000 HD 
BRANCH   9  11
HETATM   11  C   UNL     1     -11.041   9.515  70.214  1.00  0.00    -0.271 C  
BRANCH  11  12
HETATM   12  C   UNL     1     -10.093   8.656  69.372  1.00  0.00    -0.204 C  
BRANCH  12  13
HETATM   13  S   UNL     1     -10.261   8.966  67.580  1.00  0.00    -0.252 SA 
BRANCH  13  14
HETATM   14  C   UNL     1      -9.204  10.445  67.424  1.00  0.00    -0.142 C  
BRANCH  14  15
HETATM   15  C   UNL     1     -10.029  11.684  67.363  1.00  0.00    -0.183 A  
HETATM   16  C   UNL     1     -11.402  11.761  67.246  1.00  0.00    -0.315 A  
HETATM   17  S   UNL     1     -11.901  13.399  67.225  1.00  0.00    -0.364 SA 
HETATM   18  C   UNL     1     -10.258  13.892  67.349  1.00  0.00    -0.252 A  
HETATM   19  N   UNL     1      -9.377  12.912  67.382  1.00  0.00    -0.187 NA 
BRANCH  18  20
HETATM   20  C   UNL     1      -9.892  15.357  67.378  1.00  0.00    -0.216 C  
BRANCH  20  21
HETATM   21  N   UNL     1      -9.478  15.907  66.067  1.00  0.00    -0.336 NA 
HETATM   22  C   UNL     1     -10.628  16.089  65.175  1.00  0.00    -0.370 C  
HETATM   23  C   UNL     1      -8.805  17.193  66.267  1.00  0.00    -0.231 C  
ENDBRANCH  20  21
ENDBRANCH  18  20
ENDBRANCH  14  15
ENDBRANCH  13  14
ENDBRANCH  12  13
ENDBRANCH  11  12
ENDBRANCH   9  11
ENDBRANCH   4   9
ENDBRANCH   2   4
TORSDOF 9
ENDMDL
MODEL      188
REMARK 921   NORMALIZED FREE ENERGY PREDICTED BY IDOCK:   -3.53 KCAL/MOL
REMARK 922        TOTAL FREE ENERGY PREDICTED BY IDOCK:   -6.45 KCAL/MOL
REMARK 923 INTER-LIGAND FREE ENERGY PREDICTED BY IDOCK:   -5.70 KCAL/MOL
REMARK 924 INTRA-LIGAND FREE ENERGY PREDICTED BY IDOCK:   -0.75 KCAL/MOL
REMARK 927      BINDING AFFINITY PREDICTED BY RF-SCORE:    0.00 PKD
ROOT
HETATM    1  C   UNL     1      -9.864  17.737  67.905  1.00  0.00    -0.306 C  
HETATM    2  N   UNL     1     -10.601  16.514  67.675  1.00  0.00    -0.320 NA 
HETATM    3  H   UNL     1     -10.501  16.112  66.743  1.00  0.00     0.000 HD 
ENDROOT
BRANCH   2   4
HETATM    4  C   UNL     1     -11.422  15.812  68.541  1.00  0.00    -0.379 C  
HETATM    5  C   UNL     1     -11.246  15.955  69.872  1.00  0.00    -0.348 C  
HETATM    6  O   UNL     1     -12.970  14.536  70.519  1.00  0.00    -0.350 OA 
HETATM    7  N   UNL     1     -12.043  15.280  70.866  1.00  0.00    -0.312 N  
HETATM    8  O   UNL     1     -11.730  15.508  72.042  1.00  0.00    -0.377 OA 
BRANCH   4   9
HETATM    9  N   UNL     1     -12.379  14.975  67.995  1.00  0.00    -0.430 NA 
HETATM   10  H   UNL     1     -13.342  15.212  68.236  1.00  0.00     0.000 HD 
BRANCH   9  11
HETATM   11  C   UNL     1     -12.235  13.817  67.138  1.00  0.00    -0.313 C  
BRANCH  11  12
HETATM   12  C   UNL     1     -12.450  14.202  65.671  1.00  0.00    -0.469 C  
BRANCH  12  13
HETATM   13  S   UNL     1     -11.143  13.559  64.571  1.00  0.00    -0.381 SA 
BRANCH  13  14
HETATM   14  C   UNL     1     -11.387  11.768  64.819  1.00  0.00    -0.249 C  
BRANCH  14  15
HETATM   15  C   UNL     1     -10.272  11.184  65.617  1.00  0.00    -0.256 A  
HETATM   16  C   UNL     1     -10.147   9.873  66.030  1.00  0.00    -0.244 A  
HETATM   17  S   UNL     1      -8.694   9.669  66.913  1.00  0.00    -0.131 SA 
HETATM   18  C   UNL     1      -8.343  11.339  66.704  1.00  0.00    -0.163 A  
HETATM   19  N   UNL     1      -9.252  12.027  66.041  1.00  0.00    -0.194 NA 
BRANCH  18  20
HETATM   20  C   UNL     1      -7.089  11.943  67.289  1.00  0.00    -0.143 C  
BRANCH  20  21
HETATM   21  N   UNL     1      -7.327  12.851  68.434  1.00  0.00    -0.112 NA 
HETATM   22  C   UNL     1      -6.474  12.507  69.577  1.00  0.00    -0.083 C  
HETATM   23  C   UNL     1      -7.063  14.233  68.025  1.00  0.00    -0.140 C  
ENDBRANCH  20  21
ENDBRANCH  18  20
ENDBRANCH  14  15
ENDBRANCH  13  14
ENDBRANCH  12  13
ENDBRANCH  11  12
ENDBRANCH   9  11
ENDBRANCH   4   9
ENDBRANCH   2   4
TORSDOF 9
ENDMDL
MODEL      189
REMARK 921   NORMALIZED FREE ENERGY PREDICTED BY IDOCK:   -3.52 KCAL/MOL
REMARK 922        TOTAL FREE ENERGY PREDICTED BY IDOCK:   -6.44 KCAL/MOL
REMARK 923 INTER-LIGAND FREE ENERGY PREDICTED BY IDOCK:   -6.08 KCAL/MOL
REMARK 924 INTRA-LIGAND FREE ENERGY PREDICTED BY IDOCK:   -0.36 KCAL/MOL
REMARK 927      BINDING AFFINITY PREDICTED BY RF-SCORE:    0.00 PKD
ROOT
HETATM    1  C   UNL     1      -6.053  17.040  69.896  1.00  0.00    -0.185 C  
HETATM    2  N   UNL     1      -7.248  16.464  69.320  1.00  0.00    -0.229 NA 
HETATM    3  H   UNL     1      -7.635  15.667  69.824  1.00  0.00     0.000 HD 
ENDROOT
BRANCH   2   4
HETATM    4  C   UNL     1      -7.941  16.843  68.182  1.00  0.00    -0.195 C  
HETATM    5  C   UNL     1      -8.007  18.152  67.861  1.00  0.00    -0.246 C  
HETATM    6  O   UNL     1      -9.246  17.882  65.912  1.00  0.00    -0.519 OA 
HETATM    7  N   UNL     1      -8.694  18.662  66.701  1.00  0.00    -0.294 N  
HETATM    8  O   UNL     1      -8.677  19.893  66.570  1.00  0.00    -0.330 OA 
BRANCH   4   9
HETATM    9  N   UNL     1      -8.552  15.853  67.433  1.00  0.00    -0.167 NA 
HETATM   10  H   UNL     1      -8.361  15.895  66.432  1.00  0.00     0.000 HD 
BRANCH   9  11
HETATM   11  C   UNL     1      -9.418  14.766  67.841  1.00  0.00    -0.201 C  
BRANCH  11  12
HETATM   12  C   UNL     1     -10.364  14.375  66.703  1.00  0.00    -0.275 C  
BRANCH  12  13
HETATM   13  S   UNL     1     -11.679  13.226  67.239  1.00  0.00    -0.380 SA 
BRANCH  13  14
HETATM   14  C   UNL     1     -11.833  13.730  68.986  1.00  0.00    -0.357 C  
BRANCH  14  15
HETATM   15  C   UNL     1     -12.059  12.547  69.863  1.00  0.00    -0.252 A  
HETATM   16  C   UNL     1     -12.878  12.483  70.973  1.00  0.00    -0.157 A  
HETATM   17  S   UNL     1     -12.825  10.913  71.655  1.00  0.00    -0.405 SA 
HETATM   18  C   UNL     1     -11.701  10.435  70.444  1.00  0.00    -0.331 A  
HETATM   19  N   UNL     1     -11.358  11.379  69.590  1.00  0.00    -0.277 NA 
BRANCH  18  20
HETATM   20  C   UNL     1     -11.144   9.032  70.420  1.00  0.00    -0.244 C  
BRANCH  20  21
HETATM   21  N   UNL     1     -11.855   8.079  71.303  1.00  0.00    -0.292 NA 
HETATM   22  C   UNL     1     -11.931   6.744  70.700  1.00  0.00    -0.362 C  
HETATM   23  C   UNL     1     -11.160   7.995  72.590  1.00  0.00    -0.387 C  
ENDBRANCH  20  21
ENDBRANCH  18  20
ENDBRANCH  14  15
ENDBRANCH  13  14
ENDBRANCH  12  13
ENDBRANCH  11  12
ENDBRANCH   9  11
ENDBRANCH   4   9
ENDBRANCH   2   4
TORSDOF 9
ENDMDL
MODEL      190
REMARK 921   NORMALIZED FREE ENERGY PREDICTED BY IDOCK:   -3.52 KCAL/MOL
REMARK 922        TOTAL FREE ENERGY PREDICTED BY IDOCK:   -6.44 KCAL/MOL
REMARK 923 INTER-LIGAND FREE ENERGY PREDICTED BY IDOCK:   -5.89 KCAL/MOL
REMARK 924 INTRA-LIGAND FREE ENERGY PREDICTED BY IDOCK:   -0.55 KCAL/MOL
REMARK 927      BINDING AFFINITY PREDICTED BY RF-SCORE:    0.00 PKD
ROOT
HETATM    1  C   UNL     1      -9.247   9.980  63.753  1.00  0.00    -0.271 C  
HETATM    2  N   UNL     1      -9.084  11.128  64.617  1.00  0.00    -0.362 NA 
HETATM    3  H   UNL     1      -8.213  11.157  65.147  1.00  0.00     0.000 HD 
ENDROOT
BRANCH   2   4
HETATM    4  C   UNL     1      -9.944  12.193  64.828  1.00  0.00    -0.200 C  
HETATM    5  C   UNL     1     -10.894  12.460  63.908  1.00  0.00    -0.420 C  
HETATM    6  O   UNL     1     -11.841  14.266  65.024  1.00  0.00    -0.360 OA 
HETATM    7  N   UNL     1     -11.846  13.537  64.023  1.00  0.00    -0.432 N  
HETATM    8  O   UNL     1     -12.634  13.654  63.075  1.00  0.00    -0.729 OA 
BRANCH   4   9
HETATM    9  N   UNL     1      -9.774  12.949  65.975  1.00  0.00    -0.363 NA 
HETATM   10  H   UNL     1     -10.473  13.679  66.113  1.00  0.00     0.000 HD 
BRANCH   9  11
HETATM   11  C   UNL     1      -8.764  12.872  67.009  1.00  0.00    -0.195 C  
BRANCH  11  12
HETATM   12  C   UNL     1      -9.356  12.295  68.299  1.00  0.00    -0.199 C  
BRANCH  12  13
HETATM   13  S   UNL     1      -8.767  10.603  68.652  1.00  0.00    -0.154 SA 
BRANCH  13  14
HETATM   14  C   UNL     1     -10.049  10.074  69.838  1.00  0.00    -0.246 C  
BRANCH  14  15
HETATM   15  C   UNL     1     -10.421   8.648  69.619  1.00  0.00    -0.220 A  
HETATM   16  C   UNL     1     -10.964   7.781  70.546  1.00  0.00    -0.245 A  
HETATM   17  S   UNL     1     -11.232   6.248  69.834  1.00  0.00    -0.428 SA 
HETATM   18  C   UNL     1     -10.586   6.833  68.351  1.00  0.00    -0.227 A  
HETATM   19  N   UNL     1     -10.171   8.085  68.373  1.00  0.00    -0.203 NA 
BRANCH  18  20
HETATM   20  C   UNL     1     -10.486   5.932  67.144  1.00  0.00    -0.272 C  
BRANCH  20  21
HETATM   21  N   UNL     1      -9.103   5.536  66.793  1.00  0.00    -0.116 NA 
HETATM   22  C   UNL     1      -8.424   4.900  67.927  1.00  0.00    -0.103 C  
HETATM   23  C   UNL     1      -9.134   4.608  65.659  1.00  0.00    -0.142 C  
ENDBRANCH  20  21
ENDBRANCH  18  20
ENDBRANCH  14  15
ENDBRANCH  13  14
ENDBRANCH  12  13
ENDBRANCH  11  12
ENDBRANCH   9  11
ENDBRANCH   4   9
ENDBRANCH   2   4
TORSDOF 9
ENDMDL
MODEL      191
REMARK 921   NORMALIZED FREE ENERGY PREDICTED BY IDOCK:   -3.52 KCAL/MOL
REMARK 922        TOTAL FREE ENERGY PREDICTED BY IDOCK:   -6.44 KCAL/MOL
REMARK 923 INTER-LIGAND FREE ENERGY PREDICTED BY IDOCK:   -5.91 KCAL/MOL
REMARK 924 INTRA-LIGAND FREE ENERGY PREDICTED BY IDOCK:   -0.53 KCAL/MOL
REMARK 927      BINDING AFFINITY PREDICTED BY RF-SCORE:    0.00 PKD
ROOT
HETATM    1  C   UNL     1     -12.357  14.059  65.447  1.00  0.00    -0.478 C  
HETATM    2  N   UNL     1     -12.077  13.407  66.707  1.00  0.00    -0.386 NA 
HETATM    3  H   UNL     1     -12.249  13.972  67.539  1.00  0.00     0.000 HD 
ENDROOT
BRANCH   2   4
HETATM    4  C   UNL     1     -11.609  12.126  66.944  1.00  0.00    -0.341 C  
HETATM    5  C   UNL     1     -10.892  11.502  65.985  1.00  0.00    -0.276 C  
HETATM    6  O   UNL     1     -10.507   9.543  67.176  1.00  0.00    -0.254 OA 
HETATM    7  N   UNL     1     -10.351  10.173  66.121  1.00  0.00    -0.204 N  
HETATM    8  O   UNL     1      -9.739   9.744  65.133  1.00  0.00    -0.294 OA 
BRANCH   4   9
HETATM    9  N   UNL     1     -11.916  11.534  68.157  1.00  0.00    -0.610 NA 
HETATM   10  H   UNL     1     -12.590  10.771  68.101  1.00  0.00     0.000 HD 
BRANCH   9  11
HETATM   11  C   UNL     1     -11.434  11.825  69.491  1.00  0.00    -0.295 C  
BRANCH  11  12
HETATM   12  C   UNL     1     -12.598  11.871  70.486  1.00  0.00    -0.128 C  
BRANCH  12  13
HETATM   13  S   UNL     1     -12.796  10.312  71.415  1.00  0.00    -0.476 SA 
BRANCH  13  14
HETATM   14  C   UNL     1     -11.083   9.691  71.341  1.00  0.00    -0.326 C  
BRANCH  14  15
HETATM   15  C   UNL     1     -11.025   8.244  71.693  1.00  0.00    -0.264 A  
HETATM   16  C   UNL     1     -11.358   7.672  72.904  1.00  0.00    -0.341 A  
HETATM   17  S   UNL     1     -11.141   5.975  72.835  1.00  0.00    -0.232 SA 
HETATM   18  C   UNL     1     -10.598   6.120  71.210  1.00  0.00    -0.243 A  
HETATM   19  N   UNL     1     -10.553   7.351  70.739  1.00  0.00    -0.221 NA 
BRANCH  18  20
HETATM   20  C   UNL     1     -10.176   4.900  70.426  1.00  0.00    -0.222 C  
BRANCH  20  21
HETATM   21  N   UNL     1      -9.170   4.055  71.110  1.00  0.00    -0.119 NA 
HETATM   22  C   UNL     1      -9.391   2.631  70.834  1.00  0.00    -0.147 C  
HETATM   23  C   UNL     1      -7.828   4.437  70.665  1.00  0.00    -0.056 C  
ENDBRANCH  20  21
ENDBRANCH  18  20
ENDBRANCH  14  15
ENDBRANCH  13  14
ENDBRANCH  12  13
ENDBRANCH  11  12
ENDBRANCH   9  11
ENDBRANCH   4   9
ENDBRANCH   2   4
TORSDOF 9
ENDMDL
MODEL      192
REMARK 921   NORMALIZED FREE ENERGY PREDICTED BY IDOCK:   -3.52 KCAL/MOL
REMARK 922        TOTAL FREE ENERGY PREDICTED BY IDOCK:   -6.44 KCAL/MOL
REMARK 923 INTER-LIGAND FREE ENERGY PREDICTED BY IDOCK:   -5.90 KCAL/MOL
REMARK 924 INTRA-LIGAND FREE ENERGY PREDICTED BY IDOCK:   -0.54 KCAL/MOL
REMARK 927      BINDING AFFINITY PREDICTED BY RF-SCORE:    0.00 PKD
ROOT
HETATM    1  C   UNL     1     -10.796   5.631  69.953  1.00  0.00    -0.300 C  
HETATM    2  N   UNL     1     -10.511   6.751  70.822  1.00  0.00    -0.211 NA 
HETATM    3  H   UNL     1     -10.805   6.638  71.792  1.00  0.00     0.000 HD 
ENDROOT
BRANCH   2   4
HETATM    4  C   UNL     1      -9.897   7.955  70.523  1.00  0.00    -0.186 C  
HETATM    5  C   UNL     1      -8.782   7.951  69.762  1.00  0.00    -0.137 C  
HETATM    6  O   UNL     1      -8.473  10.255  69.736  1.00  0.00    -0.159 OA 
HETATM    7  N   UNL     1      -8.062   9.141  69.383  1.00  0.00    -0.098 N  
HETATM    8  O   UNL     1      -7.046   8.953  68.701  1.00  0.00    -0.069 OA 
BRANCH   4   9
HETATM    9  N   UNL     1     -10.449   9.114  71.040  1.00  0.00    -0.271 NA 
HETATM   10  H   UNL     1      -9.789   9.880  71.173  1.00  0.00     0.000 HD 
BRANCH   9  11
HETATM   11  C   UNL     1     -11.814   9.413  71.422  1.00  0.00    -0.374 C  
BRANCH  11  12
HETATM   12  C   UNL     1     -12.139  10.885  71.150  1.00  0.00    -0.281 C  
BRANCH  12  13
HETATM   13  S   UNL     1     -11.616  11.429  69.487  1.00  0.00    -0.361 SA 
BRANCH  13  14
HETATM   14  C   UNL     1     -12.144  13.174  69.555  1.00  0.00    -0.238 C  
BRANCH  14  15
HETATM   15  C   UNL     1     -11.694  13.915  68.343  1.00  0.00    -0.356 A  
HETATM   16  C   UNL     1     -10.992  15.103  68.311  1.00  0.00    -0.276 A  
HETATM   17  S   UNL     1     -10.691  15.565  66.690  1.00  0.00    -0.285 SA 
HETATM   18  C   UNL     1     -11.532  14.168  66.144  1.00  0.00    -0.347 A  
HETATM   19  N   UNL     1     -12.034  13.405  67.096  1.00  0.00    -0.379 NA 
BRANCH  18  20
HETATM   20  C   UNL     1     -11.694  13.893  64.668  1.00  0.00    -0.397 C  
BRANCH  20  21
HETATM   21  N   UNL     1     -11.565  12.464  64.298  1.00  0.00    -0.344 NA 
HETATM   22  C   UNL     1     -12.669  12.033  63.434  1.00  0.00    -0.398 C  
HETATM   23  C   UNL     1     -10.291  12.253  63.605  1.00  0.00    -0.432 C  
ENDBRANCH  20  21
ENDBRANCH  18  20
ENDBRANCH  14  15
ENDBRANCH  13  14
ENDBRANCH  12  13
ENDBRANCH  11  12
ENDBRANCH   9  11
ENDBRANCH   4   9
ENDBRANCH   2   4
TORSDOF 9
ENDMDL
MODEL      193
REMARK 921   NORMALIZED FREE ENERGY PREDICTED BY IDOCK:   -3.52 KCAL/MOL
REMARK 922        TOTAL FREE ENERGY PREDICTED BY IDOCK:   -6.44 KCAL/MOL
REMARK 923 INTER-LIGAND FREE ENERGY PREDICTED BY IDOCK:   -6.36 KCAL/MOL
REMARK 924 INTRA-LIGAND FREE ENERGY PREDICTED BY IDOCK:   -0.08 KCAL/MOL
REMARK 927      BINDING AFFINITY PREDICTED BY RF-SCORE:    0.00 PKD
ROOT
HETATM    1  C   UNL     1      -8.945   9.855  69.798  1.00  0.00    -0.221 C  
HETATM    2  N   UNL     1     -10.368   9.883  69.539  1.00  0.00    -0.213 NA 
HETATM    3  H   UNL     1     -10.657   9.487  68.645  1.00  0.00     0.000 HD 
ENDROOT
BRANCH   2   4
HETATM    4  C   UNL     1     -11.392  10.370  70.333  1.00  0.00    -0.337 C  
HETATM    5  C   UNL     1     -12.184   9.497  70.990  1.00  0.00    -0.304 C  
HETATM    6  O   UNL     1     -13.516  11.088  72.039  1.00  0.00    -0.378 OA 
HETATM    7  N   UNL     1     -13.275   9.888  71.847  1.00  0.00    -0.436 N  
HETATM    8  O   UNL     1     -13.915   8.956  72.352  1.00  0.00    -0.454 OA 
BRANCH   4   9
HETATM    9  N   UNL     1     -11.567  11.742  70.401  1.00  0.00    -0.506 NA 
HETATM   10  H   UNL     1     -11.319  12.160  71.298  1.00  0.00     0.000 HD 
BRANCH   9  11
HETATM   11  C   UNL     1     -12.044  12.678  69.404  1.00  0.00    -0.179 C  
BRANCH  11  12
HETATM   12  C   UNL     1     -10.868  13.343  68.683  1.00  0.00    -0.263 C  
BRANCH  12  13
HETATM   13  S   UNL     1     -11.395  14.671  67.546  1.00  0.00    -0.360 SA 
BRANCH  13  14
HETATM   14  C   UNL     1     -11.522  16.055  68.729  1.00  0.00    -0.375 C  
BRANCH  14  15
HETATM   15  C   UNL     1     -10.505  17.103  68.435  1.00  0.00    -0.376 A  
HETATM   16  C   UNL     1     -10.691  18.257  67.702  1.00  0.00    -0.348 A  
HETATM   17  S   UNL     1      -9.237  19.159  67.642  1.00  0.00    -0.306 SA 
HETATM   18  C   UNL     1      -8.455  17.944  68.574  1.00  0.00    -0.298 A  
HETATM   19  N   UNL     1      -9.209  16.912  68.900  1.00  0.00    -0.255 NA 
BRANCH  18  20
HETATM   20  C   UNL     1      -6.996  18.072  68.941  1.00  0.00    -0.260 C  
BRANCH  20  21
HETATM   21  N   UNL     1      -6.152  16.944  68.483  1.00  0.00    -0.142 NA 
HETATM   22  C   UNL     1      -6.287  15.782  69.368  1.00  0.00    -0.154 C  
HETATM   23  C   UNL     1      -6.536  16.569  67.120  1.00  0.00    -0.194 C  
ENDBRANCH  20  21
ENDBRANCH  18  20
ENDBRANCH  14  15
ENDBRANCH  13  14
ENDBRANCH  12  13
ENDBRANCH  11  12
ENDBRANCH   9  11
ENDBRANCH   4   9
ENDBRANCH   2   4
TORSDOF 9
ENDMDL
MODEL      194
REMARK 921   NORMALIZED FREE ENERGY PREDICTED BY IDOCK:   -3.51 KCAL/MOL
REMARK 922        TOTAL FREE ENERGY PREDICTED BY IDOCK:   -6.42 KCAL/MOL
REMARK 923 INTER-LIGAND FREE ENERGY PREDICTED BY IDOCK:   -5.92 KCAL/MOL
REMARK 924 INTRA-LIGAND FREE ENERGY PREDICTED BY IDOCK:   -0.50 KCAL/MOL
REMARK 927      BINDING AFFINITY PREDICTED BY RF-SCORE:    0.00 PKD
ROOT
HETATM    1  C   UNL     1     -14.290   7.852  71.707  1.00  0.00    -0.475 C  
HETATM    2  N   UNL     1     -13.239   7.379  70.833  1.00  0.00    -0.603 NA 
HETATM    3  H   UNL     1     -13.547   7.042  69.922  1.00  0.00     0.000 HD 
ENDROOT
BRANCH   2   4
HETATM    4  C   UNL     1     -11.874   7.321  71.058  1.00  0.00    -0.318 C  
HETATM    5  C   UNL     1     -11.251   6.126  70.997  1.00  0.00    -0.296 C  
HETATM    6  O   UNL     1      -9.111   6.922  71.435  1.00  0.00    -0.148 OA 
HETATM    7  N   UNL     1      -9.836   5.944  71.208  1.00  0.00    -0.173 N  
HETATM    8  O   UNL     1      -9.434   4.775  71.139  1.00  0.00    -0.140 OA 
BRANCH   4   9
HETATM    9  N   UNL     1     -11.212   8.500  71.356  1.00  0.00    -0.251 NA 
HETATM   10  H   UNL     1     -10.927   8.596  72.331  1.00  0.00     0.000 HD 
BRANCH   9  11
HETATM   11  C   UNL     1     -10.859   9.618  70.506  1.00  0.00    -0.309 C  
BRANCH  11  12
HETATM   12  C   UNL     1     -10.647   9.152  69.063  1.00  0.00    -0.199 C  
BRANCH  12  13
HETATM   13  S   UNL     1     -10.906  10.486  67.843  1.00  0.00    -0.302 SA 
BRANCH  13  14
HETATM   14  C   UNL     1      -9.653  11.679  68.424  1.00  0.00    -0.195 C  
BRANCH  14  15
HETATM   15  C   UNL     1     -10.169  13.074  68.344  1.00  0.00    -0.245 A  
HETATM   16  C   UNL     1     -11.465  13.464  68.074  1.00  0.00    -0.304 A  
HETATM   17  S   UNL     1     -11.584  15.172  68.098  1.00  0.00    -0.304 SA 
HETATM   18  C   UNL     1      -9.902  15.276  68.442  1.00  0.00    -0.216 A  
HETATM   19  N   UNL     1      -9.270  14.120  68.516  1.00  0.00    -0.201 NA 
BRANCH  18  20
HETATM   20  C   UNL     1      -9.228  16.617  68.604  1.00  0.00    -0.248 C  
BRANCH  20  21
HETATM   21  N   UNL     1      -9.904  17.727  67.893  1.00  0.00    -0.294 NA 
HETATM   22  C   UNL     1      -9.914  18.952  68.700  1.00  0.00    -0.412 C  
HETATM   23  C   UNL     1      -9.218  17.983  66.624  1.00  0.00    -0.284 C  
ENDBRANCH  20  21
ENDBRANCH  18  20
ENDBRANCH  14  15
ENDBRANCH  13  14
ENDBRANCH  12  13
ENDBRANCH  11  12
ENDBRANCH   9  11
ENDBRANCH   4   9
ENDBRANCH   2   4
TORSDOF 9
ENDMDL
MODEL      195
REMARK 921   NORMALIZED FREE ENERGY PREDICTED BY IDOCK:   -3.50 KCAL/MOL
REMARK 922        TOTAL FREE ENERGY PREDICTED BY IDOCK:   -6.41 KCAL/MOL
REMARK 923 INTER-LIGAND FREE ENERGY PREDICTED BY IDOCK:   -5.88 KCAL/MOL
REMARK 924 INTRA-LIGAND FREE ENERGY PREDICTED BY IDOCK:   -0.54 KCAL/MOL
REMARK 927      BINDING AFFINITY PREDICTED BY RF-SCORE:    0.00 PKD
ROOT
HETATM    1  C   UNL     1      -6.714  16.479  68.073  1.00  0.00    -0.137 C  
HETATM    2  N   UNL     1      -7.684  17.221  68.847  1.00  0.00    -0.249 NA 
HETATM    3  H   UNL     1      -7.493  17.280  69.847  1.00  0.00     0.000 HD 
ENDROOT
BRANCH   2   4
HETATM    4  C   UNL     1      -8.836  17.863  68.423  1.00  0.00    -0.289 C  
HETATM    5  C   UNL     1      -8.754  18.754  67.413  1.00  0.00    -0.273 C  
HETATM    6  O   UNL     1     -11.019  19.278  67.341  1.00  0.00    -0.484 OA 
HETATM    7  N   UNL     1      -9.884  19.478  66.885  1.00  0.00    -0.344 N  
HETATM    8  O   UNL     1      -9.627  20.275  65.973  1.00  0.00    -0.350 OA 
BRANCH   4   9
HETATM    9  N   UNL     1     -10.022  17.570  69.074  1.00  0.00    -0.293 NA 
HETATM   10  H   UNL     1     -10.566  18.385  69.357  1.00  0.00     0.000 HD 
BRANCH   9  11
HETATM   11  C   UNL     1     -10.614  16.294  69.416  1.00  0.00    -0.301 C  
BRANCH  11  12
HETATM   12  C   UNL     1     -11.173  15.607  68.167  1.00  0.00    -0.345 C  
BRANCH  12  13
HETATM   13  S   UNL     1     -11.847  13.946  68.515  1.00  0.00    -0.365 SA 
BRANCH  13  14
HETATM   14  C   UNL     1     -11.973  13.303  66.812  1.00  0.00    -0.382 C  
BRANCH  14  15
HETATM   15  C   UNL     1     -11.285  11.987  66.687  1.00  0.00    -0.327 A  
HETATM   16  C   UNL     1     -11.184  11.010  67.656  1.00  0.00    -0.305 A  
HETATM   17  S   UNL     1     -10.309   9.668  67.051  1.00  0.00    -0.236 SA 
HETATM   18  C   UNL     1     -10.105  10.487  65.553  1.00  0.00    -0.283 A  
HETATM   19  N   UNL     1     -10.630  11.696  65.496  1.00  0.00    -0.271 NA 
BRANCH  18  20
HETATM   20  C   UNL     1      -9.339   9.846  64.421  1.00  0.00    -0.265 C  
BRANCH  20  21
HETATM   21  N   UNL     1      -8.026   9.286  64.814  1.00  0.00    -0.117 NA 
HETATM   22  C   UNL     1      -7.896   7.884  64.403  1.00  0.00    -0.139 C  
HETATM   23  C   UNL     1      -6.955  10.077  64.201  1.00  0.00    -0.124 C  
ENDBRANCH  20  21
ENDBRANCH  18  20
ENDBRANCH  14  15
ENDBRANCH  13  14
ENDBRANCH  12  13
ENDBRANCH  11  12
ENDBRANCH   9  11
ENDBRANCH   4   9
ENDBRANCH   2   4
TORSDOF 9
ENDMDL
MODEL      196
REMARK 921   NORMALIZED FREE ENERGY PREDICTED BY IDOCK:   -3.50 KCAL/MOL
REMARK 922        TOTAL FREE ENERGY PREDICTED BY IDOCK:   -6.41 KCAL/MOL
REMARK 923 INTER-LIGAND FREE ENERGY PREDICTED BY IDOCK:   -5.91 KCAL/MOL
REMARK 924 INTRA-LIGAND FREE ENERGY PREDICTED BY IDOCK:   -0.49 KCAL/MOL
REMARK 927      BINDING AFFINITY PREDICTED BY RF-SCORE:    0.00 PKD
ROOT
HETATM    1  C   UNL     1     -11.204  15.913  64.720  1.00  0.00    -0.355 C  
HETATM    2  N   UNL     1     -10.274  16.127  65.807  1.00  0.00    -0.359 NA 
HETATM    3  H   UNL     1      -9.495  15.470  65.851  1.00  0.00     0.000 HD 
ENDROOT
BRANCH   2   4
HETATM    4  C   UNL     1     -10.291  17.097  66.795  1.00  0.00    -0.302 C  
HETATM    5  C   UNL     1      -9.656  18.267  66.576  1.00  0.00    -0.320 C  
HETATM    6  O   UNL     1     -10.202  19.248  68.612  1.00  0.00    -0.411 OA 
HETATM    7  N   UNL     1      -9.611  19.349  67.528  1.00  0.00    -0.315 N  
HETATM    8  O   UNL     1      -8.963  20.343  67.173  1.00  0.00    -0.351 OA 
BRANCH   4   9
HETATM    9  N   UNL     1     -10.950  16.809  67.978  1.00  0.00    -0.338 NA 
HETATM   10  H   UNL     1     -11.762  17.396  68.168  1.00  0.00     0.000 HD 
BRANCH   9  11
HETATM   11  C   UNL     1     -10.673  15.809  68.987  1.00  0.00    -0.235 C  
BRANCH  11  12
HETATM   12  C   UNL     1     -11.887  14.897  69.190  1.00  0.00    -0.307 C  
BRANCH  12  13
HETATM   13  S   UNL     1     -11.676  13.257  68.416  1.00  0.00    -0.367 SA 
BRANCH  13  14
HETATM   14  C   UNL     1     -11.684  12.209  69.909  1.00  0.00    -0.287 C  
BRANCH  14  15
HETATM   15  C   UNL     1     -11.142  10.853  69.612  1.00  0.00    -0.266 A  
HETATM   16  C   UNL     1     -10.606   9.959  70.516  1.00  0.00    -0.293 A  
HETATM   17  S   UNL     1     -10.124   8.526  69.712  1.00  0.00    -0.202 SA 
HETATM   18  C   UNL     1     -10.640   9.201  68.217  1.00  0.00    -0.174 A  
HETATM   19  N   UNL     1     -11.123  10.426  68.290  1.00  0.00    -0.280 NA 
BRANCH  18  20
HETATM   20  C   UNL     1     -10.498   8.425  66.930  1.00  0.00    -0.289 C  
BRANCH  20  21
HETATM   21  N   UNL     1      -9.127   7.929  66.666  1.00  0.00    -0.155 NA 
HETATM   22  C   UNL     1      -9.137   6.525  66.244  1.00  0.00    -0.148 C  
HETATM   23  C   UNL     1      -8.504   8.749  65.624  1.00  0.00    -0.160 C  
ENDBRANCH  20  21
ENDBRANCH  18  20
ENDBRANCH  14  15
ENDBRANCH  13  14
ENDBRANCH  12  13
ENDBRANCH  11  12
ENDBRANCH   9  11
ENDBRANCH   4   9
ENDBRANCH   2   4
TORSDOF 9
ENDMDL
MODEL      197
REMARK 921   NORMALIZED FREE ENERGY PREDICTED BY IDOCK:   -3.50 KCAL/MOL
REMARK 922        TOTAL FREE ENERGY PREDICTED BY IDOCK:   -6.41 KCAL/MOL
REMARK 923 INTER-LIGAND FREE ENERGY PREDICTED BY IDOCK:   -6.01 KCAL/MOL
REMARK 924 INTRA-LIGAND FREE ENERGY PREDICTED BY IDOCK:   -0.40 KCAL/MOL
REMARK 927      BINDING AFFINITY PREDICTED BY RF-SCORE:    0.00 PKD
ROOT
HETATM    1  C   UNL     1      -7.535   8.409  71.980  1.00  0.00    -0.105 C  
HETATM    2  N   UNL     1      -8.908   8.857  71.908  1.00  0.00    -0.374 NA 
HETATM    3  H   UNL     1      -9.051   9.855  72.062  1.00  0.00     0.000 HD 
ENDROOT
BRANCH   2   4
HETATM    4  C   UNL     1     -10.055   8.123  71.659  1.00  0.00    -0.199 C  
HETATM    5  C   UNL     1     -10.333   7.057  72.439  1.00  0.00    -0.203 C  
HETATM    6  O   UNL     1     -12.333   6.485  71.400  1.00  0.00    -0.324 OA 
HETATM    7  N   UNL     1     -11.498   6.224  72.278  1.00  0.00    -0.294 N  
HETATM    8  O   UNL     1     -11.585   5.272  73.065  1.00  0.00    -0.313 OA 
BRANCH   4   9
HETATM    9  N   UNL     1     -10.861   8.511  70.602  1.00  0.00    -0.220 NA 
HETATM   10  H   UNL     1     -11.854   8.317  70.728  1.00  0.00     0.000 HD 
BRANCH   9  11
HETATM   11  C   UNL     1     -10.519   9.150  69.348  1.00  0.00    -0.219 C  
BRANCH  11  12
HETATM   12  C   UNL     1     -11.396  10.384  69.116  1.00  0.00    -0.226 C  
BRANCH  12  13
HETATM   13  S   UNL     1     -10.471  11.784  68.397  1.00  0.00    -0.221 SA 
BRANCH  13  14
HETATM   14  C   UNL     1     -11.622  12.260  67.064  1.00  0.00    -0.349 C  
BRANCH  14  15
HETATM   15  C   UNL     1     -11.292  13.613  66.533  1.00  0.00    -0.319 A  
HETATM   16  C   UNL     1     -11.136  13.968  65.208  1.00  0.00    -0.325 A  
HETATM   17  S   UNL     1     -10.770  15.636  65.084  1.00  0.00    -0.425 SA 
HETATM   18  C   UNL     1     -10.823  15.766  66.798  1.00  0.00    -0.254 A  
HETATM   19  N   UNL     1     -11.072  14.642  67.441  1.00  0.00    -0.315 NA 
BRANCH  18  20
HETATM   20  C   UNL     1     -10.558  17.087  67.480  1.00  0.00    -0.310 C  
BRANCH  20  21
HETATM   21  N   UNL     1      -9.788  18.052  66.661  1.00  0.00    -0.334 NA 
HETATM   22  C   UNL     1     -10.377  19.394  66.720  1.00  0.00    -0.443 C  
HETATM   23  C   UNL     1      -8.404  18.103  67.139  1.00  0.00    -0.238 C  
ENDBRANCH  20  21
ENDBRANCH  18  20
ENDBRANCH  14  15
ENDBRANCH  13  14
ENDBRANCH  12  13
ENDBRANCH  11  12
ENDBRANCH   9  11
ENDBRANCH   4   9
ENDBRANCH   2   4
TORSDOF 9
ENDMDL
MODEL      198
REMARK 921   NORMALIZED FREE ENERGY PREDICTED BY IDOCK:   -3.50 KCAL/MOL
REMARK 922        TOTAL FREE ENERGY PREDICTED BY IDOCK:   -6.40 KCAL/MOL
REMARK 923 INTER-LIGAND FREE ENERGY PREDICTED BY IDOCK:   -5.27 KCAL/MOL
REMARK 924 INTRA-LIGAND FREE ENERGY PREDICTED BY IDOCK:   -1.13 KCAL/MOL
REMARK 927      BINDING AFFINITY PREDICTED BY RF-SCORE:    0.00 PKD
ROOT
HETATM    1  C   UNL     1     -12.245  12.975  65.739  1.00  0.00    -0.453 C  
HETATM    2  N   UNL     1     -12.052  12.046  66.830  1.00  0.00    -0.545 NA 
HETATM    3  H   UNL     1     -12.881  11.524  67.113  1.00  0.00     0.000 HD 
ENDROOT
BRANCH   2   4
HETATM    4  C   UNL     1     -10.900  11.765  67.546  1.00  0.00    -0.239 C  
HETATM    5  C   UNL     1      -9.708  12.161  67.052  1.00  0.00    -0.202 C  
HETATM    6  O   UNL     1      -8.414  11.359  68.809  1.00  0.00    -0.151 OA 
HETATM    7  N   UNL     1      -8.447  11.929  67.710  1.00  0.00    -0.146 N  
HETATM    8  O   UNL     1      -7.448  12.339  67.104  1.00  0.00    -0.151 OA 
BRANCH   4   9
HETATM    9  N   UNL     1     -11.026  11.069  68.736  1.00  0.00    -0.203 NA 
HETATM   10  H   UNL     1     -10.589  10.147  68.740  1.00  0.00     0.000 HD 
BRANCH   9  11
HETATM   11  C   UNL     1     -11.679  11.439  69.975  1.00  0.00    -0.334 C  
BRANCH  11  12
HETATM   12  C   UNL     1     -12.907  10.557  70.221  1.00  0.00    -0.129 C  
BRANCH  12  13
HETATM   13  S   UNL     1     -12.813   9.638  71.796  1.00  0.00    -0.445 SA 
BRANCH  13  14
HETATM   14  C   UNL     1     -11.064   9.122  71.746  1.00  0.00    -0.367 C  
BRANCH  14  15
HETATM   15  C   UNL     1     -10.852   8.055  70.728  1.00  0.00    -0.232 A  
HETATM   16  C   UNL     1     -11.570   6.884  70.593  1.00  0.00    -0.353 A  
HETATM   17  S   UNL     1     -10.969   5.973  69.273  1.00  0.00    -0.334 SA 
HETATM   18  C   UNL     1      -9.784   7.186  68.987  1.00  0.00    -0.150 A  
HETATM   19  N   UNL     1      -9.804   8.202  69.827  1.00  0.00    -0.184 NA 
BRANCH  18  20
HETATM   20  C   UNL     1      -8.785   7.038  67.864  1.00  0.00    -0.125 C  
BRANCH  20  21
HETATM   21  N   UNL     1      -9.368   7.172  66.509  1.00  0.00    -0.169 NA 
HETATM   22  C   UNL     1      -9.479   8.579  66.110  1.00  0.00    -0.217 C  
HETATM   23  C   UNL     1      -8.529   6.455  65.545  1.00  0.00    -0.139 C  
ENDBRANCH  20  21
ENDBRANCH  18  20
ENDBRANCH  14  15
ENDBRANCH  13  14
ENDBRANCH  12  13
ENDBRANCH  11  12
ENDBRANCH   9  11
ENDBRANCH   4   9
ENDBRANCH   2   4
TORSDOF 9
ENDMDL
MODEL      199
REMARK 921   NORMALIZED FREE ENERGY PREDICTED BY IDOCK:   -3.49 KCAL/MOL
REMARK 922        TOTAL FREE ENERGY PREDICTED BY IDOCK:   -6.38 KCAL/MOL
REMARK 923 INTER-LIGAND FREE ENERGY PREDICTED BY IDOCK:   -5.79 KCAL/MOL
REMARK 924 INTRA-LIGAND FREE ENERGY PREDICTED BY IDOCK:   -0.59 KCAL/MOL
REMARK 927      BINDING AFFINITY PREDICTED BY RF-SCORE:    0.00 PKD
ROOT
HETATM    1  C   UNL     1      -6.336   7.863  70.141  1.00  0.00    -0.033 C  
HETATM    2  N   UNL     1      -7.666   7.967  70.697  1.00  0.00    -0.086 NA 
HETATM    3  H   UNL     1      -7.758   8.593  71.497  1.00  0.00     0.000 HD 
ENDROOT
BRANCH   2   4
HETATM    4  C   UNL     1      -8.833   7.338  70.297  1.00  0.00    -0.147 C  
HETATM    5  C   UNL     1      -8.876   5.989  70.276  1.00  0.00    -0.144 C  
HETATM    6  O   UNL     1     -11.082   5.807  69.566  1.00  0.00    -0.366 OA 
HETATM    7  N   UNL     1     -10.035   5.227  69.884  1.00  0.00    -0.216 N  
HETATM    8  O   UNL     1      -9.893   3.997  69.899  1.00  0.00    -0.209 OA 
BRANCH   4   9
HETATM    9  N   UNL     1      -9.903   8.130  69.919  1.00  0.00    -0.184 NA 
HETATM   10  H   UNL     1     -10.516   7.714  69.218  1.00  0.00     0.000 HD 
BRANCH   9  11
HETATM   11  C   UNL     1     -10.292   9.454  70.358  1.00  0.00    -0.262 C  
BRANCH  11  12
HETATM   12  C   UNL     1     -11.336   9.366  71.475  1.00  0.00    -0.394 C  
BRANCH  12  13
HETATM   13  S   UNL     1     -12.974   9.988  70.964  1.00  0.00    -0.333 SA 
BRANCH  13  14
HETATM   14  C   UNL     1     -12.921  11.650  71.717  1.00  0.00    -0.377 C  
BRANCH  14  15
HETATM   15  C   UNL     1     -12.467  12.668  70.729  1.00  0.00    -0.270 A  
HETATM   16  C   UNL     1     -12.292  14.019  70.952  1.00  0.00    -0.372 A  
HETATM   17  S   UNL     1     -11.748  14.787  69.522  1.00  0.00    -0.341 SA 
HETATM   18  C   UNL     1     -11.804  13.278  68.700  1.00  0.00    -0.345 A  
HETATM   19  N   UNL     1     -12.222  12.258  69.424  1.00  0.00    -0.143 NA 
BRANCH  18  20
HETATM   20  C   UNL     1     -11.429  13.179  67.241  1.00  0.00    -0.331 C  
BRANCH  20  21
HETATM   21  N   UNL     1     -11.927  14.298  66.407  1.00  0.00    -0.418 NA 
HETATM   22  C   UNL     1     -10.821  15.067  65.827  1.00  0.00    -0.350 C  
HETATM   23  C   UNL     1     -12.771  13.768  65.333  1.00  0.00    -0.472 C  
ENDBRANCH  20  21
ENDBRANCH  18  20
ENDBRANCH  14  15
ENDBRANCH  13  14
ENDBRANCH  12  13
ENDBRANCH  11  12
ENDBRANCH   9  11
ENDBRANCH   4   9
ENDBRANCH   2   4
TORSDOF 9
ENDMDL
MODEL      200
REMARK 921   NORMALIZED FREE ENERGY PREDICTED BY IDOCK:   -3.48 KCAL/MOL
REMARK 922        TOTAL FREE ENERGY PREDICTED BY IDOCK:   -6.38 KCAL/MOL
REMARK 923 INTER-LIGAND FREE ENERGY PREDICTED BY IDOCK:   -5.95 KCAL/MOL
REMARK 924 INTRA-LIGAND FREE ENERGY PREDICTED BY IDOCK:   -0.43 KCAL/MOL
REMARK 927      BINDING AFFINITY PREDICTED BY RF-SCORE:    0.00 PKD
ROOT
HETATM    1  C   UNL     1     -10.797  17.156  64.937  1.00  0.00     0.208 C  
HETATM    2  N   UNL     1     -11.191  16.046  64.099  1.00  0.00    -1.115 NA 
HETATM    3  H   UNL     1     -11.559  16.298  63.182  1.00  0.00     0.000 HD 
ENDROOT
BRANCH   2   4
HETATM    4  C   UNL     1     -11.139  14.688  64.365  1.00  0.00    -0.139 C  
HETATM    5  C   UNL     1     -12.209  13.921  64.070  1.00  0.00    -0.369 C  
HETATM    6  O   UNL     1     -11.287  11.903  64.764  1.00  0.00    -0.316 OA 
HETATM    7  N   UNL     1     -12.267  12.498  64.296  1.00  0.00    -0.425 N  
HETATM    8  O   UNL     1     -13.336  11.954  63.990  1.00  0.00    -0.646 OA 
BRANCH   4   9
HETATM    9  N   UNL     1      -9.987  14.181  64.941  1.00  0.00    -0.578 NA 
HETATM   10  H   UNL     1      -9.312  13.796  64.281  1.00  0.00     0.000 HD 
BRANCH   9  11
HETATM   11  C   UNL     1      -9.587  14.110  66.331  1.00  0.00    -0.293 C  
BRANCH  11  12
HETATM   12  C   UNL     1     -10.759  14.468  67.249  1.00  0.00    -0.287 C  
BRANCH  12  13
HETATM   13  S   UNL     1     -11.374  13.038  68.202  1.00  0.00    -0.317 SA 
BRANCH  13  14
HETATM   14  C   UNL     1      -9.883  11.987  68.174  1.00  0.00    -0.201 C  
BRANCH  14  15
HETATM   15  C   UNL     1     -10.098  10.735  68.954  1.00  0.00    -0.205 A  
HETATM   16  C   UNL     1     -11.120  10.481  69.846  1.00  0.00    -0.307 A  
HETATM   17  S   UNL     1     -10.959   8.903  70.492  1.00  0.00    -0.247 SA 
HETATM   18  C   UNL     1      -9.532   8.677  69.561  1.00  0.00    -0.162 A  
HETATM   19  N   UNL     1      -9.169   9.710  68.826  1.00  0.00    -0.138 NA 
BRANCH  18  20
HETATM   20  C   UNL     1      -8.757   7.383  69.638  1.00  0.00    -0.137 C  
BRANCH  20  21
HETATM   21  N   UNL     1      -7.908   7.252  70.845  1.00  0.00    -0.093 NA 
HETATM   22  C   UNL     1      -8.452   6.259  71.777  1.00  0.00    -0.129 C  
HETATM   23  C   UNL     1      -6.553   6.861  70.448  1.00  0.00    -0.052 C  
ENDBRANCH  20  21
ENDBRANCH  18  20
ENDBRANCH  14  15
ENDBRANCH  13  14
ENDBRANCH  12  13
ENDBRANCH  11  12
ENDBRANCH   9  11
ENDBRANCH   4   9
ENDBRANCH   2   4
TORSDOF 9
ENDMDL
MODEL      201
REMARK 921   NORMALIZED FREE ENERGY PREDICTED BY IDOCK:   -3.47 KCAL/MOL
REMARK 922        TOTAL FREE ENERGY PREDICTED BY IDOCK:   -6.36 KCAL/MOL
REMARK 923 INTER-LIGAND FREE ENERGY PREDICTED BY IDOCK:   -5.71 KCAL/MOL
REMARK 924 INTRA-LIGAND FREE ENERGY PREDICTED BY IDOCK:   -0.65 KCAL/MOL
REMARK 927      BINDING AFFINITY PREDICTED BY RF-SCORE:    0.00 PKD
ROOT
HETATM    1  C   UNL     1      -6.510  15.780  68.213  1.00  0.00    -0.118 C  
HETATM    2  N   UNL     1      -7.785  15.987  68.863  1.00  0.00    -0.182 NA 
HETATM    3  H   UNL     1      -7.961  15.400  69.679  1.00  0.00     0.000 HD 
ENDROOT
BRANCH   2   4
HETATM    4  C   UNL     1      -8.801  16.868  68.535  1.00  0.00    -0.251 C  
HETATM    5  C   UNL     1      -8.486  18.046  67.958  1.00  0.00    -0.261 C  
HETATM    6  O   UNL     1     -10.666  18.821  67.732  1.00  0.00    -0.407 OA 
HETATM    7  N   UNL     1      -9.457  19.038  67.568  1.00  0.00    -0.299 N  
HETATM    8  O   UNL     1      -8.992  20.073  67.074  1.00  0.00    -0.321 OA 
BRANCH   4   9
HETATM    9  N   UNL     1     -10.102  16.502  68.833  1.00  0.00    -0.251 NA 
HETATM   10  H   UNL     1     -10.586  17.129  69.475  1.00  0.00     0.000 HD 
BRANCH   9  11
HETATM   11  C   UNL     1     -10.887  15.372  68.381  1.00  0.00    -0.268 C  
BRANCH  11  12
HETATM   12  C   UNL     1     -11.005  15.375  66.854  1.00  0.00    -0.294 C  
BRANCH  12  13
HETATM   13  S   UNL     1     -12.109  14.063  66.227  1.00  0.00    -0.459 SA 
BRANCH  13  14
HETATM   14  C   UNL     1     -11.396  13.831  64.563  1.00  0.00    -0.380 C  
BRANCH  14  15
HETATM   15  C   UNL     1     -10.607  12.568  64.494  1.00  0.00    -0.336 A  
HETATM   16  C   UNL     1     -10.495  11.721  63.410  1.00  0.00    -0.434 A  
HETATM   17  S   UNL     1      -9.473  10.402  63.798  1.00  0.00    -0.315 SA 
HETATM   18  C   UNL     1      -9.270  11.037  65.383  1.00  0.00    -0.210 A  
HETATM   19  N   UNL     1      -9.933  12.149  65.634  1.00  0.00    -0.247 NA 
BRANCH  18  20
HETATM   20  C   UNL     1      -8.413  10.318  66.398  1.00  0.00    -0.130 C  
BRANCH  20  21
HETATM   21  N   UNL     1      -9.179   9.629  67.463  1.00  0.00    -0.133 NA 
HETATM   22  C   UNL     1     -10.052   8.590  66.907  1.00  0.00    -0.294 C  
HETATM   23  C   UNL     1      -8.248   9.027  68.420  1.00  0.00    -0.116 C  
ENDBRANCH  20  21
ENDBRANCH  18  20
ENDBRANCH  14  15
ENDBRANCH  13  14
ENDBRANCH  12  13
ENDBRANCH  11  12
ENDBRANCH   9  11
ENDBRANCH   4   9
ENDBRANCH   2   4
TORSDOF 9
ENDMDL
MODEL      202
REMARK 921   NORMALIZED FREE ENERGY PREDICTED BY IDOCK:   -3.45 KCAL/MOL
REMARK 922        TOTAL FREE ENERGY PREDICTED BY IDOCK:   -6.33 KCAL/MOL
REMARK 923 INTER-LIGAND FREE ENERGY PREDICTED BY IDOCK:   -5.38 KCAL/MOL
REMARK 924 INTRA-LIGAND FREE ENERGY PREDICTED BY IDOCK:   -0.95 KCAL/MOL
REMARK 927      BINDING AFFINITY PREDICTED BY RF-SCORE:    0.00 PKD
ROOT
HETATM    1  C   UNL     1      -8.474  11.263  68.494  1.00  0.00    -0.156 C  
HETATM    2  N   UNL     1      -9.734  10.690  68.077  1.00  0.00    -0.154 NA 
HETATM    3  H   UNL     1      -9.903   9.733  68.386  1.00  0.00     0.000 HD 
ENDROOT
BRANCH   2   4
HETATM    4  C   UNL     1     -10.744  11.256  67.317  1.00  0.00    -0.251 C  
HETATM    5  C   UNL     1     -10.537  11.459  65.999  1.00  0.00    -0.266 C  
HETATM    6  O   UNL     1     -12.634  12.350  65.538  1.00  0.00    -0.616 OA 
HETATM    7  N   UNL     1     -11.515  12.035  65.110  1.00  0.00    -0.313 N  
HETATM    8  O   UNL     1     -11.150  12.172  63.935  1.00  0.00    -0.333 OA 
BRANCH   4   9
HETATM    9  N   UNL     1     -11.921  11.605  67.956  1.00  0.00    -0.609 NA 
HETATM   10  H   UNL     1     -12.713  10.995  67.756  1.00  0.00     0.000 HD 
BRANCH   9  11
HETATM   11  C   UNL     1     -12.209  12.698  68.861  1.00  0.00     0.040 C  
BRANCH  11  12
HETATM   12  C   UNL     1     -12.041  12.251  70.316  1.00  0.00    -0.295 C  
BRANCH  12  13
HETATM   13  S   UNL     1     -12.544  10.517  70.586  1.00  0.00    -0.356 SA 
BRANCH  13  14
HETATM   14  C   UNL     1     -10.935   9.801  71.063  1.00  0.00    -0.332 C  
BRANCH  14  15
HETATM   15  C   UNL     1     -10.775   8.430  70.501  1.00  0.00    -0.227 A  
HETATM   16  C   UNL     1     -11.582   7.336  70.740  1.00  0.00    -0.302 A  
HETATM   17  S   UNL     1     -11.010   5.979  69.867  1.00  0.00    -0.389 SA 
HETATM   18  C   UNL     1      -9.717   6.932  69.250  1.00  0.00    -0.156 A  
HETATM   19  N   UNL     1      -9.685   8.180  69.676  1.00  0.00    -0.169 NA 
BRANCH  18  20
HETATM   20  C   UNL     1      -8.692   6.331  68.318  1.00  0.00    -0.115 C  
BRANCH  20  21
HETATM   21  N   UNL     1      -9.180   6.111  66.937  1.00  0.00    -0.125 NA 
HETATM   22  C   UNL     1      -8.400   6.883  65.964  1.00  0.00    -0.134 C  
HETATM   23  C   UNL     1      -9.096   4.685  66.611  1.00  0.00    -0.119 C  
ENDBRANCH  20  21
ENDBRANCH  18  20
ENDBRANCH  14  15
ENDBRANCH  13  14
ENDBRANCH  12  13
ENDBRANCH  11  12
ENDBRANCH   9  11
ENDBRANCH   4   9
ENDBRANCH   2   4
TORSDOF 9
ENDMDL
MODEL      203
REMARK 921   NORMALIZED FREE ENERGY PREDICTED BY IDOCK:   -3.45 KCAL/MOL
REMARK 922        TOTAL FREE ENERGY PREDICTED BY IDOCK:   -6.33 KCAL/MOL
REMARK 923 INTER-LIGAND FREE ENERGY PREDICTED BY IDOCK:   -6.20 KCAL/MOL
REMARK 924 INTRA-LIGAND FREE ENERGY PREDICTED BY IDOCK:   -0.13 KCAL/MOL
REMARK 927      BINDING AFFINITY PREDICTED BY RF-SCORE:    0.00 PKD
ROOT
HETATM    1  C   UNL     1     -10.929   5.509  73.395  1.00  0.00    -0.275 C  
HETATM    2  N   UNL     1     -11.561   6.078  72.226  1.00  0.00    -0.312 NA 
HETATM    3  H   UNL     1     -12.133   5.434  71.680  1.00  0.00     0.000 HD 
ENDROOT
BRANCH   2   4
HETATM    4  C   UNL     1     -11.499   7.374  71.742  1.00  0.00    -0.265 C  
HETATM    5  C   UNL     1     -12.391   8.283  72.190  1.00  0.00    -0.360 C  
HETATM    6  O   UNL     1     -11.576  10.079  70.958  1.00  0.00    -0.343 OA 
HETATM    7  N   UNL     1     -12.420   9.660  71.763  1.00  0.00    -0.389 N  
HETATM    8  O   UNL     1     -13.321  10.351  72.256  1.00  0.00    -0.396 OA 
BRANCH   4   9
HETATM    9  N   UNL     1     -10.529   7.673  70.802  1.00  0.00    -0.208 NA 
HETATM   10  H   UNL     1     -10.090   8.587  70.916  1.00  0.00     0.000 HD 
BRANCH   9  11
HETATM   11  C   UNL     1     -10.036   6.898  69.682  1.00  0.00    -0.184 C  
BRANCH  11  12
HETATM   12  C   UNL     1     -10.434   7.553  68.356  1.00  0.00    -0.175 C  
BRANCH  12  13
HETATM   13  S   UNL     1      -9.080   8.525  67.613  1.00  0.00    -0.135 SA 
BRANCH  13  14
HETATM   14  C   UNL     1     -10.008   9.391  66.301  1.00  0.00    -0.283 C  
BRANCH  14  15
HETATM   15  C   UNL     1      -9.997  10.864  66.524  1.00  0.00    -0.211 A  
HETATM   16  C   UNL     1      -8.927  11.631  66.939  1.00  0.00    -0.191 A  
HETATM   17  S   UNL     1      -9.388  13.277  67.045  1.00  0.00    -0.248 SA 
HETATM   18  C   UNL     1     -10.981  12.853  66.555  1.00  0.00    -0.275 A  
HETATM   19  N   UNL     1     -11.182  11.567  66.344  1.00  0.00    -0.288 NA 
BRANCH  18  20
HETATM   20  C   UNL     1     -12.055  13.907  66.425  1.00  0.00    -0.455 C  
BRANCH  20  21
HETATM   21  N   UNL     1     -12.046  14.628  65.131  1.00  0.00    -0.342 NA 
HETATM   22  C   UNL     1     -10.833  15.438  64.978  1.00  0.00    -0.444 C  
HETATM   23  C   UNL     1     -12.131  13.661  64.034  1.00  0.00    -0.425 C  
ENDBRANCH  20  21
ENDBRANCH  18  20
ENDBRANCH  14  15
ENDBRANCH  13  14
ENDBRANCH  12  13
ENDBRANCH  11  12
ENDBRANCH   9  11
ENDBRANCH   4   9
ENDBRANCH   2   4
TORSDOF 9
ENDMDL
MODEL      204
REMARK 921   NORMALIZED FREE ENERGY PREDICTED BY IDOCK:   -3.44 KCAL/MOL
REMARK 922        TOTAL FREE ENERGY PREDICTED BY IDOCK:   -6.31 KCAL/MOL
REMARK 923 INTER-LIGAND FREE ENERGY PREDICTED BY IDOCK:   -5.80 KCAL/MOL
REMARK 924 INTRA-LIGAND FREE ENERGY PREDICTED BY IDOCK:   -0.50 KCAL/MOL
REMARK 927      BINDING AFFINITY PREDICTED BY RF-SCORE:    0.00 PKD
ROOT
HETATM    1  C   UNL     1     -10.417   8.214  66.789  1.00  0.00    -0.246 C  
HETATM    2  N   UNL     1     -10.567   9.639  66.982  1.00  0.00    -0.226 NA 
HETATM    3  H   UNL     1     -10.139  10.225  66.266  1.00  0.00     0.000 HD 
ENDROOT
BRANCH   2   4
HETATM    4  C   UNL     1     -11.211  10.320  68.002  1.00  0.00    -0.235 C  
HETATM    5  C   UNL     1     -11.081   9.876  69.270  1.00  0.00    -0.181 C  
HETATM    6  O   UNL     1     -12.376  11.532  70.262  1.00  0.00    -0.304 OA 
HETATM    7  N   UNL     1     -11.699  10.506  70.410  1.00  0.00    -0.317 N  
HETATM    8  O   UNL     1     -11.494   9.952  71.499  1.00  0.00    -0.365 OA 
BRANCH   4   9
HETATM    9  N   UNL     1     -11.978  11.422  67.666  1.00  0.00    -0.626 NA 
HETATM   10  H   UNL     1     -12.736  11.629  68.317  1.00  0.00     0.000 HD 
BRANCH   9  11
HETATM   11  C   UNL     1     -11.878  12.327  66.541  1.00  0.00    -0.306 C  
BRANCH  11  12
HETATM   12  C   UNL     1     -10.969  13.512  66.882  1.00  0.00    -0.288 C  
BRANCH  12  13
HETATM   13  S   UNL     1      -9.195  13.110  66.733  1.00  0.00    -0.203 SA 
BRANCH  13  14
HETATM   14  C   UNL     1      -8.588  13.811  68.304  1.00  0.00    -0.175 C  
BRANCH  14  15
HETATM   15  C   UNL     1      -7.930  15.129  68.080  1.00  0.00    -0.125 A  
HETATM   16  C   UNL     1      -6.683  15.350  67.531  1.00  0.00    -0.181 A  
HETATM   17  S   UNL     1      -6.357  17.030  67.465  1.00  0.00    -0.162 SA 
HETATM   18  C   UNL     1      -7.884  17.346  68.192  1.00  0.00    -0.234 A  
HETATM   19  N   UNL     1      -8.596  16.277  68.493  1.00  0.00    -0.200 NA 
BRANCH  18  20
HETATM   20  C   UNL     1      -8.322  18.761  68.481  1.00  0.00    -0.346 C  
BRANCH  20  21
HETATM   21  N   UNL     1      -8.427  19.623  67.282  1.00  0.00    -0.296 NA 
HETATM   22  C   UNL     1      -9.755  20.240  67.180  1.00  0.00    -0.452 C  
HETATM   23  C   UNL     1      -7.405  20.671  67.343  1.00  0.00    -0.336 C  
ENDBRANCH  20  21
ENDBRANCH  18  20
ENDBRANCH  14  15
ENDBRANCH  13  14
ENDBRANCH  12  13
ENDBRANCH  11  12
ENDBRANCH   9  11
ENDBRANCH   4   9
ENDBRANCH   2   4
TORSDOF 9
ENDMDL
MODEL      205
REMARK 921   NORMALIZED FREE ENERGY PREDICTED BY IDOCK:   -3.43 KCAL/MOL
REMARK 922        TOTAL FREE ENERGY PREDICTED BY IDOCK:   -6.30 KCAL/MOL
REMARK 923 INTER-LIGAND FREE ENERGY PREDICTED BY IDOCK:   -6.41 KCAL/MOL
REMARK 924 INTRA-LIGAND FREE ENERGY PREDICTED BY IDOCK:    0.11 KCAL/MOL
REMARK 927      BINDING AFFINITY PREDICTED BY RF-SCORE:    0.00 PKD
ROOT
HETATM    1  C   UNL     1     -12.078  13.080  63.239  1.00  0.00    -0.422 C  
HETATM    2  N   UNL     1     -11.772  11.683  63.451  1.00  0.00    -0.798 NA 
HETATM    3  H   UNL     1     -12.534  11.034  63.260  1.00  0.00     0.000 HD 
ENDROOT
BRANCH   2   4
HETATM    4  C   UNL     1     -10.589  11.102  63.877  1.00  0.00    -0.364 C  
HETATM    5  C   UNL     1      -9.635  10.815  62.967  1.00  0.00    -0.353 C  
HETATM    6  O   UNL     1      -8.084   9.959  64.472  1.00  0.00    -0.135 OA 
HETATM    7  N   UNL     1      -8.365  10.216  63.293  1.00  0.00    -0.160 N  
HETATM    8  O   UNL     1      -7.616   9.999  62.332  1.00  0.00    -0.112 OA 
BRANCH   4   9
HETATM    9  N   UNL     1     -10.449  10.825  65.226  1.00  0.00    -0.248 NA 
HETATM   10  H   UNL     1     -10.613   9.851  65.482  1.00  0.00     0.000 HD 
BRANCH   9  11
HETATM   11  C   UNL     1     -10.105  11.695  66.332  1.00  0.00    -0.214 C  
BRANCH  11  12
HETATM   12  C   UNL     1     -11.300  11.864  67.275  1.00  0.00    -0.329 C  
BRANCH  12  13
HETATM   13  S   UNL     1     -10.963  13.027  68.642  1.00  0.00    -0.270 SA 
BRANCH  13  14
HETATM   14  C   UNL     1     -12.130  14.360  68.206  1.00  0.00    -0.225 C  
BRANCH  14  15
HETATM   15  C   UNL     1     -11.406  15.555  67.689  1.00  0.00    -0.260 A  
HETATM   16  C   UNL     1     -10.978  15.769  66.394  1.00  0.00    -0.159 A  
HETATM   17  S   UNL     1     -10.200  17.289  66.274  1.00  0.00    -0.314 SA 
HETATM   18  C   UNL     1     -10.466  17.548  67.953  1.00  0.00    -0.384 A  
HETATM   19  N   UNL     1     -11.074  16.563  68.586  1.00  0.00    -0.347 NA 
BRANCH  18  20
HETATM   20  C   UNL     1      -9.986  18.813  68.625  1.00  0.00    -0.394 C  
BRANCH  20  21
HETATM   21  N   UNL     1      -8.517  18.996  68.600  1.00  0.00    -0.362 NA 
HETATM   22  C   UNL     1      -7.833  17.775  68.161  1.00  0.00    -0.264 C  
HETATM   23  C   UNL     1      -8.177  20.098  67.696  1.00  0.00    -0.294 C  
ENDBRANCH  20  21
ENDBRANCH  18  20
ENDBRANCH  14  15
ENDBRANCH  13  14
ENDBRANCH  12  13
ENDBRANCH  11  12
ENDBRANCH   9  11
ENDBRANCH   4   9
ENDBRANCH   2   4
TORSDOF 9
ENDMDL
MODEL      206
REMARK 921   NORMALIZED FREE ENERGY PREDICTED BY IDOCK:   -3.43 KCAL/MOL
REMARK 922        TOTAL FREE ENERGY PREDICTED BY IDOCK:   -6.29 KCAL/MOL
REMARK 923 INTER-LIGAND FREE ENERGY PREDICTED BY IDOCK:   -5.82 KCAL/MOL
REMARK 924 INTRA-LIGAND FREE ENERGY PREDICTED BY IDOCK:   -0.47 KCAL/MOL
REMARK 927      BINDING AFFINITY PREDICTED BY RF-SCORE:    0.00 PKD
ROOT
HETATM    1  C   UNL     1     -11.926  14.614  70.886  1.00  0.00    -0.326 C  
HETATM    2  N   UNL     1     -11.391  15.896  70.484  1.00  0.00    -0.362 NA 
HETATM    3  H   UNL     1     -11.781  16.704  70.968  1.00  0.00     0.000 HD 
ENDROOT
BRANCH   2   4
HETATM    4  C   UNL     1     -10.425  16.181  69.534  1.00  0.00    -0.295 C  
HETATM    5  C   UNL     1     -10.524  17.322  68.820  1.00  0.00    -0.340 C  
HETATM    6  O   UNL     1      -8.584  17.023  67.574  1.00  0.00    -0.201 OA 
HETATM    7  N   UNL     1      -9.577  17.725  67.811  1.00  0.00    -0.267 N  
HETATM    8  O   UNL     1      -9.834  18.791  67.235  1.00  0.00    -0.300 OA 
BRANCH   4   9
HETATM    9  N   UNL     1      -9.404  15.265  69.349  1.00  0.00    -0.323 NA 
HETATM   10  H   UNL     1      -8.510  15.533  69.761  1.00  0.00     0.000 HD 
BRANCH   9  11
HETATM   11  C   UNL     1      -9.400  13.989  68.665  1.00  0.00    -0.130 C  
BRANCH  11  12
HETATM   12  C   UNL     1     -10.197  14.075  67.360  1.00  0.00    -0.248 C  
BRANCH  12  13
HETATM   13  S   UNL     1     -11.689  13.023  67.371  1.00  0.00    -0.368 SA 
BRANCH  13  14
HETATM   14  C   UNL     1     -10.908  11.383  67.548  1.00  0.00    -0.244 C  
BRANCH  14  15
HETATM   15  C   UNL     1     -11.226  10.782  68.874  1.00  0.00    -0.268 A  
HETATM   16  C   UNL     1     -12.284  11.108  69.699  1.00  0.00    -0.290 A  
HETATM   17  S   UNL     1     -12.246  10.144  71.114  1.00  0.00    -0.419 SA 
HETATM   18  C   UNL     1     -10.816   9.377  70.543  1.00  0.00    -0.277 A  
HETATM   19  N   UNL     1     -10.367   9.816  69.383  1.00  0.00    -0.203 NA 
BRANCH  18  20
HETATM   20  C   UNL     1     -10.134   8.308  71.362  1.00  0.00    -0.200 C  
BRANCH  20  21
HETATM   21  N   UNL     1      -8.949   8.781  72.114  1.00  0.00    -0.385 NA 
HETATM   22  C   UNL     1      -8.761   8.018  73.353  1.00  0.00    -0.259 C  
HETATM   23  C   UNL     1      -7.755   8.652  71.275  1.00  0.00    -0.118 C  
ENDBRANCH  20  21
ENDBRANCH  18  20
ENDBRANCH  14  15
ENDBRANCH  13  14
ENDBRANCH  12  13
ENDBRANCH  11  12
ENDBRANCH   9  11
ENDBRANCH   4   9
ENDBRANCH   2   4
TORSDOF 9
ENDMDL
MODEL      207
REMARK 921   NORMALIZED FREE ENERGY PREDICTED BY IDOCK:   -3.42 KCAL/MOL
REMARK 922        TOTAL FREE ENERGY PREDICTED BY IDOCK:   -6.29 KCAL/MOL
REMARK 923 INTER-LIGAND FREE ENERGY PREDICTED BY IDOCK:   -6.00 KCAL/MOL
REMARK 924 INTRA-LIGAND FREE ENERGY PREDICTED BY IDOCK:   -0.29 KCAL/MOL
REMARK 927      BINDING AFFINITY PREDICTED BY RF-SCORE:    0.00 PKD
ROOT
HETATM    1  C   UNL     1     -12.891  10.837  71.540  1.00  0.00    -0.462 C  
HETATM    2  N   UNL     1     -12.279  11.752  70.603  1.00  0.00    -0.380 NA 
HETATM    3  H   UNL     1     -11.930  11.330  69.744  1.00  0.00     0.000 HD 
ENDROOT
BRANCH   2   4
HETATM    4  C   UNL     1     -12.100  13.121  70.708  1.00  0.00    -0.203 C  
HETATM    5  C   UNL     1     -12.957  13.838  71.467  1.00  0.00    -0.363 C  
HETATM    6  O   UNL     1     -11.946  15.903  71.125  1.00  0.00    -0.380 OA 
HETATM    7  N   UNL     1     -12.866  15.264  71.653  1.00  0.00    -0.361 N  
HETATM    8  O   UNL     1     -13.749  15.765  72.362  1.00  0.00    -0.504 OA 
BRANCH   4   9
HETATM    9  N   UNL     1     -11.053  13.697  70.009  1.00  0.00    -0.455 NA 
HETATM   10  H   UNL     1     -10.331  14.118  70.593  1.00  0.00     0.000 HD 
BRANCH   9  11
HETATM   11  C   UNL     1     -10.818  13.795  68.584  1.00  0.00    -0.263 C  
BRANCH  11  12
HETATM   12  C   UNL     1     -11.594  14.976  67.991  1.00  0.00    -0.338 C  
BRANCH  12  13
HETATM   13  S   UNL     1     -10.506  16.210  67.199  1.00  0.00    -0.295 SA 
BRANCH  13  14
HETATM   14  C   UNL     1      -8.943  15.269  67.170  1.00  0.00    -0.209 C  
BRANCH  14  15
HETATM   15  C   UNL     1      -7.896  15.951  67.981  1.00  0.00    -0.136 A  
HETATM   16  C   UNL     1      -7.545  15.669  69.286  1.00  0.00    -0.222 A  
HETATM   17  S   UNL     1      -6.282  16.708  69.793  1.00  0.00    -0.158 SA 
HETATM   18  C   UNL     1      -6.305  17.474  68.254  1.00  0.00    -0.180 A  
HETATM   19  N   UNL     1      -7.207  17.013  67.409  1.00  0.00    -0.149 NA 
BRANCH  18  20
HETATM   20  C   UNL     1      -5.366  18.616  67.945  1.00  0.00    -0.170 C  
BRANCH  20  21
HETATM   21  N   UNL     1      -5.965  19.960  68.118  1.00  0.00    -0.226 NA 
HETATM   22  C   UNL     1      -6.687  20.382  66.913  1.00  0.00    -0.244 C  
HETATM   23  C   UNL     1      -6.884  19.941  69.258  1.00  0.00    -0.301 C  
ENDBRANCH  20  21
ENDBRANCH  18  20
ENDBRANCH  14  15
ENDBRANCH  13  14
ENDBRANCH  12  13
ENDBRANCH  11  12
ENDBRANCH   9  11
ENDBRANCH   4   9
ENDBRANCH   2   4
TORSDOF 9
ENDMDL
MODEL      208
REMARK 921   NORMALIZED FREE ENERGY PREDICTED BY IDOCK:   -3.40 KCAL/MOL
REMARK 922        TOTAL FREE ENERGY PREDICTED BY IDOCK:   -6.26 KCAL/MOL
REMARK 923 INTER-LIGAND FREE ENERGY PREDICTED BY IDOCK:   -5.66 KCAL/MOL
REMARK 924 INTRA-LIGAND FREE ENERGY PREDICTED BY IDOCK:   -0.60 KCAL/MOL
REMARK 927      BINDING AFFINITY PREDICTED BY RF-SCORE:    0.00 PKD
ROOT
HETATM    1  C   UNL     1      -9.329  10.833  62.420  1.00  0.00    -0.236 C  
HETATM    2  N   UNL     1     -10.484  11.133  63.236  1.00  0.00    -0.666 NA 
HETATM    3  H   UNL     1     -11.313  11.435  62.725  1.00  0.00     0.000 HD 
ENDROOT
BRANCH   2   4
HETATM    4  C   UNL     1     -10.624  11.068  64.612  1.00  0.00    -0.299 C  
HETATM    5  C   UNL     1     -10.144   9.992  65.269  1.00  0.00    -0.229 C  
HETATM    6  O   UNL     1     -10.739  10.699  67.403  1.00  0.00    -0.237 OA 
HETATM    7  N   UNL     1     -10.228   9.818  66.698  1.00  0.00    -0.233 N  
HETATM    8  O   UNL     1      -9.758   8.759  67.134  1.00  0.00    -0.165 OA 
BRANCH   4   9
HETATM    9  N   UNL     1     -11.271  12.112  65.250  1.00  0.00    -0.324 NA 
HETATM   10  H   UNL     1     -10.843  12.408  66.128  1.00  0.00     0.000 HD 
BRANCH   9  11
HETATM   11  C   UNL     1     -12.457  12.852  64.873  1.00  0.00    -0.478 C  
BRANCH  11  12
HETATM   12  C   UNL     1     -12.235  14.356  65.055  1.00  0.00    -0.414 C  
BRANCH  12  13
HETATM   13  S   UNL     1     -10.467  14.806  65.127  1.00  0.00    -0.417 SA 
BRANCH  13  14
HETATM   14  C   UNL     1     -10.613  16.538  65.682  1.00  0.00    -0.304 C  
BRANCH  14  15
HETATM   15  C   UNL     1      -9.471  16.914  66.563  1.00  0.00    -0.276 A  
HETATM   16  C   UNL     1      -8.706  18.060  66.484  1.00  0.00    -0.260 A  
HETATM   17  S   UNL     1      -7.514  18.059  67.713  1.00  0.00    -0.214 SA 
HETATM   18  C   UNL     1      -8.081  16.527  68.250  1.00  0.00    -0.179 A  
HETATM   19  N   UNL     1      -9.081  16.022  67.554  1.00  0.00    -0.198 NA 
BRANCH  18  20
HETATM   20  C   UNL     1      -7.427  15.828  69.417  1.00  0.00    -0.216 C  
BRANCH  20  21
HETATM   21  N   UNL     1      -5.950  15.948  69.448  1.00  0.00    -0.129 NA 
HETATM   22  C   UNL     1      -5.427  15.757  70.805  1.00  0.00    -0.082 C  
HETATM   23  C   UNL     1      -5.361  14.950  68.551  1.00  0.00    -0.102 C  
ENDBRANCH  20  21
ENDBRANCH  18  20
ENDBRANCH  14  15
ENDBRANCH  13  14
ENDBRANCH  12  13
ENDBRANCH  11  12
ENDBRANCH   9  11
ENDBRANCH   4   9
ENDBRANCH   2   4
TORSDOF 9
ENDMDL
MODEL      209
REMARK 921   NORMALIZED FREE ENERGY PREDICTED BY IDOCK:   -3.40 KCAL/MOL
REMARK 922        TOTAL FREE ENERGY PREDICTED BY IDOCK:   -6.25 KCAL/MOL
REMARK 923 INTER-LIGAND FREE ENERGY PREDICTED BY IDOCK:   -5.62 KCAL/MOL
REMARK 924 INTRA-LIGAND FREE ENERGY PREDICTED BY IDOCK:   -0.63 KCAL/MOL
REMARK 927      BINDING AFFINITY PREDICTED BY RF-SCORE:    0.00 PKD
ROOT
HETATM    1  C   UNL     1      -9.242   4.790  69.016  1.00  0.00    -0.123 C  
HETATM    2  N   UNL     1      -8.886   5.340  70.305  1.00  0.00    -0.123 NA 
HETATM    3  H   UNL     1      -8.772   4.659  71.055  1.00  0.00     0.000 HD 
ENDROOT
BRANCH   2   4
HETATM    4  C   UNL     1      -8.679   6.661  70.666  1.00  0.00    -0.143 C  
HETATM    5  C   UNL     1      -7.786   7.397  69.972  1.00  0.00    -0.104 C  
HETATM    6  O   UNL     1      -8.094   9.372  71.159  1.00  0.00    -0.322 OA 
HETATM    7  N   UNL     1      -7.493   8.781  70.252  1.00  0.00    -0.061 N  
HETATM    8  O   UNL     1      -6.628   9.297  69.532  1.00  0.00    -0.042 OA 
BRANCH   4   9
HETATM    9  N   UNL     1      -9.392   7.162  71.741  1.00  0.00    -0.147 NA 
HETATM   10  H   UNL     1      -8.900   7.868  72.289  1.00  0.00     0.000 HD 
BRANCH   9  11
HETATM   11  C   UNL     1     -10.724   6.845  72.214  1.00  0.00    -0.223 C  
BRANCH  11  12
HETATM   12  C   UNL     1     -11.481   8.123  72.588  1.00  0.00    -0.387 C  
BRANCH  12  13
HETATM   13  S   UNL     1     -11.641   9.286  71.190  1.00  0.00    -0.355 SA 
BRANCH  13  14
HETATM   14  C   UNL     1     -12.990  10.340  71.820  1.00  0.00    -0.469 C  
BRANCH  14  15
HETATM   15  C   UNL     1     -12.838  11.743  71.343  1.00  0.00    -0.335 A  
HETATM   16  C   UNL     1     -13.292  12.886  71.969  1.00  0.00    -0.482 A  
HETATM   17  S   UNL     1     -12.875  14.269  71.050  1.00  0.00    -0.358 SA 
HETATM   18  C   UNL     1     -12.139  13.253  69.873  1.00  0.00    -0.308 A  
HETATM   19  N   UNL     1     -12.211  11.960  70.121  1.00  0.00    -0.272 NA 
BRANCH  18  20
HETATM   20  C   UNL     1     -11.500  13.840  68.637  1.00  0.00    -0.301 C  
BRANCH  20  21
HETATM   21  N   UNL     1     -11.898  13.180  67.373  1.00  0.00    -0.367 NA 
HETATM   22  C   UNL     1     -12.234  14.163  66.338  1.00  0.00    -0.446 C  
HETATM   23  C   UNL     1     -10.803  12.328  66.902  1.00  0.00    -0.251 C  
ENDBRANCH  20  21
ENDBRANCH  18  20
ENDBRANCH  14  15
ENDBRANCH  13  14
ENDBRANCH  12  13
ENDBRANCH  11  12
ENDBRANCH   9  11
ENDBRANCH   4   9
ENDBRANCH   2   4
TORSDOF 9
ENDMDL
MODEL      210
REMARK 921   NORMALIZED FREE ENERGY PREDICTED BY IDOCK:   -3.39 KCAL/MOL
REMARK 922        TOTAL FREE ENERGY PREDICTED BY IDOCK:   -6.24 KCAL/MOL
REMARK 923 INTER-LIGAND FREE ENERGY PREDICTED BY IDOCK:   -5.66 KCAL/MOL
REMARK 924 INTRA-LIGAND FREE ENERGY PREDICTED BY IDOCK:   -0.58 KCAL/MOL
REMARK 927      BINDING AFFINITY PREDICTED BY RF-SCORE:    0.00 PKD
ROOT
HETATM    1  C   UNL     1     -12.820   7.133  71.576  1.00  0.00    -0.391 C  
HETATM    2  N   UNL     1     -11.461   6.762  71.249  1.00  0.00    -0.285 NA 
HETATM    3  H   UNL     1     -10.774   6.925  71.984  1.00  0.00     0.000 HD 
ENDROOT
BRANCH   2   4
HETATM    4  C   UNL     1     -10.961   6.216  70.078  1.00  0.00    -0.372 C  
HETATM    5  C   UNL     1     -10.347   5.015  70.126  1.00  0.00    -0.236 C  
HETATM    6  O   UNL     1      -9.891   4.863  67.851  1.00  0.00    -0.151 OA 
HETATM    7  N   UNL     1      -9.794   4.348  68.974  1.00  0.00    -0.152 N  
HETATM    8  O   UNL     1      -9.243   3.262  69.201  1.00  0.00    -0.132 OA 
BRANCH   4   9
HETATM    9  N   UNL     1     -11.101   6.943  68.909  1.00  0.00    -0.473 NA 
HETATM   10  H   UNL     1     -11.679   6.499  68.196  1.00  0.00     0.000 HD 
BRANCH   9  11
HETATM   11  C   UNL     1     -10.558   8.233  68.535  1.00  0.00    -0.100 C  
BRANCH  11  12
HETATM   12  C   UNL     1     -10.623   8.425  67.017  1.00  0.00    -0.246 C  
BRANCH  12  13
HETATM   13  S   UNL     1      -9.008   8.176  66.203  1.00  0.00    -0.172 SA 
BRANCH  13  14
HETATM   14  C   UNL     1      -8.375   9.887  66.246  1.00  0.00    -0.125 C  
BRANCH  14  15
HETATM   15  C   UNL     1      -9.198  10.781  65.383  1.00  0.00    -0.205 A  
HETATM   16  C   UNL     1      -9.546  10.568  64.065  1.00  0.00    -0.311 A  
HETATM   17  S   UNL     1     -10.507  11.864  63.493  1.00  0.00    -0.464 SA 
HETATM   18  C   UNL     1     -10.376  12.628  65.028  1.00  0.00    -0.299 A  
HETATM   19  N   UNL     1      -9.645  11.983  65.917  1.00  0.00    -0.235 NA 
BRANCH  18  20
HETATM   20  C   UNL     1     -11.036  13.961  65.286  1.00  0.00    -0.331 C  
BRANCH  20  21
HETATM   21  N   UNL     1     -10.415  14.747  66.377  1.00  0.00    -0.286 NA 
HETATM   22  C   UNL     1      -9.979  16.066  65.907  1.00  0.00    -0.352 C  
HETATM   23  C   UNL     1     -11.379  14.910  67.469  1.00  0.00    -0.342 C  
ENDBRANCH  20  21
ENDBRANCH  18  20
ENDBRANCH  14  15
ENDBRANCH  13  14
ENDBRANCH  12  13
ENDBRANCH  11  12
ENDBRANCH   9  11
ENDBRANCH   4   9
ENDBRANCH   2   4
TORSDOF 9
ENDMDL
MODEL      211
REMARK 921   NORMALIZED FREE ENERGY PREDICTED BY IDOCK:   -3.39 KCAL/MOL
REMARK 922        TOTAL FREE ENERGY PREDICTED BY IDOCK:   -6.24 KCAL/MOL
REMARK 923 INTER-LIGAND FREE ENERGY PREDICTED BY IDOCK:   -5.68 KCAL/MOL
REMARK 924 INTRA-LIGAND FREE ENERGY PREDICTED BY IDOCK:   -0.56 KCAL/MOL
REMARK 927      BINDING AFFINITY PREDICTED BY RF-SCORE:    0.00 PKD
ROOT
HETATM    1  C   UNL     1     -11.707  13.664  68.446  1.00  0.00    -0.358 C  
HETATM    2  N   UNL     1     -11.091  14.190  67.249  1.00  0.00    -0.297 NA 
HETATM    3  H   UNL     1     -10.745  15.147  67.320  1.00  0.00     0.000 HD 
ENDROOT
BRANCH   2   4
HETATM    4  C   UNL     1     -10.903  13.579  66.020  1.00  0.00    -0.278 C  
HETATM    5  C   UNL     1     -11.819  13.770  65.048  1.00  0.00    -0.366 C  
HETATM    6  O   UNL     1     -10.751  12.492  63.426  1.00  0.00    -0.426 OA 
HETATM    7  N   UNL     1     -11.727  13.191  63.731  1.00  0.00    -0.457 N  
HETATM    8  O   UNL     1     -12.668  13.450  62.969  1.00  0.00    -0.631 OA 
BRANCH   4   9
HETATM    9  N   UNL     1      -9.785  12.781  65.854  1.00  0.00    -0.382 NA 
HETATM   10  H   UNL     1      -9.165  13.067  65.096  1.00  0.00     0.000 HD 
BRANCH   9  11
HETATM   11  C   UNL     1      -9.353  11.606  66.582  1.00  0.00    -0.194 C  
BRANCH  11  12
HETATM   12  C   UNL     1      -9.322  10.383  65.661  1.00  0.00    -0.198 C  
BRANCH  12  13
HETATM   13  S   UNL     1     -10.035   8.893  66.439  1.00  0.00    -0.247 SA 
BRANCH  13  14
HETATM   14  C   UNL     1     -10.568   9.604  68.033  1.00  0.00    -0.243 C  
BRANCH  14  15
HETATM   15  C   UNL     1      -9.737   9.081  69.153  1.00  0.00    -0.167 A  
HETATM   16  C   UNL     1      -8.860   9.800  69.941  1.00  0.00    -0.225 A  
HETATM   17  S   UNL     1      -8.138   8.774  71.107  1.00  0.00    -0.157 SA 
HETATM   18  C   UNL     1      -9.023   7.444  70.471  1.00  0.00    -0.156 A  
HETATM   19  N   UNL     1      -9.795   7.722  69.439  1.00  0.00    -0.173 NA 
BRANCH  18  20
HETATM   20  C   UNL     1      -8.867   6.062  71.060  1.00  0.00    -0.139 C  
BRANCH  20  21
HETATM   21  N   UNL     1     -10.113   5.260  71.069  1.00  0.00    -0.210 NA 
HETATM   22  C   UNL     1      -9.826   3.824  70.987  1.00  0.00    -0.134 C  
HETATM   23  C   UNL     1     -10.863   5.540  72.296  1.00  0.00    -0.241 C  
ENDBRANCH  20  21
ENDBRANCH  18  20
ENDBRANCH  14  15
ENDBRANCH  13  14
ENDBRANCH  12  13
ENDBRANCH  11  12
ENDBRANCH   9  11
ENDBRANCH   4   9
ENDBRANCH   2   4
TORSDOF 9
ENDMDL
MODEL      212
REMARK 921   NORMALIZED FREE ENERGY PREDICTED BY IDOCK:   -3.38 KCAL/MOL
REMARK 922        TOTAL FREE ENERGY PREDICTED BY IDOCK:   -6.22 KCAL/MOL
REMARK 923 INTER-LIGAND FREE ENERGY PREDICTED BY IDOCK:   -5.93 KCAL/MOL
REMARK 924 INTRA-LIGAND FREE ENERGY PREDICTED BY IDOCK:   -0.29 KCAL/MOL
REMARK 927      BINDING AFFINITY PREDICTED BY RF-SCORE:    0.00 PKD
ROOT
HETATM    1  C   UNL     1      -9.129  10.089  62.375  1.00  0.00    -0.293 C  
HETATM    2  N   UNL     1      -9.260   9.621  63.737  1.00  0.00    -0.410 NA 
HETATM    3  H   UNL     1      -9.488   8.633  63.840  1.00  0.00     0.000 HD 
ENDROOT
BRANCH   2   4
HETATM    4  C   UNL     1      -9.120  10.325  64.921  1.00  0.00    -0.213 C  
HETATM    5  C   UNL     1      -7.889  10.469  65.456  1.00  0.00    -0.138 C  
HETATM    6  O   UNL     1      -8.547  11.737  67.291  1.00  0.00    -0.149 OA 
HETATM    7  N   UNL     1      -7.622  11.184  66.679  1.00  0.00    -0.145 N  
HETATM    8  O   UNL     1      -6.438  11.198  67.039  1.00  0.00    -0.086 OA 
BRANCH   4   9
HETATM    9  N   UNL     1     -10.262  10.837  65.513  1.00  0.00    -0.267 NA 
HETATM   10  H   UNL     1     -10.408  10.547  66.481  1.00  0.00     0.000 HD 
BRANCH   9  11
HETATM   11  C   UNL     1     -11.281  11.717  64.981  1.00  0.00    -0.257 C  
BRANCH  11  12
HETATM   12  C   UNL     1     -11.827  12.635  66.079  1.00  0.00    -0.436 C  
BRANCH  12  13
HETATM   13  S   UNL     1     -12.514  14.194  65.421  1.00  0.00    -0.442 SA 
BRANCH  13  14
HETATM   14  C   UNL     1     -10.974  14.995  64.859  1.00  0.00    -0.413 C  
BRANCH  14  15
HETATM   15  C   UNL     1     -10.226  15.576  66.009  1.00  0.00    -0.330 A  
HETATM   16  C   UNL     1      -8.965  15.220  66.443  1.00  0.00    -0.304 A  
HETATM   17  S   UNL     1      -8.516  16.171  67.794  1.00  0.00    -0.160 SA 
HETATM   18  C   UNL     1     -10.035  16.973  67.724  1.00  0.00    -0.280 A  
HETATM   19  N   UNL     1     -10.849  16.556  66.774  1.00  0.00    -0.151 NA 
BRANCH  18  20
HETATM   20  C   UNL     1     -10.387  18.048  68.724  1.00  0.00    -0.284 C  
BRANCH  20  21
HETATM   21  N   UNL     1      -9.834  19.384  68.401  1.00  0.00    -0.399 NA 
HETATM   22  C   UNL     1      -8.385  19.431  68.624  1.00  0.00    -0.362 C  
HETATM   23  C   UNL     1     -10.125  19.708  67.003  1.00  0.00    -0.412 C  
ENDBRANCH  20  21
ENDBRANCH  18  20
ENDBRANCH  14  15
ENDBRANCH  13  14
ENDBRANCH  12  13
ENDBRANCH  11  12
ENDBRANCH   9  11
ENDBRANCH   4   9
ENDBRANCH   2   4
TORSDOF 9
ENDMDL
MODEL      213
REMARK 921   NORMALIZED FREE ENERGY PREDICTED BY IDOCK:   -3.37 KCAL/MOL
REMARK 922        TOTAL FREE ENERGY PREDICTED BY IDOCK:   -6.22 KCAL/MOL
REMARK 923 INTER-LIGAND FREE ENERGY PREDICTED BY IDOCK:   -5.96 KCAL/MOL
REMARK 924 INTRA-LIGAND FREE ENERGY PREDICTED BY IDOCK:   -0.26 KCAL/MOL
REMARK 927      BINDING AFFINITY PREDICTED BY RF-SCORE:    0.00 PKD
ROOT
HETATM    1  C   UNL     1      -6.354  16.080  68.952  1.00  0.00    -0.129 C  
HETATM    2  N   UNL     1      -6.961  17.380  69.136  1.00  0.00    -0.233 NA 
HETATM    3  H   UNL     1      -6.931  17.746  70.087  1.00  0.00     0.000 HD 
ENDROOT
BRANCH   2   4
HETATM    4  C   UNL     1      -7.575  18.198  68.203  1.00  0.00    -0.265 C  
HETATM    5  C   UNL     1      -6.968  18.409  67.016  1.00  0.00    -0.192 C  
HETATM    6  O   UNL     1      -8.617  19.780  66.118  1.00  0.00    -0.360 OA 
HETATM    7  N   UNL     1      -7.515  19.235  65.968  1.00  0.00    -0.276 N  
HETATM    8  O   UNL     1      -6.814  19.339  64.953  1.00  0.00    -0.430 OA 
BRANCH   4   9
HETATM    9  N   UNL     1      -8.784  18.780  68.543  1.00  0.00    -0.340 NA 
HETATM   10  H   UNL     1      -8.795  19.799  68.501  1.00  0.00     0.000 HD 
BRANCH   9  11
HETATM   11  C   UNL     1     -10.035  18.175  68.948  1.00  0.00    -0.338 C  
BRANCH  11  12
HETATM   12  C   UNL     1     -10.188  16.783  68.326  1.00  0.00    -0.295 C  
BRANCH  12  13
HETATM   13  S   UNL     1     -10.410  16.839  66.515  1.00  0.00    -0.274 SA 
BRANCH  13  14
HETATM   14  C   UNL     1      -9.418  15.383  66.039  1.00  0.00    -0.346 C  
BRANCH  14  15
HETATM   15  C   UNL     1     -10.285  14.187  65.848  1.00  0.00    -0.319 A  
HETATM   16  C   UNL     1     -11.091  13.913  64.762  1.00  0.00    -0.383 A  
HETATM   17  S   UNL     1     -11.893  12.417  64.985  1.00  0.00    -0.377 SA 
HETATM   18  C   UNL     1     -11.133  12.248  66.518  1.00  0.00    -0.299 A  
HETATM   19  N   UNL     1     -10.345  13.246  66.869  1.00  0.00    -0.253 NA 
BRANCH  18  20
HETATM   20  C   UNL     1     -11.406  11.043  67.387  1.00  0.00    -0.230 C  
BRANCH  20  21
HETATM   21  N   UNL     1     -10.490   9.903  67.152  1.00  0.00    -0.243 NA 
HETATM   22  C   UNL     1     -10.141   9.780  65.733  1.00  0.00    -0.238 C  
HETATM   23  C   UNL     1      -9.269  10.088  67.941  1.00  0.00    -0.137 C  
ENDBRANCH  20  21
ENDBRANCH  18  20
ENDBRANCH  14  15
ENDBRANCH  13  14
ENDBRANCH  12  13
ENDBRANCH  11  12
ENDBRANCH   9  11
ENDBRANCH   4   9
ENDBRANCH   2   4
TORSDOF 9
ENDMDL
MODEL      214
REMARK 921   NORMALIZED FREE ENERGY PREDICTED BY IDOCK:   -3.37 KCAL/MOL
REMARK 922        TOTAL FREE ENERGY PREDICTED BY IDOCK:   -6.21 KCAL/MOL
REMARK 923 INTER-LIGAND FREE ENERGY PREDICTED BY IDOCK:   -5.71 KCAL/MOL
REMARK 924 INTRA-LIGAND FREE ENERGY PREDICTED BY IDOCK:   -0.50 KCAL/MOL
REMARK 927      BINDING AFFINITY PREDICTED BY RF-SCORE:    0.00 PKD
ROOT
HETATM    1  C   UNL     1      -8.352   8.005  73.997  1.00  0.00    -0.265 C  
HETATM    2  N   UNL     1      -8.451   8.431  72.619  1.00  0.00    -0.299 NA 
HETATM    3  H   UNL     1      -7.563   8.526  72.125  1.00  0.00     0.000 HD 
ENDROOT
BRANCH   2   4
HETATM    4  C   UNL     1      -9.580   8.727  71.874  1.00  0.00    -0.302 C  
HETATM    5  C   UNL     1     -10.787   8.705  72.477  1.00  0.00    -0.140 C  
HETATM    6  O   UNL     1     -12.026   9.324  70.610  1.00  0.00    -0.253 OA 
HETATM    7  N   UNL     1     -12.028   9.000  71.805  1.00  0.00    -0.343 N  
HETATM    8  O   UNL     1     -13.046   8.909  72.504  1.00  0.00    -0.422 OA 
BRANCH   4   9
HETATM    9  N   UNL     1      -9.416   9.017  70.530  1.00  0.00    -0.202 NA 
HETATM   10  H   UNL     1      -9.702   9.957  70.258  1.00  0.00     0.000 HD 
BRANCH   9  11
HETATM   11  C   UNL     1      -8.904   8.200  69.450  1.00  0.00    -0.143 C  
BRANCH  11  12
HETATM   12  C   UNL     1      -8.744   9.032  68.174  1.00  0.00    -0.130 C  
BRANCH  12  13
HETATM   13  S   UNL     1     -10.344   9.497  67.427  1.00  0.00    -0.269 SA 
BRANCH  13  14
HETATM   14  C   UNL     1      -9.749  10.254  65.876  1.00  0.00    -0.225 C  
BRANCH  14  15
HETATM   15  C   UNL     1     -10.448  11.543  65.611  1.00  0.00    -0.266 A  
HETATM   16  C   UNL     1     -11.166  11.879  64.482  1.00  0.00    -0.319 A  
HETATM   17  S   UNL     1     -11.795  13.464  64.633  1.00  0.00    -0.413 SA 
HETATM   18  C   UNL     1     -11.051  13.603  66.177  1.00  0.00    -0.295 A  
HETATM   19  N   UNL     1     -10.354  12.552  66.562  1.00  0.00    -0.234 NA 
BRANCH  18  20
HETATM   20  C   UNL     1     -11.181  14.871  66.985  1.00  0.00    -0.344 C  
BRANCH  20  21
HETATM   21  N   UNL     1     -10.903  14.704  68.431  1.00  0.00    -0.239 NA 
HETATM   22  C   UNL     1      -9.493  14.967  68.738  1.00  0.00    -0.210 C  
HETATM   23  C   UNL     1     -11.751  15.618  69.200  1.00  0.00    -0.390 C  
ENDBRANCH  20  21
ENDBRANCH  18  20
ENDBRANCH  14  15
ENDBRANCH  13  14
ENDBRANCH  12  13
ENDBRANCH  11  12
ENDBRANCH   9  11
ENDBRANCH   4   9
ENDBRANCH   2   4
TORSDOF 9
ENDMDL
MODEL      215
REMARK 921   NORMALIZED FREE ENERGY PREDICTED BY IDOCK:   -3.36 KCAL/MOL
REMARK 922        TOTAL FREE ENERGY PREDICTED BY IDOCK:   -6.19 KCAL/MOL
REMARK 923 INTER-LIGAND FREE ENERGY PREDICTED BY IDOCK:   -5.72 KCAL/MOL
REMARK 924 INTRA-LIGAND FREE ENERGY PREDICTED BY IDOCK:   -0.47 KCAL/MOL
REMARK 927      BINDING AFFINITY PREDICTED BY RF-SCORE:    0.00 PKD
ROOT
HETATM    1  C   UNL     1     -11.143   6.545  67.011  1.00  0.00    -0.339 C  
HETATM    2  N   UNL     1     -10.561   7.863  66.889  1.00  0.00    -0.384 NA 
HETATM    3  H   UNL     1     -11.168   8.636  67.157  1.00  0.00     0.000 HD 
ENDROOT
BRANCH   2   4
HETATM    4  C   UNL     1      -9.295   8.223  66.459  1.00  0.00    -0.206 C  
HETATM    5  C   UNL     1      -8.319   7.290  66.441  1.00  0.00    -0.124 C  
HETATM    6  O   UNL     1      -6.650   8.672  65.599  1.00  0.00    -0.059 OA 
HETATM    7  N   UNL     1      -6.968   7.547  66.010  1.00  0.00    -0.060 N  
HETATM    8  O   UNL     1      -6.194   6.583  66.080  1.00  0.00    -0.035 OA 
BRANCH   4   9
HETATM    9  N   UNL     1      -9.084   9.538  66.083  1.00  0.00    -0.156 NA 
HETATM   10  H   UNL     1      -8.308   9.999  66.557  1.00  0.00     0.000 HD 
BRANCH   9  11
HETATM   11  C   UNL     1      -9.789  10.364  65.124  1.00  0.00    -0.313 C  
BRANCH  11  12
HETATM   12  C   UNL     1     -10.002  11.774  65.682  1.00  0.00    -0.240 C  
BRANCH  12  13
HETATM   13  S   UNL     1     -10.900  11.778  67.272  1.00  0.00    -0.268 SA 
BRANCH  13  14
HETATM   14  C   UNL     1     -11.975  13.229  67.013  1.00  0.00    -0.365 C  
BRANCH  14  15
HETATM   15  C   UNL     1     -11.549  14.369  67.873  1.00  0.00    -0.345 A  
HETATM   16  C   UNL     1     -11.778  14.517  69.226  1.00  0.00    -0.310 A  
HETATM   17  S   UNL     1     -11.091  15.983  69.783  1.00  0.00    -0.355 SA 
HETATM   18  C   UNL     1     -10.557  16.330  68.186  1.00  0.00    -0.307 A  
HETATM   19  N   UNL     1     -10.881  15.431  67.277  1.00  0.00    -0.312 NA 
BRANCH  18  20
HETATM   20  C   UNL     1      -9.804  17.603  67.883  1.00  0.00    -0.300 C  
BRANCH  20  21
HETATM   21  N   UNL     1     -10.660  18.721  67.424  1.00  0.00    -0.431 NA 
HETATM   22  C   UNL     1     -10.302  19.978  68.089  1.00  0.00    -0.362 C  
HETATM   23  C   UNL     1     -10.520  18.879  65.974  1.00  0.00    -0.446 C  
ENDBRANCH  20  21
ENDBRANCH  18  20
ENDBRANCH  14  15
ENDBRANCH  13  14
ENDBRANCH  12  13
ENDBRANCH  11  12
ENDBRANCH   9  11
ENDBRANCH   4   9
ENDBRANCH   2   4
TORSDOF 9
ENDMDL
MODEL      216
REMARK 921   NORMALIZED FREE ENERGY PREDICTED BY IDOCK:   -3.35 KCAL/MOL
REMARK 922        TOTAL FREE ENERGY PREDICTED BY IDOCK:   -6.17 KCAL/MOL
REMARK 923 INTER-LIGAND FREE ENERGY PREDICTED BY IDOCK:   -5.16 KCAL/MOL
REMARK 924 INTRA-LIGAND FREE ENERGY PREDICTED BY IDOCK:   -1.01 KCAL/MOL
REMARK 927      BINDING AFFINITY PREDICTED BY RF-SCORE:    0.00 PKD
ROOT
HETATM    1  C   UNL     1      -7.423   9.840  70.120  1.00  0.00    -0.164 C  
HETATM    2  N   UNL     1      -7.489   9.052  68.910  1.00  0.00    -0.074 NA 
HETATM    3  H   UNL     1      -6.590   8.837  68.478  1.00  0.00     0.000 HD 
ENDROOT
BRANCH   2   4
HETATM    4  C   UNL     1      -8.599   8.547  68.254  1.00  0.00    -0.139 C  
HETATM    5  C   UNL     1      -9.080   7.339  68.616  1.00  0.00    -0.133 C  
HETATM    6  O   UNL     1     -10.858   7.305  67.119  1.00  0.00    -0.337 OA 
HETATM    7  N   UNL     1     -10.231   6.716  68.010  1.00  0.00    -0.154 N  
HETATM    8  O   UNL     1     -10.521   5.595  68.447  1.00  0.00    -0.199 OA 
BRANCH   4   9
HETATM    9  N   UNL     1      -9.156   9.304  67.238  1.00  0.00    -0.126 NA 
HETATM   10  H   UNL     1      -9.923   8.853  66.740  1.00  0.00     0.000 HD 
BRANCH   9  11
HETATM   11  C   UNL     1      -8.825  10.634  66.769  1.00  0.00    -0.139 C  
BRANCH  11  12
HETATM   12  C   UNL     1      -9.871  11.648  67.242  1.00  0.00    -0.187 C  
BRANCH  12  13
HETATM   13  S   UNL     1     -11.402  10.856  67.845  1.00  0.00    -0.270 SA 
BRANCH  13  14
HETATM   14  C   UNL     1     -11.444  11.522  69.543  1.00  0.00    -0.311 C  
BRANCH  14  15
HETATM   15  C   UNL     1     -11.934  10.496  70.506  1.00  0.00    -0.342 A  
HETATM   16  C   UNL     1     -12.971  10.633  71.406  1.00  0.00    -0.443 A  
HETATM   17  S   UNL     1     -13.174   9.184  72.296  1.00  0.00    -0.463 SA 
HETATM   18  C   UNL     1     -11.856   8.485  71.441  1.00  0.00    -0.296 A  
HETATM   19  N   UNL     1     -11.274   9.274  70.560  1.00  0.00    -0.255 NA 
BRANCH  18  20
HETATM   20  C   UNL     1     -11.406   7.074  71.737  1.00  0.00    -0.258 C  
BRANCH  20  21
HETATM   21  N   UNL     1     -11.001   6.847  73.144  1.00  0.00    -0.282 NA 
HETATM   22  C   UNL     1     -10.805   5.420  73.420  1.00  0.00    -0.297 C  
HETATM   23  C   UNL     1      -9.758   7.573  73.416  1.00  0.00    -0.291 C  
ENDBRANCH  20  21
ENDBRANCH  18  20
ENDBRANCH  14  15
ENDBRANCH  13  14
ENDBRANCH  12  13
ENDBRANCH  11  12
ENDBRANCH   9  11
ENDBRANCH   4   9
ENDBRANCH   2   4
TORSDOF 9
ENDMDL
MODEL      217
REMARK 921   NORMALIZED FREE ENERGY PREDICTED BY IDOCK:   -3.34 KCAL/MOL
REMARK 922        TOTAL FREE ENERGY PREDICTED BY IDOCK:   -6.17 KCAL/MOL
REMARK 923 INTER-LIGAND FREE ENERGY PREDICTED BY IDOCK:   -5.38 KCAL/MOL
REMARK 924 INTRA-LIGAND FREE ENERGY PREDICTED BY IDOCK:   -0.78 KCAL/MOL
REMARK 927      BINDING AFFINITY PREDICTED BY RF-SCORE:    0.00 PKD
ROOT
HETATM    1  C   UNL     1     -11.524  12.753  63.744  1.00  0.00    -0.470 C  
HETATM    2  N   UNL     1     -12.432  12.869  64.863  1.00  0.00    -0.542 NA 
HETATM    3  H   UNL     1     -13.424  12.825  64.628  1.00  0.00     0.000 HD 
ENDROOT
BRANCH   2   4
HETATM    4  C   UNL     1     -12.146  13.030  66.208  1.00  0.00    -0.386 C  
HETATM    5  C   UNL     1     -12.095  14.277  66.722  1.00  0.00    -0.417 C  
HETATM    6  O   UNL     1     -11.626  13.643  68.908  1.00  0.00    -0.274 OA 
HETATM    7  N   UNL     1     -11.813  14.567  68.105  1.00  0.00    -0.329 N  
HETATM    8  O   UNL     1     -11.780  15.769  68.401  1.00  0.00    -0.366 OA 
BRANCH   4   9
HETATM    9  N   UNL     1     -11.908  11.896  66.964  1.00  0.00    -0.613 NA 
HETATM   10  H   UNL     1     -12.603  11.709  67.686  1.00  0.00     0.000 HD 
BRANCH   9  11
HETATM   11  C   UNL     1     -10.829  10.932  66.895  1.00  0.00    -0.249 C  
BRANCH  11  12
HETATM   12  C   UNL     1      -9.482  11.642  66.733  1.00  0.00    -0.186 C  
BRANCH  12  13
HETATM   13  S   UNL     1      -8.523  11.704  68.286  1.00  0.00    -0.162 SA 
BRANCH  13  14
HETATM   14  C   UNL     1      -9.317  10.332  69.190  1.00  0.00    -0.204 C  
BRANCH  14  15
HETATM   15  C   UNL     1      -8.558   9.063  69.005  1.00  0.00    -0.134 A  
HETATM   16  C   UNL     1      -7.225   8.846  69.286  1.00  0.00    -0.066 A  
HETATM   17  S   UNL     1      -6.800   7.228  68.920  1.00  0.00    -0.074 SA 
HETATM   18  C   UNL     1      -8.411   6.934  68.394  1.00  0.00    -0.123 A  
HETATM   19  N   UNL     1      -9.222   7.972  68.457  1.00  0.00    -0.136 NA 
BRANCH  18  20
HETATM   20  C   UNL     1      -8.816   5.578  67.867  1.00  0.00    -0.105 C  
BRANCH  20  21
HETATM   21  N   UNL     1      -9.133   5.557  66.421  1.00  0.00    -0.139 NA 
HETATM   22  C   UNL     1      -8.071   4.904  65.649  1.00  0.00    -0.112 C  
HETATM   23  C   UNL     1     -10.398   4.847  66.209  1.00  0.00    -0.298 C  
ENDBRANCH  20  21
ENDBRANCH  18  20
ENDBRANCH  14  15
ENDBRANCH  13  14
ENDBRANCH  12  13
ENDBRANCH  11  12
ENDBRANCH   9  11
ENDBRANCH   4   9
ENDBRANCH   2   4
TORSDOF 9
ENDMDL
MODEL      218
REMARK 921   NORMALIZED FREE ENERGY PREDICTED BY IDOCK:   -3.34 KCAL/MOL
REMARK 922        TOTAL FREE ENERGY PREDICTED BY IDOCK:   -6.16 KCAL/MOL
REMARK 923 INTER-LIGAND FREE ENERGY PREDICTED BY IDOCK:   -5.65 KCAL/MOL
REMARK 924 INTRA-LIGAND FREE ENERGY PREDICTED BY IDOCK:   -0.51 KCAL/MOL
REMARK 927      BINDING AFFINITY PREDICTED BY RF-SCORE:    0.00 PKD
ROOT
HETATM    1  C   UNL     1      -9.452  18.085  68.426  1.00  0.00    -0.308 C  
HETATM    2  N   UNL     1     -10.131  16.849  68.107  1.00  0.00    -0.284 NA 
HETATM    3  H   UNL     1      -9.837  16.400  67.240  1.00  0.00     0.000 HD 
ENDROOT
BRANCH   2   4
HETATM    4  C   UNL     1     -11.124  16.189  68.811  1.00  0.00    -0.354 C  
HETATM    5  C   UNL     1     -11.154  16.297  70.156  1.00  0.00    -0.341 C  
HETATM    6  O   UNL     1     -13.048  14.988  70.482  1.00  0.00    -0.336 OA 
HETATM    7  N   UNL     1     -12.142  15.660  70.992  1.00  0.00    -0.366 N  
HETATM    8  O   UNL     1     -12.007  15.844  72.209  1.00  0.00    -0.426 OA 
BRANCH   4   9
HETATM    9  N   UNL     1     -12.035  15.430  68.097  1.00  0.00    -0.459 NA 
HETATM   10  H   UNL     1     -13.011  15.688  68.240  1.00  0.00     0.000 HD 
BRANCH   9  11
HETATM   11  C   UNL     1     -11.824  14.330  67.180  1.00  0.00    -0.425 C  
BRANCH  11  12
HETATM   12  C   UNL     1     -11.740  14.838  65.738  1.00  0.00    -0.252 C  
BRANCH  12  13
HETATM   13  S   UNL     1     -11.106  13.578  64.579  1.00  0.00    -0.381 SA 
BRANCH  13  14
HETATM   14  C   UNL     1     -11.248  12.095  65.631  1.00  0.00    -0.335 C  
BRANCH  14  15
HETATM   15  C   UNL     1      -9.906  11.513  65.915  1.00  0.00    -0.231 A  
HETATM   16  C   UNL     1      -9.135  11.719  67.041  1.00  0.00    -0.187 A  
HETATM   17  S   UNL     1      -7.673  10.834  66.925  1.00  0.00    -0.137 SA 
HETATM   18  C   UNL     1      -8.155  10.258  65.378  1.00  0.00    -0.147 A  
HETATM   19  N   UNL     1      -9.320  10.704  64.948  1.00  0.00    -0.211 NA 
BRANCH  18  20
HETATM   20  C   UNL     1      -7.261   9.336  64.585  1.00  0.00    -0.100 C  
BRANCH  20  21
HETATM   21  N   UNL     1      -7.944   8.134  64.052  1.00  0.00    -0.146 NA 
HETATM   22  C   UNL     1      -8.020   8.168  62.587  1.00  0.00    -0.156 C  
HETATM   23  C   UNL     1      -7.220   6.933  64.476  1.00  0.00    -0.073 C  
ENDBRANCH  20  21
ENDBRANCH  18  20
ENDBRANCH  14  15
ENDBRANCH  13  14
ENDBRANCH  12  13
ENDBRANCH  11  12
ENDBRANCH   9  11
ENDBRANCH   4   9
ENDBRANCH   2   4
TORSDOF 9
ENDMDL
MODEL      219
REMARK 921   NORMALIZED FREE ENERGY PREDICTED BY IDOCK:   -3.33 KCAL/MOL
REMARK 922        TOTAL FREE ENERGY PREDICTED BY IDOCK:   -6.14 KCAL/MOL
REMARK 923 INTER-LIGAND FREE ENERGY PREDICTED BY IDOCK:   -6.36 KCAL/MOL
REMARK 924 INTRA-LIGAND FREE ENERGY PREDICTED BY IDOCK:    0.22 KCAL/MOL
REMARK 927      BINDING AFFINITY PREDICTED BY RF-SCORE:    0.00 PKD
ROOT
HETATM    1  C   UNL     1     -14.219  14.503  71.936  1.00  0.00    -0.538 C  
HETATM    2  N   UNL     1     -13.081  14.117  71.132  1.00  0.00    -0.340 NA 
HETATM    3  H   UNL     1     -12.607  14.880  70.649  1.00  0.00     0.000 HD 
ENDROOT
BRANCH   2   4
HETATM    4  C   UNL     1     -12.544  12.857  70.924  1.00  0.00    -0.270 C  
HETATM    5  C   UNL     1     -13.053  11.808  71.603  1.00  0.00    -0.338 C  
HETATM    6  O   UNL     1     -11.670  10.192  70.665  1.00  0.00    -0.287 OA 
HETATM    7  N   UNL     1     -12.580  10.454  71.465  1.00  0.00    -0.414 N  
HETATM    8  O   UNL     1     -13.144   9.617  72.182  1.00  0.00    -0.414 OA 
BRANCH   4   9
HETATM    9  N   UNL     1     -11.490  12.738  70.035  1.00  0.00    -0.524 NA 
HETATM   10  H   UNL     1     -10.658  12.289  70.417  1.00  0.00     0.000 HD 
BRANCH   9  11
HETATM   11  C   UNL     1     -11.379  13.147  68.650  1.00  0.00    -0.289 C  
BRANCH  11  12
HETATM   12  C   UNL     1     -11.588  11.950  67.717  1.00  0.00    -0.323 C  
BRANCH  12  13
HETATM   13  S   UNL     1     -11.586  12.421  65.953  1.00  0.00    -0.399 SA 
BRANCH  13  14
HETATM   14  C   UNL     1      -9.832  12.115  65.556  1.00  0.00    -0.221 C  
BRANCH  14  15
HETATM   15  C   UNL     1      -9.504  10.666  65.670  1.00  0.00    -0.212 A  
HETATM   16  C   UNL     1      -8.464  10.000  65.054  1.00  0.00    -0.160 A  
HETATM   17  S   UNL     1      -8.482   8.345  65.491  1.00  0.00    -0.169 SA 
HETATM   18  C   UNL     1      -9.883   8.622  66.449  1.00  0.00    -0.270 A  
HETATM   19  N   UNL     1     -10.337   9.860  66.437  1.00  0.00    -0.208 NA 
BRANCH  18  20
HETATM   20  C   UNL     1     -10.538   7.490  67.204  1.00  0.00    -0.345 C  
BRANCH  20  21
HETATM   21  N   UNL     1     -10.154   7.409  68.632  1.00  0.00    -0.174 NA 
HETATM   22  C   UNL     1     -10.834   6.299  69.307  1.00  0.00    -0.342 C  
HETATM   23  C   UNL     1      -8.703   7.230  68.738  1.00  0.00    -0.125 C  
ENDBRANCH  20  21
ENDBRANCH  18  20
ENDBRANCH  14  15
ENDBRANCH  13  14
ENDBRANCH  12  13
ENDBRANCH  11  12
ENDBRANCH   9  11
ENDBRANCH   4   9
ENDBRANCH   2   4
TORSDOF 9
ENDMDL
MODEL      220
REMARK 921   NORMALIZED FREE ENERGY PREDICTED BY IDOCK:   -3.31 KCAL/MOL
REMARK 922        TOTAL FREE ENERGY PREDICTED BY IDOCK:   -6.12 KCAL/MOL
REMARK 923 INTER-LIGAND FREE ENERGY PREDICTED BY IDOCK:   -5.72 KCAL/MOL
REMARK 924 INTRA-LIGAND FREE ENERGY PREDICTED BY IDOCK:   -0.40 KCAL/MOL
REMARK 927      BINDING AFFINITY PREDICTED BY RF-SCORE:    0.00 PKD
ROOT
HETATM    1  C   UNL     1     -10.020  15.976  69.345  1.00  0.00    -0.262 C  
HETATM    2  N   UNL     1     -11.299  15.624  69.921  1.00  0.00    -0.306 NA 
HETATM    3  H   UNL     1     -11.956  16.395  70.032  1.00  0.00     0.000 HD 
ENDROOT
BRANCH   2   4
HETATM    4  C   UNL     1     -11.757  14.387  70.344  1.00  0.00    -0.280 C  
HETATM    5  C   UNL     1     -12.788  14.333  71.213  1.00  0.00    -0.352 C  
HETATM    6  O   UNL     1     -12.908  12.014  71.334  1.00  0.00    -0.381 OA 
HETATM    7  N   UNL     1     -13.352  13.106  71.717  1.00  0.00    -0.408 N  
HETATM    8  O   UNL     1     -14.279  13.239  72.527  1.00  0.00    -0.697 OA 
BRANCH   4   9
HETATM    9  N   UNL     1     -11.118  13.257  69.865  1.00  0.00    -0.458 NA 
HETATM   10  H   UNL     1     -10.326  12.944  70.426  1.00  0.00     0.000 HD 
BRANCH   9  11
HETATM   11  C   UNL     1     -11.393  12.449  68.695  1.00  0.00    -0.288 C  
BRANCH  11  12
HETATM   12  C   UNL     1     -12.206  13.244  67.669  1.00  0.00    -0.135 C  
BRANCH  12  13
HETATM   13  S   UNL     1     -11.506  13.151  65.986  1.00  0.00    -0.351 SA 
BRANCH  13  14
HETATM   14  C   UNL     1      -9.808  12.616  66.388  1.00  0.00    -0.259 C  
BRANCH  14  15
HETATM   15  C   UNL     1      -9.527  11.267  65.822  1.00  0.00    -0.227 A  
HETATM   16  C   UNL     1      -9.249  10.962  64.505  1.00  0.00    -0.201 A  
HETATM   17  S   UNL     1      -8.984   9.279  64.332  1.00  0.00    -0.031 SA 
HETATM   18  C   UNL     1      -9.278   9.069  66.014  1.00  0.00    -0.226 A  
HETATM   19  N   UNL     1      -9.580  10.170  66.674  1.00  0.00    -0.176 NA 
BRANCH  18  20
HETATM   20  C   UNL     1      -9.222   7.697  66.641  1.00  0.00    -0.170 C  
BRANCH  20  21
HETATM   21  N   UNL     1     -10.398   7.361  67.477  1.00  0.00    -0.226 NA 
HETATM   22  C   UNL     1     -11.237   6.343  66.836  1.00  0.00    -0.133 C  
HETATM   23  C   UNL     1      -9.946   6.871  68.781  1.00  0.00    -0.153 C  
ENDBRANCH  20  21
ENDBRANCH  18  20
ENDBRANCH  14  15
ENDBRANCH  13  14
ENDBRANCH  12  13
ENDBRANCH  11  12
ENDBRANCH   9  11
ENDBRANCH   4   9
ENDBRANCH   2   4
TORSDOF 9
ENDMDL
MODEL      221
REMARK 921   NORMALIZED FREE ENERGY PREDICTED BY IDOCK:   -3.31 KCAL/MOL
REMARK 922        TOTAL FREE ENERGY PREDICTED BY IDOCK:   -6.11 KCAL/MOL
REMARK 923 INTER-LIGAND FREE ENERGY PREDICTED BY IDOCK:   -5.82 KCAL/MOL
REMARK 924 INTRA-LIGAND FREE ENERGY PREDICTED BY IDOCK:   -0.29 KCAL/MOL
REMARK 927      BINDING AFFINITY PREDICTED BY RF-SCORE:    0.00 PKD
ROOT
HETATM    1  C   UNL     1     -11.189  14.961  68.647  1.00  0.00    -0.275 C  
HETATM    2  N   UNL     1     -12.249  14.330  67.892  1.00  0.00    -0.595 NA 
HETATM    3  H   UNL     1     -13.195  14.536  68.210  1.00  0.00     0.000 HD 
ENDROOT
BRANCH   2   4
HETATM    4  C   UNL     1     -12.160  13.485  66.799  1.00  0.00    -0.375 C  
HETATM    5  C   UNL     1     -12.317  13.997  65.560  1.00  0.00    -0.483 C  
HETATM    6  O   UNL     1     -11.992  12.004  64.407  1.00  0.00    -0.347 OA 
HETATM    7  N   UNL     1     -12.241  13.217  64.350  1.00  0.00    -0.396 N  
HETATM    8  O   UNL     1     -12.434  13.843  63.300  1.00  0.00    -0.817 OA 
BRANCH   4   9
HETATM    9  N   UNL     1     -11.931  12.140  67.032  1.00  0.00    -0.598 NA 
HETATM   10  H   UNL     1     -12.447  11.506  66.422  1.00  0.00     0.000 HD 
BRANCH   9  11
HETATM   11  C   UNL     1     -11.075  11.488  68.002  1.00  0.00    -0.254 C  
BRANCH  11  12
HETATM   12  C   UNL     1     -11.907  10.910  69.151  1.00  0.00    -0.317 C  
BRANCH  12  13
HETATM   13  S   UNL     1     -10.881  10.121  70.440  1.00  0.00    -0.259 SA 
BRANCH  13  14
HETATM   14  C   UNL     1     -10.888   8.402  69.827  1.00  0.00    -0.183 C  
BRANCH  14  15
HETATM   15  C   UNL     1      -9.625   8.091  69.100  1.00  0.00    -0.156 A  
HETATM   16  C   UNL     1      -8.891   6.925  69.177  1.00  0.00    -0.134 A  
HETATM   17  S   UNL     1      -7.521   7.023  68.154  1.00  0.00    -0.101 SA 
HETATM   18  C   UNL     1      -7.986   8.615  67.698  1.00  0.00    -0.107 A  
HETATM   19  N   UNL     1      -9.078   9.070  68.280  1.00  0.00    -0.133 NA 
BRANCH  18  20
HETATM   20  C   UNL     1      -7.151   9.414  66.726  1.00  0.00    -0.082 C  
BRANCH  20  21
HETATM   21  N   UNL     1      -6.415  10.542  67.340  1.00  0.00    -0.061 NA 
HETATM   22  C   UNL     1      -5.765  10.140  68.592  1.00  0.00    -0.038 C  
HETATM   23  C   UNL     1      -5.404  11.034  66.400  1.00  0.00    -0.114 C  
ENDBRANCH  20  21
ENDBRANCH  18  20
ENDBRANCH  14  15
ENDBRANCH  13  14
ENDBRANCH  12  13
ENDBRANCH  11  12
ENDBRANCH   9  11
ENDBRANCH   4   9
ENDBRANCH   2   4
TORSDOF 9
ENDMDL
MODEL      222
REMARK 921   NORMALIZED FREE ENERGY PREDICTED BY IDOCK:   -3.31 KCAL/MOL
REMARK 922        TOTAL FREE ENERGY PREDICTED BY IDOCK:   -6.11 KCAL/MOL
REMARK 923 INTER-LIGAND FREE ENERGY PREDICTED BY IDOCK:   -5.54 KCAL/MOL
REMARK 924 INTRA-LIGAND FREE ENERGY PREDICTED BY IDOCK:   -0.57 KCAL/MOL
REMARK 927      BINDING AFFINITY PREDICTED BY RF-SCORE:    0.00 PKD
ROOT
HETATM    1  C   UNL     1     -11.317  13.404  65.646  1.00  0.00    -0.298 C  
HETATM    2  N   UNL     1     -11.508  12.498  66.756  1.00  0.00    -0.340 NA 
HETATM    3  H   UNL     1     -11.355  11.512  66.547  1.00  0.00     0.000 HD 
ENDROOT
BRANCH   2   4
HETATM    4  C   UNL     1     -11.869  12.779  68.063  1.00  0.00    -0.336 C  
HETATM    5  C   UNL     1     -11.840  14.060  68.489  1.00  0.00    -0.364 C  
HETATM    6  O   UNL     1     -12.587  13.634  70.649  1.00  0.00    -0.327 OA 
HETATM    7  N   UNL     1     -12.199  14.472  69.823  1.00  0.00    -0.322 N  
HETATM    8  O   UNL     1     -12.092  15.684  70.052  1.00  0.00    -0.360 OA 
BRANCH   4   9
HETATM    9  N   UNL     1     -12.228  11.722  68.881  1.00  0.00    -0.326 NA 
HETATM   10  H   UNL     1     -13.157  11.799  69.295  1.00  0.00     0.000 HD 
BRANCH   9  11
HETATM   11  C   UNL     1     -11.497  10.526  69.243  1.00  0.00    -0.256 C  
BRANCH  11  12
HETATM   12  C   UNL     1     -11.490  10.339  70.763  1.00  0.00    -0.351 C  
BRANCH  12  13
HETATM   13  S   UNL     1     -12.782   9.185  71.341  1.00  0.00    -0.301 SA 
BRANCH  13  14
HETATM   14  C   UNL     1     -11.820   8.236  72.567  1.00  0.00    -0.373 C  
BRANCH  14  15
HETATM   15  C   UNL     1     -10.649   7.572  71.927  1.00  0.00    -0.211 A  
HETATM   16  C   UNL     1      -9.381   7.441  72.455  1.00  0.00    -0.144 A  
HETATM   17  S   UNL     1      -8.371   6.596  71.360  1.00  0.00    -0.120 SA 
HETATM   18  C   UNL     1      -9.681   6.483  70.252  1.00  0.00    -0.168 A  
HETATM   19  N   UNL     1     -10.803   7.054  70.647  1.00  0.00    -0.238 NA 
BRANCH  18  20
HETATM   20  C   UNL     1      -9.506   5.802  68.916  1.00  0.00    -0.124 C  
BRANCH  20  21
HETATM   21  N   UNL     1      -9.591   6.714  67.752  1.00  0.00    -0.123 NA 
HETATM   22  C   UNL     1      -8.351   6.699  66.968  1.00  0.00    -0.113 C  
HETATM   23  C   UNL     1     -10.713   6.314  66.900  1.00  0.00    -0.339 C  
ENDBRANCH  20  21
ENDBRANCH  18  20
ENDBRANCH  14  15
ENDBRANCH  13  14
ENDBRANCH  12  13
ENDBRANCH  11  12
ENDBRANCH   9  11
ENDBRANCH   4   9
ENDBRANCH   2   4
TORSDOF 9
ENDMDL
MODEL      223
REMARK 921   NORMALIZED FREE ENERGY PREDICTED BY IDOCK:   -3.31 KCAL/MOL
REMARK 922        TOTAL FREE ENERGY PREDICTED BY IDOCK:   -6.11 KCAL/MOL
REMARK 923 INTER-LIGAND FREE ENERGY PREDICTED BY IDOCK:   -5.94 KCAL/MOL
REMARK 924 INTRA-LIGAND FREE ENERGY PREDICTED BY IDOCK:   -0.17 KCAL/MOL
REMARK 927      BINDING AFFINITY PREDICTED BY RF-SCORE:    0.00 PKD
ROOT
HETATM    1  C   UNL     1     -11.783  14.269  69.192  1.00  0.00    -0.320 C  
HETATM    2  N   UNL     1     -10.696  14.999  68.580  1.00  0.00    -0.237 NA 
HETATM    3  H   UNL     1      -9.823  15.007  69.107  1.00  0.00     0.000 HD 
ENDROOT
BRANCH   2   4
HETATM    4  C   UNL     1     -10.672  15.687  67.378  1.00  0.00    -0.309 C  
HETATM    5  C   UNL     1     -10.614  17.036  67.397  1.00  0.00    -0.289 C  
HETATM    6  O   UNL     1     -10.574  17.330  65.092  1.00  0.00    -0.686 OA 
HETATM    7  N   UNL     1     -10.579  17.856  66.213  1.00  0.00    -0.298 N  
HETATM    8  O   UNL     1     -10.550  19.078  66.412  1.00  0.00    -0.415 OA 
BRANCH   4   9
HETATM    9  N   UNL     1     -10.728  14.954  66.206  1.00  0.00    -0.312 NA 
HETATM   10  H   UNL     1      -9.839  14.865  65.715  1.00  0.00     0.000 HD 
BRANCH   9  11
HETATM   11  C   UNL     1     -11.846  14.292  65.566  1.00  0.00    -0.363 C  
BRANCH  11  12
HETATM   12  C   UNL     1     -11.748  12.774  65.745  1.00  0.00    -0.402 C  
BRANCH  12  13
HETATM   13  S   UNL     1     -10.025  12.188  65.891  1.00  0.00    -0.247 SA 
BRANCH  13  14
HETATM   14  C   UNL     1     -10.270  10.419  65.517  1.00  0.00    -0.246 C  
BRANCH  14  15
HETATM   15  C   UNL     1     -10.206   9.599  66.759  1.00  0.00    -0.239 A  
HETATM   16  C   UNL     1      -9.791  10.016  68.008  1.00  0.00    -0.142 A  
HETATM   17  S   UNL     1      -9.901   8.725  69.127  1.00  0.00    -0.186 SA 
HETATM   18  C   UNL     1     -10.470   7.696  67.872  1.00  0.00    -0.207 A  
HETATM   19  N   UNL     1     -10.557   8.256  66.681  1.00  0.00    -0.178 NA 
BRANCH  18  20
HETATM   20  C   UNL     1     -10.799   6.249  68.150  1.00  0.00    -0.320 C  
BRANCH  20  21
HETATM   21  N   UNL     1      -9.875   5.282  67.514  1.00  0.00    -0.146 NA 
HETATM   22  C   UNL     1     -10.408   4.792  66.238  1.00  0.00    -0.291 C  
HETATM   23  C   UNL     1      -8.577   5.923  67.288  1.00  0.00    -0.106 C  
ENDBRANCH  20  21
ENDBRANCH  18  20
ENDBRANCH  14  15
ENDBRANCH  13  14
ENDBRANCH  12  13
ENDBRANCH  11  12
ENDBRANCH   9  11
ENDBRANCH   4   9
ENDBRANCH   2   4
TORSDOF 9
ENDMDL
MODEL      224
REMARK 921   NORMALIZED FREE ENERGY PREDICTED BY IDOCK:   -3.30 KCAL/MOL
REMARK 922        TOTAL FREE ENERGY PREDICTED BY IDOCK:   -6.11 KCAL/MOL
REMARK 923 INTER-LIGAND FREE ENERGY PREDICTED BY IDOCK:   -5.58 KCAL/MOL
REMARK 924 INTRA-LIGAND FREE ENERGY PREDICTED BY IDOCK:   -0.53 KCAL/MOL
REMARK 927      BINDING AFFINITY PREDICTED BY RF-SCORE:    0.00 PKD
ROOT
HETATM    1  C   UNL     1     -11.893  14.246  68.690  1.00  0.00    -0.344 C  
HETATM    2  N   UNL     1     -11.461  14.772  67.414  1.00  0.00    -0.354 NA 
HETATM    3  H   UNL     1     -11.342  15.784  67.376  1.00  0.00     0.000 HD 
ENDROOT
BRANCH   2   4
HETATM    4  C   UNL     1     -11.188  14.097  66.237  1.00  0.00    -0.329 C  
HETATM    5  C   UNL     1     -12.056  14.194  65.209  1.00  0.00    -0.405 C  
HETATM    6  O   UNL     1     -10.859  12.862  63.726  1.00  0.00    -0.401 OA 
HETATM    7  N   UNL     1     -11.874  13.541  63.937  1.00  0.00    -0.428 N  
HETATM    8  O   UNL     1     -12.781  13.717  63.113  1.00  0.00    -0.743 OA 
BRANCH   4   9
HETATM    9  N   UNL     1     -10.035  13.333  66.178  1.00  0.00    -0.289 NA 
HETATM   10  H   UNL     1      -9.303  13.710  65.576  1.00  0.00     0.000 HD 
BRANCH   9  11
HETATM   11  C   UNL     1      -9.701  12.085  66.832  1.00  0.00    -0.203 C  
BRANCH  11  12
HETATM   12  C   UNL     1      -8.236  12.087  67.280  1.00  0.00    -0.173 C  
BRANCH  12  13
HETATM   13  S   UNL     1      -7.329  10.599  66.735  1.00  0.00    -0.127 SA 
BRANCH  13  14
HETATM   14  C   UNL     1      -8.533   9.925  65.541  1.00  0.00    -0.140 C  
BRANCH  14  15
HETATM   15  C   UNL     1      -9.053   8.605  65.997  1.00  0.00    -0.204 A  
HETATM   16  C   UNL     1     -10.153   8.380  66.799  1.00  0.00    -0.303 A  
HETATM   17  S   UNL     1     -10.369   6.700  67.047  1.00  0.00    -0.284 SA 
HETATM   18  C   UNL     1      -8.974   6.389  66.090  1.00  0.00    -0.150 A  
HETATM   19  N   UNL     1      -8.359   7.459  65.626  1.00  0.00    -0.137 NA 
BRANCH  18  20
HETATM   20  C   UNL     1      -8.499   4.975  65.855  1.00  0.00    -0.121 C  
BRANCH  20  21
HETATM   21  N   UNL     1      -9.565   3.951  65.952  1.00  0.00    -0.184 NA 
HETATM   22  C   UNL     1      -9.956   3.458  64.627  1.00  0.00    -0.117 C  
HETATM   23  C   UNL     1      -9.093   2.831  66.771  1.00  0.00    -0.144 C  
ENDBRANCH  20  21
ENDBRANCH  18  20
ENDBRANCH  14  15
ENDBRANCH  13  14
ENDBRANCH  12  13
ENDBRANCH  11  12
ENDBRANCH   9  11
ENDBRANCH   4   9
ENDBRANCH   2   4
TORSDOF 9
ENDMDL
MODEL      225
REMARK 921   NORMALIZED FREE ENERGY PREDICTED BY IDOCK:   -3.30 KCAL/MOL
REMARK 922        TOTAL FREE ENERGY PREDICTED BY IDOCK:   -6.10 KCAL/MOL
REMARK 923 INTER-LIGAND FREE ENERGY PREDICTED BY IDOCK:   -5.69 KCAL/MOL
REMARK 924 INTRA-LIGAND FREE ENERGY PREDICTED BY IDOCK:   -0.40 KCAL/MOL
REMARK 927      BINDING AFFINITY PREDICTED BY RF-SCORE:    0.00 PKD
ROOT
HETATM    1  C   UNL     1      -8.162   8.827  63.867  1.00  0.00    -0.160 C  
HETATM    2  N   UNL     1      -9.188   8.923  64.881  1.00  0.00    -0.436 NA 
HETATM    3  H   UNL     1      -9.338   8.079  65.433  1.00  0.00     0.000 HD 
ENDROOT
BRANCH   2   4
HETATM    4  C   UNL     1      -9.996   9.999  65.208  1.00  0.00    -0.298 C  
HETATM    5  C   UNL     1     -10.275  10.921  64.262  1.00  0.00    -0.364 C  
HETATM    6  O   UNL     1     -11.637  12.257  65.591  1.00  0.00    -0.359 OA 
HETATM    7  N   UNL     1     -11.107  12.077  64.486  1.00  0.00    -0.317 N  
HETATM    8  O   UNL     1     -11.239  12.833  63.515  1.00  0.00    -0.450 OA 
BRANCH   4   9
HETATM    9  N   UNL     1     -10.468  10.088  66.506  1.00  0.00    -0.189 NA 
HETATM   10  H   UNL     1     -11.337   9.583  66.681  1.00  0.00     0.000 HD 
BRANCH   9  11
HETATM   11  C   UNL     1      -9.926  10.781  67.657  1.00  0.00    -0.173 C  
BRANCH  11  12
HETATM   12  C   UNL     1      -8.419  10.998  67.494  1.00  0.00    -0.127 C  
BRANCH  12  13
HETATM   13  S   UNL     1      -7.441  10.174  68.798  1.00  0.00    -0.092 SA 
BRANCH  13  14
HETATM   14  C   UNL     1      -8.396   8.629  68.967  1.00  0.00    -0.119 C  
BRANCH  14  15
HETATM   15  C   UNL     1      -8.915   8.473  70.355  1.00  0.00    -0.152 A  
HETATM   16  C   UNL     1      -8.188   8.131  71.478  1.00  0.00    -0.125 A  
HETATM   17  S   UNL     1      -9.210   8.083  72.851  1.00  0.00    -0.281 SA 
HETATM   18  C   UNL     1     -10.551   8.496  71.855  1.00  0.00    -0.322 A  
HETATM   19  N   UNL     1     -10.277   8.642  70.574  1.00  0.00    -0.191 NA 
BRANCH  18  20
HETATM   20  C   UNL     1     -11.934   8.635  72.444  1.00  0.00    -0.340 C  
BRANCH  20  21
HETATM   21  N   UNL     1     -12.961   9.099  71.482  1.00  0.00    -0.337 NA 
HETATM   22  C   UNL     1     -14.202   8.327  71.610  1.00  0.00    -0.447 C  
HETATM   23  C   UNL     1     -13.241  10.518  71.714  1.00  0.00    -0.417 C  
ENDBRANCH  20  21
ENDBRANCH  18  20
ENDBRANCH  14  15
ENDBRANCH  13  14
ENDBRANCH  12  13
ENDBRANCH  11  12
ENDBRANCH   9  11
ENDBRANCH   4   9
ENDBRANCH   2   4
TORSDOF 9
ENDMDL
MODEL      226
REMARK 921   NORMALIZED FREE ENERGY PREDICTED BY IDOCK:   -3.29 KCAL/MOL
REMARK 922        TOTAL FREE ENERGY PREDICTED BY IDOCK:   -6.09 KCAL/MOL
REMARK 923 INTER-LIGAND FREE ENERGY PREDICTED BY IDOCK:   -5.17 KCAL/MOL
REMARK 924 INTRA-LIGAND FREE ENERGY PREDICTED BY IDOCK:   -0.92 KCAL/MOL
REMARK 927      BINDING AFFINITY PREDICTED BY RF-SCORE:    0.00 PKD
ROOT
HETATM    1  C   UNL     1     -11.758  12.203  68.034  1.00  0.00    -0.344 C  
HETATM    2  N   UNL     1     -11.161  10.899  68.218  1.00  0.00    -0.243 NA 
HETATM    3  H   UNL     1     -11.326  10.232  67.465  1.00  0.00     0.000 HD 
ENDROOT
BRANCH   2   4
HETATM    4  C   UNL     1     -10.396  10.428  69.273  1.00  0.00    -0.230 C  
HETATM    5  C   UNL     1      -9.179   9.906  69.017  1.00  0.00    -0.168 C  
HETATM    6  O   UNL     1      -8.624   9.437  71.226  1.00  0.00    -0.299 OA 
HETATM    7  N   UNL     1      -8.294   9.391  70.032  1.00  0.00    -0.159 N  
HETATM    8  O   UNL     1      -7.224   8.926  69.620  1.00  0.00    -0.053 OA 
BRANCH   4   9
HETATM    9  N   UNL     1     -10.931  10.501  70.548  1.00  0.00    -0.433 NA 
HETATM   10  H   UNL     1     -10.335  10.963  71.235  1.00  0.00     0.000 HD 
BRANCH   9  11
HETATM   11  C   UNL     1     -12.198  10.025  71.062  1.00  0.00    -0.365 C  
BRANCH  11  12
HETATM   12  C   UNL     1     -11.982   8.865  72.039  1.00  0.00    -0.369 C  
BRANCH  12  13
HETATM   13  S   UNL     1     -12.846   7.340  71.527  1.00  0.00    -0.377 SA 
BRANCH  13  14
HETATM   14  C   UNL     1     -11.715   6.095  72.235  1.00  0.00    -0.302 C  
BRANCH  14  15
HETATM   15  C   UNL     1     -10.568   5.835  71.320  1.00  0.00    -0.257 A  
HETATM   16  C   UNL     1      -9.226   5.961  71.616  1.00  0.00    -0.146 A  
HETATM   17  S   UNL     1      -8.279   5.545  70.252  1.00  0.00    -0.104 SA 
HETATM   18  C   UNL     1      -9.717   5.248  69.356  1.00  0.00    -0.174 A  
HETATM   19  N   UNL     1     -10.842   5.463  70.009  1.00  0.00    -0.238 NA 
BRANCH  18  20
HETATM   20  C   UNL     1      -9.650   4.810  67.912  1.00  0.00    -0.154 C  
BRANCH  20  21
HETATM   21  N   UNL     1     -10.635   5.474  67.028  1.00  0.00    -0.271 NA 
HETATM   22  C   UNL     1     -10.334   6.900  66.867  1.00  0.00    -0.262 C  
HETATM   23  C   UNL     1     -10.630   4.822  65.716  1.00  0.00    -0.218 C  
ENDBRANCH  20  21
ENDBRANCH  18  20
ENDBRANCH  14  15
ENDBRANCH  13  14
ENDBRANCH  12  13
ENDBRANCH  11  12
ENDBRANCH   9  11
ENDBRANCH   4   9
ENDBRANCH   2   4
TORSDOF 9
ENDMDL
MODEL      227
REMARK 921   NORMALIZED FREE ENERGY PREDICTED BY IDOCK:   -3.29 KCAL/MOL
REMARK 922        TOTAL FREE ENERGY PREDICTED BY IDOCK:   -6.08 KCAL/MOL
REMARK 923 INTER-LIGAND FREE ENERGY PREDICTED BY IDOCK:   -5.80 KCAL/MOL
REMARK 924 INTRA-LIGAND FREE ENERGY PREDICTED BY IDOCK:   -0.28 KCAL/MOL
REMARK 927      BINDING AFFINITY PREDICTED BY RF-SCORE:    0.00 PKD
ROOT
HETATM    1  C   UNL     1     -12.049  12.959  63.265  1.00  0.00    -0.440 C  
HETATM    2  N   UNL     1     -12.457  14.131  64.007  1.00  0.00    -0.792 NA 
HETATM    3  H   UNL     1     -13.274  14.618  63.640  1.00  0.00     0.000 HD 
ENDROOT
BRANCH   2   4
HETATM    4  C   UNL     1     -11.897  14.685  65.145  1.00  0.00    -0.351 C  
HETATM    5  C   UNL     1     -10.774  15.424  65.029  1.00  0.00    -0.438 C  
HETATM    6  O   UNL     1     -10.574  15.955  67.284  1.00  0.00    -0.306 OA 
HETATM    7  N   UNL     1     -10.106  16.053  66.141  1.00  0.00    -0.305 N  
HETATM    8  O   UNL     1      -9.073  16.675  65.859  1.00  0.00    -0.480 OA 
BRANCH   4   9
HETATM    9  N   UNL     1     -12.511  14.436  66.361  1.00  0.00    -0.466 NA 
HETATM   10  H   UNL     1     -13.053  15.216  66.733  1.00  0.00     0.000 HD 
BRANCH   9  11
HETATM   11  C   UNL     1     -12.507  13.248  67.188  1.00  0.00     0.108 C  
BRANCH  11  12
HETATM   12  C   UNL     1     -11.294  12.370  66.866  1.00  0.00    -0.333 C  
BRANCH  12  13
HETATM   13  S   UNL     1      -9.960  12.527  68.102  1.00  0.00    -0.225 SA 
BRANCH  13  14
HETATM   14  C   UNL     1     -10.900  12.147  69.618  1.00  0.00     0.246 C  
BRANCH  14  15
HETATM   15  C   UNL     1     -10.736  10.716  70.003  1.00  0.00    -0.155 A  
HETATM   16  C   UNL     1     -11.307  10.078  71.085  1.00  0.00    -0.323 A  
HETATM   17  S   UNL     1     -10.838   8.432  71.114  1.00  0.00    -0.248 SA 
HETATM   18  C   UNL     1      -9.892   8.686  69.701  1.00  0.00    -0.186 A  
HETATM   19  N   UNL     1      -9.895   9.920  69.236  1.00  0.00    -0.195 NA 
BRANCH  18  20
HETATM   20  C   UNL     1      -9.099   7.555  69.090  1.00  0.00    -0.138 C  
BRANCH  20  21
HETATM   21  N   UNL     1      -9.868   6.714  68.143  1.00  0.00    -0.130 NA 
HETATM   22  C   UNL     1     -10.877   5.909  68.840  1.00  0.00    -0.303 C  
HETATM   23  C   UNL     1     -10.525   7.571  67.152  1.00  0.00    -0.336 C  
ENDBRANCH  20  21
ENDBRANCH  18  20
ENDBRANCH  14  15
ENDBRANCH  13  14
ENDBRANCH  12  13
ENDBRANCH  11  12
ENDBRANCH   9  11
ENDBRANCH   4   9
ENDBRANCH   2   4
TORSDOF 9
ENDMDL
MODEL      228
REMARK 921   NORMALIZED FREE ENERGY PREDICTED BY IDOCK:   -3.29 KCAL/MOL
REMARK 922        TOTAL FREE ENERGY PREDICTED BY IDOCK:   -6.08 KCAL/MOL
REMARK 923 INTER-LIGAND FREE ENERGY PREDICTED BY IDOCK:   -5.50 KCAL/MOL
REMARK 924 INTRA-LIGAND FREE ENERGY PREDICTED BY IDOCK:   -0.59 KCAL/MOL
REMARK 927      BINDING AFFINITY PREDICTED BY RF-SCORE:    0.00 PKD
ROOT
HETATM    1  C   UNL     1     -12.284  13.528  63.678  1.00  0.00    -0.375 C  
HETATM    2  N   UNL     1     -12.767  13.015  64.941  1.00  0.00    -0.706 NA 
HETATM    3  H   UNL     1     -13.636  12.484  64.894  1.00  0.00     0.000 HD 
ENDROOT
BRANCH   2   4
HETATM    4  C   UNL     1     -12.215  13.142  66.205  1.00  0.00    -0.385 C  
HETATM    5  C   UNL     1     -12.207  14.355  66.797  1.00  0.00    -0.288 C  
HETATM    6  O   UNL     1     -11.196  13.674  68.777  1.00  0.00    -0.252 OA 
HETATM    7  N   UNL     1     -11.666  14.606  68.109  1.00  0.00    -0.331 N  
HETATM    8  O   UNL     1     -11.719  15.783  68.490  1.00  0.00    -0.383 OA 
BRANCH   4   9
HETATM    9  N   UNL     1     -11.678  12.013  66.797  1.00  0.00    -0.580 NA 
HETATM   10  H   UNL     1     -12.200  11.662  67.601  1.00  0.00     0.000 HD 
BRANCH   9  11
HETATM   11  C   UNL     1     -10.494  11.249  66.461  1.00  0.00    -0.253 C  
BRANCH  11  12
HETATM   12  C   UNL     1     -10.028  10.421  67.662  1.00  0.00    -0.174 C  
BRANCH  12  13
HETATM   13  S   UNL     1     -11.410   9.856  68.712  1.00  0.00     0.100 SA 
BRANCH  13  14
HETATM   14  C   UNL     1     -10.672  10.121  70.360  1.00  0.00    -0.266 C  
BRANCH  14  15
HETATM   15  C   UNL     1     -10.342   8.822  71.010  1.00  0.00    -0.233 A  
HETATM   16  C   UNL     1     -10.639   8.444  72.305  1.00  0.00    -0.342 A  
HETATM   17  S   UNL     1     -10.069   6.857  72.601  1.00  0.00    -0.182 SA 
HETATM   18  C   UNL     1      -9.449   6.790  70.998  1.00  0.00    -0.164 A  
HETATM   19  N   UNL     1      -9.625   7.882  70.280  1.00  0.00    -0.171 NA 
BRANCH  18  20
HETATM   20  C   UNL     1      -8.727   5.560  70.502  1.00  0.00    -0.135 C  
BRANCH  20  21
HETATM   21  N   UNL     1      -9.205   5.061  69.191  1.00  0.00    -0.104 NA 
HETATM   22  C   UNL     1      -8.220   5.310  68.132  1.00  0.00    -0.098 C  
HETATM   23  C   UNL     1      -9.470   3.623  69.284  1.00  0.00    -0.174 C  
ENDBRANCH  20  21
ENDBRANCH  18  20
ENDBRANCH  14  15
ENDBRANCH  13  14
ENDBRANCH  12  13
ENDBRANCH  11  12
ENDBRANCH   9  11
ENDBRANCH   4   9
ENDBRANCH   2   4
TORSDOF 9
ENDMDL
MODEL      229
REMARK 921   NORMALIZED FREE ENERGY PREDICTED BY IDOCK:   -3.28 KCAL/MOL
REMARK 922        TOTAL FREE ENERGY PREDICTED BY IDOCK:   -6.08 KCAL/MOL
REMARK 923 INTER-LIGAND FREE ENERGY PREDICTED BY IDOCK:   -5.96 KCAL/MOL
REMARK 924 INTRA-LIGAND FREE ENERGY PREDICTED BY IDOCK:   -0.12 KCAL/MOL
REMARK 927      BINDING AFFINITY PREDICTED BY RF-SCORE:    0.00 PKD
ROOT
HETATM    1  C   UNL     1     -10.593  19.569  67.322  1.00  0.00    -0.490 C  
HETATM    2  N   UNL     1     -10.895  18.160  67.445  1.00  0.00    -0.324 NA 
HETATM    3  H   UNL     1     -11.733  17.848  66.955  1.00  0.00     0.000 HD 
ENDROOT
BRANCH   2   4
HETATM    4  C   UNL     1     -10.207  17.175  68.133  1.00  0.00    -0.332 C  
HETATM    5  C   UNL     1      -8.922  17.394  68.481  1.00  0.00    -0.276 C  
HETATM    6  O   UNL     1      -8.592  15.364  69.566  1.00  0.00    -0.257 OA 
HETATM    7  N   UNL     1      -8.110  16.446  69.203  1.00  0.00    -0.231 N  
HETATM    8  O   UNL     1      -6.944  16.800  69.418  1.00  0.00    -0.234 OA 
BRANCH   4   9
HETATM    9  N   UNL     1     -10.872  15.995  68.419  1.00  0.00    -0.294 NA 
HETATM   10  H   UNL     1     -10.913  15.756  69.410  1.00  0.00     0.000 HD 
BRANCH   9  11
HETATM   11  C   UNL     1     -11.519  15.045  67.537  1.00  0.00    -0.328 C  
BRANCH  11  12
HETATM   12  C   UNL     1     -11.800  13.732  68.273  1.00  0.00    -0.378 C  
BRANCH  12  13
HETATM   13  S   UNL     1     -10.377  12.587  68.245  1.00  0.00    -0.239 SA 
BRANCH  13  14
HETATM   14  C   UNL     1     -11.105  11.217  67.285  1.00  0.00    -0.302 C  
BRANCH  14  15
HETATM   15  C   UNL     1     -10.676   9.898  67.831  1.00  0.00    -0.265 A  
HETATM   16  C   UNL     1     -10.498   8.727  67.123  1.00  0.00    -0.283 A  
HETATM   17  S   UNL     1      -9.989   7.474  68.173  1.00  0.00    -0.179 SA 
HETATM   18  C   UNL     1     -10.062   8.568  69.498  1.00  0.00    -0.200 A  
HETATM   19  N   UNL     1     -10.461   9.789  69.199  1.00  0.00    -0.206 NA 
BRANCH  18  20
HETATM   20  C   UNL     1      -9.720   8.110  70.896  1.00  0.00    -0.166 C  
BRANCH  20  21
HETATM   21  N   UNL     1     -10.706   8.512  71.926  1.00  0.00    -0.297 NA 
HETATM   22  C   UNL     1     -12.074   8.483  71.398  1.00  0.00    -0.303 C  
HETATM   23  C   UNL     1     -10.606   7.609  73.076  1.00  0.00    -0.375 C  
ENDBRANCH  20  21
ENDBRANCH  18  20
ENDBRANCH  14  15
ENDBRANCH  13  14
ENDBRANCH  12  13
ENDBRANCH  11  12
ENDBRANCH   9  11
ENDBRANCH   4   9
ENDBRANCH   2   4
TORSDOF 9
ENDMDL
MODEL      230
REMARK 921   NORMALIZED FREE ENERGY PREDICTED BY IDOCK:   -3.28 KCAL/MOL
REMARK 922        TOTAL FREE ENERGY PREDICTED BY IDOCK:   -6.07 KCAL/MOL
REMARK 923 INTER-LIGAND FREE ENERGY PREDICTED BY IDOCK:   -5.09 KCAL/MOL
REMARK 924 INTRA-LIGAND FREE ENERGY PREDICTED BY IDOCK:   -0.97 KCAL/MOL
REMARK 927      BINDING AFFINITY PREDICTED BY RF-SCORE:    0.00 PKD
ROOT
HETATM    1  C   UNL     1     -10.274  15.916  66.931  1.00  0.00    -0.277 C  
HETATM    2  N   UNL     1      -9.747  14.627  66.544  1.00  0.00    -0.267 NA 
HETATM    3  H   UNL     1      -8.833  14.394  66.932  1.00  0.00     0.000 HD 
ENDROOT
BRANCH   2   4
HETATM    4  C   UNL     1     -10.307  13.663  65.723  1.00  0.00    -0.298 C  
HETATM    5  C   UNL     1     -11.304  14.016  64.885  1.00  0.00    -0.354 C  
HETATM    6  O   UNL     1     -11.593  11.919  63.923  1.00  0.00    -0.395 OA 
HETATM    7  N   UNL     1     -11.958  13.102  63.982  1.00  0.00    -0.431 N  
HETATM    8  O   UNL     1     -12.871  13.588  63.301  1.00  0.00    -0.542 OA 
BRANCH   4   9
HETATM    9  N   UNL     1      -9.824  12.369  65.814  1.00  0.00    -0.279 NA 
HETATM   10  H   UNL     1     -10.511  11.642  65.618  1.00  0.00     0.000 HD 
BRANCH   9  11
HETATM   11  C   UNL     1      -8.500  11.883  66.142  1.00  0.00     0.112 C  
BRANCH  11  12
HETATM   12  C   UNL     1      -8.490  11.246  67.535  1.00  0.00    -0.131 C  
BRANCH  12  13
HETATM   13  S   UNL     1      -7.168  11.908  68.606  1.00  0.00    -0.111 SA 
BRANCH  13  14
HETATM   14  C   UNL     1      -6.411  13.104  67.455  1.00  0.00    -0.135 C  
BRANCH  14  15
HETATM   15  C   UNL     1      -6.280  14.445  68.091  1.00  0.00    -0.139 A  
HETATM   16  C   UNL     1      -5.973  14.711  69.411  1.00  0.00    -0.101 A  
HETATM   17  S   UNL     1      -5.925  16.401  69.676  1.00  0.00    -0.199 SA 
HETATM   18  C   UNL     1      -6.338  16.663  68.027  1.00  0.00    -0.137 A  
HETATM   19  N   UNL     1      -6.526  15.571  67.314  1.00  0.00    -0.307 NA 
BRANCH  18  20
HETATM   20  C   UNL     1      -6.500  18.064  67.486  1.00  0.00    -0.172 C  
BRANCH  20  21
HETATM   21  N   UNL     1      -7.903  18.533  67.422  1.00  0.00    -0.233 NA 
HETATM   22  C   UNL     1      -8.280  19.260  68.640  1.00  0.00    -0.373 C  
HETATM   23  C   UNL     1      -8.073  19.407  66.259  1.00  0.00    -0.325 C  
ENDBRANCH  20  21
ENDBRANCH  18  20
ENDBRANCH  14  15
ENDBRANCH  13  14
ENDBRANCH  12  13
ENDBRANCH  11  12
ENDBRANCH   9  11
ENDBRANCH   4   9
ENDBRANCH   2   4
TORSDOF 9
ENDMDL
MODEL      231
REMARK 921   NORMALIZED FREE ENERGY PREDICTED BY IDOCK:   -3.28 KCAL/MOL
REMARK 922        TOTAL FREE ENERGY PREDICTED BY IDOCK:   -6.07 KCAL/MOL
REMARK 923 INTER-LIGAND FREE ENERGY PREDICTED BY IDOCK:   -5.77 KCAL/MOL
REMARK 924 INTRA-LIGAND FREE ENERGY PREDICTED BY IDOCK:   -0.29 KCAL/MOL
REMARK 927      BINDING AFFINITY PREDICTED BY RF-SCORE:    0.00 PKD
ROOT
HETATM    1  C   UNL     1     -10.647  17.070  66.988  1.00  0.00    -0.226 C  
HETATM    2  N   UNL     1     -10.817  15.658  67.246  1.00  0.00    -0.307 NA 
HETATM    3  H   UNL     1     -10.273  15.287  68.025  1.00  0.00     0.000 HD 
ENDROOT
BRANCH   2   4
HETATM    4  C   UNL     1     -11.613  14.738  66.586  1.00  0.00    -0.313 C  
HETATM    5  C   UNL     1     -11.698  14.791  65.240  1.00  0.00    -0.311 C  
HETATM    6  O   UNL     1     -13.123  12.971  64.994  1.00  0.00    -0.761 OA 
HETATM    7  N   UNL     1     -12.489  13.884  64.447  1.00  0.00    -0.330 N  
HETATM    8  O   UNL     1     -12.472  14.091  63.226  1.00  0.00    -0.795 OA 
BRANCH   4   9
HETATM    9  N   UNL     1     -12.305  13.810  67.346  1.00  0.00    -0.433 NA 
HETATM   10  H   UNL     1     -13.061  13.334  66.855  1.00  0.00     0.000 HD 
BRANCH   9  11
HETATM   11  C   UNL     1     -12.127  13.409  68.726  1.00  0.00    -0.246 C  
BRANCH  11  12
HETATM   12  C   UNL     1     -10.974  12.408  68.852  1.00  0.00    -0.223 C  
BRANCH  12  13
HETATM   13  S   UNL     1     -10.901  11.233  67.456  1.00  0.00    -0.262 SA 
BRANCH  13  14
HETATM   14  C   UNL     1      -9.525  11.966  66.509  1.00  0.00    -0.217 C  
BRANCH  14  15
HETATM   15  C   UNL     1      -8.497  12.542  67.421  1.00  0.00    -0.181 A  
HETATM   16  C   UNL     1      -7.400  11.892  67.949  1.00  0.00    -0.104 A  
HETATM   17  S   UNL     1      -6.499  12.963  68.936  1.00  0.00    -0.096 SA 
HETATM   18  C   UNL     1      -7.641  14.207  68.613  1.00  0.00    -0.126 A  
HETATM   19  N   UNL     1      -8.650  13.859  67.839  1.00  0.00    -0.168 NA 
BRANCH  18  20
HETATM   20  C   UNL     1      -7.481  15.579  69.225  1.00  0.00    -0.212 C  
BRANCH  20  21
HETATM   21  N   UNL     1      -6.685  16.522  68.406  1.00  0.00    -0.139 NA 
HETATM   22  C   UNL     1      -5.252  16.401  68.693  1.00  0.00    -0.105 C  
HETATM   23  C   UNL     1      -6.924  16.255  66.985  1.00  0.00    -0.215 C  
ENDBRANCH  20  21
ENDBRANCH  18  20
ENDBRANCH  14  15
ENDBRANCH  13  14
ENDBRANCH  12  13
ENDBRANCH  11  12
ENDBRANCH   9  11
ENDBRANCH   4   9
ENDBRANCH   2   4
TORSDOF 9
ENDMDL
MODEL      232
REMARK 921   NORMALIZED FREE ENERGY PREDICTED BY IDOCK:   -3.28 KCAL/MOL
REMARK 922        TOTAL FREE ENERGY PREDICTED BY IDOCK:   -6.07 KCAL/MOL
REMARK 923 INTER-LIGAND FREE ENERGY PREDICTED BY IDOCK:   -5.49 KCAL/MOL
REMARK 924 INTRA-LIGAND FREE ENERGY PREDICTED BY IDOCK:   -0.57 KCAL/MOL
REMARK 927      BINDING AFFINITY PREDICTED BY RF-SCORE:    0.00 PKD
ROOT
HETATM    1  C   UNL     1      -7.291  16.000  69.243  1.00  0.00    -0.231 C  
HETATM    2  N   UNL     1      -8.543  16.575  68.801  1.00  0.00    -0.253 NA 
HETATM    3  H   UNL     1      -8.485  17.530  68.449  1.00  0.00     0.000 HD 
ENDROOT
BRANCH   2   4
HETATM    4  C   UNL     1      -9.807  16.011  68.788  1.00  0.00    -0.223 C  
HETATM    5  C   UNL     1     -10.288  15.454  69.920  1.00  0.00    -0.285 C  
HETATM    6  O   UNL     1     -12.353  14.834  69.051  1.00  0.00    -0.184 OA 
HETATM    7  N   UNL     1     -11.590  14.844  70.027  1.00  0.00    -0.273 N  
HETATM    8  O   UNL     1     -11.861  14.360  71.133  1.00  0.00    -0.322 OA 
BRANCH   4   9
HETATM    9  N   UNL     1     -10.517  16.030  67.600  1.00  0.00    -0.286 NA 
HETATM   10  H   UNL     1     -11.466  15.663  67.663  1.00  0.00     0.000 HD 
BRANCH   9  11
HETATM   11  C   UNL     1     -10.128  16.488  66.282  1.00  0.00    -0.333 C  
BRANCH  11  12
HETATM   12  C   UNL     1     -10.619  15.514  65.207  1.00  0.00    -0.424 C  
BRANCH  12  13
HETATM   13  S   UNL     1     -10.950  13.843  65.864  1.00  0.00    -0.288 SA 
BRANCH  13  14
HETATM   14  C   UNL     1     -11.255  12.954  64.300  1.00  0.00    -0.367 C  
BRANCH  14  15
HETATM   15  C   UNL     1     -10.366  11.765  64.181  1.00  0.00    -0.331 A  
HETATM   16  C   UNL     1      -9.601  11.408  63.089  1.00  0.00    -0.380 A  
HETATM   17  S   UNL     1      -8.736   9.968  63.420  1.00  0.00    -0.244 SA 
HETATM   18  C   UNL     1      -9.454   9.906  64.982  1.00  0.00    -0.280 A  
HETATM   19  N   UNL     1     -10.306  10.877  65.248  1.00  0.00    -0.278 NA 
BRANCH  18  20
HETATM   20  C   UNL     1      -9.131   8.781  65.935  1.00  0.00    -0.218 C  
BRANCH  20  21
HETATM   21  N   UNL     1      -7.933   7.993  65.564  1.00  0.00    -0.110 NA 
HETATM   22  C   UNL     1      -6.960   7.949  66.661  1.00  0.00    -0.072 C  
HETATM   23  C   UNL     1      -8.336   6.628  65.213  1.00  0.00    -0.111 C  
ENDBRANCH  20  21
ENDBRANCH  18  20
ENDBRANCH  14  15
ENDBRANCH  13  14
ENDBRANCH  12  13
ENDBRANCH  11  12
ENDBRANCH   9  11
ENDBRANCH   4   9
ENDBRANCH   2   4
TORSDOF 9
ENDMDL
MODEL      233
REMARK 921   NORMALIZED FREE ENERGY PREDICTED BY IDOCK:   -3.28 KCAL/MOL
REMARK 922        TOTAL FREE ENERGY PREDICTED BY IDOCK:   -6.06 KCAL/MOL
REMARK 923 INTER-LIGAND FREE ENERGY PREDICTED BY IDOCK:   -5.79 KCAL/MOL
REMARK 924 INTRA-LIGAND FREE ENERGY PREDICTED BY IDOCK:   -0.27 KCAL/MOL
REMARK 927      BINDING AFFINITY PREDICTED BY RF-SCORE:    0.00 PKD
ROOT
HETATM    1  C   UNL     1     -14.006  15.156  71.365  1.00  0.00    -0.506 C  
HETATM    2  N   UNL     1     -12.789  15.916  71.183  1.00  0.00    -0.567 NA 
HETATM    3  H   UNL     1     -12.766  16.824  71.645  1.00  0.00     0.000 HD 
ENDROOT
BRANCH   2   4
HETATM    4  C   UNL     1     -11.649  15.583  70.470  1.00  0.00    -0.346 C  
HETATM    5  C   UNL     1     -10.901  16.570  69.932  1.00  0.00    -0.283 C  
HETATM    6  O   UNL     1      -9.271  15.192  69.011  1.00  0.00    -0.201 OA 
HETATM    7  N   UNL     1      -9.694  16.345  69.177  1.00  0.00    -0.268 N  
HETATM    8  O   UNL     1      -9.146  17.362  68.734  1.00  0.00    -0.275 OA 
BRANCH   4   9
HETATM    9  N   UNL     1     -11.338  14.242  70.327  1.00  0.00    -0.473 NA 
HETATM   10  H   UNL     1     -10.569  13.917  70.913  1.00  0.00     0.000 HD 
BRANCH   9  11
HETATM   11  C   UNL     1     -11.929  13.227  69.481  1.00  0.00    -0.307 C  
BRANCH  11  12
HETATM   12  C   UNL     1     -11.936  13.681  68.018  1.00  0.00    -0.350 C  
BRANCH  12  13
HETATM   13  S   UNL     1     -11.326  12.395  66.875  1.00  0.00    -0.354 SA 
BRANCH  13  14
HETATM   14  C   UNL     1     -11.428  10.939  67.969  1.00  0.00    -0.281 C  
BRANCH  14  15
HETATM   15  C   UNL     1     -10.618   9.810  67.430  1.00  0.00    -0.267 A  
HETATM   16  C   UNL     1      -9.844   9.817  66.287  1.00  0.00    -0.250 A  
HETATM   17  S   UNL     1      -9.090   8.295  66.077  1.00  0.00    -0.149 SA 
HETATM   18  C   UNL     1      -9.860   7.725  67.505  1.00  0.00    -0.171 A  
HETATM   19  N   UNL     1     -10.653   8.594  68.102  1.00  0.00    -0.177 NA 
BRANCH  18  20
HETATM   20  C   UNL     1      -9.646   6.310  67.985  1.00  0.00    -0.115 C  
BRANCH  20  21
HETATM   21  N   UNL     1      -9.257   6.203  69.410  1.00  0.00    -0.133 NA 
HETATM   22  C   UNL     1      -9.725   4.944  70.000  1.00  0.00    -0.215 C  
HETATM   23  C   UNL     1      -7.798   6.284  69.525  1.00  0.00    -0.101 C  
ENDBRANCH  20  21
ENDBRANCH  18  20
ENDBRANCH  14  15
ENDBRANCH  13  14
ENDBRANCH  12  13
ENDBRANCH  11  12
ENDBRANCH   9  11
ENDBRANCH   4   9
ENDBRANCH   2   4
TORSDOF 9
ENDMDL
MODEL      234
REMARK 921   NORMALIZED FREE ENERGY PREDICTED BY IDOCK:   -3.27 KCAL/MOL
REMARK 922        TOTAL FREE ENERGY PREDICTED BY IDOCK:   -6.06 KCAL/MOL
REMARK 923 INTER-LIGAND FREE ENERGY PREDICTED BY IDOCK:   -5.50 KCAL/MOL
REMARK 924 INTRA-LIGAND FREE ENERGY PREDICTED BY IDOCK:   -0.56 KCAL/MOL
REMARK 927      BINDING AFFINITY PREDICTED BY RF-SCORE:    0.00 PKD
ROOT
HETATM    1  C   UNL     1      -8.252   6.255  67.700  1.00  0.00    -0.117 C  
HETATM    2  N   UNL     1      -8.674   5.337  68.734  1.00  0.00    -0.090 NA 
HETATM    3  H   UNL     1      -8.811   4.372  68.433  1.00  0.00     0.000 HD 
ENDROOT
BRANCH   2   4
HETATM    4  C   UNL     1      -8.918   5.582  70.074  1.00  0.00    -0.131 C  
HETATM    5  C   UNL     1      -7.884   5.899  70.881  1.00  0.00    -0.102 C  
HETATM    6  O   UNL     1      -9.136   6.164  72.822  1.00  0.00    -0.131 OA 
HETATM    7  N   UNL     1      -8.018   6.180  72.289  1.00  0.00    -0.105 N  
HETATM    8  O   UNL     1      -6.962   6.430  72.885  1.00  0.00    -0.076 OA 
BRANCH   4   9
HETATM    9  N   UNL     1     -10.220   5.470  70.530  1.00  0.00    -0.224 NA 
HETATM   10  H   UNL     1     -10.337   4.875  71.351  1.00  0.00     0.000 HD 
BRANCH   9  11
HETATM   11  C   UNL     1     -11.444   6.062  70.029  1.00  0.00    -0.166 C  
BRANCH  11  12
HETATM   12  C   UNL     1     -12.042   7.019  71.065  1.00  0.00    -0.368 C  
BRANCH  12  13
HETATM   13  S   UNL     1     -11.159   8.614  71.148  1.00  0.00    -0.285 SA 
BRANCH  13  14
HETATM   14  C   UNL     1     -12.576   9.757  71.022  1.00  0.00    -0.314 C  
BRANCH  14  15
HETATM   15  C   UNL     1     -12.182  11.020  70.337  1.00  0.00    -0.373 A  
HETATM   16  C   UNL     1     -11.431  11.139  69.186  1.00  0.00    -0.298 A  
HETATM   17  S   UNL     1     -11.244  12.790  68.771  1.00  0.00    -0.300 SA 
HETATM   18  C   UNL     1     -12.155  13.233  70.161  1.00  0.00    -0.333 A  
HETATM   19  N   UNL     1     -12.561  12.227  70.912  1.00  0.00    -0.304 NA 
BRANCH  18  20
HETATM   20  C   UNL     1     -12.416  14.685  70.482  1.00  0.00    -0.347 C  
BRANCH  20  21
HETATM   21  N   UNL     1     -12.821  14.935  71.885  1.00  0.00    -0.311 NA 
HETATM   22  C   UNL     1     -12.157  16.124  72.430  1.00  0.00    -0.540 C  
HETATM   23  C   UNL     1     -14.273  15.113  71.950  1.00  0.00    -0.579 C  
ENDBRANCH  20  21
ENDBRANCH  18  20
ENDBRANCH  14  15
ENDBRANCH  13  14
ENDBRANCH  12  13
ENDBRANCH  11  12
ENDBRANCH   9  11
ENDBRANCH   4   9
ENDBRANCH   2   4
TORSDOF 9
ENDMDL
MODEL      235
REMARK 921   NORMALIZED FREE ENERGY PREDICTED BY IDOCK:   -3.26 KCAL/MOL
REMARK 922        TOTAL FREE ENERGY PREDICTED BY IDOCK:   -6.04 KCAL/MOL
REMARK 923 INTER-LIGAND FREE ENERGY PREDICTED BY IDOCK:   -4.91 KCAL/MOL
REMARK 924 INTRA-LIGAND FREE ENERGY PREDICTED BY IDOCK:   -1.13 KCAL/MOL
REMARK 927      BINDING AFFINITY PREDICTED BY RF-SCORE:    0.00 PKD
ROOT
HETATM    1  C   UNL     1     -11.337   5.028  72.774  1.00  0.00    -0.195 C  
HETATM    2  N   UNL     1     -11.488   6.389  73.238  1.00  0.00    -0.419 NA 
HETATM    3  H   UNL     1     -11.773   6.490  74.212  1.00  0.00     0.000 HD 
ENDROOT
BRANCH   2   4
HETATM    4  C   UNL     1     -11.298   7.574  72.548  1.00  0.00    -0.334 C  
HETATM    5  C   UNL     1     -12.378   8.285  72.158  1.00  0.00    -0.360 C  
HETATM    6  O   UNL     1     -11.201  10.029  71.169  1.00  0.00    -0.350 OA 
HETATM    7  N   UNL     1     -12.303   9.533  71.440  1.00  0.00    -0.341 N  
HETATM    8  O   UNL     1     -13.392  10.039  71.139  1.00  0.00    -0.380 OA 
BRANCH   4   9
HETATM    9  N   UNL     1     -10.000   7.968  72.273  1.00  0.00    -0.216 NA 
HETATM   10  H   UNL     1      -9.843   8.283  71.316  1.00  0.00     0.000 HD 
BRANCH   9  11
HETATM   11  C   UNL     1      -8.830   8.003  73.125  1.00  0.00    -0.254 C  
BRANCH  11  12
HETATM   12  C   UNL     1      -8.000   6.728  72.954  1.00  0.00    -0.105 C  
BRANCH  12  13
HETATM   13  S   UNL     1      -7.100   6.677  71.366  1.00  0.00    -0.077 SA 
BRANCH  13  14
HETATM   14  C   UNL     1      -8.223   5.603  70.411  1.00  0.00    -0.105 C  
BRANCH  14  15
HETATM   15  C   UNL     1      -9.001   6.395  69.417  1.00  0.00    -0.131 A  
HETATM   16  C   UNL     1      -9.905   5.908  68.494  1.00  0.00    -0.135 A  
HETATM   17  S   UNL     1     -10.558   7.195  67.573  1.00  0.00    -0.285 SA 
HETATM   18  C   UNL     1      -9.578   8.306  68.447  1.00  0.00    -0.144 A  
HETATM   19  N   UNL     1      -8.790   7.767  69.357  1.00  0.00    -0.139 NA 
BRANCH  18  20
HETATM   20  C   UNL     1      -9.620   9.783  68.135  1.00  0.00    -0.143 C  
BRANCH  20  21
HETATM   21  N   UNL     1     -10.660  10.169  67.154  1.00  0.00    -0.253 NA 
HETATM   22  C   UNL     1     -11.382  11.371  67.583  1.00  0.00    -0.290 C  
HETATM   23  C   UNL     1     -10.035  10.413  65.851  1.00  0.00    -0.255 C  
ENDBRANCH  20  21
ENDBRANCH  18  20
ENDBRANCH  14  15
ENDBRANCH  13  14
ENDBRANCH  12  13
ENDBRANCH  11  12
ENDBRANCH   9  11
ENDBRANCH   4   9
ENDBRANCH   2   4
TORSDOF 9
ENDMDL
MODEL      236
REMARK 921   NORMALIZED FREE ENERGY PREDICTED BY IDOCK:   -3.26 KCAL/MOL
REMARK 922        TOTAL FREE ENERGY PREDICTED BY IDOCK:   -6.04 KCAL/MOL
REMARK 923 INTER-LIGAND FREE ENERGY PREDICTED BY IDOCK:   -5.34 KCAL/MOL
REMARK 924 INTRA-LIGAND FREE ENERGY PREDICTED BY IDOCK:   -0.70 KCAL/MOL
REMARK 927      BINDING AFFINITY PREDICTED BY RF-SCORE:    0.00 PKD
ROOT
HETATM    1  C   UNL     1     -11.301  15.950  64.575  1.00  0.00    -0.309 C  
HETATM    2  N   UNL     1     -10.244  16.445  65.428  1.00  0.00    -0.588 NA 
HETATM    3  H   UNL     1      -9.336  15.998  65.304  1.00  0.00     0.000 HD 
ENDROOT
BRANCH   2   4
HETATM    4  C   UNL     1     -10.290  17.442  66.389  1.00  0.00    -0.317 C  
HETATM    5  C   UNL     1      -9.816  18.668  66.084  1.00  0.00    -0.287 C  
HETATM    6  O   UNL     1     -10.297  19.653  68.135  1.00  0.00    -0.428 OA 
HETATM    7  N   UNL     1      -9.817  19.782  67.000  1.00  0.00    -0.364 N  
HETATM    8  O   UNL     1      -9.322  20.829  66.564  1.00  0.00    -0.085 OA 
BRANCH   4   9
HETATM    9  N   UNL     1     -10.808  17.123  67.632  1.00  0.00    -0.296 NA 
HETATM   10  H   UNL     1     -11.560  17.734  67.951  1.00  0.00     0.000 HD 
BRANCH   9  11
HETATM   11  C   UNL     1     -10.454  16.063  68.553  1.00  0.00    -0.258 C  
BRANCH  11  12
HETATM   12  C   UNL     1     -11.570  15.017  68.624  1.00  0.00    -0.325 C  
BRANCH  12  13
HETATM   13  S   UNL     1     -11.208  13.528  67.631  1.00  0.00    -0.292 SA 
BRANCH  13  14
HETATM   14  C   UNL     1      -9.384  13.571  67.666  1.00  0.00    -0.216 C  
BRANCH  14  15
HETATM   15  C   UNL     1      -8.810  12.327  67.081  1.00  0.00    -0.194 A  
HETATM   16  C   UNL     1      -7.477  12.065  66.837  1.00  0.00    -0.051 A  
HETATM   17  S   UNL     1      -7.298  10.500  66.166  1.00  0.00    -0.139 SA 
HETATM   18  C   UNL     1      -9.003  10.288  66.225  1.00  0.00    -0.153 A  
HETATM   19  N   UNL     1      -9.683  11.318  66.692  1.00  0.00    -0.193 NA 
BRANCH  18  20
HETATM   20  C   UNL     1      -9.640   9.011  65.733  1.00  0.00    -0.217 C  
BRANCH  20  21
HETATM   21  N   UNL     1      -9.267   7.806  66.509  1.00  0.00    -0.175 NA 
HETATM   22  C   UNL     1     -10.454   7.083  66.979  1.00  0.00    -0.316 C  
HETATM   23  C   UNL     1      -8.454   6.920  65.674  1.00  0.00    -0.136 C  
ENDBRANCH  20  21
ENDBRANCH  18  20
ENDBRANCH  14  15
ENDBRANCH  13  14
ENDBRANCH  12  13
ENDBRANCH  11  12
ENDBRANCH   9  11
ENDBRANCH   4   9
ENDBRANCH   2   4
TORSDOF 9
ENDMDL
MODEL      237
REMARK 921   NORMALIZED FREE ENERGY PREDICTED BY IDOCK:   -3.25 KCAL/MOL
REMARK 922        TOTAL FREE ENERGY PREDICTED BY IDOCK:   -6.03 KCAL/MOL
REMARK 923 INTER-LIGAND FREE ENERGY PREDICTED BY IDOCK:   -5.44 KCAL/MOL
REMARK 924 INTRA-LIGAND FREE ENERGY PREDICTED BY IDOCK:   -0.59 KCAL/MOL
REMARK 927      BINDING AFFINITY PREDICTED BY RF-SCORE:    0.00 PKD
ROOT
HETATM    1  C   UNL     1      -5.642  14.452  70.942  1.00  0.00    -0.178 C  
HETATM    2  N   UNL     1      -6.895  14.353  70.227  1.00  0.00    -0.399 NA 
HETATM    3  H   UNL     1      -7.480  13.556  70.478  1.00  0.00     0.000 HD 
ENDROOT
BRANCH   2   4
HETATM    4  C   UNL     1      -7.414  15.186  69.250  1.00  0.00    -0.193 C  
HETATM    5  C   UNL     1      -7.159  16.510  69.316  1.00  0.00    -0.219 C  
HETATM    6  O   UNL     1      -8.308  17.095  67.381  1.00  0.00    -0.187 OA 
HETATM    7  N   UNL     1      -7.640  17.471  68.355  1.00  0.00    -0.244 N  
HETATM    8  O   UNL     1      -7.333  18.648  68.580  1.00  0.00    -0.287 OA 
BRANCH   4   9
HETATM    9  N   UNL     1      -8.190  14.618  68.255  1.00  0.00    -0.138 NA 
HETATM   10  H   UNL     1      -8.196  15.131  67.373  1.00  0.00     0.000 HD 
BRANCH   9  11
HETATM   11  C   UNL     1      -8.993  13.413  68.264  1.00  0.00    -0.176 C  
BRANCH  11  12
HETATM   12  C   UNL     1      -9.793  13.290  66.963  1.00  0.00    -0.242 C  
BRANCH  12  13
HETATM   13  S   UNL     1     -11.315  12.300  67.160  1.00  0.00    -0.355 SA 
BRANCH  13  14
HETATM   14  C   UNL     1     -11.698  12.671  68.905  1.00  0.00    -0.325 C  
BRANCH  14  15
HETATM   15  C   UNL     1     -11.709  11.426  69.724  1.00  0.00    -0.344 A  
HETATM   16  C   UNL     1     -12.531  11.148  70.798  1.00  0.00    -0.384 A  
HETATM   17  S   UNL     1     -12.185   9.589  71.416  1.00  0.00    -0.395 SA 
HETATM   18  C   UNL     1     -10.953   9.402  70.231  1.00  0.00    -0.262 A  
HETATM   19  N   UNL     1     -10.780  10.435  69.430  1.00  0.00    -0.227 NA 
BRANCH  18  20
HETATM   20  C   UNL     1     -10.126   8.140  70.171  1.00  0.00    -0.194 C  
BRANCH  20  21
HETATM   21  N   UNL     1     -10.652   7.110  69.246  1.00  0.00    -0.218 NA 
HETATM   22  C   UNL     1      -9.593   6.574  68.384  1.00  0.00    -0.122 C  
HETATM   23  C   UNL     1     -11.253   6.021  70.019  1.00  0.00    -0.355 C  
ENDBRANCH  20  21
ENDBRANCH  18  20
ENDBRANCH  14  15
ENDBRANCH  13  14
ENDBRANCH  12  13
ENDBRANCH  11  12
ENDBRANCH   9  11
ENDBRANCH   4   9
ENDBRANCH   2   4
TORSDOF 9
ENDMDL
MODEL      238
REMARK 921   NORMALIZED FREE ENERGY PREDICTED BY IDOCK:   -3.25 KCAL/MOL
REMARK 922        TOTAL FREE ENERGY PREDICTED BY IDOCK:   -6.02 KCAL/MOL
REMARK 923 INTER-LIGAND FREE ENERGY PREDICTED BY IDOCK:   -5.55 KCAL/MOL
REMARK 924 INTRA-LIGAND FREE ENERGY PREDICTED BY IDOCK:   -0.47 KCAL/MOL
REMARK 927      BINDING AFFINITY PREDICTED BY RF-SCORE:    0.00 PKD
ROOT
HETATM    1  C   UNL     1     -11.251  15.042  68.359  1.00  0.00    -0.293 C  
HETATM    2  N   UNL     1     -12.314  14.358  67.656  1.00  0.00    -0.601 NA 
HETATM    3  H   UNL     1     -13.251  14.504  68.030  1.00  0.00     0.000 HD 
ENDROOT
BRANCH   2   4
HETATM    4  C   UNL     1     -12.239  13.534  66.546  1.00  0.00    -0.380 C  
HETATM    5  C   UNL     1     -12.410  14.070  65.319  1.00  0.00    -0.465 C  
HETATM    6  O   UNL     1     -12.099  12.099  64.126  1.00  0.00    -0.400 OA 
HETATM    7  N   UNL     1     -12.348  13.312  64.094  1.00  0.00    -0.367 N  
HETATM    8  O   UNL     1     -12.552  13.958  63.058  1.00  0.00    -0.694 OA 
BRANCH   4   9
HETATM    9  N   UNL     1     -12.007  12.185  66.751  1.00  0.00    -0.615 NA 
HETATM   10  H   UNL     1     -12.847  11.606  66.772  1.00  0.00     0.000 HD 
BRANCH   9  11
HETATM   11  C   UNL     1     -10.766  11.464  66.942  1.00  0.00    -0.265 C  
BRANCH  11  12
HETATM   12  C   UNL     1     -10.600  11.055  68.408  1.00  0.00    -0.193 C  
BRANCH  12  13
HETATM   13  S   UNL     1      -9.039  10.160  68.721  1.00  0.00    -0.162 SA 
BRANCH  13  14
HETATM   14  C   UNL     1      -9.562   8.468  68.282  1.00  0.00    -0.144 C  
BRANCH  14  15
HETATM   15  C   UNL     1      -8.936   8.032  67.002  1.00  0.00    -0.138 A  
HETATM   16  C   UNL     1      -8.063   8.758  66.218  1.00  0.00    -0.107 A  
HETATM   17  S   UNL     1      -7.601   7.842  64.847  1.00  0.00    -0.109 SA 
HETATM   18  C   UNL     1      -8.610   6.555  65.378  1.00  0.00    -0.068 A  
HETATM   19  N   UNL     1      -9.276   6.784  66.494  1.00  0.00    -0.159 NA 
BRANCH  18  20
HETATM   20  C   UNL     1      -8.726   5.282  64.573  1.00  0.00    -0.072 C  
BRANCH  20  21
HETATM   21  N   UNL     1      -9.622   4.264  65.170  1.00  0.00    -0.174 NA 
HETATM   22  C   UNL     1     -10.970   4.335  64.595  1.00  0.00    -0.005 C  
HETATM   23  C   UNL     1      -9.062   2.930  64.943  1.00  0.00    -0.141 C  
ENDBRANCH  20  21
ENDBRANCH  18  20
ENDBRANCH  14  15
ENDBRANCH  13  14
ENDBRANCH  12  13
ENDBRANCH  11  12
ENDBRANCH   9  11
ENDBRANCH   4   9
ENDBRANCH   2   4
TORSDOF 9
ENDMDL
MODEL      239
REMARK 921   NORMALIZED FREE ENERGY PREDICTED BY IDOCK:   -3.21 KCAL/MOL
REMARK 922        TOTAL FREE ENERGY PREDICTED BY IDOCK:   -5.97 KCAL/MOL
REMARK 923 INTER-LIGAND FREE ENERGY PREDICTED BY IDOCK:   -5.44 KCAL/MOL
REMARK 924 INTRA-LIGAND FREE ENERGY PREDICTED BY IDOCK:   -0.53 KCAL/MOL
REMARK 927      BINDING AFFINITY PREDICTED BY RF-SCORE:    0.00 PKD
ROOT
HETATM    1  C   UNL     1      -5.981   9.110  69.137  1.00  0.00    -0.042 C  
HETATM    2  N   UNL     1      -7.283   8.669  68.687  1.00  0.00    -0.075 NA 
HETATM    3  H   UNL     1      -7.344   8.423  67.699  1.00  0.00     0.000 HD 
ENDROOT
BRANCH   2   4
HETATM    4  C   UNL     1      -8.457   8.532  69.408  1.00  0.00    -0.127 C  
HETATM    5  C   UNL     1      -8.411   8.602  70.755  1.00  0.00    -0.158 C  
HETATM    6  O   UNL     1     -10.692   8.327  71.111  1.00  0.00    -0.218 OA 
HETATM    7  N   UNL     1      -9.567   8.479  71.607  1.00  0.00    -0.223 N  
HETATM    8  O   UNL     1      -9.341   8.543  72.823  1.00  0.00    -0.254 OA 
BRANCH   4   9
HETATM    9  N   UNL     1      -9.630   8.311  68.706  1.00  0.00    -0.148 NA 
HETATM   10  H   UNL     1     -10.091   7.425  68.914  1.00  0.00     0.000 HD 
BRANCH   9  11
HETATM   11  C   UNL     1     -10.306   9.134  67.726  1.00  0.00    -0.245 C  
BRANCH  11  12
HETATM   12  C   UNL     1      -9.800   8.818  66.315  1.00  0.00    -0.272 C  
BRANCH  12  13
HETATM   13  S   UNL     1      -8.859  10.196  65.575  1.00  0.00    -0.181 SA 
BRANCH  13  14
HETATM   14  C   UNL     1     -10.070  10.764  64.334  1.00  0.00    -0.353 C  
BRANCH  14  15
HETATM   15  C   UNL     1     -10.814  11.959  64.823  1.00  0.00    -0.307 A  
HETATM   16  C   UNL     1     -11.453  12.909  64.053  1.00  0.00    -0.422 A  
HETATM   17  S   UNL     1     -12.179  14.091  65.057  1.00  0.00    -0.444 SA 
HETATM   18  C   UNL     1     -11.575  13.272  66.443  1.00  0.00    -0.347 A  
HETATM   19  N   UNL     1     -10.855  12.195  66.192  1.00  0.00    -0.271 NA 
BRANCH  18  20
HETATM   20  C   UNL     1     -11.841  13.803  67.831  1.00  0.00    -0.378 C  
BRANCH  20  21
HETATM   21  N   UNL     1     -11.619  15.261  67.977  1.00  0.00    -0.339 NA 
HETATM   22  C   UNL     1     -11.898  15.710  69.346  1.00  0.00    -0.375 C  
HETATM   23  C   UNL     1     -10.232  15.580  67.630  1.00  0.00    -0.255 C  
ENDBRANCH  20  21
ENDBRANCH  18  20
ENDBRANCH  14  15
ENDBRANCH  13  14
ENDBRANCH  12  13
ENDBRANCH  11  12
ENDBRANCH   9  11
ENDBRANCH   4   9
ENDBRANCH   2   4
TORSDOF 9
ENDMDL
MODEL      240
REMARK 921   NORMALIZED FREE ENERGY PREDICTED BY IDOCK:   -3.21 KCAL/MOL
REMARK 922        TOTAL FREE ENERGY PREDICTED BY IDOCK:   -5.96 KCAL/MOL
REMARK 923 INTER-LIGAND FREE ENERGY PREDICTED BY IDOCK:   -4.99 KCAL/MOL
REMARK 924 INTRA-LIGAND FREE ENERGY PREDICTED BY IDOCK:   -0.97 KCAL/MOL
REMARK 927      BINDING AFFINITY PREDICTED BY RF-SCORE:    0.00 PKD
ROOT
HETATM    1  C   UNL     1     -10.070  10.199  65.721  1.00  0.00    -0.254 C  
HETATM    2  N   UNL     1     -10.185   9.900  67.131  1.00  0.00    -0.214 NA 
HETATM    3  H   UNL     1      -9.969  10.672  67.761  1.00  0.00     0.000 HD 
ENDROOT
BRANCH   2   4
HETATM    4  C   UNL     1     -10.547   8.714  67.747  1.00  0.00    -0.183 C  
HETATM    5  C   UNL     1     -10.503   7.567  67.037  1.00  0.00    -0.338 C  
HETATM    6  O   UNL     1     -11.191   6.165  68.759  1.00  0.00    -0.367 OA 
HETATM    7  N   UNL     1     -10.852   6.275  67.572  1.00  0.00    -0.316 N  
HETATM    8  O   UNL     1     -10.778   5.331  66.775  1.00  0.00    -0.273 OA 
BRANCH   4   9
HETATM    9  N   UNL     1     -10.958   8.765  69.067  1.00  0.00    -0.435 NA 
HETATM   10  H   UNL     1     -11.475   7.945  69.386  1.00  0.00     0.000 HD 
BRANCH   9  11
HETATM   11  C   UNL     1     -10.772   9.794  70.069  1.00  0.00    -0.283 C  
BRANCH  11  12
HETATM   12  C   UNL     1     -11.935   9.793  71.066  1.00  0.00    -0.352 C  
BRANCH  12  13
HETATM   13  S   UNL     1     -12.374   8.116  71.638  1.00  0.00    -0.324 SA 
BRANCH  13  14
HETATM   14  C   UNL     1     -10.977   7.802  72.769  1.00  0.00    -0.388 C  
BRANCH  14  15
HETATM   15  C   UNL     1     -10.544   6.378  72.697  1.00  0.00    -0.224 A  
HETATM   16  C   UNL     1     -10.989   5.336  73.485  1.00  0.00    -0.296 A  
HETATM   17  S   UNL     1     -10.212   3.879  73.029  1.00  0.00    -0.167 SA 
HETATM   18  C   UNL     1      -9.323   4.738  71.834  1.00  0.00    -0.139 A  
HETATM   19  N   UNL     1      -9.559   6.034  71.778  1.00  0.00    -0.152 NA 
BRANCH  18  20
HETATM   20  C   UNL     1      -8.323   4.024  70.955  1.00  0.00    -0.075 C  
BRANCH  20  21
HETATM   21  N   UNL     1      -8.566   4.183  69.503  1.00  0.00    -0.071 NA 
HETATM   22  C   UNL     1      -7.506   4.973  68.866  1.00  0.00    -0.069 C  
HETATM   23  C   UNL     1      -8.638   2.863  68.873  1.00  0.00    -0.074 C  
ENDBRANCH  20  21
ENDBRANCH  18  20
ENDBRANCH  14  15
ENDBRANCH  13  14
ENDBRANCH  12  13
ENDBRANCH  11  12
ENDBRANCH   9  11
ENDBRANCH   4   9
ENDBRANCH   2   4
TORSDOF 9
ENDMDL
MODEL      241
REMARK 921   NORMALIZED FREE ENERGY PREDICTED BY IDOCK:   -3.20 KCAL/MOL
REMARK 922        TOTAL FREE ENERGY PREDICTED BY IDOCK:   -5.95 KCAL/MOL
REMARK 923 INTER-LIGAND FREE ENERGY PREDICTED BY IDOCK:   -5.12 KCAL/MOL
REMARK 924 INTRA-LIGAND FREE ENERGY PREDICTED BY IDOCK:   -0.83 KCAL/MOL
REMARK 927      BINDING AFFINITY PREDICTED BY RF-SCORE:    0.00 PKD
ROOT
HETATM    1  C   UNL     1     -12.635  14.469  71.691  1.00  0.00    -0.348 C  
HETATM    2  N   UNL     1     -12.354  15.524  70.743  1.00  0.00    -0.385 NA 
HETATM    3  H   UNL     1     -12.995  16.317  70.769  1.00  0.00     0.000 HD 
ENDROOT
BRANCH   2   4
HETATM    4  C   UNL     1     -11.339  15.610  69.806  1.00  0.00    -0.327 C  
HETATM    5  C   UNL     1     -10.753  16.805  69.583  1.00  0.00    -0.229 C  
HETATM    6  O   UNL     1      -9.232  16.058  67.990  1.00  0.00    -0.192 OA 
HETATM    7  N   UNL     1      -9.685  17.013  68.637  1.00  0.00    -0.271 N  
HETATM    8  O   UNL     1      -9.279  18.179  68.541  1.00  0.00    -0.306 OA 
BRANCH   4   9
HETATM    9  N   UNL     1     -10.984  14.459  69.123  1.00  0.00    -0.260 NA 
HETATM   10  H   UNL     1     -10.019  14.159  69.264  1.00  0.00     0.000 HD 
BRANCH   9  11
HETATM   11  C   UNL     1     -11.761  13.612  68.242  1.00  0.00    -0.363 C  
BRANCH  11  12
HETATM   12  C   UNL     1     -12.020  14.317  66.908  1.00  0.00    -0.438 C  
BRANCH  12  13
HETATM   13  S   UNL     1     -11.020  13.634  65.541  1.00  0.00    -0.300 SA 
BRANCH  13  14
HETATM   14  C   UNL     1     -11.411  11.862  65.731  1.00  0.00    -0.299 C  
BRANCH  14  15
HETATM   15  C   UNL     1     -10.166  11.048  65.808  1.00  0.00    -0.260 A  
HETATM   16  C   UNL     1      -9.905   9.868  65.140  1.00  0.00    -0.278 A  
HETATM   17  S   UNL     1      -8.338   9.302  65.534  1.00  0.00    -0.141 SA 
HETATM   18  C   UNL     1      -8.124  10.649  66.581  1.00  0.00    -0.136 A  
HETATM   19  N   UNL     1      -9.154  11.468  66.663  1.00  0.00    -0.184 NA 
BRANCH  18  20
HETATM   20  C   UNL     1      -6.844  10.823  67.363  1.00  0.00    -0.078 C  
BRANCH  20  21
HETATM   21  N   UNL     1      -6.825  12.015  68.243  1.00  0.00    -0.063 NA 
HETATM   22  C   UNL     1      -6.209  11.713  69.539  1.00  0.00    -0.113 C  
HETATM   23  C   UNL     1      -6.081  13.093  67.587  1.00  0.00    -0.146 C  
ENDBRANCH  20  21
ENDBRANCH  18  20
ENDBRANCH  14  15
ENDBRANCH  13  14
ENDBRANCH  12  13
ENDBRANCH  11  12
ENDBRANCH   9  11
ENDBRANCH   4   9
ENDBRANCH   2   4
TORSDOF 9
ENDMDL
MODEL      242
REMARK 921   NORMALIZED FREE ENERGY PREDICTED BY IDOCK:   -3.20 KCAL/MOL
REMARK 922        TOTAL FREE ENERGY PREDICTED BY IDOCK:   -5.94 KCAL/MOL
REMARK 923 INTER-LIGAND FREE ENERGY PREDICTED BY IDOCK:   -6.02 KCAL/MOL
REMARK 924 INTRA-LIGAND FREE ENERGY PREDICTED BY IDOCK:    0.07 KCAL/MOL
REMARK 927      BINDING AFFINITY PREDICTED BY RF-SCORE:    0.00 PKD
ROOT
HETATM    1  C   UNL     1     -13.835  15.338  71.281  1.00  0.00    -0.478 C  
HETATM    2  N   UNL     1     -12.545  15.978  71.153  1.00  0.00    -0.539 NA 
HETATM    3  H   UNL     1     -12.424  16.832  71.696  1.00  0.00     0.000 HD 
ENDROOT
BRANCH   2   4
HETATM    4  C   UNL     1     -11.450  15.594  70.396  1.00  0.00    -0.354 C  
HETATM    5  C   UNL     1     -10.684  16.546  69.823  1.00  0.00    -0.298 C  
HETATM    6  O   UNL     1      -9.152  15.097  68.844  1.00  0.00    -0.186 OA 
HETATM    7  N   UNL     1      -9.520  16.267  69.020  1.00  0.00    -0.250 N  
HETATM    8  O   UNL     1      -8.947  17.259  68.550  1.00  0.00    -0.260 OA 
BRANCH   4   9
HETATM    9  N   UNL     1     -11.203  14.241  70.248  1.00  0.00    -0.477 NA 
HETATM   10  H   UNL     1     -10.330  13.918  70.665  1.00  0.00     0.000 HD 
BRANCH   9  11
HETATM   11  C   UNL     1     -11.984  13.209  69.598  1.00  0.00    -0.306 C  
BRANCH  11  12
HETATM   12  C   UNL     1     -11.092  12.337  68.710  1.00  0.00    -0.251 C  
BRANCH  12  13
HETATM   13  S   UNL     1     -11.444  10.554  68.887  1.00  0.00    -0.189 SA 
BRANCH  13  14
HETATM   14  C   UNL     1     -11.435  10.419  70.706  1.00  0.00    -0.332 C  
BRANCH  14  15
HETATM   15  C   UNL     1     -10.564   9.295  71.152  1.00  0.00    -0.332 A  
HETATM   16  C   UNL     1      -9.424   8.832  70.528  1.00  0.00    -0.186 A  
HETATM   17  S   UNL     1      -8.754   7.529  71.414  1.00  0.00    -0.125 SA 
HETATM   18  C   UNL     1     -10.037   7.655  72.552  1.00  0.00    -0.229 A  
HETATM   19  N   UNL     1     -10.930   8.589  72.292  1.00  0.00    -0.359 NA 
BRANCH  18  20
HETATM   20  C   UNL     1     -10.116   6.717  73.733  1.00  0.00    -0.301 C  
BRANCH  20  21
HETATM   21  N   UNL     1     -10.856   5.462  73.465  1.00  0.00    -0.286 NA 
HETATM   22  C   UNL     1     -11.765   5.611  72.323  1.00  0.00    -0.138 C  
HETATM   23  C   UNL     1      -9.904   4.382  73.195  1.00  0.00    -0.137 C  
ENDBRANCH  20  21
ENDBRANCH  18  20
ENDBRANCH  14  15
ENDBRANCH  13  14
ENDBRANCH  12  13
ENDBRANCH  11  12
ENDBRANCH   9  11
ENDBRANCH   4   9
ENDBRANCH   2   4
TORSDOF 9
ENDMDL
MODEL      243
REMARK 921   NORMALIZED FREE ENERGY PREDICTED BY IDOCK:   -3.19 KCAL/MOL
REMARK 922        TOTAL FREE ENERGY PREDICTED BY IDOCK:   -5.94 KCAL/MOL
REMARK 923 INTER-LIGAND FREE ENERGY PREDICTED BY IDOCK:   -5.38 KCAL/MOL
REMARK 924 INTRA-LIGAND FREE ENERGY PREDICTED BY IDOCK:   -0.55 KCAL/MOL
REMARK 927      BINDING AFFINITY PREDICTED BY RF-SCORE:    0.00 PKD
ROOT
HETATM    1  C   UNL     1      -8.664  10.723  62.433  1.00  0.00    -0.289 C  
HETATM    2  N   UNL     1      -9.538   9.949  63.287  1.00  0.00    -0.525 NA 
HETATM    3  H   UNL     1     -10.427   9.675  62.870  1.00  0.00     0.000 HD 
ENDROOT
BRANCH   2   4
HETATM    4  C   UNL     1      -9.338   9.528  64.591  1.00  0.00    -0.134 C  
HETATM    5  C   UNL     1      -8.390   8.600  64.841  1.00  0.00    -0.164 C  
HETATM    6  O   UNL     1      -8.698   8.526  67.145  1.00  0.00    -0.127 OA 
HETATM    7  N   UNL     1      -8.090   8.091  66.156  1.00  0.00    -0.106 N  
HETATM    8  O   UNL     1      -7.207   7.225  66.203  1.00  0.00    -0.071 OA 
BRANCH   4   9
HETATM    9  N   UNL     1     -10.139  10.071  65.580  1.00  0.00    -0.277 NA 
HETATM   10  H   UNL     1     -10.462   9.405  66.282  1.00  0.00     0.000 HD 
BRANCH   9  11
HETATM   11  C   UNL     1     -10.591  11.432  65.780  1.00  0.00    -0.260 C  
BRANCH  11  12
HETATM   12  C   UNL     1     -11.323  11.566  67.119  1.00  0.00    -0.284 C  
BRANCH  12  13
HETATM   13  S   UNL     1     -10.187  11.563  68.548  1.00  0.00    -0.213 SA 
BRANCH  13  14
HETATM   14  C   UNL     1      -9.207  13.053  68.165  1.00  0.00    -0.212 C  
BRANCH  14  15
HETATM   15  C   UNL     1      -9.993  14.291  68.429  1.00  0.00    -0.240 A  
HETATM   16  C   UNL     1     -11.014  14.444  69.345  1.00  0.00    -0.231 A  
HETATM   17  S   UNL     1     -11.612  16.048  69.298  1.00  0.00    -0.290 SA 
HETATM   18  C   UNL     1     -10.490  16.420  68.049  1.00  0.00    -0.303 A  
HETATM   19  N   UNL     1      -9.725  15.418  67.662  1.00  0.00    -0.211 NA 
BRANCH  18  20
HETATM   20  C   UNL     1     -10.443  17.801  67.440  1.00  0.00    -0.364 C  
BRANCH  20  21
HETATM   21  N   UNL     1      -9.780  18.818  68.289  1.00  0.00    -0.342 NA 
HETATM   22  C   UNL     1      -8.337  18.575  68.387  1.00  0.00    -0.332 C  
HETATM   23  C   UNL     1     -10.014  20.151  67.726  1.00  0.00    -0.409 C  
ENDBRANCH  20  21
ENDBRANCH  18  20
ENDBRANCH  14  15
ENDBRANCH  13  14
ENDBRANCH  12  13
ENDBRANCH  11  12
ENDBRANCH   9  11
ENDBRANCH   4   9
ENDBRANCH   2   4
TORSDOF 9
ENDMDL
MODEL      244
REMARK 921   NORMALIZED FREE ENERGY PREDICTED BY IDOCK:   -3.19 KCAL/MOL
REMARK 922        TOTAL FREE ENERGY PREDICTED BY IDOCK:   -5.94 KCAL/MOL
REMARK 923 INTER-LIGAND FREE ENERGY PREDICTED BY IDOCK:   -4.84 KCAL/MOL
REMARK 924 INTRA-LIGAND FREE ENERGY PREDICTED BY IDOCK:   -1.10 KCAL/MOL
REMARK 927      BINDING AFFINITY PREDICTED BY RF-SCORE:    0.00 PKD
ROOT
HETATM    1  C   UNL     1     -10.339  15.847  67.642  1.00  0.00    -0.281 C  
HETATM    2  N   UNL     1      -9.227  14.934  67.787  1.00  0.00    -0.184 NA 
HETATM    3  H   UNL     1      -8.410  15.312  68.265  1.00  0.00     0.000 HD 
ENDROOT
BRANCH   2   4
HETATM    4  C   UNL     1      -9.116  13.618  67.370  1.00  0.00    -0.222 C  
HETATM    5  C   UNL     1     -10.042  13.119  66.524  1.00  0.00    -0.280 C  
HETATM    6  O   UNL     1      -9.110  10.997  66.337  1.00  0.00    -0.167 OA 
HETATM    7  N   UNL     1     -10.026  11.768  66.019  1.00  0.00    -0.222 N  
HETATM    8  O   UNL     1     -10.965  11.469  65.271  1.00  0.00    -0.284 OA 
BRANCH   4   9
HETATM    9  N   UNL     1      -8.062  12.866  67.860  1.00  0.00    -0.147 NA 
HETATM   10  H   UNL     1      -8.319  11.939  68.198  1.00  0.00     0.000 HD 
BRANCH   9  11
HETATM   11  C   UNL     1      -6.654  13.185  67.968  1.00  0.00    -0.124 C  
BRANCH  11  12
HETATM   12  C   UNL     1      -6.173  13.019  69.413  1.00  0.00    -0.113 C  
BRANCH  12  13
HETATM   13  S   UNL     1      -6.039  14.609  70.301  1.00  0.00    -0.170 SA 
BRANCH  13  14
HETATM   14  C   UNL     1      -5.397  15.659  68.954  1.00  0.00    -0.103 C  
BRANCH  14  15
HETATM   15  C   UNL     1      -5.928  17.047  69.061  1.00  0.00    -0.172 A  
HETATM   16  C   UNL     1      -5.307  18.128  69.654  1.00  0.00    -0.201 A  
HETATM   17  S   UNL     1      -6.296  19.519  69.526  1.00  0.00    -0.328 SA 
HETATM   18  C   UNL     1      -7.490  18.585  68.713  1.00  0.00    -0.286 A  
HETATM   19  N   UNL     1      -7.197  17.309  68.558  1.00  0.00    -0.213 NA 
BRANCH  18  20
HETATM   20  C   UNL     1      -8.785  19.215  68.258  1.00  0.00    -0.338 C  
BRANCH  20  21
HETATM   21  N   UNL     1      -8.993  19.188  66.792  1.00  0.00    -0.299 NA 
HETATM   22  C   UNL     1     -10.371  19.547  66.440  1.00  0.00    -0.496 C  
HETATM   23  C   UNL     1      -8.064  20.123  66.150  1.00  0.00    -0.209 C  
ENDBRANCH  20  21
ENDBRANCH  18  20
ENDBRANCH  14  15
ENDBRANCH  13  14
ENDBRANCH  12  13
ENDBRANCH  11  12
ENDBRANCH   9  11
ENDBRANCH   4   9
ENDBRANCH   2   4
TORSDOF 9
ENDMDL
MODEL      245
REMARK 921   NORMALIZED FREE ENERGY PREDICTED BY IDOCK:   -3.19 KCAL/MOL
REMARK 922        TOTAL FREE ENERGY PREDICTED BY IDOCK:   -5.93 KCAL/MOL
REMARK 923 INTER-LIGAND FREE ENERGY PREDICTED BY IDOCK:   -5.53 KCAL/MOL
REMARK 924 INTRA-LIGAND FREE ENERGY PREDICTED BY IDOCK:   -0.40 KCAL/MOL
REMARK 927      BINDING AFFINITY PREDICTED BY RF-SCORE:    0.00 PKD
ROOT
HETATM    1  C   UNL     1     -11.415  13.160  64.654  1.00  0.00    -0.333 C  
HETATM    2  N   UNL     1     -11.587  12.452  65.903  1.00  0.00    -0.379 NA 
HETATM    3  H   UNL     1     -11.544  11.435  65.838  1.00  0.00     0.000 HD 
ENDROOT
BRANCH   2   4
HETATM    4  C   UNL     1     -11.801  12.958  67.174  1.00  0.00    -0.362 C  
HETATM    5  C   UNL     1     -11.611  14.276  67.394  1.00  0.00    -0.369 C  
HETATM    6  O   UNL     1     -12.201  14.254  69.643  1.00  0.00    -0.327 OA 
HETATM    7  N   UNL     1     -11.808  14.915  68.672  1.00  0.00    -0.320 N  
HETATM    8  O   UNL     1     -11.565  16.128  68.703  1.00  0.00    -0.376 OA 
BRANCH   4   9
HETATM    9  N   UNL     1     -12.186  12.077  68.169  1.00  0.00    -0.337 NA 
HETATM   10  H   UNL     1     -13.117  12.245  68.552  1.00  0.00     0.000 HD 
BRANCH   9  11
HETATM   11  C   UNL     1     -11.481  10.956  68.754  1.00  0.00    -0.308 C  
BRANCH  11  12
HETATM   12  C   UNL     1     -11.432  11.087  70.279  1.00  0.00    -0.273 C  
BRANCH  12  13
HETATM   13  S   UNL     1     -12.310   9.734  71.135  1.00  0.00    -0.376 SA 
BRANCH  13  14
HETATM   14  C   UNL     1     -10.886   8.851  71.857  1.00  0.00    -0.363 C  
BRANCH  14  15
HETATM   15  C   UNL     1     -10.465   7.718  70.986  1.00  0.00    -0.203 A  
HETATM   16  C   UNL     1     -10.059   7.792  69.669  1.00  0.00    -0.196 A  
HETATM   17  S   UNL     1      -9.662   6.231  69.086  1.00  0.00    -0.137 SA 
HETATM   18  C   UNL     1     -10.079   5.564  70.615  1.00  0.00    -0.223 A  
HETATM   19  N   UNL     1     -10.510   6.432  71.509  1.00  0.00    -0.214 NA 
BRANCH  18  20
HETATM   20  C   UNL     1      -9.978   4.078  70.862  1.00  0.00    -0.097 C  
BRANCH  20  21
HETATM   21  N   UNL     1      -9.582   3.715  72.242  1.00  0.00    -0.136 NA 
HETATM   22  C   UNL     1     -10.450   2.668  72.790  1.00  0.00    -0.137 C  
HETATM   23  C   UNL     1      -8.192   3.250  72.244  1.00  0.00    -0.067 C  
ENDBRANCH  20  21
ENDBRANCH  18  20
ENDBRANCH  14  15
ENDBRANCH  13  14
ENDBRANCH  12  13
ENDBRANCH  11  12
ENDBRANCH   9  11
ENDBRANCH   4   9
ENDBRANCH   2   4
TORSDOF 9
ENDMDL
MODEL      246
REMARK 921   NORMALIZED FREE ENERGY PREDICTED BY IDOCK:   -3.19 KCAL/MOL
REMARK 922        TOTAL FREE ENERGY PREDICTED BY IDOCK:   -5.93 KCAL/MOL
REMARK 923 INTER-LIGAND FREE ENERGY PREDICTED BY IDOCK:   -5.45 KCAL/MOL
REMARK 924 INTRA-LIGAND FREE ENERGY PREDICTED BY IDOCK:   -0.48 KCAL/MOL
REMARK 927      BINDING AFFINITY PREDICTED BY RF-SCORE:    0.00 PKD
ROOT
HETATM    1  C   UNL     1     -11.470  15.623  64.577  1.00  0.00    -0.300 C  
HETATM    2  N   UNL     1     -10.366  15.889  65.472  1.00  0.00    -0.384 NA 
HETATM    3  H   UNL     1      -9.469  15.495  65.188  1.00  0.00     0.000 HD 
ENDROOT
BRANCH   2   4
HETATM    4  C   UNL     1     -10.353  16.602  66.659  1.00  0.00    -0.296 C  
HETATM    5  C   UNL     1      -9.688  17.775  66.711  1.00  0.00    -0.309 C  
HETATM    6  O   UNL     1     -10.199  18.269  68.925  1.00  0.00    -0.386 OA 
HETATM    7  N   UNL     1      -9.611  18.605  67.887  1.00  0.00    -0.301 N  
HETATM    8  O   UNL     1      -8.939  19.637  67.767  1.00  0.00    -0.308 OA 
BRANCH   4   9
HETATM    9  N   UNL     1     -11.015  16.064  67.749  1.00  0.00    -0.326 NA 
HETATM   10  H   UNL     1     -11.717  16.674  68.167  1.00  0.00     0.000 HD 
BRANCH   9  11
HETATM   11  C   UNL     1     -10.872  14.773  68.390  1.00  0.00    -0.245 C  
BRANCH  11  12
HETATM   12  C   UNL     1     -11.891  13.777  67.830  1.00  0.00    -0.378 C  
BRANCH  12  13
HETATM   13  S   UNL     1     -11.678  12.093  68.503  1.00  0.00    -0.321 SA 
BRANCH  13  14
HETATM   14  C   UNL     1     -10.409  11.462  67.352  1.00  0.00    -0.202 C  
BRANCH  14  15
HETATM   15  C   UNL     1      -9.784  10.217  67.879  1.00  0.00    -0.146 A  
HETATM   16  C   UNL     1      -8.804   9.460  67.270  1.00  0.00    -0.128 A  
HETATM   17  S   UNL     1      -8.392   8.123  68.258  1.00  0.00    -0.126 SA 
HETATM   18  C   UNL     1      -9.560   8.629  69.414  1.00  0.00    -0.166 A  
HETATM   19  N   UNL     1     -10.240   9.712  69.091  1.00  0.00    -0.192 NA 
BRANCH  18  20
HETATM   20  C   UNL     1      -9.785   7.838  70.681  1.00  0.00    -0.177 C  
BRANCH  20  21
HETATM   21  N   UNL     1     -10.192   6.432  70.456  1.00  0.00    -0.186 NA 
HETATM   22  C   UNL     1     -10.074   5.638  71.684  1.00  0.00    -0.195 C  
HETATM   23  C   UNL     1     -11.577   6.395  69.981  1.00  0.00    -0.377 C  
ENDBRANCH  20  21
ENDBRANCH  18  20
ENDBRANCH  14  15
ENDBRANCH  13  14
ENDBRANCH  12  13
ENDBRANCH  11  12
ENDBRANCH   9  11
ENDBRANCH   4   9
ENDBRANCH   2   4
TORSDOF 9
ENDMDL
MODEL      247
REMARK 921   NORMALIZED FREE ENERGY PREDICTED BY IDOCK:   -3.17 KCAL/MOL
REMARK 922        TOTAL FREE ENERGY PREDICTED BY IDOCK:   -5.91 KCAL/MOL
REMARK 923 INTER-LIGAND FREE ENERGY PREDICTED BY IDOCK:   -5.48 KCAL/MOL
REMARK 924 INTRA-LIGAND FREE ENERGY PREDICTED BY IDOCK:   -0.43 KCAL/MOL
REMARK 927      BINDING AFFINITY PREDICTED BY RF-SCORE:    0.00 PKD
ROOT
HETATM    1  C   UNL     1      -8.518  10.064  62.905  1.00  0.00    -0.175 C  
HETATM    2  N   UNL     1      -9.925  10.109  63.232  1.00  0.00    -0.497 NA 
HETATM    3  H   UNL     1     -10.540   9.614  62.586  1.00  0.00     0.000 HD 
ENDROOT
BRANCH   2   4
HETATM    4  C   UNL     1     -10.556  10.729  64.297  1.00  0.00    -0.155 C  
HETATM    5  C   UNL     1     -11.356  11.790  64.057  1.00  0.00    -0.381 C  
HETATM    6  O   UNL     1     -11.987  12.148  66.266  1.00  0.00    -0.605 OA 
HETATM    7  N   UNL     1     -12.067  12.510  65.084  1.00  0.00    -0.440 N  
HETATM    8  O   UNL     1     -12.737  13.474  64.691  1.00  0.00    -0.641 OA 
BRANCH   4   9
HETATM    9  N   UNL     1     -10.321  10.238  65.569  1.00  0.00    -0.224 NA 
HETATM   10  H   UNL     1     -10.471  10.910  66.322  1.00  0.00     0.000 HD 
BRANCH   9  11
HETATM   11  C   UNL     1      -9.895   8.923  66.003  1.00  0.00    -0.207 C  
BRANCH  11  12
HETATM   12  C   UNL     1     -10.564   8.552  67.330  1.00  0.00    -0.234 C  
BRANCH  12  13
HETATM   13  S   UNL     1      -9.976   6.957  67.997  1.00  0.00    -0.162 SA 
BRANCH  13  14
HETATM   14  C   UNL     1     -11.301   6.622  69.205  1.00  0.00    -0.237 C  
BRANCH  14  15
HETATM   15  C   UNL     1     -10.880   7.012  70.580  1.00  0.00    -0.246 A  
HETATM   16  C   UNL     1     -11.704   7.272  71.657  1.00  0.00    -0.284 A  
HETATM   17  S   UNL     1     -10.768   7.673  73.033  1.00  0.00    -0.383 SA 
HETATM   18  C   UNL     1      -9.335   7.496  72.098  1.00  0.00    -0.140 A  
HETATM   19  N   UNL     1      -9.524   7.181  70.831  1.00  0.00    -0.160 NA 
BRANCH  18  20
HETATM   20  C   UNL     1      -7.977   7.732  72.715  1.00  0.00    -0.118 C  
BRANCH  20  21
HETATM   21  N   UNL     1      -6.993   6.657  72.449  1.00  0.00    -0.068 NA 
HETATM   22  C   UNL     1      -5.661   7.208  72.173  1.00  0.00    -0.037 C  
HETATM   23  C   UNL     1      -6.922   5.762  73.607  1.00  0.00    -0.081 C  
ENDBRANCH  20  21
ENDBRANCH  18  20
ENDBRANCH  14  15
ENDBRANCH  13  14
ENDBRANCH  12  13
ENDBRANCH  11  12
ENDBRANCH   9  11
ENDBRANCH   4   9
ENDBRANCH   2   4
TORSDOF 9
ENDMDL
MODEL      248
REMARK 921   NORMALIZED FREE ENERGY PREDICTED BY IDOCK:   -3.17 KCAL/MOL
REMARK 922        TOTAL FREE ENERGY PREDICTED BY IDOCK:   -5.91 KCAL/MOL
REMARK 923 INTER-LIGAND FREE ENERGY PREDICTED BY IDOCK:   -5.48 KCAL/MOL
REMARK 924 INTRA-LIGAND FREE ENERGY PREDICTED BY IDOCK:   -0.42 KCAL/MOL
REMARK 927      BINDING AFFINITY PREDICTED BY RF-SCORE:    0.00 PKD
ROOT
HETATM    1  C   UNL     1     -11.080  15.311  70.366  1.00  0.00    -0.298 C  
HETATM    2  N   UNL     1     -10.905  16.326  69.351  1.00  0.00    -0.309 NA 
HETATM    3  H   UNL     1     -11.239  17.256  69.600  1.00  0.00     0.000 HD 
ENDROOT
BRANCH   2   4
HETATM    4  C   UNL     1     -10.347  16.213  68.088  1.00  0.00    -0.269 C  
HETATM    5  C   UNL     1     -10.843  16.965  67.084  1.00  0.00    -0.088 C  
HETATM    6  O   UNL     1      -9.381  16.210  65.442  1.00  0.00    -0.351 OA 
HETATM    7  N   UNL     1     -10.341  16.936  65.733  1.00  0.00    -0.328 N  
HETATM    8  O   UNL     1     -10.928  17.674  64.931  1.00  0.00    -0.886 OA 
BRANCH   4   9
HETATM    9  N   UNL     1      -9.311  15.312  67.912  1.00  0.00    -0.188 NA 
HETATM   10  H   UNL     1      -8.408  15.736  67.702  1.00  0.00     0.000 HD 
BRANCH   9  11
HETATM   11  C   UNL     1      -9.304  13.865  67.978  1.00  0.00    -0.204 C  
BRANCH  11  12
HETATM   12  C   UNL     1     -10.035  13.267  66.772  1.00  0.00    -0.263 C  
BRANCH  12  13
HETATM   13  S   UNL     1     -11.632  12.505  67.220  1.00  0.00    -0.366 SA 
BRANCH  13  14
HETATM   14  C   UNL     1     -11.196  11.816  68.853  1.00  0.00    -0.253 C  
BRANCH  14  15
HETATM   15  C   UNL     1     -10.948  10.349  68.763  1.00  0.00    -0.245 A  
HETATM   16  C   UNL     1     -11.018   9.565  67.629  1.00  0.00    -0.081 A  
HETATM   17  S   UNL     1     -10.643   7.939  68.013  1.00  0.00    -0.076 SA 
HETATM   18  C   UNL     1     -10.438   8.385  69.661  1.00  0.00    -0.221 A  
HETATM   19  N   UNL     1     -10.653   9.657  69.931  1.00  0.00    -0.231 NA 
BRANCH  18  20
HETATM   20  C   UNL     1     -10.072   7.352  70.700  1.00  0.00    -0.190 C  
BRANCH  20  21
HETATM   21  N   UNL     1     -11.161   6.401  71.022  1.00  0.00    -0.298 NA 
HETATM   22  C   UNL     1     -10.660   5.025  71.117  1.00  0.00    -0.077 C  
HETATM   23  C   UNL     1     -11.784   6.783  72.292  1.00  0.00    -0.263 C  
ENDBRANCH  20  21
ENDBRANCH  18  20
ENDBRANCH  14  15
ENDBRANCH  13  14
ENDBRANCH  12  13
ENDBRANCH  11  12
ENDBRANCH   9  11
ENDBRANCH   4   9
ENDBRANCH   2   4
TORSDOF 9
ENDMDL
MODEL      249
REMARK 921   NORMALIZED FREE ENERGY PREDICTED BY IDOCK:   -3.17 KCAL/MOL
REMARK 922        TOTAL FREE ENERGY PREDICTED BY IDOCK:   -5.90 KCAL/MOL
REMARK 923 INTER-LIGAND FREE ENERGY PREDICTED BY IDOCK:   -5.49 KCAL/MOL
REMARK 924 INTRA-LIGAND FREE ENERGY PREDICTED BY IDOCK:   -0.41 KCAL/MOL
REMARK 927      BINDING AFFINITY PREDICTED BY RF-SCORE:    0.00 PKD
ROOT
HETATM    1  C   UNL     1     -10.726   5.387  71.641  1.00  0.00    -0.198 C  
HETATM    2  N   UNL     1     -10.216   6.438  70.789  1.00  0.00    -0.187 NA 
HETATM    3  H   UNL     1      -9.521   7.050  71.217  1.00  0.00     0.000 HD 
ENDROOT
BRANCH   2   4
HETATM    4  C   UNL     1     -10.538   6.732  69.475  1.00  0.00    -0.232 C  
HETATM    5  C   UNL     1     -10.482   5.749  68.551  1.00  0.00    -0.225 C  
HETATM    6  O   UNL     1     -11.175   7.043  66.748  1.00  0.00    -0.229 OA 
HETATM    7  N   UNL     1     -10.800   5.936  67.157  1.00  0.00    -0.308 N  
HETATM    8  O   UNL     1     -10.672   4.932  66.444  1.00  0.00    -0.281 OA 
BRANCH   4   9
HETATM    9  N   UNL     1     -10.886   8.035  69.165  1.00  0.00    -0.411 NA 
HETATM   10  H   UNL     1     -11.139   8.190  68.189  1.00  0.00     0.000 HD 
BRANCH   9  11
HETATM   11  C   UNL     1     -10.951   9.214  70.005  1.00  0.00    -0.220 C  
BRANCH  11  12
HETATM   12  C   UNL     1     -10.304  10.411  69.302  1.00  0.00    -0.230 C  
BRANCH  12  13
HETATM   13  S   UNL     1     -11.527  11.636  68.721  1.00  0.00    -0.315 SA 
BRANCH  13  14
HETATM   14  C   UNL     1     -10.844  11.991  67.067  1.00  0.00    -0.253 C  
BRANCH  14  15
HETATM   15  C   UNL     1     -10.086  13.274  67.068  1.00  0.00    -0.242 A  
HETATM   16  C   UNL     1      -8.739  13.441  67.318  1.00  0.00    -0.218 A  
HETATM   17  S   UNL     1      -8.318  15.097  67.197  1.00  0.00    -0.232 SA 
HETATM   18  C   UNL     1      -9.957  15.479  66.843  1.00  0.00    -0.247 A  
HETATM   19  N   UNL     1     -10.785  14.452  66.834  1.00  0.00    -0.289 NA 
BRANCH  18  20
HETATM   20  C   UNL     1     -10.381  16.908  66.602  1.00  0.00    -0.299 C  
BRANCH  20  21
HETATM   21  N   UNL     1      -9.581  17.913  67.340  1.00  0.00    -0.267 NA 
HETATM   22  C   UNL     1      -8.823  18.771  66.424  1.00  0.00    -0.291 C  
HETATM   23  C   UNL     1     -10.472  18.738  68.160  1.00  0.00    -0.315 C  
ENDBRANCH  20  21
ENDBRANCH  18  20
ENDBRANCH  14  15
ENDBRANCH  13  14
ENDBRANCH  12  13
ENDBRANCH  11  12
ENDBRANCH   9  11
ENDBRANCH   4   9
ENDBRANCH   2   4
TORSDOF 9
ENDMDL
MODEL      250
REMARK 921   NORMALIZED FREE ENERGY PREDICTED BY IDOCK:   -3.16 KCAL/MOL
REMARK 922        TOTAL FREE ENERGY PREDICTED BY IDOCK:   -5.89 KCAL/MOL
REMARK 923 INTER-LIGAND FREE ENERGY PREDICTED BY IDOCK:   -5.69 KCAL/MOL
REMARK 924 INTRA-LIGAND FREE ENERGY PREDICTED BY IDOCK:   -0.20 KCAL/MOL
REMARK 927      BINDING AFFINITY PREDICTED BY RF-SCORE:    0.00 PKD
ROOT
HETATM    1  C   UNL     1     -11.293  12.571  63.681  1.00  0.00    -0.485 C  
HETATM    2  N   UNL     1     -11.025  11.150  63.678  1.00  0.00    -0.570 NA 
HETATM    3  H   UNL     1     -11.802  10.559  63.383  1.00  0.00     0.000 HD 
ENDROOT
BRANCH   2   4
HETATM    4  C   UNL     1      -9.863  10.479  64.019  1.00  0.00    -0.324 C  
HETATM    5  C   UNL     1      -8.859  10.409  63.119  1.00  0.00    -0.218 C  
HETATM    6  O   UNL     1      -7.385   9.214  64.463  1.00  0.00    -0.096 OA 
HETATM    7  N   UNL     1      -7.604   9.743  63.364  1.00  0.00    -0.125 N  
HETATM    8  O   UNL     1      -6.803   9.755  62.421  1.00  0.00    -0.102 OA 
BRANCH   4   9
HETATM    9  N   UNL     1      -9.794   9.891  65.270  1.00  0.00    -0.317 NA 
HETATM   10  H   UNL     1      -9.837   8.872  65.266  1.00  0.00     0.000 HD 
BRANCH   9  11
HETATM   11  C   UNL     1      -9.669  10.490  66.582  1.00  0.00    -0.189 C  
BRANCH  11  12
HETATM   12  C   UNL     1     -10.872  10.125  67.457  1.00  0.00    -0.290 C  
BRANCH  12  13
HETATM   13  S   UNL     1     -10.782  10.860  69.126  1.00  0.00    -0.233 SA 
BRANCH  13  14
HETATM   14  C   UNL     1     -12.117  12.096  68.989  1.00  0.00    -0.153 C  
BRANCH  14  15
HETATM   15  C   UNL     1     -11.689  13.407  69.555  1.00  0.00    -0.324 A  
HETATM   16  C   UNL     1     -12.299  14.108  70.575  1.00  0.00    -0.364 A  
HETATM   17  S   UNL     1     -11.443  15.557  70.889  1.00  0.00    -0.410 SA 
HETATM   18  C   UNL     1     -10.336  15.165  69.632  1.00  0.00    -0.227 A  
HETATM   19  N   UNL     1     -10.586  14.039  68.993  1.00  0.00    -0.222 NA 
BRANCH  18  20
HETATM   20  C   UNL     1      -9.193  16.092  69.293  1.00  0.00    -0.243 C  
BRANCH  20  21
HETATM   21  N   UNL     1      -9.419  16.921  68.087  1.00  0.00    -0.245 NA 
HETATM   22  C   UNL     1     -10.832  16.921  67.694  1.00  0.00    -0.244 C  
HETATM   23  C   UNL     1      -8.985  18.295  68.351  1.00  0.00    -0.309 C  
ENDBRANCH  20  21
ENDBRANCH  18  20
ENDBRANCH  14  15
ENDBRANCH  13  14
ENDBRANCH  12  13
ENDBRANCH  11  12
ENDBRANCH   9  11
ENDBRANCH   4   9
ENDBRANCH   2   4
TORSDOF 9
ENDMDL
MODEL      251
REMARK 921   NORMALIZED FREE ENERGY PREDICTED BY IDOCK:   -3.16 KCAL/MOL
REMARK 922        TOTAL FREE ENERGY PREDICTED BY IDOCK:   -5.89 KCAL/MOL
REMARK 923 INTER-LIGAND FREE ENERGY PREDICTED BY IDOCK:   -5.14 KCAL/MOL
REMARK 924 INTRA-LIGAND FREE ENERGY PREDICTED BY IDOCK:   -0.75 KCAL/MOL
REMARK 927      BINDING AFFINITY PREDICTED BY RF-SCORE:    0.00 PKD
ROOT
HETATM    1  C   UNL     1     -10.291   7.805  67.073  1.00  0.00    -0.334 C  
HETATM    2  N   UNL     1     -10.708   9.146  67.421  1.00  0.00    -0.397 NA 
HETATM    3  H   UNL     1     -10.685   9.822  66.658  1.00  0.00     0.000 HD 
ENDROOT
BRANCH   2   4
HETATM    4  C   UNL     1     -11.134   9.640  68.642  1.00  0.00    -0.038 C  
HETATM    5  C   UNL     1     -10.665   9.079  69.776  1.00  0.00    -0.225 C  
HETATM    6  O   UNL     1     -11.803  10.470  71.250  1.00  0.00    -0.328 OA 
HETATM    7  N   UNL     1     -11.032   9.512  71.101  1.00  0.00    -0.344 N  
HETATM    8  O   UNL     1     -10.526   8.870  72.030  1.00  0.00    -0.338 OA 
BRANCH   4   9
HETATM    9  N   UNL     1     -12.043  10.683  68.641  1.00  0.00    -0.812 NA 
HETATM   10  H   UNL     1     -12.935  10.474  69.089  1.00  0.00     0.000 HD 
BRANCH   9  11
HETATM   11  C   UNL     1     -11.932  12.024  68.105  1.00  0.00    -0.163 C  
BRANCH  11  12
HETATM   12  C   UNL     1     -11.383  12.984  69.165  1.00  0.00    -0.273 C  
BRANCH  12  13
HETATM   13  S   UNL     1     -11.915  14.710  68.900  1.00  0.00    -0.236 SA 
BRANCH  13  14
HETATM   14  C   UNL     1     -10.677  15.227  67.663  1.00  0.00    -0.282 C  
BRANCH  14  15
HETATM   15  C   UNL     1      -9.305  14.822  68.082  1.00  0.00    -0.197 A  
HETATM   16  C   UNL     1      -8.606  15.279  69.181  1.00  0.00    -0.235 A  
HETATM   17  S   UNL     1      -7.072  14.522  69.260  1.00  0.00    -0.128 SA 
HETATM   18  C   UNL     1      -7.434  13.658  67.817  1.00  0.00    -0.168 A  
HETATM   19  N   UNL     1      -8.610  13.922  67.283  1.00  0.00    -0.203 NA 
BRANCH  18  20
HETATM   20  C   UNL     1      -6.430  12.703  67.217  1.00  0.00    -0.097 C  
BRANCH  20  21
HETATM   21  N   UNL     1      -7.025  11.469  66.654  1.00  0.00    -0.109 NA 
HETATM   22  C   UNL     1      -6.040  10.703  65.883  1.00  0.00    -0.138 C  
HETATM   23  C   UNL     1      -7.547  10.638  67.743  1.00  0.00    -0.095 C  
ENDBRANCH  20  21
ENDBRANCH  18  20
ENDBRANCH  14  15
ENDBRANCH  13  14
ENDBRANCH  12  13
ENDBRANCH  11  12
ENDBRANCH   9  11
ENDBRANCH   4   9
ENDBRANCH   2   4
TORSDOF 9
ENDMDL
MODEL      252
REMARK 921   NORMALIZED FREE ENERGY PREDICTED BY IDOCK:   -3.16 KCAL/MOL
REMARK 922        TOTAL FREE ENERGY PREDICTED BY IDOCK:   -5.89 KCAL/MOL
REMARK 923 INTER-LIGAND FREE ENERGY PREDICTED BY IDOCK:   -5.13 KCAL/MOL
REMARK 924 INTRA-LIGAND FREE ENERGY PREDICTED BY IDOCK:   -0.76 KCAL/MOL
REMARK 927      BINDING AFFINITY PREDICTED BY RF-SCORE:    0.00 PKD
ROOT
HETATM    1  C   UNL     1     -12.245  12.908  63.442  1.00  0.00    -0.490 C  
HETATM    2  N   UNL     1     -12.787  12.766  64.774  1.00  0.00    -0.796 NA 
HETATM    3  H   UNL     1     -13.783  12.549  64.820  1.00  0.00     0.000 HD 
ENDROOT
BRANCH   2   4
HETATM    4  C   UNL     1     -12.147  12.882  65.996  1.00  0.00    -0.422 C  
HETATM    5  C   UNL     1     -12.073  14.094  66.585  1.00  0.00    -0.451 C  
HETATM    6  O   UNL     1     -10.940  13.393  68.491  1.00  0.00    -0.249 OA 
HETATM    7  N   UNL     1     -11.437  14.334  67.857  1.00  0.00    -0.297 N  
HETATM    8  O   UNL     1     -11.439  15.511  68.238  1.00  0.00    -0.341 OA 
BRANCH   4   9
HETATM    9  N   UNL     1     -11.593  11.741  66.552  1.00  0.00    -0.511 NA 
HETATM   10  H   UNL     1     -11.949  11.500  67.477  1.00  0.00     0.000 HD 
BRANCH   9  11
HETATM   11  C   UNL     1     -10.589  10.836  66.031  1.00  0.00    -0.156 C  
BRANCH  11  12
HETATM   12  C   UNL     1     -10.217   9.783  67.080  1.00  0.00    -0.229 C  
BRANCH  12  13
HETATM   13  S   UNL     1      -8.547   9.092  66.827  1.00  0.00    -0.128 SA 
BRANCH  13  14
HETATM   14  C   UNL     1      -7.826   9.423  68.470  1.00  0.00    -0.089 C  
BRANCH  14  15
HETATM   15  C   UNL     1      -7.130  10.740  68.492  1.00  0.00    -0.070 A  
HETATM   16  C   UNL     1      -5.779  10.967  68.323  1.00  0.00    -0.043 A  
HETATM   17  S   UNL     1      -5.447  12.644  68.417  1.00  0.00    -0.063 SA 
HETATM   18  C   UNL     1      -7.115  12.950  68.698  1.00  0.00    -0.103 A  
HETATM   19  N   UNL     1      -7.884  11.880  68.745  1.00  0.00    -0.095 NA 
BRANCH  18  20
HETATM   20  C   UNL     1      -7.617  14.359  68.909  1.00  0.00    -0.128 C  
BRANCH  20  21
HETATM   21  N   UNL     1      -7.221  15.311  67.846  1.00  0.00    -0.128 NA 
HETATM   22  C   UNL     1      -8.393  15.868  67.162  1.00  0.00    -0.202 C  
HETATM   23  C   UNL     1      -6.435  16.399  68.434  1.00  0.00    -0.135 C  
ENDBRANCH  20  21
ENDBRANCH  18  20
ENDBRANCH  14  15
ENDBRANCH  13  14
ENDBRANCH  12  13
ENDBRANCH  11  12
ENDBRANCH   9  11
ENDBRANCH   4   9
ENDBRANCH   2   4
TORSDOF 9
ENDMDL
MODEL      253
REMARK 921   NORMALIZED FREE ENERGY PREDICTED BY IDOCK:   -3.16 KCAL/MOL
REMARK 922        TOTAL FREE ENERGY PREDICTED BY IDOCK:   -5.88 KCAL/MOL
REMARK 923 INTER-LIGAND FREE ENERGY PREDICTED BY IDOCK:   -5.45 KCAL/MOL
REMARK 924 INTRA-LIGAND FREE ENERGY PREDICTED BY IDOCK:   -0.43 KCAL/MOL
REMARK 927      BINDING AFFINITY PREDICTED BY RF-SCORE:    0.00 PKD
ROOT
HETATM    1  C   UNL     1      -6.713   8.708  67.414  1.00  0.00    -0.063 C  
HETATM    2  N   UNL     1      -8.088   9.152  67.480  1.00  0.00    -0.104 NA 
HETATM    3  H   UNL     1      -8.218  10.159  67.571  1.00  0.00     0.000 HD 
ENDROOT
BRANCH   2   4
HETATM    4  C   UNL     1      -9.252   8.404  67.436  1.00  0.00    -0.140 C  
HETATM    5  C   UNL     1      -9.208   7.153  66.931  1.00  0.00    -0.148 C  
HETATM    6  O   UNL     1     -11.455   6.655  67.265  1.00  0.00    -0.206 OA 
HETATM    7  N   UNL     1     -10.353   6.281  66.841  1.00  0.00    -0.220 N  
HETATM    8  O   UNL     1     -10.139   5.174  66.328  1.00  0.00    -0.191 OA 
BRANCH   4   9
HETATM    9  N   UNL     1     -10.418   8.986  67.901  1.00  0.00    -0.289 NA 
HETATM   10  H   UNL     1     -11.115   9.179  67.181  1.00  0.00     0.000 HD 
BRANCH   9  11
HETATM   11  C   UNL     1     -10.808   9.366  69.243  1.00  0.00    -0.172 C  
BRANCH  11  12
HETATM   12  C   UNL     1     -11.482  10.741  69.240  1.00  0.00    -0.298 C  
BRANCH  12  13
HETATM   13  S   UNL     1     -10.433  12.041  68.502  1.00  0.00    -0.221 SA 
BRANCH  13  14
HETATM   14  C   UNL     1     -11.724  13.231  68.006  1.00  0.00    -0.359 C  
BRANCH  14  15
HETATM   15  C   UNL     1     -11.118  14.472  67.447  1.00  0.00    -0.314 A  
HETATM   16  C   UNL     1     -10.568  14.633  66.191  1.00  0.00    -0.312 A  
HETATM   17  S   UNL     1     -10.005  16.238  65.995  1.00  0.00    -0.353 SA 
HETATM   18  C   UNL     1     -10.509  16.601  67.599  1.00  0.00    -0.320 A  
HETATM   19  N   UNL     1     -11.045  15.595  68.262  1.00  0.00    -0.320 NA 
BRANCH  18  20
HETATM   20  C   UNL     1     -10.299  17.979  68.181  1.00  0.00    -0.388 C  
BRANCH  20  21
HETATM   21  N   UNL     1      -9.621  18.928  67.268  1.00  0.00    -0.302 NA 
HETATM   22  C   UNL     1     -10.573  19.876  66.678  1.00  0.00    -0.421 C  
HETATM   23  C   UNL     1      -8.592  19.664  68.006  1.00  0.00    -0.312 C  
ENDBRANCH  20  21
ENDBRANCH  18  20
ENDBRANCH  14  15
ENDBRANCH  13  14
ENDBRANCH  12  13
ENDBRANCH  11  12
ENDBRANCH   9  11
ENDBRANCH   4   9
ENDBRANCH   2   4
TORSDOF 9
ENDMDL
MODEL      254
REMARK 921   NORMALIZED FREE ENERGY PREDICTED BY IDOCK:   -3.15 KCAL/MOL
REMARK 922        TOTAL FREE ENERGY PREDICTED BY IDOCK:   -5.88 KCAL/MOL
REMARK 923 INTER-LIGAND FREE ENERGY PREDICTED BY IDOCK:   -5.45 KCAL/MOL
REMARK 924 INTRA-LIGAND FREE ENERGY PREDICTED BY IDOCK:   -0.43 KCAL/MOL
REMARK 927      BINDING AFFINITY PREDICTED BY RF-SCORE:    0.00 PKD
ROOT
HETATM    1  C   UNL     1      -7.129   6.090  70.072  1.00  0.00    -0.071 C  
HETATM    2  N   UNL     1      -7.951   7.131  69.496  1.00  0.00    -0.125 NA 
HETATM    3  H   UNL     1      -7.645   8.085  69.688  1.00  0.00     0.000 HD 
ENDROOT
BRANCH   2   4
HETATM    4  C   UNL     1      -9.093   7.017  68.723  1.00  0.00    -0.133 C  
HETATM    5  C   UNL     1      -9.191   5.996  67.845  1.00  0.00    -0.111 C  
HETATM    6  O   UNL     1     -11.313   6.526  67.059  1.00  0.00    -0.342 OA 
HETATM    7  N   UNL     1     -10.332   5.773  66.993  1.00  0.00    -0.221 N  
HETATM    8  O   UNL     1     -10.245   4.802  66.230  1.00  0.00    -0.236 OA 
BRANCH   4   9
HETATM    9  N   UNL     1     -10.081   7.974  68.875  1.00  0.00    -0.196 NA 
HETATM   10  H   UNL     1     -10.319   8.482  68.023  1.00  0.00     0.000 HD 
BRANCH   9  11
HETATM   11  C   UNL     1     -10.832   8.369  70.048  1.00  0.00    -0.225 C  
BRANCH  11  12
HETATM   12  C   UNL     1     -10.488   9.807  70.449  1.00  0.00    -0.297 C  
BRANCH  12  13
HETATM   13  S   UNL     1     -11.967  10.860  70.645  1.00  0.00    -0.369 SA 
BRANCH  13  14
HETATM   14  C   UNL     1     -12.035  11.607  68.982  1.00  0.00    -0.305 C  
BRANCH  14  15
HETATM   15  C   UNL     1     -11.877  13.087  69.056  1.00  0.00    -0.316 A  
HETATM   16  C   UNL     1     -12.277  13.912  70.087  1.00  0.00    -0.358 A  
HETATM   17  S   UNL     1     -11.876  15.538  69.730  1.00  0.00    -0.367 SA 
HETATM   18  C   UNL     1     -11.219  15.036  68.222  1.00  0.00    -0.299 A  
HETATM   19  N   UNL     1     -11.306  13.744  67.973  1.00  0.00    -0.272 NA 
BRANCH  18  20
HETATM   20  C   UNL     1     -10.629  16.043  67.264  1.00  0.00    -0.313 C  
BRANCH  20  21
HETATM   21  N   UNL     1      -9.899  17.152  67.920  1.00  0.00    -0.274 NA 
HETATM   22  C   UNL     1      -8.491  17.185  67.509  1.00  0.00    -0.198 C  
HETATM   23  C   UNL     1     -10.538  18.426  67.579  1.00  0.00    -0.416 C  
ENDBRANCH  20  21
ENDBRANCH  18  20
ENDBRANCH  14  15
ENDBRANCH  13  14
ENDBRANCH  12  13
ENDBRANCH  11  12
ENDBRANCH   9  11
ENDBRANCH   4   9
ENDBRANCH   2   4
TORSDOF 9
ENDMDL
MODEL      255
REMARK 921   NORMALIZED FREE ENERGY PREDICTED BY IDOCK:   -3.15 KCAL/MOL
REMARK 922        TOTAL FREE ENERGY PREDICTED BY IDOCK:   -5.88 KCAL/MOL
REMARK 923 INTER-LIGAND FREE ENERGY PREDICTED BY IDOCK:   -5.55 KCAL/MOL
REMARK 924 INTRA-LIGAND FREE ENERGY PREDICTED BY IDOCK:   -0.33 KCAL/MOL
REMARK 927      BINDING AFFINITY PREDICTED BY RF-SCORE:    0.00 PKD
ROOT
HETATM    1  C   UNL     1     -11.051  15.769  70.323  1.00  0.00    -0.361 C  
HETATM    2  N   UNL     1     -11.027  16.960  69.504  1.00  0.00    -0.357 NA 
HETATM    3  H   UNL     1     -11.509  17.769  69.895  1.00  0.00     0.000 HD 
ENDROOT
BRANCH   2   4
HETATM    4  C   UNL     1     -10.442  17.158  68.265  1.00  0.00    -0.373 C  
HETATM    5  C   UNL     1     -10.729  18.284  67.577  1.00  0.00    -0.355 C  
HETATM    6  O   UNL     1      -9.366  17.830  65.749  1.00  0.00    -0.512 OA 
HETATM    7  N   UNL     1     -10.176  18.600  66.283  1.00  0.00    -0.411 N  
HETATM    8  O   UNL     1     -10.566  19.663  65.784  1.00  0.00    -0.522 OA 
BRANCH   4   9
HETATM    9  N   UNL     1      -9.597  16.176  67.779  1.00  0.00    -0.222 NA 
HETATM   10  H   UNL     1      -8.650  16.491  67.569  1.00  0.00     0.000 HD 
BRANCH   9  11
HETATM   11  C   UNL     1      -9.841  14.772  67.521  1.00  0.00    -0.218 C  
BRANCH  11  12
HETATM   12  C   UNL     1     -10.449  14.577  66.129  1.00  0.00    -0.298 C  
BRANCH  12  13
HETATM   13  S   UNL     1     -11.562  13.133  66.038  1.00  0.00    -0.372 SA 
BRANCH  13  14
HETATM   14  C   UNL     1     -10.999  12.219  67.513  1.00  0.00    -0.254 C  
BRANCH  14  15
HETATM   15  C   UNL     1     -10.399  10.910  67.131  1.00  0.00    -0.220 A  
HETATM   16  C   UNL     1     -10.983   9.664  67.248  1.00  0.00    -0.037 A  
HETATM   17  S   UNL     1      -9.915   8.456  66.671  1.00  0.00    -0.275 SA 
HETATM   18  C   UNL     1      -8.743   9.668  66.329  1.00  0.00    -0.142 A  
HETATM   19  N   UNL     1      -9.099  10.899  66.640  1.00  0.00    -0.159 NA 
BRANCH  18  20
HETATM   20  C   UNL     1      -7.399   9.299  65.748  1.00  0.00    -0.094 C  
BRANCH  20  21
HETATM   21  N   UNL     1      -6.737  10.394  65.002  1.00  0.00    -0.102 NA 
HETATM   22  C   UNL     1      -5.611  10.952  65.759  1.00  0.00    -0.138 C  
HETATM   23  C   UNL     1      -6.257   9.887  63.714  1.00  0.00    -0.125 C  
ENDBRANCH  20  21
ENDBRANCH  18  20
ENDBRANCH  14  15
ENDBRANCH  13  14
ENDBRANCH  12  13
ENDBRANCH  11  12
ENDBRANCH   9  11
ENDBRANCH   4   9
ENDBRANCH   2   4
TORSDOF 9
ENDMDL
MODEL      256
REMARK 921   NORMALIZED FREE ENERGY PREDICTED BY IDOCK:   -3.15 KCAL/MOL
REMARK 922        TOTAL FREE ENERGY PREDICTED BY IDOCK:   -5.87 KCAL/MOL
REMARK 923 INTER-LIGAND FREE ENERGY PREDICTED BY IDOCK:   -5.56 KCAL/MOL
REMARK 924 INTRA-LIGAND FREE ENERGY PREDICTED BY IDOCK:   -0.31 KCAL/MOL
REMARK 927      BINDING AFFINITY PREDICTED BY RF-SCORE:    0.00 PKD
ROOT
HETATM    1  C   UNL     1      -6.847  16.413  68.159  1.00  0.00    -0.132 C  
HETATM    2  N   UNL     1      -7.789  17.257  68.859  1.00  0.00    -0.241 NA 
HETATM    3  H   UNL     1      -7.603  17.389  69.853  1.00  0.00     0.000 HD 
ENDROOT
BRANCH   2   4
HETATM    4  C   UNL     1      -8.907  17.912  68.372  1.00  0.00    -0.289 C  
HETATM    5  C   UNL     1      -8.778  18.717  67.296  1.00  0.00    -0.270 C  
HETATM    6  O   UNL     1     -11.017  19.328  67.155  1.00  0.00    -0.476 OA 
HETATM    7  N   UNL     1      -9.871  19.444  66.699  1.00  0.00    -0.346 N  
HETATM    8  O   UNL     1      -9.570  20.155  65.731  1.00  0.00    -0.319 OA 
BRANCH   4   9
HETATM    9  N   UNL     1     -10.111  17.721  69.028  1.00  0.00    -0.335 NA 
HETATM   10  H   UNL     1     -10.763  18.502  68.959  1.00  0.00     0.000 HD 
BRANCH   9  11
HETATM   11  C   UNL     1     -10.593  16.591  69.794  1.00  0.00    -0.265 C  
BRANCH  11  12
HETATM   12  C   UNL     1     -10.857  15.392  68.879  1.00  0.00    -0.251 C  
BRANCH  12  13
HETATM   13  S   UNL     1     -12.110  14.249  69.555  1.00  0.00    -0.311 SA 
BRANCH  13  14
HETATM   14  C   UNL     1     -11.835  12.813  68.463  1.00  0.00    -0.306 C  
BRANCH  14  15
HETATM   15  C   UNL     1     -11.471  11.604  69.255  1.00  0.00    -0.300 A  
HETATM   16  C   UNL     1     -12.226  11.001  70.241  1.00  0.00    -0.363 A  
HETATM   17  S   UNL     1     -11.403   9.634  70.861  1.00  0.00    -0.389 SA 
HETATM   18  C   UNL     1     -10.092   9.950  69.793  1.00  0.00    -0.242 A  
HETATM   19  N   UNL     1     -10.232  11.017  69.031  1.00  0.00    -0.213 NA 
BRANCH  18  20
HETATM   20  C   UNL     1      -8.870   9.063  69.789  1.00  0.00    -0.153 C  
BRANCH  20  21
HETATM   21  N   UNL     1      -8.789   8.145  68.629  1.00  0.00    -0.134 NA 
HETATM   22  C   UNL     1      -8.318   8.842  67.427  1.00  0.00    -0.108 C  
HETATM   23  C   UNL     1      -7.877   7.042  68.943  1.00  0.00    -0.115 C  
ENDBRANCH  20  21
ENDBRANCH  18  20
ENDBRANCH  14  15
ENDBRANCH  13  14
ENDBRANCH  12  13
ENDBRANCH  11  12
ENDBRANCH   9  11
ENDBRANCH   4   9
ENDBRANCH   2   4
TORSDOF 9
ENDMDL
MODEL      257
REMARK 921   NORMALIZED FREE ENERGY PREDICTED BY IDOCK:   -3.14 KCAL/MOL
REMARK 922        TOTAL FREE ENERGY PREDICTED BY IDOCK:   -5.86 KCAL/MOL
REMARK 923 INTER-LIGAND FREE ENERGY PREDICTED BY IDOCK:   -5.40 KCAL/MOL
REMARK 924 INTRA-LIGAND FREE ENERGY PREDICTED BY IDOCK:   -0.46 KCAL/MOL
REMARK 927      BINDING AFFINITY PREDICTED BY RF-SCORE:    0.00 PKD
ROOT
HETATM    1  C   UNL     1      -9.374  10.840  62.606  1.00  0.00    -0.313 C  
HETATM    2  N   UNL     1     -10.579  11.399  63.178  1.00  0.00    -0.697 NA 
HETATM    3  H   UNL     1     -11.448  10.947  62.894  1.00  0.00     0.000 HD 
ENDROOT
BRANCH   2   4
HETATM    4  C   UNL     1     -10.720  12.460  64.056  1.00  0.00    -0.404 C  
HETATM    5  C   UNL     1     -11.466  13.522  63.686  1.00  0.00    -0.053 C  
HETATM    6  O   UNL     1     -11.202  14.728  65.656  1.00  0.00    -0.332 OA 
HETATM    7  N   UNL     1     -11.688  14.679  64.517  1.00  0.00    -0.414 N  
HETATM    8  O   UNL     1     -12.379  15.573  64.012  1.00  0.00    -0.650 OA 
BRANCH   4   9
HETATM    9  N   UNL     1     -10.067  12.388  65.274  1.00  0.00    -0.297 NA 
HETATM   10  H   UNL     1      -9.238  12.978  65.351  1.00  0.00     0.000 HD 
BRANCH   9  11
HETATM   11  C   UNL     1     -10.372  11.611  66.458  1.00  0.00    -0.224 C  
BRANCH  11  12
HETATM   12  C   UNL     1      -9.626  10.273  66.430  1.00  0.00    -0.185 C  
BRANCH  12  13
HETATM   13  S   UNL     1      -7.883  10.424  66.954  1.00  0.00    -0.118 SA 
BRANCH  13  14
HETATM   14  C   UNL     1      -7.475   8.659  67.174  1.00  0.00    -0.088 C  
BRANCH  14  15
HETATM   15  C   UNL     1      -7.872   8.186  68.530  1.00  0.00    -0.118 A  
HETATM   16  C   UNL     1      -7.234   8.459  69.723  1.00  0.00    -0.056 A  
HETATM   17  S   UNL     1      -8.061   7.707  71.020  1.00  0.00    -0.096 SA 
HETATM   18  C   UNL     1      -9.196   7.053  69.905  1.00  0.00    -0.144 A  
HETATM   19  N   UNL     1      -8.974   7.347  68.639  1.00  0.00    -0.132 NA 
BRANCH  18  20
HETATM   20  C   UNL     1     -10.329   6.177  70.383  1.00  0.00    -0.213 C  
BRANCH  20  21
HETATM   21  N   UNL     1     -10.932   6.607  71.665  1.00  0.00    -0.234 NA 
HETATM   22  C   UNL     1     -12.327   7.024  71.488  1.00  0.00    -0.379 C  
HETATM   23  C   UNL     1     -10.869   5.504  72.628  1.00  0.00    -0.257 C  
ENDBRANCH  20  21
ENDBRANCH  18  20
ENDBRANCH  14  15
ENDBRANCH  13  14
ENDBRANCH  12  13
ENDBRANCH  11  12
ENDBRANCH   9  11
ENDBRANCH   4   9
ENDBRANCH   2   4
TORSDOF 9
ENDMDL
MODEL      258
REMARK 921   NORMALIZED FREE ENERGY PREDICTED BY IDOCK:   -3.14 KCAL/MOL
REMARK 922        TOTAL FREE ENERGY PREDICTED BY IDOCK:   -5.85 KCAL/MOL
REMARK 923 INTER-LIGAND FREE ENERGY PREDICTED BY IDOCK:   -5.68 KCAL/MOL
REMARK 924 INTRA-LIGAND FREE ENERGY PREDICTED BY IDOCK:   -0.17 KCAL/MOL
REMARK 927      BINDING AFFINITY PREDICTED BY RF-SCORE:    0.00 PKD
ROOT
HETATM    1  C   UNL     1     -11.242  14.662  64.584  1.00  0.00    -0.346 C  
HETATM    2  N   UNL     1     -11.639  14.784  65.969  1.00  0.00    -0.326 NA 
HETATM    3  H   UNL     1     -12.513  14.319  66.216  1.00  0.00     0.000 HD 
ENDROOT
BRANCH   2   4
HETATM    4  C   UNL     1     -11.002  15.442  67.007  1.00  0.00    -0.306 C  
HETATM    5  C   UNL     1     -10.129  16.430  66.719  1.00  0.00    -0.285 C  
HETATM    6  O   UNL     1      -9.601  16.966  68.918  1.00  0.00    -0.258 OA 
HETATM    7  N   UNL     1      -9.412  17.188  67.714  1.00  0.00    -0.250 N  
HETATM    8  O   UNL     1      -8.632  18.042  67.273  1.00  0.00    -0.233 OA 
BRANCH   4   9
HETATM    9  N   UNL     1     -11.280  15.040  68.302  1.00  0.00    -0.285 NA 
HETATM   10  H   UNL     1     -10.682  15.454  69.016  1.00  0.00     0.000 HD 
BRANCH   9  11
HETATM   11  C   UNL     1     -12.284  14.125  68.805  1.00  0.00    -0.199 C  
BRANCH  11  12
HETATM   12  C   UNL     1     -11.628  12.855  69.356  1.00  0.00    -0.302 C  
BRANCH  12  13
HETATM   13  S   UNL     1     -11.342  11.592  68.069  1.00  0.00    -0.315 SA 
BRANCH  13  14
HETATM   14  C   UNL     1      -9.614  11.149  68.452  1.00  0.00    -0.192 C  
BRANCH  14  15
HETATM   15  C   UNL     1      -9.554   9.932  69.310  1.00  0.00    -0.205 A  
HETATM   16  C   UNL     1      -8.751   8.825  69.122  1.00  0.00    -0.136 A  
HETATM   17  S   UNL     1      -9.021   7.683  70.368  1.00  0.00    -0.152 SA 
HETATM   18  C   UNL     1     -10.201   8.727  71.058  1.00  0.00    -0.237 A  
HETATM   19  N   UNL     1     -10.410   9.851  70.401  1.00  0.00    -0.282 NA 
BRANCH  18  20
HETATM   20  C   UNL     1     -10.948   8.328  72.308  1.00  0.00    -0.348 C  
BRANCH  20  21
HETATM   21  N   UNL     1     -12.348   7.905  72.072  1.00  0.00    -0.307 NA 
HETATM   22  C   UNL     1     -13.229   9.060  71.870  1.00  0.00    -0.405 C  
HETATM   23  C   UNL     1     -12.402   7.036  70.893  1.00  0.00    -0.314 C  
ENDBRANCH  20  21
ENDBRANCH  18  20
ENDBRANCH  14  15
ENDBRANCH  13  14
ENDBRANCH  12  13
ENDBRANCH  11  12
ENDBRANCH   9  11
ENDBRANCH   4   9
ENDBRANCH   2   4
TORSDOF 9
ENDMDL
MODEL      259
REMARK 921   NORMALIZED FREE ENERGY PREDICTED BY IDOCK:   -3.13 KCAL/MOL
REMARK 922        TOTAL FREE ENERGY PREDICTED BY IDOCK:   -5.84 KCAL/MOL
REMARK 923 INTER-LIGAND FREE ENERGY PREDICTED BY IDOCK:   -5.30 KCAL/MOL
REMARK 924 INTRA-LIGAND FREE ENERGY PREDICTED BY IDOCK:   -0.54 KCAL/MOL
REMARK 927      BINDING AFFINITY PREDICTED BY RF-SCORE:    0.00 PKD
ROOT
HETATM    1  C   UNL     1      -8.616  14.613  66.855  1.00  0.00    -0.204 C  
HETATM    2  N   UNL     1     -10.019  14.894  67.063  1.00  0.00    -0.237 NA 
HETATM    3  H   UNL     1     -10.223  15.617  67.752  1.00  0.00     0.000 HD 
ENDROOT
BRANCH   2   4
HETATM    4  C   UNL     1     -11.125  14.320  66.459  1.00  0.00    -0.323 C  
HETATM    5  C   UNL     1     -11.204  14.311  65.111  1.00  0.00    -0.345 C  
HETATM    6  O   UNL     1     -13.235  13.188  64.975  1.00  0.00    -0.694 OA 
HETATM    7  N   UNL     1     -12.302  13.738  64.373  1.00  0.00    -0.376 N  
HETATM    8  O   UNL     1     -12.226  13.839  63.142  1.00  0.00    -0.609 OA 
BRANCH   4   9
HETATM    9  N   UNL     1     -12.112  13.794  67.273  1.00  0.00    -0.385 NA 
HETATM   10  H   UNL     1     -13.050  14.156  67.097  1.00  0.00     0.000 HD 
BRANCH   9  11
HETATM   11  C   UNL     1     -12.029  12.812  68.335  1.00  0.00    -0.231 C  
BRANCH  11  12
HETATM   12  C   UNL     1     -11.281  11.564  67.857  1.00  0.00    -0.279 C  
BRANCH  12  13
HETATM   13  S   UNL     1     -10.026  10.991  69.052  1.00  0.00    -0.120 SA 
BRANCH  13  14
HETATM   14  C   UNL     1     -11.036   9.821  70.021  1.00  0.00    -0.267 C  
BRANCH  14  15
HETATM   15  C   UNL     1     -10.175   8.948  70.869  1.00  0.00    -0.240 A  
HETATM   16  C   UNL     1     -10.337   8.678  72.212  1.00  0.00    -0.306 A  
HETATM   17  S   UNL     1      -9.109   7.614  72.752  1.00  0.00    -0.185 SA 
HETATM   18  C   UNL     1      -8.435   7.604  71.170  1.00  0.00    -0.116 A  
HETATM   19  N   UNL     1      -9.059   8.359  70.287  1.00  0.00    -0.145 NA 
BRANCH  18  20
HETATM   20  C   UNL     1      -7.192   6.802  70.866  1.00  0.00    -0.073 C  
BRANCH  20  21
HETATM   21  N   UNL     1      -7.299   5.947  69.662  1.00  0.00    -0.073 NA 
HETATM   22  C   UNL     1      -6.436   6.434  68.580  1.00  0.00    -0.049 C  
HETATM   23  C   UNL     1      -6.923   4.573  70.005  1.00  0.00    -0.045 C  
ENDBRANCH  20  21
ENDBRANCH  18  20
ENDBRANCH  14  15
ENDBRANCH  13  14
ENDBRANCH  12  13
ENDBRANCH  11  12
ENDBRANCH   9  11
ENDBRANCH   4   9
ENDBRANCH   2   4
TORSDOF 9
ENDMDL
MODEL      260
REMARK 921   NORMALIZED FREE ENERGY PREDICTED BY IDOCK:   -3.13 KCAL/MOL
REMARK 922        TOTAL FREE ENERGY PREDICTED BY IDOCK:   -5.84 KCAL/MOL
REMARK 923 INTER-LIGAND FREE ENERGY PREDICTED BY IDOCK:   -5.16 KCAL/MOL
REMARK 924 INTRA-LIGAND FREE ENERGY PREDICTED BY IDOCK:   -0.68 KCAL/MOL
REMARK 927      BINDING AFFINITY PREDICTED BY RF-SCORE:    0.00 PKD
ROOT
HETATM    1  C   UNL     1      -8.672  15.329  66.846  1.00  0.00    -0.258 C  
HETATM    2  N   UNL     1     -10.069  15.582  67.124  1.00  0.00    -0.250 NA 
HETATM    3  H   UNL     1     -10.253  16.296  67.828  1.00  0.00     0.000 HD 
ENDROOT
BRANCH   2   4
HETATM    4  C   UNL     1     -11.192  14.992  66.568  1.00  0.00    -0.312 C  
HETATM    5  C   UNL     1     -11.331  14.985  65.225  1.00  0.00    -0.349 C  
HETATM    6  O   UNL     1     -13.349  13.831  65.177  1.00  0.00    -0.688 OA 
HETATM    7  N   UNL     1     -12.453  14.397  64.536  1.00  0.00    -0.402 N  
HETATM    8  O   UNL     1     -12.433  14.501  63.303  1.00  0.00    -0.513 OA 
BRANCH   4   9
HETATM    9  N   UNL     1     -12.133  14.448  67.424  1.00  0.00    -0.588 NA 
HETATM   10  H   UNL     1     -13.062  14.863  67.357  1.00  0.00     0.000 HD 
BRANCH   9  11
HETATM   11  C   UNL     1     -12.011  13.386  68.401  1.00  0.00    -0.324 C  
BRANCH  11  12
HETATM   12  C   UNL     1     -11.764  12.043  67.707  1.00  0.00    -0.309 C  
BRANCH  12  13
HETATM   13  S   UNL     1     -10.596  10.978  68.622  1.00  0.00    -0.209 SA 
BRANCH  13  14
HETATM   14  C   UNL     1      -9.565  10.392  67.235  1.00  0.00    -0.156 C  
BRANCH  14  15
HETATM   15  C   UNL     1      -8.116  10.518  67.558  1.00  0.00    -0.107 A  
HETATM   16  C   UNL     1      -7.119   9.612  67.259  1.00  0.00    -0.086 A  
HETATM   17  S   UNL     1      -5.608  10.191  67.820  1.00  0.00    -0.041 SA 
HETATM   18  C   UNL     1      -6.387  11.594  68.441  1.00  0.00    -0.051 A  
HETATM   19  N   UNL     1      -7.694  11.634  68.271  1.00  0.00    -0.121 NA 
BRANCH  18  20
HETATM   20  C   UNL     1      -5.596  12.662  69.158  1.00  0.00    -0.072 C  
BRANCH  20  21
HETATM   21  N   UNL     1      -6.394  13.480  70.100  1.00  0.00    -0.072 NA 
HETATM   22  C   UNL     1      -5.772  13.526  71.428  1.00  0.00    -0.112 C  
HETATM   23  C   UNL     1      -6.525  14.841  69.574  1.00  0.00    -0.142 C  
ENDBRANCH  20  21
ENDBRANCH  18  20
ENDBRANCH  14  15
ENDBRANCH  13  14
ENDBRANCH  12  13
ENDBRANCH  11  12
ENDBRANCH   9  11
ENDBRANCH   4   9
ENDBRANCH   2   4
TORSDOF 9
ENDMDL
MODEL      261
REMARK 921   NORMALIZED FREE ENERGY PREDICTED BY IDOCK:   -3.13 KCAL/MOL
REMARK 922        TOTAL FREE ENERGY PREDICTED BY IDOCK:   -5.84 KCAL/MOL
REMARK 923 INTER-LIGAND FREE ENERGY PREDICTED BY IDOCK:   -4.99 KCAL/MOL
REMARK 924 INTRA-LIGAND FREE ENERGY PREDICTED BY IDOCK:   -0.85 KCAL/MOL
REMARK 927      BINDING AFFINITY PREDICTED BY RF-SCORE:    0.00 PKD
ROOT
HETATM    1  C   UNL     1     -10.952  12.817  63.932  1.00  0.00    -0.417 C  
HETATM    2  N   UNL     1     -11.666  12.188  65.021  1.00  0.00    -0.340 NA 
HETATM    3  H   UNL     1     -12.140  11.316  64.787  1.00  0.00     0.000 HD 
ENDROOT
BRANCH   2   4
HETATM    4  C   UNL     1     -11.795  12.601  66.336  1.00  0.00    -0.402 C  
HETATM    5  C   UNL     1     -11.737  13.920  66.617  1.00  0.00    -0.395 C  
HETATM    6  O   UNL     1     -12.067  13.716  68.909  1.00  0.00    -0.347 OA 
HETATM    7  N   UNL     1     -11.865  14.467  67.945  1.00  0.00    -0.358 N  
HETATM    8  O   UNL     1     -11.762  15.698  68.026  1.00  0.00    -0.306 OA 
BRANCH   4   9
HETATM    9  N   UNL     1     -11.963  11.632  67.310  1.00  0.00    -0.602 NA 
HETATM   10  H   UNL     1     -12.834  11.701  67.836  1.00  0.00     0.000 HD 
BRANCH   9  11
HETATM   11  C   UNL     1     -11.101  10.536  67.701  1.00  0.00    -0.309 C  
BRANCH  11  12
HETATM   12  C   UNL     1      -9.981  11.033  68.620  1.00  0.00    -0.199 C  
BRANCH  12  13
HETATM   13  S   UNL     1      -8.324  10.499  68.068  1.00  0.00    -0.119 SA 
BRANCH  13  14
HETATM   14  C   UNL     1      -8.456  10.878  66.289  1.00  0.00    -0.166 C  
BRANCH  14  15
HETATM   15  C   UNL     1      -8.216   9.660  65.465  1.00  0.00    -0.126 A  
HETATM   16  C   UNL     1      -8.259   9.568  64.089  1.00  0.00    -0.159 A  
HETATM   17  S   UNL     1      -7.905   7.968  63.593  1.00  0.00    -0.129 SA 
HETATM   18  C   UNL     1      -7.741   7.503  65.240  1.00  0.00    -0.112 A  
HETATM   19  N   UNL     1      -7.956   8.462  66.120  1.00  0.00    -0.097 NA 
BRANCH  18  20
HETATM   20  C   UNL     1      -7.410   6.077  65.610  1.00  0.00    -0.076 C  
BRANCH  20  21
HETATM   21  N   UNL     1      -8.423   5.420  66.469  1.00  0.00    -0.112 NA 
HETATM   22  C   UNL     1      -9.647   5.120  65.719  1.00  0.00    -0.122 C  
HETATM   23  C   UNL     1      -7.867   4.180  67.016  1.00  0.00    -0.096 C  
ENDBRANCH  20  21
ENDBRANCH  18  20
ENDBRANCH  14  15
ENDBRANCH  13  14
ENDBRANCH  12  13
ENDBRANCH  11  12
ENDBRANCH   9  11
ENDBRANCH   4   9
ENDBRANCH   2   4
TORSDOF 9
ENDMDL
MODEL      262
REMARK 921   NORMALIZED FREE ENERGY PREDICTED BY IDOCK:   -3.12 KCAL/MOL
REMARK 922        TOTAL FREE ENERGY PREDICTED BY IDOCK:   -5.83 KCAL/MOL
REMARK 923 INTER-LIGAND FREE ENERGY PREDICTED BY IDOCK:   -5.12 KCAL/MOL
REMARK 924 INTRA-LIGAND FREE ENERGY PREDICTED BY IDOCK:   -0.71 KCAL/MOL
REMARK 927      BINDING AFFINITY PREDICTED BY RF-SCORE:    0.00 PKD
ROOT
HETATM    1  C   UNL     1      -5.420  13.904  71.947  1.00  0.00    -0.214 C  
HETATM    2  N   UNL     1      -6.408  13.592  70.938  1.00  0.00    -0.474 NA 
HETATM    3  H   UNL     1      -7.056  12.841  71.177  1.00  0.00     0.000 HD 
ENDROOT
BRANCH   2   4
HETATM    4  C   UNL     1      -6.601  14.170  69.694  1.00  0.00    -0.120 C  
HETATM    5  C   UNL     1      -6.682  15.514  69.601  1.00  0.00    -0.180 C  
HETATM    6  O   UNL     1      -6.949  15.602  67.293  1.00  0.00    -0.192 OA 
HETATM    7  N   UNL     1      -6.875  16.224  68.362  1.00  0.00    -0.133 N  
HETATM    8  O   UNL     1      -6.952  17.456  68.461  1.00  0.00    -0.196 OA 
BRANCH   4   9
HETATM    9  N   UNL     1      -6.718  13.332  68.599  1.00  0.00    -0.089 NA 
HETATM   10  H   UNL     1      -6.018  13.478  67.872  1.00  0.00     0.000 HD 
BRANCH   9  11
HETATM   11  C   UNL     1      -7.676  12.282  68.319  1.00  0.00    -0.143 C  
BRANCH  11  12
HETATM   12  C   UNL     1      -7.415  11.669  66.940  1.00  0.00    -0.131 C  
BRANCH  12  13
HETATM   13  S   UNL     1      -8.942  11.449  65.963  1.00  0.00    -0.166 SA 
BRANCH  13  14
HETATM   14  C   UNL     1     -10.120  12.349  67.028  1.00  0.00    -0.214 C  
BRANCH  14  15
HETATM   15  C   UNL     1     -10.409  13.703  66.477  1.00  0.00    -0.282 A  
HETATM   16  C   UNL     1     -10.820  14.005  65.195  1.00  0.00    -0.369 A  
HETATM   17  S   UNL     1     -11.036  15.695  65.028  1.00  0.00    -0.347 SA 
HETATM   18  C   UNL     1     -10.547  15.910  66.663  1.00  0.00    -0.305 A  
HETATM   19  N   UNL     1     -10.217  14.805  67.302  1.00  0.00    -0.240 NA 
BRANCH  18  20
HETATM   20  C   UNL     1     -10.478  17.290  67.273  1.00  0.00    -0.319 C  
BRANCH  20  21
HETATM   21  N   UNL     1     -10.141  18.365  66.311  1.00  0.00    -0.419 NA 
HETATM   22  C   UNL     1     -10.609  19.672  66.782  1.00  0.00    -0.486 C  
HETATM   23  C   UNL     1      -8.689  18.406  66.115  1.00  0.00    -0.104 C  
ENDBRANCH  20  21
ENDBRANCH  18  20
ENDBRANCH  14  15
ENDBRANCH  13  14
ENDBRANCH  12  13
ENDBRANCH  11  12
ENDBRANCH   9  11
ENDBRANCH   4   9
ENDBRANCH   2   4
TORSDOF 9
ENDMDL
MODEL      263
REMARK 921   NORMALIZED FREE ENERGY PREDICTED BY IDOCK:   -3.12 KCAL/MOL
REMARK 922        TOTAL FREE ENERGY PREDICTED BY IDOCK:   -5.83 KCAL/MOL
REMARK 923 INTER-LIGAND FREE ENERGY PREDICTED BY IDOCK:   -5.27 KCAL/MOL
REMARK 924 INTRA-LIGAND FREE ENERGY PREDICTED BY IDOCK:   -0.57 KCAL/MOL
REMARK 927      BINDING AFFINITY PREDICTED BY RF-SCORE:    0.00 PKD
ROOT
HETATM    1  C   UNL     1     -12.297  10.697  70.141  1.00  0.00    -0.295 C  
HETATM    2  N   UNL     1     -11.389  11.763  69.779  1.00  0.00    -0.462 NA 
HETATM    3  H   UNL     1     -10.409  11.494  69.700  1.00  0.00     0.000 HD 
ENDROOT
BRANCH   2   4
HETATM    4  C   UNL     1     -11.662  13.097  69.527  1.00  0.00    -0.319 C  
HETATM    5  C   UNL     1     -12.174  13.860  70.515  1.00  0.00    -0.373 C  
HETATM    6  O   UNL     1     -12.271  15.838  69.298  1.00  0.00    -0.298 OA 
HETATM    7  N   UNL     1     -12.491  15.258  70.370  1.00  0.00    -0.371 N  
HETATM    8  O   UNL     1     -12.977  15.800  71.372  1.00  0.00    -0.478 OA 
BRANCH   4   9
HETATM    9  N   UNL     1     -11.410  13.583  68.255  1.00  0.00    -0.275 NA 
HETATM   10  H   UNL     1     -10.788  14.390  68.222  1.00  0.00     0.000 HD 
BRANCH   9  11
HETATM   11  C   UNL     1     -11.889  13.130  66.966  1.00  0.00    -0.379 C  
BRANCH  11  12
HETATM   12  C   UNL     1     -10.828  13.363  65.886  1.00  0.00    -0.274 C  
BRANCH  12  13
HETATM   13  S   UNL     1     -10.432  11.849  64.945  1.00  0.00    -0.300 SA 
BRANCH  13  14
HETATM   14  C   UNL     1     -10.146  10.694  66.329  1.00  0.00    -0.235 C  
BRANCH  14  15
HETATM   15  C   UNL     1      -9.294   9.549  65.900  1.00  0.00    -0.226 A  
HETATM   16  C   UNL     1      -8.366   9.544  64.879  1.00  0.00    -0.146 A  
HETATM   17  S   UNL     1      -7.625   8.004  64.763  1.00  0.00    -0.113 SA 
HETATM   18  C   UNL     1      -8.605   7.445  66.061  1.00  0.00    -0.151 A  
HETATM   19  N   UNL     1      -9.453   8.330  66.548  1.00  0.00    -0.203 NA 
BRANCH  18  20
HETATM   20  C   UNL     1      -8.495   6.022  66.553  1.00  0.00    -0.115 C  
BRANCH  20  21
HETATM   21  N   UNL     1      -8.083   5.898  67.971  1.00  0.00    -0.105 NA 
HETATM   22  C   UNL     1      -7.996   4.493  68.382  1.00  0.00    -0.079 C  
HETATM   23  C   UNL     1      -6.781   6.544  68.159  1.00  0.00    -0.068 C  
ENDBRANCH  20  21
ENDBRANCH  18  20
ENDBRANCH  14  15
ENDBRANCH  13  14
ENDBRANCH  12  13
ENDBRANCH  11  12
ENDBRANCH   9  11
ENDBRANCH   4   9
ENDBRANCH   2   4
TORSDOF 9
ENDMDL
MODEL      264
REMARK 921   NORMALIZED FREE ENERGY PREDICTED BY IDOCK:   -3.11 KCAL/MOL
REMARK 922        TOTAL FREE ENERGY PREDICTED BY IDOCK:   -5.81 KCAL/MOL
REMARK 923 INTER-LIGAND FREE ENERGY PREDICTED BY IDOCK:   -5.12 KCAL/MOL
REMARK 924 INTRA-LIGAND FREE ENERGY PREDICTED BY IDOCK:   -0.69 KCAL/MOL
REMARK 927      BINDING AFFINITY PREDICTED BY RF-SCORE:    0.00 PKD
ROOT
HETATM    1  C   UNL     1      -9.118   5.206  67.738  1.00  0.00    -0.111 C  
HETATM    2  N   UNL     1      -9.936   4.832  68.870  1.00  0.00    -0.157 NA 
HETATM    3  H   UNL     1     -10.682   4.166  68.671  1.00  0.00     0.000 HD 
ENDROOT
BRANCH   2   4
HETATM    4  C   UNL     1      -9.849   5.251  70.187  1.00  0.00    -0.220 C  
HETATM    5  C   UNL     1      -8.671   5.136  70.835  1.00  0.00    -0.130 C  
HETATM    6  O   UNL     1      -9.385   6.058  72.847  1.00  0.00    -0.147 OA 
HETATM    7  N   UNL     1      -8.461   5.543  72.202  1.00  0.00    -0.125 N  
HETATM    8  O   UNL     1      -7.324   5.343  72.648  1.00  0.00    -0.091 OA 
BRANCH   4   9
HETATM    9  N   UNL     1     -10.990   5.756  70.786  1.00  0.00    -0.271 NA 
HETATM   10  H   UNL     1     -11.222   5.337  71.687  1.00  0.00     0.000 HD 
BRANCH   9  11
HETATM   11  C   UNL     1     -11.908   6.784  70.341  1.00  0.00    -0.338 C  
BRANCH  11  12
HETATM   12  C   UNL     1     -12.007   7.905  71.380  1.00  0.00    -0.303 C  
BRANCH  12  13
HETATM   13  S   UNL     1     -10.659   9.128  71.233  1.00  0.00    -0.350 SA 
BRANCH  13  14
HETATM   14  C   UNL     1     -11.536  10.444  70.324  1.00  0.00    -0.327 C  
BRANCH  14  15
HETATM   15  C   UNL     1     -11.028  10.559  68.928  1.00  0.00    -0.246 A  
HETATM   16  C   UNL     1     -10.587   9.530  68.120  1.00  0.00    -0.217 A  
HETATM   17  S   UNL     1     -10.107  10.143  66.595  1.00  0.00    -0.226 SA 
HETATM   18  C   UNL     1     -10.496  11.734  67.122  1.00  0.00    -0.220 A  
HETATM   19  N   UNL     1     -10.936  11.824  68.362  1.00  0.00    -0.216 NA 
BRANCH  18  20
HETATM   20  C   UNL     1     -10.298  12.919  66.208  1.00  0.00    -0.268 C  
BRANCH  20  21
HETATM   21  N   UNL     1     -11.292  14.002  66.390  1.00  0.00    -0.323 NA 
HETATM   22  C   UNL     1     -10.760  15.297  65.955  1.00  0.00    -0.334 C  
HETATM   23  C   UNL     1     -12.501  13.687  65.625  1.00  0.00    -0.496 C  
ENDBRANCH  20  21
ENDBRANCH  18  20
ENDBRANCH  14  15
ENDBRANCH  13  14
ENDBRANCH  12  13
ENDBRANCH  11  12
ENDBRANCH   9  11
ENDBRANCH   4   9
ENDBRANCH   2   4
TORSDOF 9
ENDMDL
MODEL      265
REMARK 921   NORMALIZED FREE ENERGY PREDICTED BY IDOCK:   -3.11 KCAL/MOL
REMARK 922        TOTAL FREE ENERGY PREDICTED BY IDOCK:   -5.81 KCAL/MOL
REMARK 923 INTER-LIGAND FREE ENERGY PREDICTED BY IDOCK:   -5.57 KCAL/MOL
REMARK 924 INTRA-LIGAND FREE ENERGY PREDICTED BY IDOCK:   -0.24 KCAL/MOL
REMARK 927      BINDING AFFINITY PREDICTED BY RF-SCORE:    0.00 PKD
ROOT
HETATM    1  C   UNL     1     -12.578  14.513  71.860  1.00  0.00    -0.341 C  
HETATM    2  N   UNL     1     -12.322  15.521  70.855  1.00  0.00    -0.389 NA 
HETATM    3  H   UNL     1     -12.911  16.352  70.908  1.00  0.00     0.000 HD 
ENDROOT
BRANCH   2   4
HETATM    4  C   UNL     1     -11.389  15.517  69.831  1.00  0.00    -0.314 C  
HETATM    5  C   UNL     1     -10.910  16.695  69.378  1.00  0.00    -0.295 C  
HETATM    6  O   UNL     1      -9.465  15.797  67.793  1.00  0.00    -0.210 OA 
HETATM    7  N   UNL     1      -9.935  16.814  68.323  1.00  0.00    -0.261 N  
HETATM    8  O   UNL     1      -9.623  17.972  68.015  1.00  0.00    -0.276 OA 
BRANCH   4   9
HETATM    9  N   UNL     1     -11.004  14.296  69.305  1.00  0.00    -0.287 NA 
HETATM   10  H   UNL     1     -10.010  14.086  69.397  1.00  0.00     0.000 HD 
BRANCH   9  11
HETATM   11  C   UNL     1     -11.785  13.270  68.646  1.00  0.00    -0.341 C  
BRANCH  11  12
HETATM   12  C   UNL     1     -12.058  13.654  67.189  1.00  0.00    -0.362 C  
BRANCH  12  13
HETATM   13  S   UNL     1     -10.593  13.451  66.118  1.00  0.00    -0.297 SA 
BRANCH  13  14
HETATM   14  C   UNL     1     -11.309  12.390  64.817  1.00  0.00    -0.315 C  
BRANCH  14  15
HETATM   15  C   UNL     1     -10.293  11.436  64.289  1.00  0.00    -0.328 A  
HETATM   16  C   UNL     1      -9.627  11.519  63.084  1.00  0.00    -0.360 A  
HETATM   17  S   UNL     1      -8.548  10.200  62.915  1.00  0.00    -0.216 SA 
HETATM   18  C   UNL     1      -9.057   9.599  64.444  1.00  0.00    -0.229 A  
HETATM   19  N   UNL     1      -9.990  10.311  65.046  1.00  0.00    -0.325 NA 
BRANCH  18  20
HETATM   20  C   UNL     1      -8.479   8.321  65.003  1.00  0.00    -0.123 C  
BRANCH  20  21
HETATM   21  N   UNL     1      -8.205   8.362  66.458  1.00  0.00    -0.103 NA 
HETATM   22  C   UNL     1      -8.391   7.045  67.075  1.00  0.00    -0.121 C  
HETATM   23  C   UNL     1      -6.831   8.818  66.683  1.00  0.00    -0.072 C  
ENDBRANCH  20  21
ENDBRANCH  18  20
ENDBRANCH  14  15
ENDBRANCH  13  14
ENDBRANCH  12  13
ENDBRANCH  11  12
ENDBRANCH   9  11
ENDBRANCH   4   9
ENDBRANCH   2   4
TORSDOF 9
ENDMDL
MODEL      266
REMARK 921   NORMALIZED FREE ENERGY PREDICTED BY IDOCK:   -3.10 KCAL/MOL
REMARK 922        TOTAL FREE ENERGY PREDICTED BY IDOCK:   -5.80 KCAL/MOL
REMARK 923 INTER-LIGAND FREE ENERGY PREDICTED BY IDOCK:   -5.17 KCAL/MOL
REMARK 924 INTRA-LIGAND FREE ENERGY PREDICTED BY IDOCK:   -0.63 KCAL/MOL
REMARK 927      BINDING AFFINITY PREDICTED BY RF-SCORE:    0.00 PKD
ROOT
HETATM    1  C   UNL     1     -10.884   6.384  67.181  1.00  0.00    -0.393 C  
HETATM    2  N   UNL     1      -9.907   7.312  67.704  1.00  0.00    -0.144 NA 
HETATM    3  H   UNL     1      -9.655   7.177  68.683  1.00  0.00     0.000 HD 
ENDROOT
BRANCH   2   4
HETATM    4  C   UNL     1      -9.264   8.359  67.063  1.00  0.00    -0.151 C  
HETATM    5  C   UNL     1      -9.521   8.584  65.758  1.00  0.00    -0.064 C  
HETATM    6  O   UNL     1      -8.131  10.434  65.532  1.00  0.00    -0.149 OA 
HETATM    7  N   UNL     1      -8.917   9.645  64.990  1.00  0.00    -0.198 N  
HETATM    8  O   UNL     1      -9.247   9.693  63.798  1.00  0.00    -0.248 OA 
BRANCH   4   9
HETATM    9  N   UNL     1      -8.368   9.118  67.795  1.00  0.00    -0.116 NA 
HETATM   10  H   UNL     1      -7.405   9.081  67.463  1.00  0.00     0.000 HD 
BRANCH   9  11
HETATM   11  C   UNL     1      -8.579   9.957  68.957  1.00  0.00    -0.149 C  
BRANCH  11  12
HETATM   12  C   UNL     1      -9.549  11.096  68.631  1.00  0.00    -0.196 C  
BRANCH  12  13
HETATM   13  S   UNL     1     -11.270  10.720  69.113  1.00  0.00    -0.286 SA 
BRANCH  13  14
HETATM   14  C   UNL     1     -11.844  12.399  69.536  1.00  0.00    -0.303 C  
BRANCH  14  15
HETATM   15  C   UNL     1     -11.669  13.328  68.384  1.00  0.00    -0.354 A  
HETATM   16  C   UNL     1     -11.918  13.054  67.054  1.00  0.00    -0.347 A  
HETATM   17  S   UNL     1     -11.581  14.432  66.095  1.00  0.00    -0.367 SA 
HETATM   18  C   UNL     1     -11.107  15.288  67.509  1.00  0.00    -0.324 A  
HETATM   19  N   UNL     1     -11.167  14.599  68.632  1.00  0.00    -0.262 NA 
BRANCH  18  20
HETATM   20  C   UNL     1     -10.626  16.717  67.420  1.00  0.00    -0.295 C  
BRANCH  20  21
HETATM   21  N   UNL     1      -9.190  16.896  67.738  1.00  0.00    -0.228 NA 
HETATM   22  C   UNL     1      -8.347  16.641  66.565  1.00  0.00    -0.287 C  
HETATM   23  C   UNL     1      -8.963  18.263  68.215  1.00  0.00    -0.305 C  
ENDBRANCH  20  21
ENDBRANCH  18  20
ENDBRANCH  14  15
ENDBRANCH  13  14
ENDBRANCH  12  13
ENDBRANCH  11  12
ENDBRANCH   9  11
ENDBRANCH   4   9
ENDBRANCH   2   4
TORSDOF 9
ENDMDL
MODEL      267
REMARK 921   NORMALIZED FREE ENERGY PREDICTED BY IDOCK:   -3.09 KCAL/MOL
REMARK 922        TOTAL FREE ENERGY PREDICTED BY IDOCK:   -5.79 KCAL/MOL
REMARK 923 INTER-LIGAND FREE ENERGY PREDICTED BY IDOCK:   -5.55 KCAL/MOL
REMARK 924 INTRA-LIGAND FREE ENERGY PREDICTED BY IDOCK:   -0.23 KCAL/MOL
REMARK 927      BINDING AFFINITY PREDICTED BY RF-SCORE:    0.00 PKD
ROOT
HETATM    1  C   UNL     1      -9.932   7.974  66.743  1.00  0.00    -0.274 C  
HETATM    2  N   UNL     1      -9.617   8.261  68.124  1.00  0.00    -0.147 NA 
HETATM    3  H   UNL     1      -8.819   8.878  68.272  1.00  0.00     0.000 HD 
ENDROOT
BRANCH   2   4
HETATM    4  C   UNL     1     -10.246   7.816  69.275  1.00  0.00    -0.211 C  
HETATM    5  C   UNL     1     -10.004   6.562  69.711  1.00  0.00    -0.166 C  
HETATM    6  O   UNL     1     -11.356   6.675  71.599  1.00  0.00    -0.251 OA 
HETATM    7  N   UNL     1     -10.596   5.994  70.897  1.00  0.00    -0.238 N  
HETATM    8  O   UNL     1     -10.284   4.820  71.137  1.00  0.00    -0.202 OA 
BRANCH   4   9
HETATM    9  N   UNL     1     -11.112   8.682  69.919  1.00  0.00    -0.410 NA 
HETATM   10  H   UNL     1     -12.082   8.368  69.955  1.00  0.00     0.000 HD 
BRANCH   9  11
HETATM   11  C   UNL     1     -10.864   9.961  70.551  1.00  0.00    -0.326 C  
BRANCH  11  12
HETATM   12  C   UNL     1     -11.850  11.016  70.038  1.00  0.00    -0.355 C  
BRANCH  12  13
HETATM   13  S   UNL     1     -11.602  11.418  68.275  1.00  0.00    -0.292 SA 
BRANCH  13  14
HETATM   14  C   UNL     1     -11.938  13.211  68.319  1.00  0.00    -0.291 C  
BRANCH  14  15
HETATM   15  C   UNL     1     -10.687  13.993  68.107  1.00  0.00    -0.246 A  
HETATM   16  C   UNL     1      -9.580  13.604  67.381  1.00  0.00    -0.226 A  
HETATM   17  S   UNL     1      -8.392  14.836  67.412  1.00  0.00    -0.213 SA 
HETATM   18  C   UNL     1      -9.420  15.791  68.406  1.00  0.00    -0.196 A  
HETATM   19  N   UNL     1     -10.572  15.232  68.725  1.00  0.00    -0.233 NA 
BRANCH  18  20
HETATM   20  C   UNL     1      -8.980  17.152  68.889  1.00  0.00    -0.189 C  
BRANCH  20  21
HETATM   21  N   UNL     1      -9.300  18.260  67.961  1.00  0.00    -0.277 NA 
HETATM   22  C   UNL     1     -10.330  17.867  66.993  1.00  0.00    -0.362 C  
HETATM   23  C   UNL     1      -9.765  19.419  68.727  1.00  0.00    -0.449 C  
ENDBRANCH  20  21
ENDBRANCH  18  20
ENDBRANCH  14  15
ENDBRANCH  13  14
ENDBRANCH  12  13
ENDBRANCH  11  12
ENDBRANCH   9  11
ENDBRANCH   4   9
ENDBRANCH   2   4
TORSDOF 9
ENDMDL
MODEL      268
REMARK 921   NORMALIZED FREE ENERGY PREDICTED BY IDOCK:   -3.09 KCAL/MOL
REMARK 922        TOTAL FREE ENERGY PREDICTED BY IDOCK:   -5.79 KCAL/MOL
REMARK 923 INTER-LIGAND FREE ENERGY PREDICTED BY IDOCK:   -5.44 KCAL/MOL
REMARK 924 INTRA-LIGAND FREE ENERGY PREDICTED BY IDOCK:   -0.34 KCAL/MOL
REMARK 927      BINDING AFFINITY PREDICTED BY RF-SCORE:    0.00 PKD
ROOT
HETATM    1  C   UNL     1      -9.854   7.918  66.766  1.00  0.00    -0.248 C  
HETATM    2  N   UNL     1      -9.695   8.427  68.110  1.00  0.00    -0.151 NA 
HETATM    3  H   UNL     1      -8.862   8.994  68.268  1.00  0.00     0.000 HD 
ENDROOT
BRANCH   2   4
HETATM    4  C   UNL     1     -10.514   8.255  69.214  1.00  0.00    -0.210 C  
HETATM    5  C   UNL     1     -10.463   7.088  69.891  1.00  0.00    -0.217 C  
HETATM    6  O   UNL     1     -12.036   7.654  71.507  1.00  0.00    -0.282 OA 
HETATM    7  N   UNL     1     -11.263   6.798  71.055  1.00  0.00    -0.274 N  
HETATM    8  O   UNL     1     -11.109   5.669  71.538  1.00  0.00    -0.245 OA 
BRANCH   4   9
HETATM    9  N   UNL     1     -11.365   9.289  69.561  1.00  0.00    -0.439 NA 
HETATM   10  H   UNL     1     -12.346   9.025  69.650  1.00  0.00     0.000 HD 
BRANCH   9  11
HETATM   11  C   UNL     1     -11.086  10.687  69.820  1.00  0.00    -0.295 C  
BRANCH  11  12
HETATM   12  C   UNL     1     -11.900  11.581  68.880  1.00  0.00    -0.341 C  
BRANCH  12  13
HETATM   13  S   UNL     1     -11.336  11.486  67.147  1.00  0.00    -0.233 SA 
BRANCH  13  14
HETATM   14  C   UNL     1     -11.930  13.101  66.541  1.00  0.00    -0.398 C  
BRANCH  14  15
HETATM   15  C   UNL     1     -10.809  14.078  66.442  1.00  0.00    -0.299 A  
HETATM   16  C   UNL     1     -10.825  15.293  65.788  1.00  0.00    -0.358 A  
HETATM   17  S   UNL     1      -9.309  16.072  65.955  1.00  0.00    -0.318 SA 
HETATM   18  C   UNL     1      -8.731  14.732  66.865  1.00  0.00    -0.236 A  
HETATM   19  N   UNL     1      -9.592  13.746  67.025  1.00  0.00    -0.243 NA 
BRANCH  18  20
HETATM   20  C   UNL     1      -7.317  14.711  67.394  1.00  0.00    -0.168 C  
BRANCH  20  21
HETATM   21  N   UNL     1      -7.157  15.330  68.730  1.00  0.00    -0.111 NA 
HETATM   22  C   UNL     1      -8.449  15.475  69.411  1.00  0.00    -0.256 C  
HETATM   23  C   UNL     1      -6.264  14.505  69.547  1.00  0.00    -0.120 C  
ENDBRANCH  20  21
ENDBRANCH  18  20
ENDBRANCH  14  15
ENDBRANCH  13  14
ENDBRANCH  12  13
ENDBRANCH  11  12
ENDBRANCH   9  11
ENDBRANCH   4   9
ENDBRANCH   2   4
TORSDOF 9
ENDMDL
MODEL      269
REMARK 921   NORMALIZED FREE ENERGY PREDICTED BY IDOCK:   -3.07 KCAL/MOL
REMARK 922        TOTAL FREE ENERGY PREDICTED BY IDOCK:   -5.75 KCAL/MOL
REMARK 923 INTER-LIGAND FREE ENERGY PREDICTED BY IDOCK:   -5.27 KCAL/MOL
REMARK 924 INTRA-LIGAND FREE ENERGY PREDICTED BY IDOCK:   -0.48 KCAL/MOL
REMARK 927      BINDING AFFINITY PREDICTED BY RF-SCORE:    0.00 PKD
ROOT
HETATM    1  C   UNL     1      -8.087  13.143  67.970  1.00  0.00    -0.157 C  
HETATM    2  N   UNL     1      -9.345  12.454  68.151  1.00  0.00    -0.206 NA 
HETATM    3  H   UNL     1      -9.432  11.923  69.017  1.00  0.00     0.000 HD 
ENDROOT
BRANCH   2   4
HETATM    4  C   UNL     1     -10.448  12.412  67.315  1.00  0.00    -0.222 C  
HETATM    5  C   UNL     1     -10.336  12.890  66.058  1.00  0.00    -0.283 C  
HETATM    6  O   UNL     1     -12.514  12.414  65.399  1.00  0.00    -0.637 OA 
HETATM    7  N   UNL     1     -11.412  12.894  65.099  1.00  0.00    -0.303 N  
HETATM    8  O   UNL     1     -11.143  13.394  63.999  1.00  0.00    -0.365 OA 
BRANCH   4   9
HETATM    9  N   UNL     1     -11.628  11.892  67.819  1.00  0.00    -0.433 NA 
HETATM   10  H   UNL     1     -12.364  11.754  67.126  1.00  0.00     0.000 HD 
BRANCH   9  11
HETATM   11  C   UNL     1     -11.985  11.514  69.170  1.00  0.00    -0.320 C  
BRANCH  11  12
HETATM   12  C   UNL     1     -11.762  10.014  69.386  1.00  0.00     0.053 C  
BRANCH  12  13
HETATM   13  S   UNL     1     -10.548   9.661  70.703  1.00  0.00    -0.322 SA 
BRANCH  13  14
HETATM   14  C   UNL     1     -11.626   8.785  71.887  1.00  0.00    -0.361 C  
BRANCH  14  15
HETATM   15  C   UNL     1     -11.035   7.472  72.273  1.00  0.00    -0.262 A  
HETATM   16  C   UNL     1     -10.735   7.043  73.550  1.00  0.00    -0.332 A  
HETATM   17  S   UNL     1     -10.082   5.461  73.502  1.00  0.00    -0.203 SA 
HETATM   18  C   UNL     1     -10.222   5.465  71.788  1.00  0.00    -0.206 A  
HETATM   19  N   UNL     1     -10.702   6.576  71.265  1.00  0.00    -0.231 NA 
BRANCH  18  20
HETATM   20  C   UNL     1      -9.780   4.272  70.975  1.00  0.00    -0.190 C  
BRANCH  20  21
HETATM   21  N   UNL     1      -8.964   4.614  69.786  1.00  0.00    -0.089 NA 
HETATM   22  C   UNL     1      -7.568   4.199  69.959  1.00  0.00    -0.052 C  
HETATM   23  C   UNL     1      -9.527   3.958  68.603  1.00  0.00    -0.150 C  
ENDBRANCH  20  21
ENDBRANCH  18  20
ENDBRANCH  14  15
ENDBRANCH  13  14
ENDBRANCH  12  13
ENDBRANCH  11  12
ENDBRANCH   9  11
ENDBRANCH   4   9
ENDBRANCH   2   4
TORSDOF 9
ENDMDL
MODEL      270
REMARK 921   NORMALIZED FREE ENERGY PREDICTED BY IDOCK:   -3.07 KCAL/MOL
REMARK 922        TOTAL FREE ENERGY PREDICTED BY IDOCK:   -5.75 KCAL/MOL
REMARK 923 INTER-LIGAND FREE ENERGY PREDICTED BY IDOCK:   -5.35 KCAL/MOL
REMARK 924 INTRA-LIGAND FREE ENERGY PREDICTED BY IDOCK:   -0.40 KCAL/MOL
REMARK 927      BINDING AFFINITY PREDICTED BY RF-SCORE:    0.00 PKD
ROOT
HETATM    1  C   UNL     1      -9.992   7.792  66.539  1.00  0.00    -0.174 C  
HETATM    2  N   UNL     1     -10.689   8.908  67.138  1.00  0.00    -0.358 NA 
HETATM    3  H   UNL     1     -11.555   8.674  67.622  1.00  0.00     0.000 HD 
ENDROOT
BRANCH   2   4
HETATM    4  C   UNL     1     -10.346  10.250  67.147  1.00  0.00    -0.238 C  
HETATM    5  C   UNL     1      -9.046  10.595  67.030  1.00  0.00    -0.144 C  
HETATM    6  O   UNL     1      -9.377  12.895  67.097  1.00  0.00    -0.212 OA 
HETATM    7  N   UNL     1      -8.573  11.956  67.021  1.00  0.00    -0.171 N  
HETATM    8  O   UNL     1      -7.345  12.092  66.930  1.00  0.00    -0.111 OA 
BRANCH   4   9
HETATM    9  N   UNL     1     -11.360  11.180  67.295  1.00  0.00    -0.457 NA 
HETATM   10  H   UNL     1     -11.811  11.463  66.425  1.00  0.00     0.000 HD 
BRANCH   9  11
HETATM   11  C   UNL     1     -11.884  11.815  68.486  1.00  0.00    -0.303 C  
BRANCH  11  12
HETATM   12  C   UNL     1     -12.283  10.764  69.527  1.00  0.00    -0.221 C  
BRANCH  12  13
HETATM   13  S   UNL     1     -12.433  11.456  71.210  1.00  0.00    -0.261 SA 
BRANCH  13  14
HETATM   14  C   UNL     1     -13.297  10.076  72.032  1.00  0.00    -0.409 C  
BRANCH  14  15
HETATM   15  C   UNL     1     -12.520   8.811  71.908  1.00  0.00    -0.372 A  
HETATM   16  C   UNL     1     -13.003   7.575  71.529  1.00  0.00    -0.359 A  
HETATM   17  S   UNL     1     -11.736   6.423  71.521  1.00  0.00    -0.283 SA 
HETATM   18  C   UNL     1     -10.639   7.639  72.045  1.00  0.00    -0.220 A  
HETATM   19  N   UNL     1     -11.170   8.831  72.240  1.00  0.00    -0.332 NA 
BRANCH  18  20
HETATM   20  C   UNL     1      -9.185   7.314  72.287  1.00  0.00    -0.131 C  
BRANCH  20  21
HETATM   21  N   UNL     1      -8.381   8.453  72.789  1.00  0.00    -0.323 NA 
HETATM   22  C   UNL     1      -7.789   8.154  74.097  1.00  0.00    -0.231 C  
HETATM   23  C   UNL     1      -7.318   8.761  71.829  1.00  0.00    -0.041 C  
ENDBRANCH  20  21
ENDBRANCH  18  20
ENDBRANCH  14  15
ENDBRANCH  13  14
ENDBRANCH  12  13
ENDBRANCH  11  12
ENDBRANCH   9  11
ENDBRANCH   4   9
ENDBRANCH   2   4
TORSDOF 9
ENDMDL
MODEL      271
REMARK 921   NORMALIZED FREE ENERGY PREDICTED BY IDOCK:   -3.06 KCAL/MOL
REMARK 922        TOTAL FREE ENERGY PREDICTED BY IDOCK:   -5.74 KCAL/MOL
REMARK 923 INTER-LIGAND FREE ENERGY PREDICTED BY IDOCK:   -5.60 KCAL/MOL
REMARK 924 INTRA-LIGAND FREE ENERGY PREDICTED BY IDOCK:   -0.14 KCAL/MOL
REMARK 927      BINDING AFFINITY PREDICTED BY RF-SCORE:    0.00 PKD
ROOT
HETATM    1  C   UNL     1     -10.877   6.670  66.883  1.00  0.00    -0.345 C  
HETATM    2  N   UNL     1     -10.155   7.493  67.827  1.00  0.00    -0.174 NA 
HETATM    3  H   UNL     1      -9.159   7.291  67.911  1.00  0.00     0.000 HD 
ENDROOT
BRANCH   2   4
HETATM    4  C   UNL     1     -10.624   8.517  68.632  1.00  0.00    -0.118 C  
HETATM    5  C   UNL     1     -10.669   8.332  69.969  1.00  0.00    -0.239 C  
HETATM    6  O   UNL     1     -11.494  10.439  70.500  1.00  0.00    -0.304 OA 
HETATM    7  N   UNL     1     -11.132   9.326  70.904  1.00  0.00    -0.279 N  
HETATM    8  O   UNL     1     -11.129   8.980  72.093  1.00  0.00    -0.350 OA 
BRANCH   4   9
HETATM    9  N   UNL     1     -11.045   9.685  68.021  1.00  0.00    -0.509 NA 
HETATM   10  H   UNL     1     -12.051   9.851  68.062  1.00  0.00     0.000 HD 
BRANCH   9  11
HETATM   11  C   UNL     1     -10.288  10.710  67.334  1.00  0.00    -0.219 C  
BRANCH  11  12
HETATM   12  C   UNL     1     -11.096  11.286  66.167  1.00  0.00    -0.143 C  
BRANCH  12  13
HETATM   13  S   UNL     1     -11.653  12.998  66.469  1.00  0.00    -0.375 SA 
BRANCH  13  14
HETATM   14  C   UNL     1     -10.487  13.472  67.790  1.00  0.00    -0.240 C  
BRANCH  14  15
HETATM   15  C   UNL     1     -10.374  14.954  67.895  1.00  0.00    -0.237 A  
HETATM   16  C   UNL     1     -11.139  15.789  68.684  1.00  0.00    -0.327 A  
HETATM   17  S   UNL     1     -10.638  17.414  68.480  1.00  0.00    -0.296 SA 
HETATM   18  C   UNL     1      -9.456  16.898  67.342  1.00  0.00    -0.238 A  
HETATM   19  N   UNL     1      -9.437  15.602  67.099  1.00  0.00    -0.215 NA 
BRANCH  18  20
HETATM   20  C   UNL     1      -8.550  17.897  66.664  1.00  0.00    -0.262 C  
BRANCH  20  21
HETATM   21  N   UNL     1      -7.382  18.309  67.478  1.00  0.00    -0.208 NA 
HETATM   22  C   UNL     1      -7.751  19.332  68.463  1.00  0.00    -0.345 C  
HETATM   23  C   UNL     1      -6.831  17.140  68.168  1.00  0.00    -0.176 C  
ENDBRANCH  20  21
ENDBRANCH  18  20
ENDBRANCH  14  15
ENDBRANCH  13  14
ENDBRANCH  12  13
ENDBRANCH  11  12
ENDBRANCH   9  11
ENDBRANCH   4   9
ENDBRANCH   2   4
TORSDOF 9
ENDMDL
MODEL      272
REMARK 921   NORMALIZED FREE ENERGY PREDICTED BY IDOCK:   -3.05 KCAL/MOL
REMARK 922        TOTAL FREE ENERGY PREDICTED BY IDOCK:   -5.73 KCAL/MOL
REMARK 923 INTER-LIGAND FREE ENERGY PREDICTED BY IDOCK:   -4.96 KCAL/MOL
REMARK 924 INTRA-LIGAND FREE ENERGY PREDICTED BY IDOCK:   -0.77 KCAL/MOL
REMARK 927      BINDING AFFINITY PREDICTED BY RF-SCORE:    0.00 PKD
ROOT
HETATM    1  C   UNL     1     -12.381  14.086  66.466  1.00  0.00    -0.404 C  
HETATM    2  N   UNL     1     -12.177  13.809  67.870  1.00  0.00    -0.438 NA 
HETATM    3  H   UNL     1     -12.191  12.822  68.127  1.00  0.00     0.000 HD 
ENDROOT
BRANCH   2   4
HETATM    4  C   UNL     1     -11.966  14.692  68.915  1.00  0.00    -0.274 C  
HETATM    5  C   UNL     1     -12.409  14.368  70.148  1.00  0.00    -0.348 C  
HETATM    6  O   UNL     1     -11.637  16.282  71.218  1.00  0.00    -0.437 OA 
HETATM    7  N   UNL     1     -12.242  15.205  71.310  1.00  0.00    -0.304 N  
HETATM    8  O   UNL     1     -12.732  14.764  72.358  1.00  0.00    -0.321 OA 
BRANCH   4   9
HETATM    9  N   UNL     1     -11.319  15.885  68.639  1.00  0.00    -0.359 NA 
HETATM   10  H   UNL     1     -11.871  16.723  68.825  1.00  0.00     0.000 HD 
BRANCH   9  11
HETATM   11  C   UNL     1      -9.987  16.134  68.129  1.00  0.00    -0.230 C  
BRANCH  11  12
HETATM   12  C   UNL     1      -8.934  15.817  69.195  1.00  0.00    -0.256 C  
BRANCH  12  13
HETATM   13  S   UNL     1      -7.666  14.640  68.609  1.00  0.00    -0.141 SA 
BRANCH  13  14
HETATM   14  C   UNL     1      -8.603  13.818  67.277  1.00  0.00    -0.212 C  
BRANCH  14  15
HETATM   15  C   UNL     1      -8.715  12.354  67.530  1.00  0.00    -0.179 A  
HETATM   16  C   UNL     1      -9.567  11.729  68.418  1.00  0.00    -0.191 A  
HETATM   17  S   UNL     1      -9.343  10.032  68.356  1.00  0.00    -0.141 SA 
HETATM   18  C   UNL     1      -8.115  10.247  67.171  1.00  0.00    -0.121 A  
HETATM   19  N   UNL     1      -7.858  11.499  66.847  1.00  0.00    -0.160 NA 
BRANCH  18  20
HETATM   20  C   UNL     1      -7.382   9.059  66.596  1.00  0.00    -0.086 C  
BRANCH  20  21
HETATM   21  N   UNL     1      -8.131   8.332  65.545  1.00  0.00    -0.120 NA 
HETATM   22  C   UNL     1      -7.990   8.984  64.239  1.00  0.00    -0.142 C  
HETATM   23  C   UNL     1      -7.638   6.954  65.460  1.00  0.00    -0.091 C  
ENDBRANCH  20  21
ENDBRANCH  18  20
ENDBRANCH  14  15
ENDBRANCH  13  14
ENDBRANCH  12  13
ENDBRANCH  11  12
ENDBRANCH   9  11
ENDBRANCH   4   9
ENDBRANCH   2   4
TORSDOF 9
ENDMDL
MODEL      273
REMARK 921   NORMALIZED FREE ENERGY PREDICTED BY IDOCK:   -3.04 KCAL/MOL
REMARK 922        TOTAL FREE ENERGY PREDICTED BY IDOCK:   -5.71 KCAL/MOL
REMARK 923 INTER-LIGAND FREE ENERGY PREDICTED BY IDOCK:   -5.18 KCAL/MOL
REMARK 924 INTRA-LIGAND FREE ENERGY PREDICTED BY IDOCK:   -0.53 KCAL/MOL
REMARK 927      BINDING AFFINITY PREDICTED BY RF-SCORE:    0.00 PKD
ROOT
HETATM    1  C   UNL     1      -7.895   8.908  67.499  1.00  0.00    -0.101 C  
HETATM    2  N   UNL     1      -8.811   8.806  68.613  1.00  0.00    -0.137 NA 
HETATM    3  H   UNL     1      -9.797   8.917  68.380  1.00  0.00     0.000 HD 
ENDROOT
BRANCH   2   4
HETATM    4  C   UNL     1      -8.538   8.578  69.952  1.00  0.00    -0.131 C  
HETATM    5  C   UNL     1      -7.333   8.081  70.299  1.00  0.00    -0.060 C  
HETATM    6  O   UNL     1      -7.709   8.059  72.594  1.00  0.00    -0.105 OA 
HETATM    7  N   UNL     1      -6.936   7.809  71.659  1.00  0.00    -0.060 N  
HETATM    8  O   UNL     1      -5.802   7.332  71.796  1.00  0.00    -0.037 OA 
BRANCH   4   9
HETATM    9  N   UNL     1      -9.531   8.858  70.875  1.00  0.00    -0.214 NA 
HETATM   10  H   UNL     1      -9.323   9.633  71.504  1.00  0.00     0.000 HD 
BRANCH   9  11
HETATM   11  C   UNL     1     -10.816   8.227  71.091  1.00  0.00    -0.233 C  
BRANCH  11  12
HETATM   12  C   UNL     1     -11.776   9.187  71.800  1.00  0.00    -0.386 C  
BRANCH  12  13
HETATM   13  S   UNL     1     -12.485  10.438  70.675  1.00  0.00    -0.347 SA 
BRANCH  13  14
HETATM   14  C   UNL     1     -13.211  11.577  71.902  1.00  0.00    -0.374 C  
BRANCH  14  15
HETATM   15  C   UNL     1     -12.930  12.996  71.542  1.00  0.00    -0.305 A  
HETATM   16  C   UNL     1     -13.146  14.109  72.329  1.00  0.00    -0.423 A  
HETATM   17  S   UNL     1     -12.663  15.524  71.496  1.00  0.00    -0.461 SA 
HETATM   18  C   UNL     1     -12.222  14.563  70.139  1.00  0.00    -0.342 A  
HETATM   19  N   UNL     1     -12.436  13.269  70.272  1.00  0.00    -0.235 NA 
BRANCH  18  20
HETATM   20  C   UNL     1     -11.667  15.203  68.889  1.00  0.00    -0.333 C  
BRANCH  20  21
HETATM   21  N   UNL     1     -10.700  16.296  69.142  1.00  0.00    -0.282 NA 
HETATM   22  C   UNL     1      -9.372  15.770  69.477  1.00  0.00    -0.238 C  
HETATM   23  C   UNL     1     -10.603  17.146  67.953  1.00  0.00    -0.376 C  
ENDBRANCH  20  21
ENDBRANCH  18  20
ENDBRANCH  14  15
ENDBRANCH  13  14
ENDBRANCH  12  13
ENDBRANCH  11  12
ENDBRANCH   9  11
ENDBRANCH   4   9
ENDBRANCH   2   4
TORSDOF 9
ENDMDL
MODEL      274
REMARK 921   NORMALIZED FREE ENERGY PREDICTED BY IDOCK:   -3.04 KCAL/MOL
REMARK 922        TOTAL FREE ENERGY PREDICTED BY IDOCK:   -5.71 KCAL/MOL
REMARK 923 INTER-LIGAND FREE ENERGY PREDICTED BY IDOCK:   -5.60 KCAL/MOL
REMARK 924 INTRA-LIGAND FREE ENERGY PREDICTED BY IDOCK:   -0.11 KCAL/MOL
REMARK 927      BINDING AFFINITY PREDICTED BY RF-SCORE:    0.00 PKD
ROOT
HETATM    1  C   UNL     1      -9.635  10.718  63.122  1.00  0.00    -0.355 C  
HETATM    2  N   UNL     1     -10.418  10.724  64.338  1.00  0.00    -0.343 NA 
HETATM    3  H   UNL     1     -10.427   9.846  64.856  1.00  0.00     0.000 HD 
ENDROOT
BRANCH   2   4
HETATM    4  C   UNL     1     -11.157  11.752  64.897  1.00  0.00    -0.285 C  
HETATM    5  C   UNL     1     -11.609  12.743  64.100  1.00  0.00    -0.396 C  
HETATM    6  O   UNL     1     -12.710  13.937  65.764  1.00  0.00    -0.504 OA 
HETATM    7  N   UNL     1     -12.390  13.860  64.569  1.00  0.00    -0.397 N  
HETATM    8  O   UNL     1     -12.701  14.692  63.707  1.00  0.00    -0.778 OA 
BRANCH   4   9
HETATM    9  N   UNL     1     -11.384  11.723  66.262  1.00  0.00    -0.342 NA 
HETATM   10  H   UNL     1     -12.305  12.053  66.550  1.00  0.00     0.000 HD 
BRANCH   9  11
HETATM   11  C   UNL     1     -10.524  11.298  67.348  1.00  0.00    -0.212 C  
BRANCH  11  12
HETATM   12  C   UNL     1     -11.302  10.436  68.346  1.00  0.00    -0.227 C  
BRANCH  12  13
HETATM   13  S   UNL     1     -10.333  10.034  69.840  1.00  0.00    -0.271 SA 
BRANCH  13  14
HETATM   14  C   UNL     1     -11.314   8.633  70.475  1.00  0.00    -0.218 C  
BRANCH  14  15
HETATM   15  C   UNL     1     -10.722   7.333  70.051  1.00  0.00    -0.245 A  
HETATM   16  C   UNL     1     -10.925   6.682  68.850  1.00  0.00    -0.267 A  
HETATM   17  S   UNL     1     -10.028   5.224  68.811  1.00  0.00    -0.170 SA 
HETATM   18  C   UNL     1      -9.451   5.547  70.399  1.00  0.00    -0.163 A  
HETATM   19  N   UNL     1      -9.907   6.656  70.949  1.00  0.00    -0.183 NA 
BRANCH  18  20
HETATM   20  C   UNL     1      -8.520   4.582  71.093  1.00  0.00    -0.106 C  
BRANCH  20  21
HETATM   21  N   UNL     1      -7.106   4.687  70.665  1.00  0.00    -0.041 NA 
HETATM   22  C   UNL     1      -6.879   3.999  69.390  1.00  0.00    -0.045 C  
HETATM   23  C   UNL     1      -6.741   6.099  70.530  1.00  0.00    -0.053 C  
ENDBRANCH  20  21
ENDBRANCH  18  20
ENDBRANCH  14  15
ENDBRANCH  13  14
ENDBRANCH  12  13
ENDBRANCH  11  12
ENDBRANCH   9  11
ENDBRANCH   4   9
ENDBRANCH   2   4
TORSDOF 9
ENDMDL
MODEL      275
REMARK 921   NORMALIZED FREE ENERGY PREDICTED BY IDOCK:   -3.04 KCAL/MOL
REMARK 922        TOTAL FREE ENERGY PREDICTED BY IDOCK:   -5.70 KCAL/MOL
REMARK 923 INTER-LIGAND FREE ENERGY PREDICTED BY IDOCK:   -5.31 KCAL/MOL
REMARK 924 INTRA-LIGAND FREE ENERGY PREDICTED BY IDOCK:   -0.39 KCAL/MOL
REMARK 927      BINDING AFFINITY PREDICTED BY RF-SCORE:    0.00 PKD
ROOT
HETATM    1  C   UNL     1      -8.716  17.097  66.526  1.00  0.00    -0.261 C  
HETATM    2  N   UNL     1      -8.729  15.705  66.133  1.00  0.00    -0.393 NA 
HETATM    3  H   UNL     1      -7.813  15.262  66.062  1.00  0.00     0.000 HD 
ENDROOT
BRANCH   2   4
HETATM    4  C   UNL     1      -9.808  14.889  65.840  1.00  0.00    -0.332 C  
HETATM    5  C   UNL     1     -10.721  15.309  64.940  1.00  0.00    -0.400 C  
HETATM    6  O   UNL     1     -12.071  13.417  65.032  1.00  0.00    -0.362 OA 
HETATM    7  N   UNL     1     -11.880  14.543  64.552  1.00  0.00    -0.447 N  
HETATM    8  O   UNL     1     -12.628  15.090  63.731  1.00  0.00    -0.776 OA 
BRANCH   4   9
HETATM    9  N   UNL     1      -9.908  13.679  66.504  1.00  0.00    -0.285 NA 
HETATM   10  H   UNL     1     -10.507  12.990  66.049  1.00  0.00     0.000 HD 
BRANCH   9  11
HETATM   11  C   UNL     1      -9.300  13.234  67.741  1.00  0.00    -0.209 C  
BRANCH  11  12
HETATM   12  C   UNL     1      -8.564  11.907  67.533  1.00  0.00    -0.160 C  
BRANCH  12  13
HETATM   13  S   UNL     1      -8.961  10.668  68.814  1.00  0.00    -0.175 SA 
BRANCH  13  14
HETATM   14  C   UNL     1      -8.727   9.140  67.845  1.00  0.00    -0.128 C  
BRANCH  14  15
HETATM   15  C   UNL     1      -9.393   7.983  68.507  1.00  0.00    -0.142 A  
HETATM   16  C   UNL     1     -10.500   7.294  68.055  1.00  0.00    -0.197 A  
HETATM   17  S   UNL     1     -10.897   6.034  69.145  1.00  0.00    -0.349 SA 
HETATM   18  C   UNL     1      -9.585   6.506  70.153  1.00  0.00    -0.160 A  
HETATM   19  N   UNL     1      -8.897   7.549  69.731  1.00  0.00    -0.141 NA 
BRANCH  18  20
HETATM   20  C   UNL     1      -9.300   5.772  71.441  1.00  0.00    -0.146 C  
BRANCH  20  21
HETATM   21  N   UNL     1      -7.981   5.099  71.479  1.00  0.00    -0.110 NA 
HETATM   22  C   UNL     1      -7.708   4.530  72.803  1.00  0.00    -0.087 C  
HETATM   23  C   UNL     1      -7.947   4.035  70.473  1.00  0.00    -0.055 C  
ENDBRANCH  20  21
ENDBRANCH  18  20
ENDBRANCH  14  15
ENDBRANCH  13  14
ENDBRANCH  12  13
ENDBRANCH  11  12
ENDBRANCH   9  11
ENDBRANCH   4   9
ENDBRANCH   2   4
TORSDOF 9
ENDMDL
MODEL      276
REMARK 921   NORMALIZED FREE ENERGY PREDICTED BY IDOCK:   -3.03 KCAL/MOL
REMARK 922        TOTAL FREE ENERGY PREDICTED BY IDOCK:   -5.69 KCAL/MOL
REMARK 923 INTER-LIGAND FREE ENERGY PREDICTED BY IDOCK:   -4.97 KCAL/MOL
REMARK 924 INTRA-LIGAND FREE ENERGY PREDICTED BY IDOCK:   -0.72 KCAL/MOL
REMARK 927      BINDING AFFINITY PREDICTED BY RF-SCORE:    0.00 PKD
ROOT
HETATM    1  C   UNL     1     -10.356  19.812  67.043  1.00  0.00    -0.465 C  
HETATM    2  N   UNL     1     -10.625  18.393  66.970  1.00  0.00    -0.391 NA 
HETATM    3  H   UNL     1     -11.349  18.119  66.306  1.00  0.00     0.000 HD 
ENDROOT
BRANCH   2   4
HETATM    4  C   UNL     1     -10.039  17.354  67.673  1.00  0.00    -0.327 C  
HETATM    5  C   UNL     1      -8.858  17.565  68.291  1.00  0.00    -0.274 C  
HETATM    6  O   UNL     1      -8.652  15.434  69.198  1.00  0.00    -0.208 OA 
HETATM    7  N   UNL     1      -8.159  16.561  69.054  1.00  0.00    -0.235 N  
HETATM    8  O   UNL     1      -7.074  16.918  69.534  1.00  0.00    -0.192 OA 
BRANCH   4   9
HETATM    9  N   UNL     1     -10.691  16.133  67.694  1.00  0.00    -0.319 NA 
HETATM   10  H   UNL     1     -11.028  15.844  68.613  1.00  0.00     0.000 HD 
BRANCH   9  11
HETATM   11  C   UNL     1     -10.972  15.200  66.623  1.00  0.00    -0.318 C  
BRANCH  11  12
HETATM   12  C   UNL     1     -12.122  14.266  67.009  1.00  0.00    -0.390 C  
BRANCH  12  13
HETATM   13  S   UNL     1     -11.556  12.784  67.914  1.00  0.00    -0.364 SA 
BRANCH  13  14
HETATM   14  C   UNL     1     -11.313  11.642  66.512  1.00  0.00    -0.263 C  
BRANCH  14  15
HETATM   15  C   UNL     1      -9.955  11.030  66.553  1.00  0.00    -0.212 A  
HETATM   16  C   UNL     1      -9.584   9.803  66.041  1.00  0.00    -0.235 A  
HETATM   17  S   UNL     1      -7.916   9.529  66.317  1.00  0.00    -0.108 SA 
HETATM   18  C   UNL     1      -7.808  11.048  67.116  1.00  0.00    -0.135 A  
HETATM   19  N   UNL     1      -8.940  11.721  67.203  1.00  0.00    -0.171 NA 
BRANCH  18  20
HETATM   20  C   UNL     1      -6.498  11.523  67.698  1.00  0.00    -0.067 C  
BRANCH  20  21
HETATM   21  N   UNL     1      -6.605  12.079  69.066  1.00  0.00    -0.086 NA 
HETATM   22  C   UNL     1      -6.439  11.035  70.083  1.00  0.00    -0.128 C  
HETATM   23  C   UNL     1      -5.583  13.112  69.254  1.00  0.00    -0.079 C  
ENDBRANCH  20  21
ENDBRANCH  18  20
ENDBRANCH  14  15
ENDBRANCH  13  14
ENDBRANCH  12  13
ENDBRANCH  11  12
ENDBRANCH   9  11
ENDBRANCH   4   9
ENDBRANCH   2   4
TORSDOF 9
ENDMDL
MODEL      277
REMARK 921   NORMALIZED FREE ENERGY PREDICTED BY IDOCK:   -3.02 KCAL/MOL
REMARK 922        TOTAL FREE ENERGY PREDICTED BY IDOCK:   -5.68 KCAL/MOL
REMARK 923 INTER-LIGAND FREE ENERGY PREDICTED BY IDOCK:   -5.14 KCAL/MOL
REMARK 924 INTRA-LIGAND FREE ENERGY PREDICTED BY IDOCK:   -0.54 KCAL/MOL
REMARK 927      BINDING AFFINITY PREDICTED BY RF-SCORE:    0.00 PKD
ROOT
HETATM    1  C   UNL     1     -12.934  14.272  71.217  1.00  0.00    -0.352 C  
HETATM    2  N   UNL     1     -12.802  14.840  69.894  1.00  0.00    -0.591 NA 
HETATM    3  H   UNL     1     -13.605  15.375  69.565  1.00  0.00     0.000 HD 
ENDROOT
BRANCH   2   4
HETATM    4  C   UNL     1     -11.739  14.761  69.010  1.00  0.00    -0.312 C  
HETATM    5  C   UNL     1     -11.331  15.879  68.374  1.00  0.00    -0.361 C  
HETATM    6  O   UNL     1      -9.585  14.892  67.198  1.00  0.00    -0.217 OA 
HETATM    7  N   UNL     1     -10.235  15.919  67.439  1.00  0.00    -0.264 N  
HETATM    8  O   UNL     1     -10.011  17.024  66.928  1.00  0.00    -0.269 OA 
BRANCH   4   9
HETATM    9  N   UNL     1     -11.151  13.524  68.808  1.00  0.00    -0.255 NA 
HETATM   10  H   UNL     1     -10.158  13.481  69.035  1.00  0.00     0.000 HD 
BRANCH   9  11
HETATM   11  C   UNL     1     -11.720  12.283  68.325  1.00  0.00    -0.336 C  
BRANCH  11  12
HETATM   12  C   UNL     1     -11.425  12.099  66.834  1.00  0.00    -0.351 C  
BRANCH  12  13
HETATM   13  S   UNL     1      -9.888  11.162  66.526  1.00  0.00    -0.215 SA 
BRANCH  13  14
HETATM   14  C   UNL     1     -10.420   9.509  67.087  1.00  0.00    -0.253 C  
BRANCH  14  15
HETATM   15  C   UNL     1      -9.385   8.884  67.958  1.00  0.00    -0.142 A  
HETATM   16  C   UNL     1      -8.129   9.381  68.239  1.00  0.00    -0.109 A  
HETATM   17  S   UNL     1      -7.298   8.320  69.296  1.00  0.00    -0.077 SA 
HETATM   18  C   UNL     1      -8.655   7.264  69.288  1.00  0.00    -0.137 A  
HETATM   19  N   UNL     1      -9.664   7.650  68.532  1.00  0.00    -0.155 NA 
BRANCH  18  20
HETATM   20  C   UNL     1      -8.635   5.976  70.075  1.00  0.00    -0.131 C  
BRANCH  20  21
HETATM   21  N   UNL     1      -9.937   5.272  70.125  1.00  0.00    -0.221 NA 
HETATM   22  C   UNL     1      -9.759   3.816  70.137  1.00  0.00    -0.147 C  
HETATM   23  C   UNL     1     -10.670   5.685  71.324  1.00  0.00    -0.244 C  
ENDBRANCH  20  21
ENDBRANCH  18  20
ENDBRANCH  14  15
ENDBRANCH  13  14
ENDBRANCH  12  13
ENDBRANCH  11  12
ENDBRANCH   9  11
ENDBRANCH   4   9
ENDBRANCH   2   4
TORSDOF 9
ENDMDL
MODEL      278
REMARK 921   NORMALIZED FREE ENERGY PREDICTED BY IDOCK:   -3.02 KCAL/MOL
REMARK 922        TOTAL FREE ENERGY PREDICTED BY IDOCK:   -5.68 KCAL/MOL
REMARK 923 INTER-LIGAND FREE ENERGY PREDICTED BY IDOCK:   -5.30 KCAL/MOL
REMARK 924 INTRA-LIGAND FREE ENERGY PREDICTED BY IDOCK:   -0.37 KCAL/MOL
REMARK 927      BINDING AFFINITY PREDICTED BY RF-SCORE:    0.00 PKD
ROOT
HETATM    1  C   UNL     1      -9.835  17.848  68.490  1.00  0.00    -0.367 C  
HETATM    2  N   UNL     1      -9.999  16.425  68.296  1.00  0.00    -0.237 NA 
HETATM    3  H   UNL     1      -9.438  16.017  67.549  1.00  0.00     0.000 HD 
ENDROOT
BRANCH   2   4
HETATM    4  C   UNL     1     -10.811  15.537  68.982  1.00  0.00    -0.249 C  
HETATM    5  C   UNL     1     -10.921  15.650  70.322  1.00  0.00    -0.348 C  
HETATM    6  O   UNL     1     -12.417  13.895  70.613  1.00  0.00    -0.335 OA 
HETATM    7  N   UNL     1     -11.738  14.788  71.139  1.00  0.00    -0.323 N  
HETATM    8  O   UNL     1     -11.704  15.018  72.355  1.00  0.00    -0.375 OA 
BRANCH   4   9
HETATM    9  N   UNL     1     -11.463  14.556  68.255  1.00  0.00    -0.295 NA 
HETATM   10  H   UNL     1     -12.416  14.791  67.980  1.00  0.00     0.000 HD 
BRANCH   9  11
HETATM   11  C   UNL     1     -11.008  13.251  67.822  1.00  0.00    -0.258 C  
BRANCH  11  12
HETATM   12  C   UNL     1     -10.132  13.373  66.572  1.00  0.00    -0.280 C  
BRANCH  12  13
HETATM   13  S   UNL     1      -9.119  11.884  66.269  1.00  0.00    -0.148 SA 
BRANCH  13  14
HETATM   14  C   UNL     1     -10.398  10.598  66.464  1.00  0.00    -0.241 C  
BRANCH  14  15
HETATM   15  C   UNL     1      -9.916   9.495  67.342  1.00  0.00    -0.189 A  
HETATM   16  C   UNL     1      -8.626   9.013  67.433  1.00  0.00    -0.115 A  
HETATM   17  S   UNL     1      -8.549   7.747  68.584  1.00  0.00    -0.128 SA 
HETATM   18  C   UNL     1     -10.238   7.912  68.864  1.00  0.00    -0.205 A  
HETATM   19  N   UNL     1     -10.842   8.832  68.138  1.00  0.00    -0.057 NA 
BRANCH  18  20
HETATM   20  C   UNL     1     -10.946   7.020  69.855  1.00  0.00    -0.263 C  
BRANCH  20  21
HETATM   21  N   UNL     1     -11.571   7.742  70.987  1.00  0.00    -0.283 NA 
HETATM   22  C   UNL     1     -12.069   6.812  72.006  1.00  0.00    -0.305 C  
HETATM   23  C   UNL     1     -10.589   8.648  71.589  1.00  0.00    -0.303 C  
ENDBRANCH  20  21
ENDBRANCH  18  20
ENDBRANCH  14  15
ENDBRANCH  13  14
ENDBRANCH  12  13
ENDBRANCH  11  12
ENDBRANCH   9  11
ENDBRANCH   4   9
ENDBRANCH   2   4
TORSDOF 9
ENDMDL
MODEL      279
REMARK 921   NORMALIZED FREE ENERGY PREDICTED BY IDOCK:   -3.02 KCAL/MOL
REMARK 922        TOTAL FREE ENERGY PREDICTED BY IDOCK:   -5.67 KCAL/MOL
REMARK 923 INTER-LIGAND FREE ENERGY PREDICTED BY IDOCK:   -5.05 KCAL/MOL
REMARK 924 INTRA-LIGAND FREE ENERGY PREDICTED BY IDOCK:   -0.62 KCAL/MOL
REMARK 927      BINDING AFFINITY PREDICTED BY RF-SCORE:    0.00 PKD
ROOT
HETATM    1  C   UNL     1     -10.424   7.512  67.562  1.00  0.00    -0.271 C  
HETATM    2  N   UNL     1     -10.176   8.669  68.393  1.00  0.00    -0.195 NA 
HETATM    3  H   UNL     1     -10.278   8.518  69.396  1.00  0.00     0.000 HD 
ENDROOT
BRANCH   2   4
HETATM    4  C   UNL     1      -9.818   9.954  68.020  1.00  0.00    -0.147 C  
HETATM    5  C   UNL     1      -8.751  10.534  68.608  1.00  0.00    -0.143 C  
HETATM    6  O   UNL     1      -8.851  12.532  67.423  1.00  0.00    -0.170 OA 
HETATM    7  N   UNL     1      -8.283  11.862  68.297  1.00  0.00    -0.152 N  
HETATM    8  O   UNL     1      -7.304  12.248  68.949  1.00  0.00    -0.104 OA 
BRANCH   4   9
HETATM    9  N   UNL     1     -10.589  10.593  67.065  1.00  0.00    -0.254 NA 
HETATM   10  H   UNL     1     -11.003  11.474  67.369  1.00  0.00     0.000 HD 
BRANCH   9  11
HETATM   11  C   UNL     1     -10.903  10.212  65.703  1.00  0.00     0.433 C  
BRANCH  11  12
HETATM   12  C   UNL     1      -9.837  10.739  64.737  1.00  0.00    -0.300 C  
BRANCH  12  13
HETATM   13  S   UNL     1     -10.528  11.830  63.447  1.00  0.00    -0.419 SA 
BRANCH  13  14
HETATM   14  C   UNL     1     -11.999  12.454  64.328  1.00  0.00    -0.410 C  
BRANCH  14  15
HETATM   15  C   UNL     1     -11.641  13.590  65.223  1.00  0.00    -0.311 A  
HETATM   16  C   UNL     1     -10.940  14.728  64.878  1.00  0.00    -0.412 A  
HETATM   17  S   UNL     1     -10.780  15.757  66.237  1.00  0.00    -0.242 SA 
HETATM   18  C   UNL     1     -11.631  14.610  67.195  1.00  0.00    -0.378 A  
HETATM   19  N   UNL     1     -12.000  13.512  66.563  1.00  0.00    -0.400 NA 
BRANCH  18  20
HETATM   20  C   UNL     1     -11.884  14.865  68.661  1.00  0.00    -0.300 C  
BRANCH  20  21
HETATM   21  N   UNL     1     -10.942  15.824  69.283  1.00  0.00    -0.259 NA 
HETATM   22  C   UNL     1     -11.349  16.163  70.652  1.00  0.00    -0.370 C  
HETATM   23  C   UNL     1      -9.597  15.245  69.302  1.00  0.00    -0.249 C  
ENDBRANCH  20  21
ENDBRANCH  18  20
ENDBRANCH  14  15
ENDBRANCH  13  14
ENDBRANCH  12  13
ENDBRANCH  11  12
ENDBRANCH   9  11
ENDBRANCH   4   9
ENDBRANCH   2   4
TORSDOF 9
ENDMDL
MODEL      280
REMARK 921   NORMALIZED FREE ENERGY PREDICTED BY IDOCK:   -3.00 KCAL/MOL
REMARK 922        TOTAL FREE ENERGY PREDICTED BY IDOCK:   -5.65 KCAL/MOL
REMARK 923 INTER-LIGAND FREE ENERGY PREDICTED BY IDOCK:   -5.19 KCAL/MOL
REMARK 924 INTRA-LIGAND FREE ENERGY PREDICTED BY IDOCK:   -0.46 KCAL/MOL
REMARK 927      BINDING AFFINITY PREDICTED BY RF-SCORE:    0.00 PKD
ROOT
HETATM    1  C   UNL     1     -12.202  14.055  69.716  1.00  0.00    -0.341 C  
HETATM    2  N   UNL     1     -11.071  14.399  68.883  1.00  0.00    -0.248 NA 
HETATM    3  H   UNL     1     -10.200  13.919  69.108  1.00  0.00     0.000 HD 
ENDROOT
BRANCH   2   4
HETATM    4  C   UNL     1     -11.004  15.287  67.823  1.00  0.00    -0.312 C  
HETATM    5  C   UNL     1     -10.639  16.565  68.061  1.00  0.00    -0.328 C  
HETATM    6  O   UNL     1     -10.749  17.285  65.853  1.00  0.00    -0.273 OA 
HETATM    7  N   UNL     1     -10.529  17.574  67.038  1.00  0.00    -0.319 N  
HETATM    8  O   UNL     1     -10.206  18.701  67.435  1.00  0.00    -0.343 OA 
BRANCH   4   9
HETATM    9  N   UNL     1     -11.333  14.822  66.562  1.00  0.00    -0.351 NA 
HETATM   10  H   UNL     1     -10.631  15.000  65.844  1.00  0.00     0.000 HD 
BRANCH   9  11
HETATM   11  C   UNL     1     -12.514  14.124  66.098  1.00  0.00    -0.395 C  
BRANCH  11  12
HETATM   12  C   UNL     1     -12.157  13.151  64.971  1.00  0.00    -0.415 C  
BRANCH  12  13
HETATM   13  S   UNL     1     -10.483  12.445  65.150  1.00  0.00    -0.299 SA 
BRANCH  13  14
HETATM   14  C   UNL     1     -10.539  11.184  63.832  1.00  0.00    -0.364 C  
BRANCH  14  15
HETATM   15  C   UNL     1      -9.599  10.066  64.124  1.00  0.00    -0.208 A  
HETATM   16  C   UNL     1      -9.224   9.602  65.368  1.00  0.00    -0.238 A  
HETATM   17  S   UNL     1      -8.131   8.294  65.205  1.00  0.00    -0.149 SA 
HETATM   18  C   UNL     1      -8.213   8.450  63.495  1.00  0.00    -0.106 A  
HETATM   19  N   UNL     1      -8.984   9.425  63.055  1.00  0.00    -0.211 NA 
BRANCH  18  20
HETATM   20  C   UNL     1      -7.413   7.537  62.597  1.00  0.00    -0.101 C  
BRANCH  20  21
HETATM   21  N   UNL     1      -7.422   6.115  63.012  1.00  0.00    -0.061 NA 
HETATM   22  C   UNL     1      -8.519   5.379  62.374  1.00  0.00    -0.111 C  
HETATM   23  C   UNL     1      -6.144   5.494  62.655  1.00  0.00    -0.018 C  
ENDBRANCH  20  21
ENDBRANCH  18  20
ENDBRANCH  14  15
ENDBRANCH  13  14
ENDBRANCH  12  13
ENDBRANCH  11  12
ENDBRANCH   9  11
ENDBRANCH   4   9
ENDBRANCH   2   4
TORSDOF 9
ENDMDL
MODEL      281
REMARK 921   NORMALIZED FREE ENERGY PREDICTED BY IDOCK:   -3.00 KCAL/MOL
REMARK 922        TOTAL FREE ENERGY PREDICTED BY IDOCK:   -5.64 KCAL/MOL
REMARK 923 INTER-LIGAND FREE ENERGY PREDICTED BY IDOCK:   -4.96 KCAL/MOL
REMARK 924 INTRA-LIGAND FREE ENERGY PREDICTED BY IDOCK:   -0.69 KCAL/MOL
REMARK 927      BINDING AFFINITY PREDICTED BY RF-SCORE:    0.00 PKD
ROOT
HETATM    1  C   UNL     1      -9.654   5.131  66.637  1.00  0.00    -0.154 C  
HETATM    2  N   UNL     1     -10.585   5.762  67.546  1.00  0.00    -0.250 NA 
HETATM    3  H   UNL     1     -11.534   5.875  67.191  1.00  0.00     0.000 HD 
ENDROOT
BRANCH   2   4
HETATM    4  C   UNL     1     -10.369   6.233  68.830  1.00  0.00    -0.204 C  
HETATM    5  C   UNL     1     -11.433   6.537  69.603  1.00  0.00    -0.352 C  
HETATM    6  O   UNL     1     -10.220   7.171  71.483  1.00  0.00    -0.198 OA 
HETATM    7  N   UNL     1     -11.332   7.030  70.954  1.00  0.00    -0.279 N  
HETATM    8  O   UNL     1     -12.408   7.281  71.511  1.00  0.00    -0.323 OA 
BRANCH   4   9
HETATM    9  N   UNL     1      -9.062   6.388  69.256  1.00  0.00    -0.136 NA 
HETATM   10  H   UNL     1      -8.766   5.729  69.977  1.00  0.00     0.000 HD 
BRANCH   9  11
HETATM   11  C   UNL     1      -8.046   7.335  68.844  1.00  0.00    -0.128 C  
BRANCH  11  12
HETATM   12  C   UNL     1      -8.656   8.725  68.642  1.00  0.00    -0.134 C  
BRANCH  12  13
HETATM   13  S   UNL     1      -8.891   9.146  66.881  1.00  0.00    -0.124 SA 
BRANCH  13  14
HETATM   14  C   UNL     1     -10.685   9.481  66.882  1.00  0.00    -0.114 C  
BRANCH  14  15
HETATM   15  C   UNL     1     -10.973  10.832  67.442  1.00  0.00    -0.300 A  
HETATM   16  C   UNL     1     -11.477  11.119  68.695  1.00  0.00    -0.298 A  
HETATM   17  S   UNL     1     -11.632  12.812  68.894  1.00  0.00    -0.333 SA 
HETATM   18  C   UNL     1     -11.041  13.045  67.296  1.00  0.00    -0.273 A  
HETATM   19  N   UNL     1     -10.763  11.941  66.632  1.00  0.00    -0.245 NA 
BRANCH  18  20
HETATM   20  C   UNL     1     -10.903  14.434  66.719  1.00  0.00    -0.301 C  
BRANCH  20  21
HETATM   21  N   UNL     1      -9.514  14.812  66.370  1.00  0.00    -0.287 NA 
HETATM   22  C   UNL     1      -9.413  16.240  66.050  1.00  0.00    -0.334 C  
HETATM   23  C   UNL     1      -8.626  14.498  67.492  1.00  0.00    -0.189 C  
ENDBRANCH  20  21
ENDBRANCH  18  20
ENDBRANCH  14  15
ENDBRANCH  13  14
ENDBRANCH  12  13
ENDBRANCH  11  12
ENDBRANCH   9  11
ENDBRANCH   4   9
ENDBRANCH   2   4
TORSDOF 9
ENDMDL
MODEL      282
REMARK 921   NORMALIZED FREE ENERGY PREDICTED BY IDOCK:   -3.00 KCAL/MOL
REMARK 922        TOTAL FREE ENERGY PREDICTED BY IDOCK:   -5.64 KCAL/MOL
REMARK 923 INTER-LIGAND FREE ENERGY PREDICTED BY IDOCK:   -5.87 KCAL/MOL
REMARK 924 INTRA-LIGAND FREE ENERGY PREDICTED BY IDOCK:    0.23 KCAL/MOL
REMARK 927      BINDING AFFINITY PREDICTED BY RF-SCORE:    0.00 PKD
ROOT
HETATM    1  C   UNL     1     -12.189  10.723  70.350  1.00  0.00    -0.349 C  
HETATM    2  N   UNL     1     -11.546  12.019  70.337  1.00  0.00    -0.496 NA 
HETATM    3  H   UNL     1     -10.527  12.001  70.352  1.00  0.00     0.000 HD 
ENDROOT
BRANCH   2   4
HETATM    4  C   UNL     1     -12.119  13.279  70.307  1.00  0.00    -0.335 C  
HETATM    5  C   UNL     1     -12.904  13.666  71.335  1.00  0.00    -0.360 C  
HETATM    6  O   UNL     1     -13.373  15.793  70.520  1.00  0.00    -0.418 OA 
HETATM    7  N   UNL     1     -13.548  14.954  71.415  1.00  0.00    -0.409 N  
HETATM    8  O   UNL     1     -14.253  15.135  72.416  1.00  0.00    -0.492 OA 
BRANCH   4   9
HETATM    9  N   UNL     1     -11.871  14.081  69.207  1.00  0.00    -0.322 NA 
HETATM   10  H   UNL     1     -11.469  14.993  69.425  1.00  0.00     0.000 HD 
BRANCH   9  11
HETATM   11  C   UNL     1     -12.091  13.834  67.797  1.00  0.00    -0.290 C  
BRANCH  11  12
HETATM   12  C   UNL     1     -11.113  14.652  66.948  1.00  0.00    -0.333 C  
BRANCH  12  13
HETATM   13  S   UNL     1     -10.686  13.832  65.374  1.00  0.00    -0.333 SA 
BRANCH  13  14
HETATM   14  C   UNL     1     -11.263  12.141  65.742  1.00  0.00    -0.339 C  
BRANCH  14  15
HETATM   15  C   UNL     1     -10.113  11.231  66.005  1.00  0.00    -0.239 A  
HETATM   16  C   UNL     1      -8.850  11.592  66.428  1.00  0.00    -0.182 A  
HETATM   17  S   UNL     1      -7.866  10.202  66.602  1.00  0.00    -0.112 SA 
HETATM   18  C   UNL     1      -9.178   9.219  66.082  1.00  0.00    -0.196 A  
HETATM   19  N   UNL     1     -10.281   9.871  65.771  1.00  0.00    -0.235 NA 
BRANCH  18  20
HETATM   20  C   UNL     1      -9.022   7.722  65.967  1.00  0.00    -0.145 C  
BRANCH  20  21
HETATM   21  N   UNL     1      -8.055   7.288  64.933  1.00  0.00    -0.126 NA 
HETATM   22  C   UNL     1      -7.315   8.427  64.380  1.00  0.00    -0.091 C  
HETATM   23  C   UNL     1      -7.112   6.330  65.517  1.00  0.00    -0.068 C  
ENDBRANCH  20  21
ENDBRANCH  18  20
ENDBRANCH  14  15
ENDBRANCH  13  14
ENDBRANCH  12  13
ENDBRANCH  11  12
ENDBRANCH   9  11
ENDBRANCH   4   9
ENDBRANCH   2   4
TORSDOF 9
ENDMDL
MODEL      283
REMARK 921   NORMALIZED FREE ENERGY PREDICTED BY IDOCK:   -3.00 KCAL/MOL
REMARK 922        TOTAL FREE ENERGY PREDICTED BY IDOCK:   -5.64 KCAL/MOL
REMARK 923 INTER-LIGAND FREE ENERGY PREDICTED BY IDOCK:   -5.06 KCAL/MOL
REMARK 924 INTRA-LIGAND FREE ENERGY PREDICTED BY IDOCK:   -0.57 KCAL/MOL
REMARK 927      BINDING AFFINITY PREDICTED BY RF-SCORE:    0.00 PKD
ROOT
HETATM    1  C   UNL     1     -10.577   7.069  66.977  1.00  0.00    -0.341 C  
HETATM    2  N   UNL     1     -10.694   8.452  67.381  1.00  0.00    -0.479 NA 
HETATM    3  H   UNL     1     -10.596   9.136  66.630  1.00  0.00     0.000 HD 
ENDROOT
BRANCH   2   4
HETATM    4  C   UNL     1     -10.919   8.980  68.641  1.00  0.00     0.080 C  
HETATM    5  C   UNL     1     -10.285   8.437  69.701  1.00  0.00    -0.209 C  
HETATM    6  O   UNL     1     -11.164   9.879  71.299  1.00  0.00    -0.361 OA 
HETATM    7  N   UNL     1     -10.438   8.906  71.056  1.00  0.00    -0.227 N  
HETATM    8  O   UNL     1      -9.801   8.277  71.911  1.00  0.00    -0.188 OA 
BRANCH   4   9
HETATM    9  N   UNL     1     -11.805  10.037  68.755  1.00  0.00    -0.466 NA 
HETATM   10  H   UNL     1     -12.603   9.862  69.367  1.00  0.00     0.000 HD 
BRANCH   9  11
HETATM   11  C   UNL     1     -11.783  11.351  68.146  1.00  0.00    -0.284 C  
BRANCH  11  12
HETATM   12  C   UNL     1     -10.544  12.132  68.595  1.00  0.00    -0.223 C  
BRANCH  12  13
HETATM   13  S   UNL     1     -10.876  13.911  68.830  1.00  0.00    -0.262 SA 
BRANCH  13  14
HETATM   14  C   UNL     1     -10.662  14.493  67.114  1.00  0.00    -0.286 C  
BRANCH  14  15
HETATM   15  C   UNL     1      -9.435  15.328  66.984  1.00  0.00    -0.223 A  
HETATM   16  C   UNL     1      -9.205  16.324  66.056  1.00  0.00    -0.316 A  
HETATM   17  S   UNL     1      -7.657  17.013  66.302  1.00  0.00    -0.250 SA 
HETATM   18  C   UNL     1      -7.390  15.926  67.608  1.00  0.00    -0.157 A  
HETATM   19  N   UNL     1      -8.373  15.080  67.846  1.00  0.00    -0.142 NA 
BRANCH  18  20
HETATM   20  C   UNL     1      -6.091  15.948  68.378  1.00  0.00    -0.105 C  
BRANCH  20  21
HETATM   21  N   UNL     1      -6.205  16.502  69.747  1.00  0.00    -0.218 NA 
HETATM   22  C   UNL     1      -5.194  15.929  70.641  1.00  0.00    -0.168 C  
HETATM   23  C   UNL     1      -6.046  17.958  69.698  1.00  0.00    -0.237 C  
ENDBRANCH  20  21
ENDBRANCH  18  20
ENDBRANCH  14  15
ENDBRANCH  13  14
ENDBRANCH  12  13
ENDBRANCH  11  12
ENDBRANCH   9  11
ENDBRANCH   4   9
ENDBRANCH   2   4
TORSDOF 9
ENDMDL
MODEL      284
REMARK 921   NORMALIZED FREE ENERGY PREDICTED BY IDOCK:   -2.99 KCAL/MOL
REMARK 922        TOTAL FREE ENERGY PREDICTED BY IDOCK:   -5.63 KCAL/MOL
REMARK 923 INTER-LIGAND FREE ENERGY PREDICTED BY IDOCK:   -4.93 KCAL/MOL
REMARK 924 INTRA-LIGAND FREE ENERGY PREDICTED BY IDOCK:   -0.70 KCAL/MOL
REMARK 927      BINDING AFFINITY PREDICTED BY RF-SCORE:    0.00 PKD
ROOT
HETATM    1  C   UNL     1      -6.183   9.547  67.882  1.00  0.00    -0.053 C  
HETATM    2  N   UNL     1      -6.242   8.102  67.913  1.00  0.00    -0.050 NA 
HETATM    3  H   UNL     1      -5.424   7.639  68.306  1.00  0.00     0.000 HD 
ENDROOT
BRANCH   2   4
HETATM    4  C   UNL     1      -7.254   7.259  67.485  1.00  0.00    -0.090 C  
HETATM    5  C   UNL     1      -7.437   7.075  66.160  1.00  0.00    -0.080 C  
HETATM    6  O   UNL     1      -9.204   5.577  66.344  1.00  0.00    -0.140 OA 
HETATM    7  N   UNL     1      -8.452   6.219  65.599  1.00  0.00    -0.146 N  
HETATM    8  O   UNL     1      -8.495   6.185  64.362  1.00  0.00    -0.056 OA 
BRANCH   4   9
HETATM    9  N   UNL     1      -8.048   6.655  68.444  1.00  0.00    -0.114 NA 
HETATM   10  H   UNL     1      -8.298   5.687  68.244  1.00  0.00     0.000 HD 
BRANCH   9  11
HETATM   11  C   UNL     1      -8.581   7.176  69.686  1.00  0.00    -0.137 C  
BRANCH  11  12
HETATM   12  C   UNL     1      -9.796   8.069  69.418  1.00  0.00    -0.181 C  
BRANCH  12  13
HETATM   13  S   UNL     1      -9.922   9.462  70.592  1.00  0.00    -0.281 SA 
BRANCH  13  14
HETATM   14  C   UNL     1     -11.380  10.315  69.900  1.00  0.00    -0.290 C  
BRANCH  14  15
HETATM   15  C   UNL     1     -10.999  11.159  68.733  1.00  0.00    -0.219 A  
HETATM   16  C   UNL     1      -9.729  11.576  68.391  1.00  0.00    -0.202 A  
HETATM   17  S   UNL     1      -9.782  12.521  66.964  1.00  0.00    -0.218 SA 
HETATM   18  C   UNL     1     -11.490  12.329  66.911  1.00  0.00    -0.356 A  
HETATM   19  N   UNL     1     -12.009  11.627  67.900  1.00  0.00    -0.623 NA 
BRANCH  18  20
HETATM   20  C   UNL     1     -12.304  12.967  65.812  1.00  0.00    -0.416 C  
BRANCH  20  21
HETATM   21  N   UNL     1     -11.501  13.474  64.675  1.00  0.00    -0.344 NA 
HETATM   22  C   UNL     1     -11.916  12.858  63.410  1.00  0.00    -0.537 C  
HETATM   23  C   UNL     1     -11.649  14.929  64.583  1.00  0.00    -0.395 C  
ENDBRANCH  20  21
ENDBRANCH  18  20
ENDBRANCH  14  15
ENDBRANCH  13  14
ENDBRANCH  12  13
ENDBRANCH  11  12
ENDBRANCH   9  11
ENDBRANCH   4   9
ENDBRANCH   2   4
TORSDOF 9
ENDMDL
MODEL      285
REMARK 921   NORMALIZED FREE ENERGY PREDICTED BY IDOCK:   -2.99 KCAL/MOL
REMARK 922        TOTAL FREE ENERGY PREDICTED BY IDOCK:   -5.62 KCAL/MOL
REMARK 923 INTER-LIGAND FREE ENERGY PREDICTED BY IDOCK:   -5.34 KCAL/MOL
REMARK 924 INTRA-LIGAND FREE ENERGY PREDICTED BY IDOCK:   -0.28 KCAL/MOL
REMARK 927      BINDING AFFINITY PREDICTED BY RF-SCORE:    0.00 PKD
ROOT
HETATM    1  C   UNL     1     -12.066  14.167  64.094  1.00  0.00    -0.406 C  
HETATM    2  N   UNL     1     -12.739  13.792  65.317  1.00  0.00    -0.672 NA 
HETATM    3  H   UNL     1     -13.733  13.584  65.223  1.00  0.00     0.000 HD 
ENDROOT
BRANCH   2   4
HETATM    4  C   UNL     1     -12.226  13.676  66.598  1.00  0.00    -0.389 C  
HETATM    5  C   UNL     1     -12.000  14.796  67.317  1.00  0.00    -0.211 C  
HETATM    6  O   UNL     1     -11.227  13.727  69.232  1.00  0.00    -0.253 OA 
HETATM    7  N   UNL     1     -11.474  14.798  68.659  1.00  0.00    -0.287 N  
HETATM    8  O   UNL     1     -11.306  15.916  69.163  1.00  0.00    -0.317 OA 
BRANCH   4   9
HETATM    9  N   UNL     1     -11.950  12.407  67.076  1.00  0.00    -0.565 NA 
HETATM   10  H   UNL     1     -12.588  12.076  67.801  1.00  0.00     0.000 HD 
BRANCH   9  11
HETATM   11  C   UNL     1     -10.904  11.474  66.714  1.00  0.00    -0.282 C  
BRANCH  11  12
HETATM   12  C   UNL     1     -10.529  10.594  67.910  1.00  0.00    -0.208 C  
BRANCH  12  13
HETATM   13  S   UNL     1      -8.806  10.844  68.460  1.00  0.00    -0.158 SA 
BRANCH  13  14
HETATM   14  C   UNL     1      -7.941   9.788  67.250  1.00  0.00    -0.106 C  
BRANCH  14  15
HETATM   15  C   UNL     1      -8.400   8.374  67.352  1.00  0.00    -0.124 A  
HETATM   16  C   UNL     1      -8.992   7.621  66.359  1.00  0.00    -0.167 A  
HETATM   17  S   UNL     1      -9.338   6.047  66.938  1.00  0.00    -0.136 SA 
HETATM   18  C   UNL     1      -8.698   6.482  68.474  1.00  0.00    -0.122 A  
HETATM   19  N   UNL     1      -8.270   7.726  68.574  1.00  0.00    -0.127 NA 
BRANCH  18  20
HETATM   20  C   UNL     1      -8.681   5.490  69.612  1.00  0.00    -0.108 C  
BRANCH  20  21
HETATM   21  N   UNL     1      -9.723   5.724  70.639  1.00  0.00    -0.173 NA 
HETATM   22  C   UNL     1      -9.366   6.842  71.518  1.00  0.00    -0.155 C  
HETATM   23  C   UNL     1     -11.001   6.006  69.982  1.00  0.00    -0.380 C  
ENDBRANCH  20  21
ENDBRANCH  18  20
ENDBRANCH  14  15
ENDBRANCH  13  14
ENDBRANCH  12  13
ENDBRANCH  11  12
ENDBRANCH   9  11
ENDBRANCH   4   9
ENDBRANCH   2   4
TORSDOF 9
ENDMDL
MODEL      286
REMARK 921   NORMALIZED FREE ENERGY PREDICTED BY IDOCK:   -2.98 KCAL/MOL
REMARK 922        TOTAL FREE ENERGY PREDICTED BY IDOCK:   -5.62 KCAL/MOL
REMARK 923 INTER-LIGAND FREE ENERGY PREDICTED BY IDOCK:   -5.68 KCAL/MOL
REMARK 924 INTRA-LIGAND FREE ENERGY PREDICTED BY IDOCK:    0.07 KCAL/MOL
REMARK 927      BINDING AFFINITY PREDICTED BY RF-SCORE:    0.00 PKD
ROOT
HETATM    1  C   UNL     1     -13.815  15.457  72.052  1.00  0.00    -0.522 C  
HETATM    2  N   UNL     1     -12.612  16.091  71.559  1.00  0.00    -0.556 NA 
HETATM    3  H   UNL     1     -12.425  17.022  71.930  1.00  0.00     0.000 HD 
ENDROOT
BRANCH   2   4
HETATM    4  C   UNL     1     -11.679  15.612  70.655  1.00  0.00    -0.369 C  
HETATM    5  C   UNL     1     -11.093  16.476  69.800  1.00  0.00    -0.245 C  
HETATM    6  O   UNL     1      -9.727  14.917  68.746  1.00  0.00    -0.213 OA 
HETATM    7  N   UNL     1     -10.106  16.095  68.821  1.00  0.00    -0.227 N  
HETATM    8  O   UNL     1      -9.689  17.011  68.100  1.00  0.00    -0.252 OA 
BRANCH   4   9
HETATM    9  N   UNL     1     -11.404  14.256  70.659  1.00  0.00    -0.516 NA 
HETATM   10  H   UNL     1     -10.470  14.010  70.988  1.00  0.00     0.000 HD 
BRANCH   9  11
HETATM   11  C   UNL     1     -12.228  13.130  70.273  1.00  0.00    -0.306 C  
BRANCH  11  12
HETATM   12  C   UNL     1     -11.367  12.008  69.685  1.00  0.00    -0.179 C  
BRANCH  12  13
HETATM   13  S   UNL     1     -12.250  10.413  69.590  1.00  0.00     0.055 SA 
BRANCH  13  14
HETATM   14  C   UNL     1     -12.428  10.055  71.370  1.00  0.00    -0.411 C  
BRANCH  14  15
HETATM   15  C   UNL     1     -11.879   8.709  71.700  1.00  0.00    -0.323 A  
HETATM   16  C   UNL     1     -12.544   7.502  71.627  1.00  0.00    -0.348 A  
HETATM   17  S   UNL     1     -11.504   6.226  72.096  1.00  0.00    -0.316 SA 
HETATM   18  C   UNL     1     -10.249   7.367  72.385  1.00  0.00    -0.199 A  
HETATM   19  N   UNL     1     -10.575   8.627  72.173  1.00  0.00    -0.341 NA 
BRANCH  18  20
HETATM   20  C   UNL     1      -8.896   6.916  72.882  1.00  0.00    -0.126 C  
BRANCH  20  21
HETATM   21  N   UNL     1      -7.926   6.605  71.807  1.00  0.00    -0.102 NA 
HETATM   22  C   UNL     1      -8.389   7.102  70.507  1.00  0.00    -0.131 C  
HETATM   23  C   UNL     1      -6.631   7.210  72.129  1.00  0.00    -0.055 C  
ENDBRANCH  20  21
ENDBRANCH  18  20
ENDBRANCH  14  15
ENDBRANCH  13  14
ENDBRANCH  12  13
ENDBRANCH  11  12
ENDBRANCH   9  11
ENDBRANCH   4   9
ENDBRANCH   2   4
TORSDOF 9
ENDMDL
MODEL      287
REMARK 921   NORMALIZED FREE ENERGY PREDICTED BY IDOCK:   -2.98 KCAL/MOL
REMARK 922        TOTAL FREE ENERGY PREDICTED BY IDOCK:   -5.61 KCAL/MOL
REMARK 923 INTER-LIGAND FREE ENERGY PREDICTED BY IDOCK:   -5.48 KCAL/MOL
REMARK 924 INTRA-LIGAND FREE ENERGY PREDICTED BY IDOCK:   -0.13 KCAL/MOL
REMARK 927      BINDING AFFINITY PREDICTED BY RF-SCORE:    0.00 PKD
ROOT
HETATM    1  C   UNL     1      -8.902  17.123  67.427  1.00  0.00    -0.212 C  
HETATM    2  N   UNL     1      -8.748  16.006  66.522  1.00  0.00    -0.272 NA 
HETATM    3  H   UNL     1      -7.789  15.689  66.377  1.00  0.00     0.000 HD 
ENDROOT
BRANCH   2   4
HETATM    4  C   UNL     1      -9.717  15.307  65.823  1.00  0.00    -0.350 C  
HETATM    5  C   UNL     1     -10.664  15.994  65.150  1.00  0.00    -0.409 C  
HETATM    6  O   UNL     1     -11.776  14.140  64.294  1.00  0.00    -0.389 OA 
HETATM    7  N   UNL     1     -11.717  15.374  64.385  1.00  0.00    -0.338 N  
HETATM    8  O   UNL     1     -12.516  16.155  63.850  1.00  0.00    -0.824 OA 
BRANCH   4   9
HETATM    9  N   UNL     1      -9.678  13.924  65.864  1.00  0.00    -0.466 NA 
HETATM   10  H   UNL     1      -9.392  13.478  64.992  1.00  0.00     0.000 HD 
BRANCH   9  11
HETATM   11  C   UNL     1      -9.977  13.008  66.945  1.00  0.00    -0.243 C  
BRANCH  11  12
HETATM   12  C   UNL     1      -8.766  12.123  67.252  1.00  0.00    -0.182 C  
BRANCH  12  13
HETATM   13  S   UNL     1      -9.235  10.469  67.867  1.00  0.00    -0.141 SA 
BRANCH  13  14
HETATM   14  C   UNL     1      -7.887  10.193  69.065  1.00  0.00    -0.107 C  
BRANCH  14  15
HETATM   15  C   UNL     1      -8.043   8.879  69.749  1.00  0.00    -0.109 A  
HETATM   16  C   UNL     1      -7.781   8.599  71.075  1.00  0.00    -0.108 A  
HETATM   17  S   UNL     1      -8.119   6.954  71.408  1.00  0.00    -0.109 SA 
HETATM   18  C   UNL     1      -8.568   6.722  69.764  1.00  0.00    -0.141 A  
HETATM   19  N   UNL     1      -8.457   7.788  68.995  1.00  0.00    -0.131 NA 
BRANCH  18  20
HETATM   20  C   UNL     1      -9.016   5.367  69.270  1.00  0.00    -0.104 C  
BRANCH  20  21
HETATM   21  N   UNL     1     -10.444   5.302  68.882  1.00  0.00    -0.166 NA 
HETATM   22  C   UNL     1     -11.252   6.251  69.655  1.00  0.00    -0.437 C  
HETATM   23  C   UNL     1     -10.575   5.599  67.453  1.00  0.00    -0.237 C  
ENDBRANCH  20  21
ENDBRANCH  18  20
ENDBRANCH  14  15
ENDBRANCH  13  14
ENDBRANCH  12  13
ENDBRANCH  11  12
ENDBRANCH   9  11
ENDBRANCH   4   9
ENDBRANCH   2   4
TORSDOF 9
ENDMDL
MODEL      288
REMARK 921   NORMALIZED FREE ENERGY PREDICTED BY IDOCK:   -2.97 KCAL/MOL
REMARK 922        TOTAL FREE ENERGY PREDICTED BY IDOCK:   -5.60 KCAL/MOL
REMARK 923 INTER-LIGAND FREE ENERGY PREDICTED BY IDOCK:   -5.72 KCAL/MOL
REMARK 924 INTRA-LIGAND FREE ENERGY PREDICTED BY IDOCK:    0.13 KCAL/MOL
REMARK 927      BINDING AFFINITY PREDICTED BY RF-SCORE:    0.00 PKD
ROOT
HETATM    1  C   UNL     1     -10.039  16.008  69.333  1.00  0.00    -0.271 C  
HETATM    2  N   UNL     1     -11.333  15.710  69.905  1.00  0.00    -0.306 NA 
HETATM    3  H   UNL     1     -11.976  16.499  69.967  1.00  0.00     0.000 HD 
ENDROOT
BRANCH   2   4
HETATM    4  C   UNL     1     -11.823  14.505  70.381  1.00  0.00    -0.311 C  
HETATM    5  C   UNL     1     -12.864  14.515  71.240  1.00  0.00    -0.332 C  
HETATM    6  O   UNL     1     -13.037  12.207  71.469  1.00  0.00    -0.384 OA 
HETATM    7  N   UNL     1     -13.460  13.325  71.795  1.00  0.00    -0.383 N  
HETATM    8  O   UNL     1     -14.392  13.517  72.587  1.00  0.00    -0.716 OA 
BRANCH   4   9
HETATM    9  N   UNL     1     -11.204  13.340  69.963  1.00  0.00    -0.475 NA 
HETATM   10  H   UNL     1     -10.474  12.996  70.587  1.00  0.00     0.000 HD 
BRANCH   9  11
HETATM   11  C   UNL     1     -11.426  12.531  68.782  1.00  0.00    -0.310 C  
BRANCH  11  12
HETATM   12  C   UNL     1     -12.113  13.353  67.687  1.00  0.00    -0.269 C  
BRANCH  12  13
HETATM   13  S   UNL     1     -11.266  13.230  66.075  1.00  0.00    -0.303 SA 
BRANCH  13  14
HETATM   14  C   UNL     1      -9.667  12.541  66.619  1.00  0.00    -0.242 C  
BRANCH  14  15
HETATM   15  C   UNL     1      -9.598  11.077  66.350  1.00  0.00    -0.198 A  
HETATM   16  C   UNL     1     -10.280  10.079  67.017  1.00  0.00    -0.237 A  
HETATM   17  S   UNL     1      -9.891   8.551  66.350  1.00  0.00    -0.223 SA 
HETATM   18  C   UNL     1      -8.827   9.318  65.237  1.00  0.00    -0.198 A  
HETATM   19  N   UNL     1      -8.737  10.629  65.356  1.00  0.00    -0.183 NA 
BRANCH  18  20
HETATM   20  C   UNL     1      -8.041   8.506  64.236  1.00  0.00    -0.155 C  
BRANCH  20  21
HETATM   21  N   UNL     1      -6.674   9.015  63.978  1.00  0.00    -0.087 NA 
HETATM   22  C   UNL     1      -5.833   8.920  65.176  1.00  0.00    -0.055 C  
HETATM   23  C   UNL     1      -6.064   8.245  62.891  1.00  0.00    -0.082 C  
ENDBRANCH  20  21
ENDBRANCH  18  20
ENDBRANCH  14  15
ENDBRANCH  13  14
ENDBRANCH  12  13
ENDBRANCH  11  12
ENDBRANCH   9  11
ENDBRANCH   4   9
ENDBRANCH   2   4
TORSDOF 9
ENDMDL
MODEL      289
REMARK 921   NORMALIZED FREE ENERGY PREDICTED BY IDOCK:   -2.97 KCAL/MOL
REMARK 922        TOTAL FREE ENERGY PREDICTED BY IDOCK:   -5.59 KCAL/MOL
REMARK 923 INTER-LIGAND FREE ENERGY PREDICTED BY IDOCK:   -5.34 KCAL/MOL
REMARK 924 INTRA-LIGAND FREE ENERGY PREDICTED BY IDOCK:   -0.25 KCAL/MOL
REMARK 927      BINDING AFFINITY PREDICTED BY RF-SCORE:    0.00 PKD
ROOT
HETATM    1  C   UNL     1      -8.500  14.100  67.090  1.00  0.00    -0.195 C  
HETATM    2  N   UNL     1      -9.611  13.228  67.402  1.00  0.00    -0.217 NA 
HETATM    3  H   UNL     1      -9.517  12.691  68.264  1.00  0.00     0.000 HD 
ENDROOT
BRANCH   2   4
HETATM    4  C   UNL     1     -10.784  13.021  66.697  1.00  0.00    -0.274 C  
HETATM    5  C   UNL     1     -11.033  13.771  65.603  1.00  0.00    -0.288 C  
HETATM    6  O   UNL     1     -13.065  12.782  65.061  1.00  0.00    -0.811 OA 
HETATM    7  N   UNL     1     -12.215  13.641  64.789  1.00  0.00    -0.395 N  
HETATM    8  O   UNL     1     -12.294  14.427  63.836  1.00  0.00    -0.720 OA 
BRANCH   4   9
HETATM    9  N   UNL     1     -11.661  12.056  67.162  1.00  0.00    -0.566 NA 
HETATM   10  H   UNL     1     -12.145  11.532  66.433  1.00  0.00     0.000 HD 
BRANCH   9  11
HETATM   11  C   UNL     1     -12.002  11.673  68.516  1.00  0.00    -0.217 C  
BRANCH  11  12
HETATM   12  C   UNL     1     -11.153  10.481  68.968  1.00  0.00    -0.249 C  
BRANCH  12  13
HETATM   13  S   UNL     1     -10.554   9.468  67.572  1.00  0.00    -0.241 SA 
BRANCH  13  14
HETATM   14  C   UNL     1      -8.754   9.633  67.823  1.00  0.00    -0.122 C  
BRANCH  14  15
HETATM   15  C   UNL     1      -8.184   8.391  68.417  1.00  0.00    -0.124 A  
HETATM   16  C   UNL     1      -7.119   8.305  69.292  1.00  0.00    -0.060 A  
HETATM   17  S   UNL     1      -6.832   6.669  69.710  1.00  0.00    -0.056 SA 
HETATM   18  C   UNL     1      -8.125   6.189  68.683  1.00  0.00    -0.108 A  
HETATM   19  N   UNL     1      -8.730   7.170  68.043  1.00  0.00    -0.127 NA 
BRANCH  18  20
HETATM   20  C   UNL     1      -8.484   4.730  68.527  1.00  0.00    -0.093 C  
BRANCH  20  21
HETATM   21  N   UNL     1      -9.291   4.179  69.640  1.00  0.00    -0.153 NA 
HETATM   22  C   UNL     1      -8.443   3.523  70.641  1.00  0.00    -0.068 C  
HETATM   23  C   UNL     1     -10.049   5.260  70.275  1.00  0.00    -0.259 C  
ENDBRANCH  20  21
ENDBRANCH  18  20
ENDBRANCH  14  15
ENDBRANCH  13  14
ENDBRANCH  12  13
ENDBRANCH  11  12
ENDBRANCH   9  11
ENDBRANCH   4   9
ENDBRANCH   2   4
TORSDOF 9
ENDMDL
MODEL      290
REMARK 921   NORMALIZED FREE ENERGY PREDICTED BY IDOCK:   -2.92 KCAL/MOL
REMARK 922        TOTAL FREE ENERGY PREDICTED BY IDOCK:   -5.53 KCAL/MOL
REMARK 923 INTER-LIGAND FREE ENERGY PREDICTED BY IDOCK:   -5.17 KCAL/MOL
REMARK 924 INTRA-LIGAND FREE ENERGY PREDICTED BY IDOCK:   -0.36 KCAL/MOL
REMARK 927      BINDING AFFINITY PREDICTED BY RF-SCORE:    0.00 PKD
ROOT
HETATM    1  C   UNL     1      -8.156   8.746  64.161  1.00  0.00    -0.162 C  
HETATM    2  N   UNL     1      -9.332   9.162  64.892  1.00  0.00    -0.446 NA 
HETATM    3  H   UNL     1      -9.875   8.408  65.314  1.00  0.00     0.000 HD 
ENDROOT
BRANCH   2   4
HETATM    4  C   UNL     1      -9.826  10.438  65.101  1.00  0.00    -0.313 C  
HETATM    5  C   UNL     1     -10.605  11.003  64.155  1.00  0.00    -0.342 C  
HETATM    6  O   UNL     1     -10.990  12.997  65.286  1.00  0.00    -0.278 OA 
HETATM    7  N   UNL     1     -11.179  12.321  64.265  1.00  0.00    -0.327 N  
HETATM    8  O   UNL     1     -11.849  12.693  63.293  1.00  0.00    -0.504 OA 
BRANCH   4   9
HETATM    9  N   UNL     1      -9.479  11.086  66.274  1.00  0.00    -0.187 NA 
HETATM   10  H   UNL     1     -10.266  11.345  66.869  1.00  0.00     0.000 HD 
BRANCH   9  11
HETATM   11  C   UNL     1      -8.178  11.456  66.793  1.00  0.00    -0.160 C  
BRANCH  11  12
HETATM   12  C   UNL     1      -8.184  11.438  68.324  1.00  0.00    -0.150 C  
BRANCH  12  13
HETATM   13  S   UNL     1      -6.856  12.460  69.048  1.00  0.00    -0.065 SA 
BRANCH  13  14
HETATM   14  C   UNL     1      -6.423  13.475  67.595  1.00  0.00    -0.160 C  
BRANCH  14  15
HETATM   15  C   UNL     1      -6.617  14.925  67.881  1.00  0.00    -0.158 A  
HETATM   16  C   UNL     1      -6.059  15.647  68.916  1.00  0.00    -0.108 A  
HETATM   17  S   UNL     1      -6.562  17.282  68.834  1.00  0.00    -0.222 SA 
HETATM   18  C   UNL     1      -7.504  16.912  67.443  1.00  0.00    -0.162 A  
HETATM   19  N   UNL     1      -7.476  15.649  67.063  1.00  0.00    -0.216 NA 
BRANCH  18  20
HETATM   20  C   UNL     1      -8.321  17.981  66.758  1.00  0.00    -0.253 C  
BRANCH  20  21
HETATM   21  N   UNL     1      -9.786  17.779  66.848  1.00  0.00    -0.288 NA 
HETATM   22  C   UNL     1     -10.244  16.758  65.900  1.00  0.00    -0.328 C  
HETATM   23  C   UNL     1     -10.140  17.375  68.211  1.00  0.00    -0.339 C  
ENDBRANCH  20  21
ENDBRANCH  18  20
ENDBRANCH  14  15
ENDBRANCH  13  14
ENDBRANCH  12  13
ENDBRANCH  11  12
ENDBRANCH   9  11
ENDBRANCH   4   9
ENDBRANCH   2   4
TORSDOF 9
ENDMDL
MODEL      291
REMARK 921   NORMALIZED FREE ENERGY PREDICTED BY IDOCK:   -2.92 KCAL/MOL
REMARK 922        TOTAL FREE ENERGY PREDICTED BY IDOCK:   -5.52 KCAL/MOL
REMARK 923 INTER-LIGAND FREE ENERGY PREDICTED BY IDOCK:   -5.19 KCAL/MOL
REMARK 924 INTRA-LIGAND FREE ENERGY PREDICTED BY IDOCK:   -0.34 KCAL/MOL
REMARK 927      BINDING AFFINITY PREDICTED BY RF-SCORE:    0.00 PKD
ROOT
HETATM    1  C   UNL     1     -10.187  15.267  65.185  1.00  0.00    -0.339 C  
HETATM    2  N   UNL     1     -10.596  15.815  66.459  1.00  0.00    -0.309 NA 
HETATM    3  H   UNL     1     -11.519  15.527  66.782  1.00  0.00     0.000 HD 
ENDROOT
BRANCH   2   4
HETATM    4  C   UNL     1      -9.912  16.675  67.302  1.00  0.00    -0.270 C  
HETATM    5  C   UNL     1      -9.160  17.658  66.764  1.00  0.00    -0.260 C  
HETATM    6  O   UNL     1      -8.454  18.579  68.779  1.00  0.00    -0.313 OA 
HETATM    7  N   UNL     1      -8.410  18.613  67.541  1.00  0.00    -0.263 N  
HETATM    8  O   UNL     1      -7.753  19.433  66.886  1.00  0.00    -0.240 OA 
BRANCH   4   9
HETATM    9  N   UNL     1     -10.021  16.471  68.666  1.00  0.00    -0.237 NA 
HETATM   10  H   UNL     1      -9.135  16.310  69.146  1.00  0.00     0.000 HD 
BRANCH   9  11
HETATM   11  C   UNL     1     -11.188  16.451  69.522  1.00  0.00    -0.250 C  
BRANCH  11  12
HETATM   12  C   UNL     1     -11.446  15.036  70.049  1.00  0.00    -0.276 C  
BRANCH  12  13
HETATM   13  S   UNL     1     -12.229  13.950  68.807  1.00  0.00    -0.045 SA 
BRANCH  13  14
HETATM   14  C   UNL     1     -11.335  12.397  69.149  1.00  0.00    -0.269 C  
BRANCH  14  15
HETATM   15  C   UNL     1     -10.411  12.057  68.031  1.00  0.00    -0.195 A  
HETATM   16  C   UNL     1      -9.113  12.497  67.865  1.00  0.00    -0.199 A  
HETATM   17  S   UNL     1      -8.444  11.834  66.435  1.00  0.00    -0.014 SA 
HETATM   18  C   UNL     1      -9.931  11.028  66.124  1.00  0.00    -0.231 A  
HETATM   19  N   UNL     1     -10.885  11.246  67.007  1.00  0.00    -0.267 NA 
BRANCH  18  20
HETATM   20  C   UNL     1     -10.100  10.170  64.893  1.00  0.00    -0.207 C  
BRANCH  20  21
HETATM   21  N   UNL     1     -10.591  10.902  63.703  1.00  0.00    -0.261 NA 
HETATM   22  C   UNL     1     -11.291  12.134  64.083  1.00  0.00    -0.380 C  
HETATM   23  C   UNL     1      -9.460  11.232  62.832  1.00  0.00    -0.361 C  
ENDBRANCH  20  21
ENDBRANCH  18  20
ENDBRANCH  14  15
ENDBRANCH  13  14
ENDBRANCH  12  13
ENDBRANCH  11  12
ENDBRANCH   9  11
ENDBRANCH   4   9
ENDBRANCH   2   4
TORSDOF 9
ENDMDL
MODEL      292
REMARK 921   NORMALIZED FREE ENERGY PREDICTED BY IDOCK:   -2.91 KCAL/MOL
REMARK 922        TOTAL FREE ENERGY PREDICTED BY IDOCK:   -5.51 KCAL/MOL
REMARK 923 INTER-LIGAND FREE ENERGY PREDICTED BY IDOCK:   -4.59 KCAL/MOL
REMARK 924 INTRA-LIGAND FREE ENERGY PREDICTED BY IDOCK:   -0.93 KCAL/MOL
REMARK 927      BINDING AFFINITY PREDICTED BY RF-SCORE:    0.00 PKD
ROOT
HETATM    1  C   UNL     1      -7.011   7.547  70.053  1.00  0.00    -0.059 C  
HETATM    2  N   UNL     1      -8.443   7.610  69.857  1.00  0.00    -0.135 NA 
HETATM    3  H   UNL     1      -8.939   8.260  70.467  1.00  0.00     0.000 HD 
ENDROOT
BRANCH   2   4
HETATM    4  C   UNL     1      -9.234   6.914  68.960  1.00  0.00    -0.137 C  
HETATM    5  C   UNL     1      -8.780   6.712  67.705  1.00  0.00    -0.116 C  
HETATM    6  O   UNL     1     -10.617   5.502  66.952  1.00  0.00    -0.259 OA 
HETATM    7  N   UNL     1      -9.513   5.998  66.689  1.00  0.00    -0.146 N  
HETATM    8  O   UNL     1      -8.959   5.927  65.585  1.00  0.00    -0.152 OA 
BRANCH   4   9
HETATM    9  N   UNL     1     -10.472   6.470  69.392  1.00  0.00    -0.203 NA 
HETATM   10  H   UNL     1     -11.269   6.906  68.928  1.00  0.00     0.000 HD 
BRANCH   9  11
HETATM   11  C   UNL     1     -10.818   5.486  70.397  1.00  0.00    -0.204 C  
BRANCH  11  12
HETATM   12  C   UNL     1     -11.264   6.172  71.692  1.00  0.00    -0.286 C  
BRANCH  12  13
HETATM   13  S   UNL     1     -12.533   7.453  71.412  1.00  0.00    -0.368 SA 
BRANCH  13  14
HETATM   14  C   UNL     1     -11.594   8.932  71.922  1.00  0.00    -0.371 C  
BRANCH  14  15
HETATM   15  C   UNL     1     -11.587   9.958  70.842  1.00  0.00    -0.373 A  
HETATM   16  C   UNL     1     -12.283  11.149  70.825  1.00  0.00    -0.385 A  
HETATM   17  S   UNL     1     -11.955  12.005  69.379  1.00  0.00    -0.236 SA 
HETATM   18  C   UNL     1     -10.929  10.724  68.865  1.00  0.00    -0.241 A  
HETATM   19  N   UNL     1     -10.843   9.703  69.696  1.00  0.00    -0.238 NA 
BRANCH  18  20
HETATM   20  C   UNL     1     -10.225  10.787  67.531  1.00  0.00    -0.196 C  
BRANCH  20  21
HETATM   21  N   UNL     1      -8.932  11.509  67.558  1.00  0.00    -0.156 NA 
HETATM   22  C   UNL     1      -9.130  12.962  67.573  1.00  0.00    -0.191 C  
HETATM   23  C   UNL     1      -8.174  11.106  68.746  1.00  0.00    -0.135 C  
ENDBRANCH  20  21
ENDBRANCH  18  20
ENDBRANCH  14  15
ENDBRANCH  13  14
ENDBRANCH  12  13
ENDBRANCH  11  12
ENDBRANCH   9  11
ENDBRANCH   4   9
ENDBRANCH   2   4
TORSDOF 9
ENDMDL
MODEL      293
REMARK 921   NORMALIZED FREE ENERGY PREDICTED BY IDOCK:   -2.90 KCAL/MOL
REMARK 922        TOTAL FREE ENERGY PREDICTED BY IDOCK:   -5.50 KCAL/MOL
REMARK 923 INTER-LIGAND FREE ENERGY PREDICTED BY IDOCK:   -4.79 KCAL/MOL
REMARK 924 INTRA-LIGAND FREE ENERGY PREDICTED BY IDOCK:   -0.71 KCAL/MOL
REMARK 927      BINDING AFFINITY PREDICTED BY RF-SCORE:    0.00 PKD
ROOT
HETATM    1  C   UNL     1     -12.527  13.850  65.669  1.00  0.00    -0.505 C  
HETATM    2  N   UNL     1     -12.320  13.692  67.091  1.00  0.00    -0.374 NA 
HETATM    3  H   UNL     1     -12.596  12.789  67.476  1.00  0.00     0.000 HD 
ENDROOT
BRANCH   2   4
HETATM    4  C   UNL     1     -11.800  14.594  68.005  1.00  0.00    -0.311 C  
HETATM    5  C   UNL     1     -12.444  14.785  69.175  1.00  0.00     0.035 C  
HETATM    6  O   UNL     1     -10.945  16.332  70.050  1.00  0.00    -0.343 OA 
HETATM    7  N   UNL     1     -11.994  15.692  70.202  1.00  0.00    -0.360 N  
HETATM    8  O   UNL     1     -12.718  15.762  71.204  1.00  0.00    -0.471 OA 
BRANCH   4   9
HETATM    9  N   UNL     1     -10.644  15.274  67.662  1.00  0.00    -0.264 NA 
HETATM   10  H   UNL     1     -10.704  16.289  67.750  1.00  0.00     0.000 HD 
BRANCH   9  11
HETATM   11  C   UNL     1      -9.365  14.778  67.200  1.00  0.00    -0.224 C  
BRANCH  11  12
HETATM   12  C   UNL     1      -8.878  13.631  68.092  1.00  0.00    -0.189 C  
BRANCH  12  13
HETATM   13  S   UNL     1      -7.949  12.361  67.166  1.00  0.00    -0.116 SA 
BRANCH  13  14
HETATM   14  C   UNL     1      -9.312  11.628  66.199  1.00  0.00    -0.224 C  
BRANCH  14  15
HETATM   15  C   UNL     1      -9.438  10.169  66.475  1.00  0.00    -0.169 A  
HETATM   16  C   UNL     1      -9.449   9.148  65.547  1.00  0.00    -0.206 A  
HETATM   17  S   UNL     1      -9.603   7.636  66.335  1.00  0.00    -0.104 SA 
HETATM   18  C   UNL     1      -9.666   8.444  67.853  1.00  0.00    -0.158 A  
HETATM   19  N   UNL     1      -9.601   9.759  67.793  1.00  0.00    -0.134 NA 
BRANCH  18  20
HETATM   20  C   UNL     1      -9.823   7.664  69.136  1.00  0.00    -0.171 C  
BRANCH  20  21
HETATM   21  N   UNL     1      -9.150   6.344  69.132  1.00  0.00    -0.132 NA 
HETATM   22  C   UNL     1      -7.901   6.378  69.901  1.00  0.00    -0.114 C  
HETATM   23  C   UNL     1     -10.048   5.337  69.703  1.00  0.00    -0.257 C  
ENDBRANCH  20  21
ENDBRANCH  18  20
ENDBRANCH  14  15
ENDBRANCH  13  14
ENDBRANCH  12  13
ENDBRANCH  11  12
ENDBRANCH   9  11
ENDBRANCH   4   9
ENDBRANCH   2   4
TORSDOF 9
ENDMDL
MODEL      294
REMARK 921   NORMALIZED FREE ENERGY PREDICTED BY IDOCK:   -2.90 KCAL/MOL
REMARK 922        TOTAL FREE ENERGY PREDICTED BY IDOCK:   -5.48 KCAL/MOL
REMARK 923 INTER-LIGAND FREE ENERGY PREDICTED BY IDOCK:   -5.09 KCAL/MOL
REMARK 924 INTRA-LIGAND FREE ENERGY PREDICTED BY IDOCK:   -0.39 KCAL/MOL
REMARK 927      BINDING AFFINITY PREDICTED BY RF-SCORE:    0.00 PKD
ROOT
HETATM    1  C   UNL     1      -7.058   8.949  68.888  1.00  0.00    -0.066 C  
HETATM    2  N   UNL     1      -7.511   7.657  69.355  1.00  0.00    -0.087 NA 
HETATM    3  H   UNL     1      -6.782   7.045  69.722  1.00  0.00     0.000 HD 
ENDROOT
BRANCH   2   4
HETATM    4  C   UNL     1      -8.792   7.134  69.374  1.00  0.00    -0.136 C  
HETATM    5  C   UNL     1      -9.335   6.687  68.221  1.00  0.00    -0.119 C  
HETATM    6  O   UNL     1     -11.356   5.990  69.135  1.00  0.00    -0.364 OA 
HETATM    7  N   UNL     1     -10.656   6.119  68.121  1.00  0.00    -0.234 N  
HETATM    8  O   UNL     1     -11.005   5.783  66.982  1.00  0.00    -0.274 OA 
BRANCH   4   9
HETATM    9  N   UNL     1      -9.468   7.110  70.582  1.00  0.00    -0.162 NA 
HETATM   10  H   UNL     1      -9.572   6.183  70.995  1.00  0.00     0.000 HD 
BRANCH   9  11
HETATM   11  C   UNL     1     -10.050   8.188  71.353  1.00  0.00    -0.198 C  
BRANCH  11  12
HETATM   12  C   UNL     1     -11.377   8.637  70.735  1.00  0.00    -0.263 C  
BRANCH  12  13
HETATM   13  S   UNL     1     -11.818  10.354  71.176  1.00  0.00    -0.288 SA 
BRANCH  13  14
HETATM   14  C   UNL     1     -12.553  10.896  69.596  1.00  0.00    -0.007 C  
BRANCH  14  15
HETATM   15  C   UNL     1     -11.496  11.314  68.633  1.00  0.00    -0.297 A  
HETATM   16  C   UNL     1     -10.133  11.153  68.777  1.00  0.00    -0.201 A  
HETATM   17  S   UNL     1      -9.317  11.779  67.408  1.00  0.00    -0.177 SA 
HETATM   18  C   UNL     1     -10.828  12.241  66.729  1.00  0.00    -0.253 A  
HETATM   19  N   UNL     1     -11.884  11.974  67.473  1.00  0.00    -0.574 NA 
BRANCH  18  20
HETATM   20  C   UNL     1     -10.893  12.935  65.390  1.00  0.00    -0.283 C  
BRANCH  20  21
HETATM   21  N   UNL     1     -11.372  14.336  65.453  1.00  0.00    -0.319 NA 
HETATM   22  C   UNL     1     -10.254  15.285  65.449  1.00  0.00    -0.383 C  
HETATM   23  C   UNL     1     -12.246  14.604  64.308  1.00  0.00    -0.408 C  
ENDBRANCH  20  21
ENDBRANCH  18  20
ENDBRANCH  14  15
ENDBRANCH  13  14
ENDBRANCH  12  13
ENDBRANCH  11  12
ENDBRANCH   9  11
ENDBRANCH   4   9
ENDBRANCH   2   4
TORSDOF 9
ENDMDL
MODEL      295
REMARK 921   NORMALIZED FREE ENERGY PREDICTED BY IDOCK:   -2.89 KCAL/MOL
REMARK 922        TOTAL FREE ENERGY PREDICTED BY IDOCK:   -5.48 KCAL/MOL
REMARK 923 INTER-LIGAND FREE ENERGY PREDICTED BY IDOCK:   -5.28 KCAL/MOL
REMARK 924 INTRA-LIGAND FREE ENERGY PREDICTED BY IDOCK:   -0.20 KCAL/MOL
REMARK 927      BINDING AFFINITY PREDICTED BY RF-SCORE:    0.00 PKD
ROOT
HETATM    1  C   UNL     1      -8.513  13.759  67.156  1.00  0.00    -0.175 C  
HETATM    2  N   UNL     1      -9.666  12.963  67.512  1.00  0.00    -0.201 NA 
HETATM    3  H   UNL     1      -9.618  12.504  68.422  1.00  0.00     0.000 HD 
ENDROOT
BRANCH   2   4
HETATM    4  C   UNL     1     -10.828  12.736  66.793  1.00  0.00    -0.264 C  
HETATM    5  C   UNL     1     -10.929  13.227  65.540  1.00  0.00    -0.282 C  
HETATM    6  O   UNL     1     -13.053  12.390  65.100  1.00  0.00    -0.558 OA 
HETATM    7  N   UNL     1     -12.085  13.049  64.697  1.00  0.00    -0.385 N  
HETATM    8  O   UNL     1     -12.019  13.588  63.584  1.00  0.00    -0.454 OA 
BRANCH   4   9
HETATM    9  N   UNL     1     -11.844  12.024  67.406  1.00  0.00    -0.591 NA 
HETATM   10  H   UNL     1     -12.523  11.611  66.766  1.00  0.00     0.000 HD 
BRANCH   9  11
HETATM   11  C   UNL     1     -12.100  11.772  68.809  1.00  0.00    -0.144 C  
BRANCH  11  12
HETATM   12  C   UNL     1     -11.475  10.442  69.240  1.00  0.00    -0.215 C  
BRANCH  12  13
HETATM   13  S   UNL     1     -11.632  10.135  71.033  1.00  0.00    -0.352 SA 
BRANCH  13  14
HETATM   14  C   UNL     1     -12.356   8.460  70.995  1.00  0.00    -0.129 C  
BRANCH  14  15
HETATM   15  C   UNL     1     -11.301   7.428  70.791  1.00  0.00    -0.280 A  
HETATM   16  C   UNL     1     -11.342   6.363  69.914  1.00  0.00    -0.434 A  
HETATM   17  S   UNL     1      -9.896   5.452  70.025  1.00  0.00    -0.228 SA 
HETATM   18  C   UNL     1      -9.326   6.522  71.245  1.00  0.00    -0.155 A  
HETATM   19  N   UNL     1     -10.158   7.490  71.579  1.00  0.00    -0.181 NA 
BRANCH  18  20
HETATM   20  C   UNL     1      -7.977   6.309  71.890  1.00  0.00    -0.102 C  
BRANCH  20  21
HETATM   21  N   UNL     1      -6.842   6.883  71.130  1.00  0.00    -0.057 NA 
HETATM   22  C   UNL     1      -6.264   5.899  70.208  1.00  0.00    -0.031 C  
HETATM   23  C   UNL     1      -7.302   8.051  70.374  1.00  0.00    -0.063 C  
ENDBRANCH  20  21
ENDBRANCH  18  20
ENDBRANCH  14  15
ENDBRANCH  13  14
ENDBRANCH  12  13
ENDBRANCH  11  12
ENDBRANCH   9  11
ENDBRANCH   4   9
ENDBRANCH   2   4
TORSDOF 9
ENDMDL
MODEL      296
REMARK 921   NORMALIZED FREE ENERGY PREDICTED BY IDOCK:   -2.88 KCAL/MOL
REMARK 922        TOTAL FREE ENERGY PREDICTED BY IDOCK:   -5.47 KCAL/MOL
REMARK 923 INTER-LIGAND FREE ENERGY PREDICTED BY IDOCK:   -5.03 KCAL/MOL
REMARK 924 INTRA-LIGAND FREE ENERGY PREDICTED BY IDOCK:   -0.44 KCAL/MOL
REMARK 927      BINDING AFFINITY PREDICTED BY RF-SCORE:    0.00 PKD
ROOT
HETATM    1  C   UNL     1      -9.793   7.393  73.578  1.00  0.00    -0.312 C  
HETATM    2  N   UNL     1      -9.549   7.996  72.286  1.00  0.00    -0.200 NA 
HETATM    3  H   UNL     1      -8.707   7.676  71.807  1.00  0.00     0.000 HD 
ENDROOT
BRANCH   2   4
HETATM    4  C   UNL     1     -10.295   8.945  71.609  1.00  0.00    -0.345 C  
HETATM    5  C   UNL     1     -11.597   9.103  71.926  1.00  0.00    -0.360 C  
HETATM    6  O   UNL     1     -12.028  10.822  70.421  1.00  0.00    -0.295 OA 
HETATM    7  N   UNL     1     -12.469  10.061  71.293  1.00  0.00    -0.360 N  
HETATM    8  O   UNL     1     -13.642  10.055  71.689  1.00  0.00    -0.311 OA 
BRANCH   4   9
HETATM    9  N   UNL     1      -9.668   9.682  70.619  1.00  0.00    -0.317 NA 
HETATM   10  H   UNL     1      -9.574  10.677  70.821  1.00  0.00     0.000 HD 
BRANCH   9  11
HETATM   11  C   UNL     1      -9.123   9.266  69.343  1.00  0.00    -0.152 C  
BRANCH  11  12
HETATM   12  C   UNL     1      -8.268  10.381  68.734  1.00  0.00    -0.128 C  
BRANCH  12  13
HETATM   13  S   UNL     1      -9.233  11.883  68.349  1.00  0.00    -0.138 SA 
BRANCH  13  14
HETATM   14  C   UNL     1      -7.987  12.810  67.391  1.00  0.00    -0.179 C  
BRANCH  14  15
HETATM   15  C   UNL     1      -7.624  14.081  68.079  1.00  0.00    -0.143 A  
HETATM   16  C   UNL     1      -6.591  14.274  68.974  1.00  0.00    -0.105 A  
HETATM   17  S   UNL     1      -6.558  15.905  69.494  1.00  0.00    -0.184 SA 
HETATM   18  C   UNL     1      -7.932  16.236  68.514  1.00  0.00    -0.184 A  
HETATM   19  N   UNL     1      -8.413  15.203  67.851  1.00  0.00    -0.146 NA 
BRANCH  18  20
HETATM   20  C   UNL     1      -8.536  17.620  68.475  1.00  0.00    -0.289 C  
BRANCH  20  21
HETATM   21  N   UNL     1      -7.625  18.666  67.956  1.00  0.00    -0.254 NA 
HETATM   22  C   UNL     1      -8.239  19.409  66.849  1.00  0.00    -0.281 C  
HETATM   23  C   UNL     1      -7.282  19.594  69.037  1.00  0.00    -0.344 C  
ENDBRANCH  20  21
ENDBRANCH  18  20
ENDBRANCH  14  15
ENDBRANCH  13  14
ENDBRANCH  12  13
ENDBRANCH  11  12
ENDBRANCH   9  11
ENDBRANCH   4   9
ENDBRANCH   2   4
TORSDOF 9
ENDMDL
MODEL      297
REMARK 921   NORMALIZED FREE ENERGY PREDICTED BY IDOCK:   -2.87 KCAL/MOL
REMARK 922        TOTAL FREE ENERGY PREDICTED BY IDOCK:   -5.44 KCAL/MOL
REMARK 923 INTER-LIGAND FREE ENERGY PREDICTED BY IDOCK:   -5.41 KCAL/MOL
REMARK 924 INTRA-LIGAND FREE ENERGY PREDICTED BY IDOCK:   -0.03 KCAL/MOL
REMARK 927      BINDING AFFINITY PREDICTED BY RF-SCORE:    0.00 PKD
ROOT
HETATM    1  C   UNL     1     -11.530  13.349  64.935  1.00  0.00    -0.325 C  
HETATM    2  N   UNL     1     -11.994  12.140  65.579  1.00  0.00    -0.487 NA 
HETATM    3  H   UNL     1     -12.985  11.932  65.456  1.00  0.00     0.000 HD 
ENDROOT
BRANCH   2   4
HETATM    4  C   UNL     1     -11.284  11.226  66.339  1.00  0.00    -0.121 C  
HETATM    5  C   UNL     1     -10.313  10.498  65.749  1.00  0.00    -0.200 C  
HETATM    6  O   UNL     1      -9.666   9.331  67.652  1.00  0.00    -0.148 OA 
HETATM    7  N   UNL     1      -9.507   9.522  66.439  1.00  0.00    -0.180 N  
HETATM    8  O   UNL     1      -8.677   8.927  65.739  1.00  0.00    -0.154 OA 
BRANCH   4   9
HETATM    9  N   UNL     1     -11.620  11.089  67.675  1.00  0.00    -0.562 NA 
HETATM   10  H   UNL     1     -12.248  10.312  67.880  1.00  0.00     0.000 HD 
BRANCH   9  11
HETATM   11  C   UNL     1     -11.223  11.871  68.827  1.00  0.00    -0.259 C  
BRANCH  11  12
HETATM   12  C   UNL     1     -12.388  12.008  69.812  1.00  0.00    -0.047 C  
BRANCH  12  13
HETATM   13  S   UNL     1     -12.205  13.440  70.930  1.00  0.00    -0.183 SA 
BRANCH  13  14
HETATM   14  C   UNL     1     -12.373  14.796  69.720  1.00  0.00    -0.249 C  
BRANCH  14  15
HETATM   15  C   UNL     1     -11.046  15.177  69.159  1.00  0.00    -0.258 A  
HETATM   16  C   UNL     1      -9.837  15.186  69.824  1.00  0.00    -0.105 A  
HETATM   17  S   UNL     1      -8.586  15.686  68.768  1.00  0.00    -0.210 SA 
HETATM   18  C   UNL     1      -9.740  15.878  67.507  1.00  0.00    -0.223 A  
HETATM   19  N   UNL     1     -10.988  15.613  67.841  1.00  0.00    -0.310 NA 
BRANCH  18  20
HETATM   20  C   UNL     1      -9.316  16.356  66.139  1.00  0.00    -0.325 C  
BRANCH  20  21
HETATM   21  N   UNL     1      -8.790  17.740  66.113  1.00  0.00    -0.489 NA 
HETATM   22  C   UNL     1      -9.507  18.603  67.058  1.00  0.00    -0.298 C  
HETATM   23  C   UNL     1      -7.364  17.726  66.449  1.00  0.00    -0.275 C  
ENDBRANCH  20  21
ENDBRANCH  18  20
ENDBRANCH  14  15
ENDBRANCH  13  14
ENDBRANCH  12  13
ENDBRANCH  11  12
ENDBRANCH   9  11
ENDBRANCH   4   9
ENDBRANCH   2   4
TORSDOF 9
ENDMDL
MODEL      298
REMARK 921   NORMALIZED FREE ENERGY PREDICTED BY IDOCK:   -2.85 KCAL/MOL
REMARK 922        TOTAL FREE ENERGY PREDICTED BY IDOCK:   -5.42 KCAL/MOL
REMARK 923 INTER-LIGAND FREE ENERGY PREDICTED BY IDOCK:   -4.85 KCAL/MOL
REMARK 924 INTRA-LIGAND FREE ENERGY PREDICTED BY IDOCK:   -0.57 KCAL/MOL
REMARK 927      BINDING AFFINITY PREDICTED BY RF-SCORE:    0.00 PKD
ROOT
HETATM    1  C   UNL     1     -11.072   3.974  73.701  1.00  0.00    -0.247 C  
HETATM    2  N   UNL     1     -11.096   5.206  72.945  1.00  0.00    -0.279 NA 
HETATM    3  H   UNL     1     -12.023   5.576  72.740  1.00  0.00     0.000 HD 
ENDROOT
BRANCH   2   4
HETATM    4  C   UNL     1     -10.036   5.955  72.460  1.00  0.00    -0.179 C  
HETATM    5  C   UNL     1      -9.724   7.119  73.069  1.00  0.00    -0.179 C  
HETATM    6  O   UNL     1      -7.915   7.650  71.708  1.00  0.00    -0.090 OA 
HETATM    7  N   UNL     1      -8.642   7.977  72.657  1.00  0.00    -0.161 N  
HETATM    8  O   UNL     1      -8.511   9.019  73.312  1.00  0.00    -0.111 OA 
BRANCH   4   9
HETATM    9  N   UNL     1      -9.354   5.479  71.354  1.00  0.00    -0.146 NA 
HETATM   10  H   UNL     1      -8.340   5.448  71.458  1.00  0.00     0.000 HD 
BRANCH   9  11
HETATM   11  C   UNL     1      -9.849   5.016  70.074  1.00  0.00    -0.228 C  
BRANCH  11  12
HETATM   12  C   UNL     1     -10.996   5.907  69.586  1.00  0.00    -0.377 C  
BRANCH  12  13
HETATM   13  S   UNL     1     -10.864   6.321  67.813  1.00  0.00    -0.338 SA 
BRANCH  13  14
HETATM   14  C   UNL     1      -9.575   7.610  67.894  1.00  0.00    -0.144 C  
BRANCH  14  15
HETATM   15  C   UNL     1     -10.154   8.917  68.316  1.00  0.00    -0.187 A  
HETATM   16  C   UNL     1     -10.481   9.302  69.600  1.00  0.00    -0.224 A  
HETATM   17  S   UNL     1     -11.107  10.896  69.596  1.00  0.00    -0.256 SA 
HETATM   18  C   UNL     1     -10.922  10.955  67.887  1.00  0.00    -0.271 A  
HETATM   19  N   UNL     1     -10.447   9.856  67.334  1.00  0.00    -0.250 NA 
BRANCH  18  20
HETATM   20  C   UNL     1     -11.324  12.185  67.109  1.00  0.00    -0.331 C  
BRANCH  20  21
HETATM   21  N   UNL     1     -10.194  12.891  66.461  1.00  0.00    -0.254 NA 
HETATM   22  C   UNL     1     -10.462  13.137  65.040  1.00  0.00    -0.342 C  
HETATM   23  C   UNL     1      -9.961  14.167  67.143  1.00  0.00    -0.255 C  
ENDBRANCH  20  21
ENDBRANCH  18  20
ENDBRANCH  14  15
ENDBRANCH  13  14
ENDBRANCH  12  13
ENDBRANCH  11  12
ENDBRANCH   9  11
ENDBRANCH   4   9
ENDBRANCH   2   4
TORSDOF 9
ENDMDL
MODEL      299
REMARK 921   NORMALIZED FREE ENERGY PREDICTED BY IDOCK:   -2.84 KCAL/MOL
REMARK 922        TOTAL FREE ENERGY PREDICTED BY IDOCK:   -5.41 KCAL/MOL
REMARK 923 INTER-LIGAND FREE ENERGY PREDICTED BY IDOCK:   -4.99 KCAL/MOL
REMARK 924 INTRA-LIGAND FREE ENERGY PREDICTED BY IDOCK:   -0.42 KCAL/MOL
REMARK 927      BINDING AFFINITY PREDICTED BY RF-SCORE:    0.00 PKD
ROOT
HETATM    1  C   UNL     1     -11.773  13.284  69.460  1.00  0.00    -0.322 C  
HETATM    2  N   UNL     1     -10.620  13.379  68.594  1.00  0.00    -0.248 NA 
HETATM    3  H   UNL     1      -9.716  13.364  69.066  1.00  0.00     0.000 HD 
ENDROOT
BRANCH   2   4
HETATM    4  C   UNL     1     -10.569  13.488  67.214  1.00  0.00    -0.263 C  
HETATM    5  C   UNL     1     -10.696  14.706  66.648  1.00  0.00    -0.305 C  
HETATM    6  O   UNL     1     -10.464  13.998  64.446  1.00  0.00    -0.368 OA 
HETATM    7  N   UNL     1     -10.654  14.941  65.226  1.00  0.00    -0.369 N  
HETATM    8  O   UNL     1     -10.812  16.118  64.877  1.00  0.00    -0.582 OA 
BRANCH   4   9
HETATM    9  N   UNL     1     -10.405  12.329  66.475  1.00  0.00    -0.224 NA 
HETATM   10  H   UNL     1     -11.237  12.021  65.973  1.00  0.00     0.000 HD 
BRANCH   9  11
HETATM   11  C   UNL     1      -9.242  11.483  66.301  1.00  0.00    -0.211 C  
BRANCH  11  12
HETATM   12  C   UNL     1      -9.546  10.051  66.751  1.00  0.00    -0.181 C  
BRANCH  12  13
HETATM   13  S   UNL     1      -9.895   9.930  68.539  1.00  0.00    -0.161 SA 
BRANCH  13  14
HETATM   14  C   UNL     1      -9.824   8.118  68.743  1.00  0.00    -0.176 C  
BRANCH  14  15
HETATM   15  C   UNL     1     -10.232   7.721  70.120  1.00  0.00    -0.205 A  
HETATM   16  C   UNL     1     -11.369   8.117  70.795  1.00  0.00    -0.270 A  
HETATM   17  S   UNL     1     -11.415   7.396  72.347  1.00  0.00    -0.294 SA 
HETATM   18  C   UNL     1      -9.912   6.626  72.025  1.00  0.00    -0.165 A  
HETATM   19  N   UNL     1      -9.382   6.896  70.847  1.00  0.00    -0.157 NA 
BRANCH  18  20
HETATM   20  C   UNL     1      -9.261   5.740  73.060  1.00  0.00    -0.140 C  
BRANCH  20  21
HETATM   21  N   UNL     1      -9.072   4.336  72.628  1.00  0.00    -0.110 NA 
HETATM   22  C   UNL     1      -8.076   3.650  73.457  1.00  0.00    -0.079 C  
HETATM   23  C   UNL     1     -10.351   3.624  72.710  1.00  0.00    -0.161 C  
ENDBRANCH  20  21
ENDBRANCH  18  20
ENDBRANCH  14  15
ENDBRANCH  13  14
ENDBRANCH  12  13
ENDBRANCH  11  12
ENDBRANCH   9  11
ENDBRANCH   4   9
ENDBRANCH   2   4
TORSDOF 9
ENDMDL
MODEL      300
REMARK 921   NORMALIZED FREE ENERGY PREDICTED BY IDOCK:   -2.83 KCAL/MOL
REMARK 922        TOTAL FREE ENERGY PREDICTED BY IDOCK:   -5.38 KCAL/MOL
REMARK 923 INTER-LIGAND FREE ENERGY PREDICTED BY IDOCK:   -4.89 KCAL/MOL
REMARK 924 INTRA-LIGAND FREE ENERGY PREDICTED BY IDOCK:   -0.49 KCAL/MOL
REMARK 927      BINDING AFFINITY PREDICTED BY RF-SCORE:    0.00 PKD
ROOT
HETATM    1  C   UNL     1      -9.904   5.423  67.166  1.00  0.00    -0.158 C  
HETATM    2  N   UNL     1      -9.402   6.604  67.831  1.00  0.00    -0.111 NA 
HETATM    3  H   UNL     1      -9.399   6.563  68.850  1.00  0.00     0.000 HD 
ENDROOT
BRANCH   2   4
HETATM    4  C   UNL     1      -8.923   7.781  67.282  1.00  0.00    -0.127 C  
HETATM    5  C   UNL     1      -8.809   7.878  65.940  1.00  0.00    -0.148 C  
HETATM    6  O   UNL     1      -8.019  10.065  65.902  1.00  0.00    -0.115 OA 
HETATM    7  N   UNL     1      -8.329   9.054  65.257  1.00  0.00    -0.140 N  
HETATM    8  O   UNL     1      -8.265   8.963  64.024  1.00  0.00    -0.155 OA 
BRANCH   4   9
HETATM    9  N   UNL     1      -8.566   8.804  68.143  1.00  0.00    -0.133 NA 
HETATM   10  H   UNL     1      -8.158   9.621  67.690  1.00  0.00     0.000 HD 
BRANCH   9  11
HETATM   11  C   UNL     1      -8.680   8.900  69.583  1.00  0.00    -0.140 C  
BRANCH  11  12
HETATM   12  C   UNL     1      -9.584  10.073  69.975  1.00  0.00    -0.156 C  
BRANCH  12  13
HETATM   13  S   UNL     1     -11.320   9.572  70.234  1.00  0.00    -0.209 SA 
BRANCH  13  14
HETATM   14  C   UNL     1     -12.043  11.187  70.678  1.00  0.00    -0.379 C  
BRANCH  14  15
HETATM   15  C   UNL     1     -11.814  12.188  69.598  1.00  0.00    -0.322 A  
HETATM   16  C   UNL     1     -11.326  13.471  69.746  1.00  0.00    -0.091 A  
HETATM   17  S   UNL     1     -11.226  14.244  68.222  1.00  0.00    -0.292 SA 
HETATM   18  C   UNL     1     -11.858  12.830  67.473  1.00  0.00    -0.343 A  
HETATM   19  N   UNL     1     -12.153  11.842  68.295  1.00  0.00    -0.506 NA 
BRANCH  18  20
HETATM   20  C   UNL     1     -12.078  12.780  65.980  1.00  0.00    -0.395 C  
BRANCH  20  21
HETATM   21  N   UNL     1     -10.844  12.573  65.189  1.00  0.00    -0.280 NA 
HETATM   22  C   UNL     1     -11.147  12.059  63.849  1.00  0.00    -0.405 C  
HETATM   23  C   UNL     1     -10.119  13.841  65.074  1.00  0.00    -0.283 C  
ENDBRANCH  20  21
ENDBRANCH  18  20
ENDBRANCH  14  15
ENDBRANCH  13  14
ENDBRANCH  12  13
ENDBRANCH  11  12
ENDBRANCH   9  11
ENDBRANCH   4   9
ENDBRANCH   2   4
TORSDOF 9
ENDMDL
MODEL      301
REMARK 921   NORMALIZED FREE ENERGY PREDICTED BY IDOCK:   -2.82 KCAL/MOL
REMARK 922        TOTAL FREE ENERGY PREDICTED BY IDOCK:   -5.37 KCAL/MOL
REMARK 923 INTER-LIGAND FREE ENERGY PREDICTED BY IDOCK:   -5.32 KCAL/MOL
REMARK 924 INTRA-LIGAND FREE ENERGY PREDICTED BY IDOCK:   -0.06 KCAL/MOL
REMARK 927      BINDING AFFINITY PREDICTED BY RF-SCORE:    0.00 PKD
ROOT
HETATM    1  C   UNL     1      -7.060   8.938  68.293  1.00  0.00    -0.078 C  
HETATM    2  N   UNL     1      -8.267   8.843  69.084  1.00  0.00    -0.116 NA 
HETATM    3  H   UNL     1      -9.139   8.852  68.554  1.00  0.00     0.000 HD 
ENDROOT
BRANCH   2   4
HETATM    4  C   UNL     1      -8.407   8.743  70.458  1.00  0.00    -0.148 C  
HETATM    5  C   UNL     1      -7.352   8.339  71.196  1.00  0.00    -0.070 C  
HETATM    6  O   UNL     1      -8.404   8.489  73.263  1.00  0.00    -0.372 OA 
HETATM    7  N   UNL     1      -7.378   8.203  72.631  1.00  0.00    -0.106 N  
HETATM    8  O   UNL     1      -6.328   7.797  73.146  1.00  0.00    -0.060 OA 
BRANCH   4   9
HETATM    9  N   UNL     1      -9.638   9.048  71.011  1.00  0.00    -0.255 NA 
HETATM   10  H   UNL     1      -9.786  10.038  71.205  1.00  0.00     0.000 HD 
BRANCH   9  11
HETATM   11  C   UNL     1     -10.750   8.187  71.357  1.00  0.00    -0.232 C  
BRANCH  11  12
HETATM   12  C   UNL     1     -11.810   8.966  72.142  1.00  0.00    -0.347 C  
BRANCH  12  13
HETATM   13  S   UNL     1     -13.094   9.693  71.067  1.00  0.00    -0.178 SA 
BRANCH  13  14
HETATM   14  C   UNL     1     -12.838  11.461  71.437  1.00  0.00    -0.397 C  
BRANCH  14  15
HETATM   15  C   UNL     1     -12.338  12.189  70.237  1.00  0.00    -0.191 A  
HETATM   16  C   UNL     1     -11.955  13.514  70.170  1.00  0.00    -0.329 A  
HETATM   17  S   UNL     1     -11.442  13.901  68.584  1.00  0.00    -0.322 SA 
HETATM   18  C   UNL     1     -11.784  12.289  68.089  1.00  0.00    -0.349 A  
HETATM   19  N   UNL     1     -12.273  11.504  69.029  1.00  0.00    -0.387 NA 
BRANCH  18  20
HETATM   20  C   UNL     1     -11.561  11.857  66.660  1.00  0.00    -0.264 C  
BRANCH  20  21
HETATM   21  N   UNL     1     -11.465  12.975  65.693  1.00  0.00    -0.321 NA 
HETATM   22  C   UNL     1     -11.040  12.505  64.371  1.00  0.00    -0.339 C  
HETATM   23  C   UNL     1     -12.768  13.636  65.582  1.00  0.00    -0.454 C  
ENDBRANCH  20  21
ENDBRANCH  18  20
ENDBRANCH  14  15
ENDBRANCH  13  14
ENDBRANCH  12  13
ENDBRANCH  11  12
ENDBRANCH   9  11
ENDBRANCH   4   9
ENDBRANCH   2   4
TORSDOF 9
ENDMDL
MODEL      302
REMARK 921   NORMALIZED FREE ENERGY PREDICTED BY IDOCK:   -2.80 KCAL/MOL
REMARK 922        TOTAL FREE ENERGY PREDICTED BY IDOCK:   -5.34 KCAL/MOL
REMARK 923 INTER-LIGAND FREE ENERGY PREDICTED BY IDOCK:   -4.86 KCAL/MOL
REMARK 924 INTRA-LIGAND FREE ENERGY PREDICTED BY IDOCK:   -0.48 KCAL/MOL
REMARK 927      BINDING AFFINITY PREDICTED BY RF-SCORE:    0.00 PKD
ROOT
HETATM    1  C   UNL     1     -11.381  14.713  64.615  1.00  0.00    -0.369 C  
HETATM    2  N   UNL     1     -11.406  15.172  65.986  1.00  0.00    -0.278 NA 
HETATM    3  H   UNL     1     -12.253  14.950  66.507  1.00  0.00     0.000 HD 
ENDROOT
BRANCH   2   4
HETATM    4  C   UNL     1     -10.441  15.872  66.691  1.00  0.00    -0.306 C  
HETATM    5  C   UNL     1      -9.531  16.600  66.011  1.00  0.00    -0.251 C  
HETATM    6  O   UNL     1      -8.400  17.415  67.872  1.00  0.00    -0.220 OA 
HETATM    7  N   UNL     1      -8.486  17.371  66.637  1.00  0.00    -0.246 N  
HETATM    8  O   UNL     1      -7.722  17.961  65.861  1.00  0.00    -0.507 OA 
BRANCH   4   9
HETATM    9  N   UNL     1     -10.445  15.775  68.072  1.00  0.00    -0.263 NA 
HETATM   10  H   UNL     1      -9.520  15.766  68.503  1.00  0.00     0.000 HD 
BRANCH   9  11
HETATM   11  C   UNL     1     -11.551  15.684  69.003  1.00  0.00    -0.386 C  
BRANCH  11  12
HETATM   12  C   UNL     1     -11.651  14.271  69.584  1.00  0.00    -0.296 C  
BRANCH  12  13
HETATM   13  S   UNL     1     -11.872  12.992  68.300  1.00  0.00    -0.300 SA 
BRANCH  13  14
HETATM   14  C   UNL     1     -10.687  11.743  68.904  1.00  0.00    -0.205 C  
BRANCH  14  15
HETATM   15  C   UNL     1      -9.363  11.899  68.238  1.00  0.00    -0.193 A  
HETATM   16  C   UNL     1      -8.649  10.921  67.577  1.00  0.00    -0.127 A  
HETATM   17  S   UNL     1      -7.187  11.570  66.965  1.00  0.00    -0.140 SA 
HETATM   18  C   UNL     1      -7.594  13.099  67.640  1.00  0.00    -0.171 A  
HETATM   19  N   UNL     1      -8.734  13.136  68.303  1.00  0.00    -0.178 NA 
BRANCH  18  20
HETATM   20  C   UNL     1      -6.665  14.280  67.492  1.00  0.00    -0.105 C  
BRANCH  20  21
HETATM   21  N   UNL     1      -5.796  14.521  68.666  1.00  0.00    -0.086 NA 
HETATM   22  C   UNL     1      -6.495  15.293  69.700  1.00  0.00    -0.162 C  
HETATM   23  C   UNL     1      -5.361  13.238  69.224  1.00  0.00    -0.075 C  
ENDBRANCH  20  21
ENDBRANCH  18  20
ENDBRANCH  14  15
ENDBRANCH  13  14
ENDBRANCH  12  13
ENDBRANCH  11  12
ENDBRANCH   9  11
ENDBRANCH   4   9
ENDBRANCH   2   4
TORSDOF 9
ENDMDL
MODEL      303
REMARK 921   NORMALIZED FREE ENERGY PREDICTED BY IDOCK:   -2.80 KCAL/MOL
REMARK 922        TOTAL FREE ENERGY PREDICTED BY IDOCK:   -5.34 KCAL/MOL
REMARK 923 INTER-LIGAND FREE ENERGY PREDICTED BY IDOCK:   -4.65 KCAL/MOL
REMARK 924 INTRA-LIGAND FREE ENERGY PREDICTED BY IDOCK:   -0.69 KCAL/MOL
REMARK 927      BINDING AFFINITY PREDICTED BY RF-SCORE:    0.00 PKD
ROOT
HETATM    1  C   UNL     1     -11.295  14.789  69.759  1.00  0.00    -0.283 C  
HETATM    2  N   UNL     1     -10.984  14.188  68.481  1.00  0.00    -0.245 NA 
HETATM    3  H   UNL     1     -11.577  14.480  67.704  1.00  0.00     0.000 HD 
ENDROOT
BRANCH   2   4
HETATM    4  C   UNL     1      -9.996  13.273  68.162  1.00  0.00    -0.234 C  
HETATM    5  C   UNL     1      -8.752  13.720  67.887  1.00  0.00    -0.183 C  
HETATM    6  O   UNL     1      -7.795  11.633  67.525  1.00  0.00    -0.122 OA 
HETATM    7  N   UNL     1      -7.645  12.862  67.549  1.00  0.00    -0.155 N  
HETATM    8  O   UNL     1      -6.579  13.441  67.301  1.00  0.00    -0.234 OA 
BRANCH   4   9
HETATM    9  N   UNL     1     -10.337  11.932  68.125  1.00  0.00    -0.193 NA 
HETATM   10  H   UNL     1     -10.421  11.539  67.187  1.00  0.00     0.000 HD 
BRANCH   9  11
HETATM   11  C   UNL     1     -10.595  10.998  69.201  1.00  0.00    -0.219 C  
BRANCH  11  12
HETATM   12  C   UNL     1     -12.102  10.822  69.413  1.00  0.00    -0.244 C  
BRANCH  12  13
HETATM   13  S   UNL     1     -12.595  10.994  71.162  1.00  0.00    -0.408 SA 
BRANCH  13  14
HETATM   14  C   UNL     1     -12.890   9.241  71.571  1.00  0.00    -0.354 C  
BRANCH  14  15
HETATM   15  C   UNL     1     -11.633   8.449  71.458  1.00  0.00    -0.284 A  
HETATM   16  C   UNL     1     -10.468   8.636  72.174  1.00  0.00    -0.340 A  
HETATM   17  S   UNL     1      -9.297   7.478  71.709  1.00  0.00    -0.145 SA 
HETATM   18  C   UNL     1     -10.410   6.822  70.573  1.00  0.00    -0.201 A  
HETATM   19  N   UNL     1     -11.578   7.430  70.514  1.00  0.00    -0.264 NA 
BRANCH  18  20
HETATM   20  C   UNL     1     -10.021   5.654  69.698  1.00  0.00    -0.203 C  
BRANCH  20  21
HETATM   21  N   UNL     1      -8.900   4.843  70.227  1.00  0.00    -0.101 NA 
HETATM   22  C   UNL     1      -9.317   3.462  70.492  1.00  0.00    -0.161 C  
HETATM   23  C   UNL     1      -7.798   4.846  69.262  1.00  0.00    -0.075 C  
ENDBRANCH  20  21
ENDBRANCH  18  20
ENDBRANCH  14  15
ENDBRANCH  13  14
ENDBRANCH  12  13
ENDBRANCH  11  12
ENDBRANCH   9  11
ENDBRANCH   4   9
ENDBRANCH   2   4
TORSDOF 9
ENDMDL
MODEL      304
REMARK 921   NORMALIZED FREE ENERGY PREDICTED BY IDOCK:   -2.80 KCAL/MOL
REMARK 922        TOTAL FREE ENERGY PREDICTED BY IDOCK:   -5.34 KCAL/MOL
REMARK 923 INTER-LIGAND FREE ENERGY PREDICTED BY IDOCK:   -4.69 KCAL/MOL
REMARK 924 INTRA-LIGAND FREE ENERGY PREDICTED BY IDOCK:   -0.64 KCAL/MOL
REMARK 927      BINDING AFFINITY PREDICTED BY RF-SCORE:    0.00 PKD
ROOT
HETATM    1  C   UNL     1      -6.907   8.969  69.473  1.00  0.00    -0.048 C  
HETATM    2  N   UNL     1      -7.227   8.036  68.416  1.00  0.00    -0.087 NA 
HETATM    3  H   UNL     1      -6.440   7.495  68.057  1.00  0.00     0.000 HD 
ENDROOT
BRANCH   2   4
HETATM    4  C   UNL     1      -8.450   7.772  67.822  1.00  0.00    -0.121 C  
HETATM    5  C   UNL     1      -9.380   7.083  68.517  1.00  0.00    -0.135 C  
HETATM    6  O   UNL     1     -11.025   7.133  66.875  1.00  0.00    -0.363 OA 
HETATM    7  N   UNL     1     -10.687   6.756  68.005  1.00  0.00    -0.231 N  
HETATM    8  O   UNL     1     -11.407   6.097  68.767  1.00  0.00    -0.344 OA 
BRANCH   4   9
HETATM    9  N   UNL     1      -8.655   8.216  66.528  1.00  0.00    -0.132 NA 
HETATM   10  H   UNL     1      -9.595   8.059  66.166  1.00  0.00     0.000 HD 
BRANCH   9  11
HETATM   11  C   UNL     1      -7.748   8.867  65.605  1.00  0.00    -0.087 C  
BRANCH  11  12
HETATM   12  C   UNL     1      -8.281  10.248  65.211  1.00  0.00    -0.161 C  
BRANCH  12  13
HETATM   13  S   UNL     1     -10.085  10.404  65.445  1.00  0.00    -0.260 SA 
BRANCH  13  14
HETATM   14  C   UNL     1     -10.135  11.944  66.423  1.00  0.00    -0.214 C  
BRANCH  14  15
HETATM   15  C   UNL     1     -10.705  11.697  67.777  1.00  0.00    -0.204 A  
HETATM   16  C   UNL     1     -11.699  12.422  68.403  1.00  0.00    -0.336 A  
HETATM   17  S   UNL     1     -12.031  11.758  69.946  1.00  0.00    -0.311 SA 
HETATM   18  C   UNL     1     -10.817  10.568  69.685  1.00  0.00    -0.274 A  
HETATM   19  N   UNL     1     -10.178  10.659  68.535  1.00  0.00    -0.167 NA 
BRANCH  18  20
HETATM   20  C   UNL     1     -10.512   9.534  70.741  1.00  0.00    -0.314 C  
BRANCH  20  21
HETATM   21  N   UNL     1     -11.671   8.698  71.128  1.00  0.00    -0.283 NA 
HETATM   22  C   UNL     1     -11.244   7.475  71.818  1.00  0.00    -0.246 C  
HETATM   23  C   UNL     1     -12.558   9.469  72.004  1.00  0.00    -0.376 C  
ENDBRANCH  20  21
ENDBRANCH  18  20
ENDBRANCH  14  15
ENDBRANCH  13  14
ENDBRANCH  12  13
ENDBRANCH  11  12
ENDBRANCH   9  11
ENDBRANCH   4   9
ENDBRANCH   2   4
TORSDOF 9
ENDMDL
MODEL      305
REMARK 921   NORMALIZED FREE ENERGY PREDICTED BY IDOCK:   -2.79 KCAL/MOL
REMARK 922        TOTAL FREE ENERGY PREDICTED BY IDOCK:   -5.33 KCAL/MOL
REMARK 923 INTER-LIGAND FREE ENERGY PREDICTED BY IDOCK:   -4.77 KCAL/MOL
REMARK 924 INTRA-LIGAND FREE ENERGY PREDICTED BY IDOCK:   -0.55 KCAL/MOL
REMARK 927      BINDING AFFINITY PREDICTED BY RF-SCORE:    0.00 PKD
ROOT
HETATM    1  C   UNL     1      -5.682   8.332  63.887  1.00  0.00    -0.065 C  
HETATM    2  N   UNL     1      -5.962   8.558  65.288  1.00  0.00    -0.048 NA 
HETATM    3  H   UNL     1      -5.669   7.812  65.919  1.00  0.00     0.000 HD 
ENDROOT
BRANCH   2   4
HETATM    4  C   UNL     1      -6.572   9.644  65.894  1.00  0.00    -0.080 C  
HETATM    5  C   UNL     1      -5.829  10.730  66.193  1.00  0.00    -0.133 C  
HETATM    6  O   UNL     1      -7.562  11.996  67.087  1.00  0.00    -0.148 OA 
HETATM    7  N   UNL     1      -6.355  11.918  66.817  1.00  0.00    -0.100 N  
HETATM    8  O   UNL     1      -5.528  12.811  67.043  1.00  0.00    -0.344 OA 
BRANCH   4   9
HETATM    9  N   UNL     1      -7.923   9.554  66.182  1.00  0.00    -0.107 NA 
HETATM   10  H   UNL     1      -8.142   9.428  67.170  1.00  0.00     0.000 HD 
BRANCH   9  11
HETATM   11  C   UNL     1      -9.075   9.613  65.306  1.00  0.00    -0.218 C  
BRANCH  11  12
HETATM   12  C   UNL     1      -8.703  10.258  63.968  1.00  0.00    -0.202 C  
BRANCH  12  13
HETATM   13  S   UNL     1      -9.843  11.602  63.490  1.00  0.00    -0.365 SA 
BRANCH  13  14
HETATM   14  C   UNL     1     -10.829  11.728  65.020  1.00  0.00    -0.295 C  
BRANCH  14  15
HETATM   15  C   UNL     1     -10.779  13.110  65.574  1.00  0.00    -0.283 A  
HETATM   16  C   UNL     1     -10.715  14.288  64.858  1.00  0.00    -0.432 A  
HETATM   17  S   UNL     1     -10.687  15.626  65.925  1.00  0.00    -0.311 SA 
HETATM   18  C   UNL     1     -10.738  14.548  67.264  1.00  0.00    -0.287 A  
HETATM   19  N   UNL     1     -10.753  13.266  66.955  1.00  0.00    -0.270 NA 
BRANCH  18  20
HETATM   20  C   UNL     1     -10.728  15.074  68.680  1.00  0.00    -0.244 C  
BRANCH  20  21
HETATM   21  N   UNL     1     -12.047  15.037  69.352  1.00  0.00    -0.281 NA 
HETATM   22  C   UNL     1     -12.401  13.674  69.762  1.00  0.00    -0.228 C  
HETATM   23  C   UNL     1     -12.020  15.910  70.529  1.00  0.00    -0.333 C  
ENDBRANCH  20  21
ENDBRANCH  18  20
ENDBRANCH  14  15
ENDBRANCH  13  14
ENDBRANCH  12  13
ENDBRANCH  11  12
ENDBRANCH   9  11
ENDBRANCH   4   9
ENDBRANCH   2   4
TORSDOF 9
ENDMDL
MODEL      306
REMARK 921   NORMALIZED FREE ENERGY PREDICTED BY IDOCK:   -2.79 KCAL/MOL
REMARK 922        TOTAL FREE ENERGY PREDICTED BY IDOCK:   -5.32 KCAL/MOL
REMARK 923 INTER-LIGAND FREE ENERGY PREDICTED BY IDOCK:   -4.85 KCAL/MOL
REMARK 924 INTRA-LIGAND FREE ENERGY PREDICTED BY IDOCK:   -0.47 KCAL/MOL
REMARK 927      BINDING AFFINITY PREDICTED BY RF-SCORE:    0.00 PKD
ROOT
HETATM    1  C   UNL     1      -6.399   8.351  67.611  1.00  0.00    -0.053 C  
HETATM    2  N   UNL     1      -7.598   8.108  68.382  1.00  0.00    -0.102 NA 
HETATM    3  H   UNL     1      -7.605   8.510  69.319  1.00  0.00     0.000 HD 
ENDROOT
BRANCH   2   4
HETATM    4  C   UNL     1      -8.739   7.408  68.027  1.00  0.00    -0.124 C  
HETATM    5  C   UNL     1      -8.680   6.062  67.937  1.00  0.00    -0.112 C  
HETATM    6  O   UNL     1     -10.910   5.739  67.366  1.00  0.00    -0.268 OA 
HETATM    7  N   UNL     1      -9.802   5.229  67.582  1.00  0.00    -0.146 N  
HETATM    8  O   UNL     1      -9.566   4.016  67.522  1.00  0.00    -0.183 OA 
BRANCH   4   9
HETATM    9  N   UNL     1      -9.890   8.129  67.763  1.00  0.00    -0.158 NA 
HETATM   10  H   UNL     1     -10.660   7.958  68.411  1.00  0.00     0.000 HD 
BRANCH   9  11
HETATM   11  C   UNL     1     -10.178   9.087  66.716  1.00  0.00    -0.271 C  
BRANCH  11  12
HETATM   12  C   UNL     1     -10.800  10.357  67.303  1.00  0.00    -0.264 C  
BRANCH  12  13
HETATM   13  S   UNL     1     -10.871  11.731  66.103  1.00  0.00    -0.297 SA 
BRANCH  13  14
HETATM   14  C   UNL     1      -9.470  12.734  66.702  1.00  0.00    -0.249 C  
BRANCH  14  15
HETATM   15  C   UNL     1      -9.912  14.113  67.050  1.00  0.00    -0.260 A  
HETATM   16  C   UNL     1      -9.537  15.286  66.426  1.00  0.00    -0.292 A  
HETATM   17  S   UNL     1     -10.310  16.622  67.168  1.00  0.00    -0.289 SA 
HETATM   18  C   UNL     1     -11.071  15.553  68.280  1.00  0.00    -0.322 A  
HETATM   19  N   UNL     1     -10.762  14.279  68.137  1.00  0.00    -0.240 NA 
BRANCH  18  20
HETATM   20  C   UNL     1     -11.992  16.083  69.353  1.00  0.00    -0.178 C  
BRANCH  20  21
HETATM   21  N   UNL     1     -12.090  15.219  70.552  1.00  0.00    -0.324 NA 
HETATM   22  C   UNL     1     -11.072  15.568  71.548  1.00  0.00    -0.225 C  
HETATM   23  C   UNL     1     -13.422  15.357  71.145  1.00  0.00    -0.493 C  
ENDBRANCH  20  21
ENDBRANCH  18  20
ENDBRANCH  14  15
ENDBRANCH  13  14
ENDBRANCH  12  13
ENDBRANCH  11  12
ENDBRANCH   9  11
ENDBRANCH   4   9
ENDBRANCH   2   4
TORSDOF 9
ENDMDL
MODEL      307
REMARK 921   NORMALIZED FREE ENERGY PREDICTED BY IDOCK:   -2.79 KCAL/MOL
REMARK 922        TOTAL FREE ENERGY PREDICTED BY IDOCK:   -5.32 KCAL/MOL
REMARK 923 INTER-LIGAND FREE ENERGY PREDICTED BY IDOCK:   -4.86 KCAL/MOL
REMARK 924 INTRA-LIGAND FREE ENERGY PREDICTED BY IDOCK:   -0.46 KCAL/MOL
REMARK 927      BINDING AFFINITY PREDICTED BY RF-SCORE:    0.00 PKD
ROOT
HETATM    1  C   UNL     1     -14.411   8.422  72.278  1.00  0.00    -0.371 C  
HETATM    2  N   UNL     1     -13.524   9.546  72.474  1.00  0.00    -0.649 NA 
HETATM    3  H   UNL     1     -13.404   9.846  73.442  1.00  0.00     0.000 HD 
ENDROOT
BRANCH   2   4
HETATM    4  C   UNL     1     -12.813  10.274  71.535  1.00  0.00    -0.452 C  
HETATM    5  C   UNL     1     -12.944  11.617  71.510  1.00  0.00    -0.358 C  
HETATM    6  O   UNL     1     -11.459  11.994  69.761  1.00  0.00    -0.271 OA 
HETATM    7  N   UNL     1     -12.251  12.476  70.583  1.00  0.00    -0.351 N  
HETATM    8  O   UNL     1     -12.506  13.684  70.684  1.00  0.00    -0.344 OA 
BRANCH   4   9
HETATM    9  N   UNL     1     -12.008   9.581  70.647  1.00  0.00    -0.407 NA 
HETATM   10  H   UNL     1     -12.274   9.675  69.667  1.00  0.00     0.000 HD 
BRANCH   9  11
HETATM   11  C   UNL     1     -10.851   8.744  70.886  1.00  0.00    -0.238 C  
BRANCH  11  12
HETATM   12  C   UNL     1     -10.977   7.421  70.125  1.00  0.00    -0.255 C  
BRANCH  12  13
HETATM   13  S   UNL     1     -10.298   7.510  68.432  1.00  0.00    -0.181 SA 
BRANCH  13  14
HETATM   14  C   UNL     1      -8.938   6.303  68.583  1.00  0.00    -0.127 C  
BRANCH  14  15
HETATM   15  C   UNL     1      -8.023   6.383  67.410  1.00  0.00    -0.116 A  
HETATM   16  C   UNL     1      -7.470   5.325  66.717  1.00  0.00    -0.087 A  
HETATM   17  S   UNL     1      -6.490   5.905  65.438  1.00  0.00    -0.044 SA 
HETATM   18  C   UNL     1      -6.850   7.520  65.907  1.00  0.00    -0.057 A  
HETATM   19  N   UNL     1      -7.631   7.639  66.963  1.00  0.00    -0.101 NA 
BRANCH  18  20
HETATM   20  C   UNL     1      -6.261   8.690  65.157  1.00  0.00    -0.060 C  
BRANCH  20  21
HETATM   21  N   UNL     1      -6.791   8.863  63.784  1.00  0.00    -0.088 NA 
HETATM   22  C   UNL     1      -8.249   9.029  63.791  1.00  0.00    -0.173 C  
HETATM   23  C   UNL     1      -6.168  10.035  63.165  1.00  0.00    -0.132 C  
ENDBRANCH  20  21
ENDBRANCH  18  20
ENDBRANCH  14  15
ENDBRANCH  13  14
ENDBRANCH  12  13
ENDBRANCH  11  12
ENDBRANCH   9  11
ENDBRANCH   4   9
ENDBRANCH   2   4
TORSDOF 9
ENDMDL
MODEL      308
REMARK 921   NORMALIZED FREE ENERGY PREDICTED BY IDOCK:   -2.78 KCAL/MOL
REMARK 922        TOTAL FREE ENERGY PREDICTED BY IDOCK:   -5.31 KCAL/MOL
REMARK 923 INTER-LIGAND FREE ENERGY PREDICTED BY IDOCK:   -4.60 KCAL/MOL
REMARK 924 INTRA-LIGAND FREE ENERGY PREDICTED BY IDOCK:   -0.71 KCAL/MOL
REMARK 927      BINDING AFFINITY PREDICTED BY RF-SCORE:    0.00 PKD
ROOT
HETATM    1  C   UNL     1     -10.059  16.856  66.750  1.00  0.00    -0.294 C  
HETATM    2  N   UNL     1     -10.221  15.828  67.754  1.00  0.00    -0.246 NA 
HETATM    3  H   UNL     1     -11.044  15.923  68.349  1.00  0.00     0.000 HD 
ENDROOT
BRANCH   2   4
HETATM    4  C   UNL     1      -9.418  14.732  68.021  1.00  0.00    -0.204 C  
HETATM    5  C   UNL     1      -8.241  14.921  68.653  1.00  0.00    -0.157 C  
HETATM    6  O   UNL     1      -7.615  12.683  68.719  1.00  0.00    -0.102 OA 
HETATM    7  N   UNL     1      -7.327  13.857  68.987  1.00  0.00    -0.092 N  
HETATM    8  O   UNL     1      -6.280  14.211  69.546  1.00  0.00    -0.105 OA 
BRANCH   4   9
HETATM    9  N   UNL     1      -9.857  13.486  67.606  1.00  0.00    -0.224 NA 
HETATM   10  H   UNL     1      -9.121  12.861  67.278  1.00  0.00     0.000 HD 
BRANCH   9  11
HETATM   11  C   UNL     1     -11.193  12.929  67.564  1.00  0.00    -0.290 C  
BRANCH  11  12
HETATM   12  C   UNL     1     -11.322  11.927  66.412  1.00  0.00    -0.339 C  
BRANCH  12  13
HETATM   13  S   UNL     1      -9.730  11.155  65.964  1.00  0.00    -0.237 SA 
BRANCH  13  14
HETATM   14  C   UNL     1     -10.145   9.402  66.256  1.00  0.00    -0.258 C  
BRANCH  14  15
HETATM   15  C   UNL     1      -9.636   8.948  67.581  1.00  0.00    -0.148 A  
HETATM   16  C   UNL     1      -8.370   8.478  67.865  1.00  0.00    -0.126 A  
HETATM   17  S   UNL     1      -8.247   8.084  69.527  1.00  0.00    -0.123 SA 
HETATM   18  C   UNL     1      -9.889   8.543  69.748  1.00  0.00    -0.186 A  
HETATM   19  N   UNL     1     -10.513   8.945  68.659  1.00  0.00    -0.212 NA 
BRANCH  18  20
HETATM   20  C   UNL     1     -10.542   8.440  71.106  1.00  0.00    -0.215 C  
BRANCH  20  21
HETATM   21  N   UNL     1     -12.021   8.370  71.066  1.00  0.00    -0.268 NA 
HETATM   22  C   UNL     1     -12.514   7.125  71.665  1.00  0.00    -0.370 C  
HETATM   23  C   UNL     1     -12.584   9.516  71.785  1.00  0.00    -0.405 C  
ENDBRANCH  20  21
ENDBRANCH  18  20
ENDBRANCH  14  15
ENDBRANCH  13  14
ENDBRANCH  12  13
ENDBRANCH  11  12
ENDBRANCH   9  11
ENDBRANCH   4   9
ENDBRANCH   2   4
TORSDOF 9
ENDMDL
MODEL      309
REMARK 921   NORMALIZED FREE ENERGY PREDICTED BY IDOCK:   -2.78 KCAL/MOL
REMARK 922        TOTAL FREE ENERGY PREDICTED BY IDOCK:   -5.30 KCAL/MOL
REMARK 923 INTER-LIGAND FREE ENERGY PREDICTED BY IDOCK:   -5.26 KCAL/MOL
REMARK 924 INTRA-LIGAND FREE ENERGY PREDICTED BY IDOCK:   -0.05 KCAL/MOL
REMARK 927      BINDING AFFINITY PREDICTED BY RF-SCORE:    0.00 PKD
ROOT
HETATM    1  C   UNL     1      -8.933  16.979  67.548  1.00  0.00    -0.219 C  
HETATM    2  N   UNL     1      -9.685  15.781  67.847  1.00  0.00    -0.215 NA 
HETATM    3  H   UNL     1      -9.327  14.923  67.428  1.00  0.00     0.000 HD 
ENDROOT
BRANCH   2   4
HETATM    4  C   UNL     1     -10.823  15.633  68.623  1.00  0.00    -0.273 C  
HETATM    5  C   UNL     1     -10.812  16.085  69.894  1.00  0.00    -0.351 C  
HETATM    6  O   UNL     1     -13.004  15.496  70.401  1.00  0.00    -0.383 OA 
HETATM    7  N   UNL     1     -11.937  15.991  70.791  1.00  0.00    -0.363 N  
HETATM    8  O   UNL     1     -11.747  16.434  71.932  1.00  0.00    -0.493 OA 
BRANCH   4   9
HETATM    9  N   UNL     1     -11.920  15.007  68.057  1.00  0.00    -0.521 NA 
HETATM   10  H   UNL     1     -12.683  15.633  67.797  1.00  0.00     0.000 HD 
BRANCH   9  11
HETATM   11  C   UNL     1     -12.159  13.607  67.773  1.00  0.00    -0.290 C  
BRANCH  11  12
HETATM   12  C   UNL     1     -11.294  13.140  66.599  1.00  0.00    -0.325 C  
BRANCH  12  13
HETATM   13  S   UNL     1      -9.972  11.989  67.110  1.00  0.00    -0.196 SA 
BRANCH  13  14
HETATM   14  C   UNL     1     -10.990  10.610  67.735  1.00  0.00    -0.306 C  
BRANCH  14  15
HETATM   15  C   UNL     1     -10.133   9.518  68.277  1.00  0.00    -0.183 A  
HETATM   16  C   UNL     1      -9.740   9.346  69.589  1.00  0.00    -0.190 A  
HETATM   17  S   UNL     1      -8.768   7.944  69.734  1.00  0.00    -0.138 SA 
HETATM   18  C   UNL     1      -8.917   7.675  68.042  1.00  0.00    -0.126 A  
HETATM   19  N   UNL     1      -9.625   8.577  67.389  1.00  0.00    -0.153 NA 
BRANCH  18  20
HETATM   20  C   UNL     1      -8.239   6.498  67.385  1.00  0.00    -0.121 C  
BRANCH  20  21
HETATM   21  N   UNL     1      -9.038   5.251  67.396  1.00  0.00    -0.112 NA 
HETATM   22  C   UNL     1     -10.444   5.519  67.717  1.00  0.00    -0.180 C  
HETATM   23  C   UNL     1      -8.950   4.604  66.084  1.00  0.00    -0.121 C  
ENDBRANCH  20  21
ENDBRANCH  18  20
ENDBRANCH  14  15
ENDBRANCH  13  14
ENDBRANCH  12  13
ENDBRANCH  11  12
ENDBRANCH   9  11
ENDBRANCH   4   9
ENDBRANCH   2   4
TORSDOF 9
ENDMDL
MODEL      310
REMARK 921   NORMALIZED FREE ENERGY PREDICTED BY IDOCK:   -2.78 KCAL/MOL
REMARK 922        TOTAL FREE ENERGY PREDICTED BY IDOCK:   -5.30 KCAL/MOL
REMARK 923 INTER-LIGAND FREE ENERGY PREDICTED BY IDOCK:   -4.39 KCAL/MOL
REMARK 924 INTRA-LIGAND FREE ENERGY PREDICTED BY IDOCK:   -0.91 KCAL/MOL
REMARK 927      BINDING AFFINITY PREDICTED BY RF-SCORE:    0.00 PKD
ROOT
HETATM    1  C   UNL     1     -11.082  11.734  67.178  1.00  0.00    -0.296 C  
HETATM    2  N   UNL     1     -11.761  10.805  68.053  1.00  0.00    -0.729 NA 
HETATM    3  H   UNL     1     -12.759  10.975  68.182  1.00  0.00     0.000 HD 
ENDROOT
BRANCH   2   4
HETATM    4  C   UNL     1     -11.250   9.718  68.742  1.00  0.00    -0.020 C  
HETATM    5  C   UNL     1     -10.966   9.849  70.055  1.00  0.00    -0.291 C  
HETATM    6  O   UNL     1     -10.241   7.665  70.386  1.00  0.00    -0.199 OA 
HETATM    7  N   UNL     1     -10.437   8.787  70.873  1.00  0.00    -0.208 N  
HETATM    8  O   UNL     1     -10.211   9.087  72.053  1.00  0.00    -0.339 OA 
BRANCH   4   9
HETATM    9  N   UNL     1     -11.036   8.545  68.040  1.00  0.00    -0.471 NA 
HETATM   10  H   UNL     1     -11.516   7.728  68.416  1.00  0.00     0.000 HD 
BRANCH   9  11
HETATM   11  C   UNL     1     -10.240   8.291  66.857  1.00  0.00    -0.318 C  
BRANCH  11  12
HETATM   12  C   UNL     1      -9.710   6.855  66.862  1.00  0.00    -0.171 C  
BRANCH  12  13
HETATM   13  S   UNL     1      -7.887   6.773  66.940  1.00  0.00    -0.109 SA 
BRANCH  13  14
HETATM   14  C   UNL     1      -7.690   5.226  67.887  1.00  0.00    -0.088 C  
BRANCH  14  15
HETATM   15  C   UNL     1      -7.593   5.505  69.348  1.00  0.00    -0.078 A  
HETATM   16  C   UNL     1      -6.806   6.460  69.959  1.00  0.00    -0.054 A  
HETATM   17  S   UNL     1      -7.036   6.415  71.655  1.00  0.00    -0.074 SA 
HETATM   18  C   UNL     1      -8.146   5.116  71.462  1.00  0.00    -0.115 A  
HETATM   19  N   UNL     1      -8.330   4.712  70.220  1.00  0.00    -0.074 NA 
BRANCH  18  20
HETATM   20  C   UNL     1      -8.814   4.487  72.661  1.00  0.00    -0.113 C  
BRANCH  20  21
HETATM   21  N   UNL     1     -10.285   4.657  72.698  1.00  0.00    -0.178 NA 
HETATM   22  C   UNL     1     -10.936   3.534  73.382  1.00  0.00    -0.210 C  
HETATM   23  C   UNL     1     -10.615   5.907  73.387  1.00  0.00    -0.258 C  
ENDBRANCH  20  21
ENDBRANCH  18  20
ENDBRANCH  14  15
ENDBRANCH  13  14
ENDBRANCH  12  13
ENDBRANCH  11  12
ENDBRANCH   9  11
ENDBRANCH   4   9
ENDBRANCH   2   4
TORSDOF 9
ENDMDL
MODEL      311
REMARK 921   NORMALIZED FREE ENERGY PREDICTED BY IDOCK:   -2.77 KCAL/MOL
REMARK 922        TOTAL FREE ENERGY PREDICTED BY IDOCK:   -5.29 KCAL/MOL
REMARK 923 INTER-LIGAND FREE ENERGY PREDICTED BY IDOCK:   -4.96 KCAL/MOL
REMARK 924 INTRA-LIGAND FREE ENERGY PREDICTED BY IDOCK:   -0.33 KCAL/MOL
REMARK 927      BINDING AFFINITY PREDICTED BY RF-SCORE:    0.00 PKD
ROOT
HETATM    1  C   UNL     1      -8.426   7.822  65.595  1.00  0.00    -0.141 C  
HETATM    2  N   UNL     1      -8.397   9.112  66.247  1.00  0.00    -0.117 NA 
HETATM    3  H   UNL     1      -7.660   9.744  65.935  1.00  0.00     0.000 HD 
ENDROOT
BRANCH   2   4
HETATM    4  C   UNL     1      -9.229   9.612  67.235  1.00  0.00    -0.134 C  
HETATM    5  C   UNL     1      -8.984   9.289  68.523  1.00  0.00    -0.129 C  
HETATM    6  O   UNL     1     -10.732  10.517  69.439  1.00  0.00    -0.211 OA 
HETATM    7  N   UNL     1      -9.776   9.753  69.634  1.00  0.00    -0.209 N  
HETATM    8  O   UNL     1      -9.426   9.340  70.747  1.00  0.00    -0.247 OA 
BRANCH   4   9
HETATM    9  N   UNL     1     -10.291  10.412  66.850  1.00  0.00    -0.231 NA 
HETATM   10  H   UNL     1     -10.991  10.569  67.574  1.00  0.00     0.000 HD 
BRANCH   9  11
HETATM   11  C   UNL     1     -10.566  11.060  65.585  1.00  0.00    -0.197 C  
BRANCH  11  12
HETATM   12  C   UNL     1     -11.657  12.123  65.750  1.00  0.00    -0.355 C  
BRANCH  12  13
HETATM   13  S   UNL     1     -11.209  13.413  66.962  1.00  0.00    -0.317 SA 
BRANCH  13  14
HETATM   14  C   UNL     1      -9.575  13.894  66.309  1.00  0.00    -0.256 C  
BRANCH  14  15
HETATM   15  C   UNL     1      -8.954  14.953  67.154  1.00  0.00    -0.214 A  
HETATM   16  C   UNL     1      -7.684  14.942  67.694  1.00  0.00    -0.179 A  
HETATM   17  S   UNL     1      -7.411  16.379  68.584  1.00  0.00    -0.199 SA 
HETATM   18  C   UNL     1      -9.005  16.905  68.209  1.00  0.00    -0.235 A  
HETATM   19  N   UNL     1      -9.719  16.064  67.486  1.00  0.00    -0.227 NA 
BRANCH  18  20
HETATM   20  C   UNL     1      -9.523  18.226  68.724  1.00  0.00    -0.281 C  
BRANCH  20  21
HETATM   21  N   UNL     1      -9.397  19.346  67.762  1.00  0.00    -0.309 NA 
HETATM   22  C   UNL     1      -8.321  19.102  66.796  1.00  0.00    -0.293 C  
HETATM   23  C   UNL     1     -10.665  19.521  67.049  1.00  0.00    -0.477 C  
ENDBRANCH  20  21
ENDBRANCH  18  20
ENDBRANCH  14  15
ENDBRANCH  13  14
ENDBRANCH  12  13
ENDBRANCH  11  12
ENDBRANCH   9  11
ENDBRANCH   4   9
ENDBRANCH   2   4
TORSDOF 9
ENDMDL
MODEL      312
REMARK 921   NORMALIZED FREE ENERGY PREDICTED BY IDOCK:   -2.76 KCAL/MOL
REMARK 922        TOTAL FREE ENERGY PREDICTED BY IDOCK:   -5.28 KCAL/MOL
REMARK 923 INTER-LIGAND FREE ENERGY PREDICTED BY IDOCK:   -4.91 KCAL/MOL
REMARK 924 INTRA-LIGAND FREE ENERGY PREDICTED BY IDOCK:   -0.37 KCAL/MOL
REMARK 927      BINDING AFFINITY PREDICTED BY RF-SCORE:    0.00 PKD
ROOT
HETATM    1  C   UNL     1      -9.867   8.750  66.325  1.00  0.00    -0.272 C  
HETATM    2  N   UNL     1      -9.017   9.005  67.467  1.00  0.00    -0.123 NA 
HETATM    3  H   UNL     1      -8.552   9.912  67.471  1.00  0.00     0.000 HD 
ENDROOT
BRANCH   2   4
HETATM    4  C   UNL     1      -8.746   8.192  68.554  1.00  0.00    -0.134 C  
HETATM    5  C   UNL     1      -7.750   7.286  68.462  1.00  0.00    -0.120 C  
HETATM    6  O   UNL     1      -7.959   6.446  70.620  1.00  0.00    -0.108 OA 
HETATM    7  N   UNL     1      -7.374   6.392  69.529  1.00  0.00    -0.085 N  
HETATM    8  O   UNL     1      -6.454   5.607  69.266  1.00  0.00    -0.041 OA 
BRANCH   4   9
HETATM    9  N   UNL     1      -9.528   8.338  69.687  1.00  0.00    -0.162 NA 
HETATM   10  H   UNL     1     -10.283   7.657  69.776  1.00  0.00     0.000 HD 
BRANCH   9  11
HETATM   11  C   UNL     1      -9.446   9.300  70.766  1.00  0.00    -0.271 C  
BRANCH  11  12
HETATM   12  C   UNL     1     -10.842   9.798  71.151  1.00  0.00    -0.263 C  
BRANCH  12  13
HETATM   13  S   UNL     1     -11.768  10.475  69.730  1.00  0.00    -0.271 SA 
BRANCH  13  14
HETATM   14  C   UNL     1     -12.199  12.117  70.399  1.00  0.00    -0.294 C  
BRANCH  14  15
HETATM   15  C   UNL     1     -11.759  13.201  69.477  1.00  0.00    -0.319 A  
HETATM   16  C   UNL     1     -11.761  13.167  68.097  1.00  0.00    -0.355 A  
HETATM   17  S   UNL     1     -11.175  14.648  67.470  1.00  0.00    -0.347 SA 
HETATM   18  C   UNL     1     -10.938  15.223  69.073  1.00  0.00    -0.254 A  
HETATM   19  N   UNL     1     -11.249  14.370  70.029  1.00  0.00    -0.193 NA 
BRANCH  18  20
HETATM   20  C   UNL     1     -10.375  16.602  69.323  1.00  0.00    -0.318 C  
BRANCH  20  21
HETATM   21  N   UNL     1      -9.726  17.218  68.143  1.00  0.00    -0.273 NA 
HETATM   22  C   UNL     1     -10.501  18.356  67.638  1.00  0.00    -0.419 C  
HETATM   23  C   UNL     1      -8.379  17.665  68.505  1.00  0.00    -0.291 C  
ENDBRANCH  20  21
ENDBRANCH  18  20
ENDBRANCH  14  15
ENDBRANCH  13  14
ENDBRANCH  12  13
ENDBRANCH  11  12
ENDBRANCH   9  11
ENDBRANCH   4   9
ENDBRANCH   2   4
TORSDOF 9
ENDMDL
MODEL      313
REMARK 921   NORMALIZED FREE ENERGY PREDICTED BY IDOCK:   -2.76 KCAL/MOL
REMARK 922        TOTAL FREE ENERGY PREDICTED BY IDOCK:   -5.28 KCAL/MOL
REMARK 923 INTER-LIGAND FREE ENERGY PREDICTED BY IDOCK:   -4.60 KCAL/MOL
REMARK 924 INTRA-LIGAND FREE ENERGY PREDICTED BY IDOCK:   -0.68 KCAL/MOL
REMARK 927      BINDING AFFINITY PREDICTED BY RF-SCORE:    0.00 PKD
ROOT
HETATM    1  C   UNL     1     -11.647  14.734  68.877  1.00  0.00    -0.313 C  
HETATM    2  N   UNL     1     -10.931  14.224  67.728  1.00  0.00    -0.259 NA 
HETATM    3  H   UNL     1     -11.293  14.519  66.821  1.00  0.00     0.000 HD 
ENDROOT
BRANCH   2   4
HETATM    4  C   UNL     1      -9.824  13.394  67.686  1.00  0.00    -0.226 C  
HETATM    5  C   UNL     1      -8.607  13.935  67.469  1.00  0.00    -0.193 C  
HETATM    6  O   UNL     1      -7.410  11.946  67.589  1.00  0.00    -0.105 OA 
HETATM    7  N   UNL     1      -7.386  13.171  67.409  1.00  0.00    -0.141 N  
HETATM    8  O   UNL     1      -6.360  13.825  67.177  1.00  0.00    -0.205 OA 
BRANCH   4   9
HETATM    9  N   UNL     1     -10.024  12.034  67.851  1.00  0.00    -0.192 NA 
HETATM   10  H   UNL     1     -10.040  11.496  66.985  1.00  0.00     0.000 HD 
BRANCH   9  11
HETATM   11  C   UNL     1     -10.213  11.253  69.056  1.00  0.00    -0.150 C  
BRANCH  11  12
HETATM   12  C   UNL     1     -11.683  10.851  69.212  1.00  0.00    -0.324 C  
BRANCH  12  13
HETATM   13  S   UNL     1     -12.387  11.355  70.819  1.00  0.00    -0.347 SA 
BRANCH  13  14
HETATM   14  C   UNL     1     -12.791   9.714  71.506  1.00  0.00    -0.392 C  
BRANCH  14  15
HETATM   15  C   UNL     1     -11.674   8.753  71.282  1.00  0.00    -0.298 A  
HETATM   16  C   UNL     1     -11.760   7.502  70.706  1.00  0.00    -0.256 A  
HETATM   17  S   UNL     1     -10.213   6.770  70.651  1.00  0.00    -0.197 SA 
HETATM   18  C   UNL     1      -9.540   8.155  71.417  1.00  0.00    -0.165 A  
HETATM   19  N   UNL     1     -10.403   9.105  71.722  1.00  0.00    -0.331 NA 
BRANCH  18  20
HETATM   20  C   UNL     1      -8.065   8.222  71.733  1.00  0.00    -0.141 C  
BRANCH  20  21
HETATM   21  N   UNL     1      -7.323   9.245  70.960  1.00  0.00    -0.244 NA 
HETATM   22  C   UNL     1      -5.954   9.407  71.463  1.00  0.00    -0.054 C  
HETATM   23  C   UNL     1      -7.283   8.856  69.548  1.00  0.00    -0.063 C  
ENDBRANCH  20  21
ENDBRANCH  18  20
ENDBRANCH  14  15
ENDBRANCH  13  14
ENDBRANCH  12  13
ENDBRANCH  11  12
ENDBRANCH   9  11
ENDBRANCH   4   9
ENDBRANCH   2   4
TORSDOF 9
ENDMDL
MODEL      314
REMARK 921   NORMALIZED FREE ENERGY PREDICTED BY IDOCK:   -2.75 KCAL/MOL
REMARK 922        TOTAL FREE ENERGY PREDICTED BY IDOCK:   -5.26 KCAL/MOL
REMARK 923 INTER-LIGAND FREE ENERGY PREDICTED BY IDOCK:   -5.11 KCAL/MOL
REMARK 924 INTRA-LIGAND FREE ENERGY PREDICTED BY IDOCK:   -0.15 KCAL/MOL
REMARK 927      BINDING AFFINITY PREDICTED BY RF-SCORE:    0.00 PKD
ROOT
HETATM    1  C   UNL     1      -9.743  10.496  65.017  1.00  0.00    -0.292 C  
HETATM    2  N   UNL     1     -10.303  10.137  66.301  1.00  0.00    -0.207 NA 
HETATM    3  H   UNL     1     -11.031  10.761  66.651  1.00  0.00     0.000 HD 
ENDROOT
BRANCH   2   4
HETATM    4  C   UNL     1      -9.992   9.067  67.122  1.00  0.00    -0.224 C  
HETATM    5  C   UNL     1     -10.515   7.854  66.844  1.00  0.00    -0.318 C  
HETATM    6  O   UNL     1      -9.496   6.720  68.599  1.00  0.00    -0.134 OA 
HETATM    7  N   UNL     1     -10.257   6.669  67.624  1.00  0.00    -0.159 N  
HETATM    8  O   UNL     1     -10.838   5.644  67.241  1.00  0.00    -0.250 OA 
BRANCH   4   9
HETATM    9  N   UNL     1      -9.167   9.299  68.209  1.00  0.00    -0.132 NA 
HETATM   10  H   UNL     1      -8.337   8.708  68.249  1.00  0.00     0.000 HD 
BRANCH   9  11
HETATM   11  C   UNL     1      -9.294  10.244  69.299  1.00  0.00    -0.207 C  
BRANCH  11  12
HETATM   12  C   UNL     1     -10.320   9.751  70.324  1.00  0.00    -0.291 C  
BRANCH  12  13
HETATM   13  S   UNL     1     -11.936  10.586  70.165  1.00  0.00    -0.316 SA 
BRANCH  13  14
HETATM   14  C   UNL     1     -12.925   9.560  71.304  1.00  0.00    -0.328 C  
BRANCH  14  15
HETATM   15  C   UNL     1     -12.218   8.288  71.625  1.00  0.00    -0.313 A  
HETATM   16  C   UNL     1     -12.181   7.144  70.854  1.00  0.00    -0.312 A  
HETATM   17  S   UNL     1     -11.236   5.942  71.626  1.00  0.00    -0.194 SA 
HETATM   18  C   UNL     1     -10.961   7.017  72.940  1.00  0.00    -0.302 A  
HETATM   19  N   UNL     1     -11.548   8.193  72.838  1.00  0.00    -0.308 NA 
BRANCH  18  20
HETATM   20  C   UNL     1     -10.130   6.588  74.126  1.00  0.00    -0.351 C  
BRANCH  20  21
HETATM   21  N   UNL     1      -8.669   6.740  73.932  1.00  0.00    -0.139 NA 
HETATM   22  C   UNL     1      -8.125   5.665  73.095  1.00  0.00    -0.118 C  
HETATM   23  C   UNL     1      -8.392   8.036  73.305  1.00  0.00    -0.211 C  
ENDBRANCH  20  21
ENDBRANCH  18  20
ENDBRANCH  14  15
ENDBRANCH  13  14
ENDBRANCH  12  13
ENDBRANCH  11  12
ENDBRANCH   9  11
ENDBRANCH   4   9
ENDBRANCH   2   4
TORSDOF 9
ENDMDL
MODEL      315
REMARK 921   NORMALIZED FREE ENERGY PREDICTED BY IDOCK:   -2.74 KCAL/MOL
REMARK 922        TOTAL FREE ENERGY PREDICTED BY IDOCK:   -5.25 KCAL/MOL
REMARK 923 INTER-LIGAND FREE ENERGY PREDICTED BY IDOCK:   -4.76 KCAL/MOL
REMARK 924 INTRA-LIGAND FREE ENERGY PREDICTED BY IDOCK:   -0.48 KCAL/MOL
REMARK 927      BINDING AFFINITY PREDICTED BY RF-SCORE:    0.00 PKD
ROOT
HETATM    1  C   UNL     1      -9.411   7.717  73.187  1.00  0.00    -0.255 C  
HETATM    2  N   UNL     1      -8.894   8.411  72.028  1.00  0.00    -0.192 NA 
HETATM    3  H   UNL     1      -8.036   8.939  72.181  1.00  0.00     0.000 HD 
ENDROOT
BRANCH   2   4
HETATM    4  C   UNL     1      -9.400   8.458  70.740  1.00  0.00    -0.163 C  
HETATM    5  C   UNL     1     -10.169   7.440  70.299  1.00  0.00    -0.200 C  
HETATM    6  O   UNL     1     -10.585   8.318  68.187  1.00  0.00    -0.191 OA 
HETATM    7  N   UNL     1     -10.753   7.384  68.983  1.00  0.00    -0.187 N  
HETATM    8  O   UNL     1     -11.411   6.364  68.736  1.00  0.00    -0.327 OA 
BRANCH   4   9
HETATM    9  N   UNL     1      -9.075   9.550  69.953  1.00  0.00    -0.200 NA 
HETATM   10  H   UNL     1      -9.875  10.074  69.597  1.00  0.00     0.000 HD 
BRANCH   9  11
HETATM   11  C   UNL     1      -7.783  10.067  69.553  1.00  0.00    -0.146 C  
BRANCH  11  12
HETATM   12  C   UNL     1      -7.912  11.509  69.052  1.00  0.00     0.015 C  
BRANCH  12  13
HETATM   13  S   UNL     1      -9.547  11.861  68.321  1.00  0.00    -0.193 SA 
BRANCH  13  14
HETATM   14  C   UNL     1      -9.160  13.409  67.435  1.00  0.00    -0.216 C  
BRANCH  14  15
HETATM   15  C   UNL     1     -10.001  14.533  67.935  1.00  0.00    -0.226 A  
HETATM   16  C   UNL     1     -10.951  14.476  68.935  1.00  0.00    -0.256 A  
HETATM   17  S   UNL     1     -11.654  16.020  69.168  1.00  0.00    -0.294 SA 
HETATM   18  C   UNL     1     -10.665  16.651  67.910  1.00  0.00    -0.344 A  
HETATM   19  N   UNL     1      -9.871  15.775  67.326  1.00  0.00    -0.228 NA 
BRANCH  18  20
HETATM   20  C   UNL     1     -10.759  18.104  67.510  1.00  0.00    -0.345 C  
BRANCH  20  21
HETATM   21  N   UNL     1      -9.516  18.878  67.733  1.00  0.00    -0.297 NA 
HETATM   22  C   UNL     1      -9.633  20.241  67.204  1.00  0.00    -0.443 C  
HETATM   23  C   UNL     1      -9.226  18.933  69.168  1.00  0.00    -0.077 C  
ENDBRANCH  20  21
ENDBRANCH  18  20
ENDBRANCH  14  15
ENDBRANCH  13  14
ENDBRANCH  12  13
ENDBRANCH  11  12
ENDBRANCH   9  11
ENDBRANCH   4   9
ENDBRANCH   2   4
TORSDOF 9
ENDMDL
MODEL      316
REMARK 921   NORMALIZED FREE ENERGY PREDICTED BY IDOCK:   -2.74 KCAL/MOL
REMARK 922        TOTAL FREE ENERGY PREDICTED BY IDOCK:   -5.24 KCAL/MOL
REMARK 923 INTER-LIGAND FREE ENERGY PREDICTED BY IDOCK:   -4.77 KCAL/MOL
REMARK 924 INTRA-LIGAND FREE ENERGY PREDICTED BY IDOCK:   -0.47 KCAL/MOL
REMARK 927      BINDING AFFINITY PREDICTED BY RF-SCORE:    0.00 PKD
ROOT
HETATM    1  C   UNL     1      -8.086   9.654  63.327  1.00  0.00    -0.149 C  
HETATM    2  N   UNL     1      -9.449   9.633  63.808  1.00  0.00    -0.445 NA 
HETATM    3  H   UNL     1     -10.136   9.246  63.161  1.00  0.00     0.000 HD 
ENDROOT
BRANCH   2   4
HETATM    4  C   UNL     1      -9.955  10.063  65.023  1.00  0.00    -0.250 C  
HETATM    5  C   UNL     1     -10.827  11.094  65.042  1.00  0.00    -0.173 C  
HETATM    6  O   UNL     1     -11.163  11.112  67.343  1.00  0.00    -0.289 OA 
HETATM    7  N   UNL     1     -11.421  11.623  66.244  1.00  0.00    -0.237 N  
HETATM    8  O   UNL     1     -12.181  12.587  66.082  1.00  0.00    -0.609 OA 
BRANCH   4   9
HETATM    9  N   UNL     1      -9.525   9.422  66.172  1.00  0.00    -0.205 NA 
HETATM   10  H   UNL     1      -9.265  10.044  66.937  1.00  0.00     0.000 HD 
BRANCH   9  11
HETATM   11  C   UNL     1      -9.385   8.010  66.461  1.00  0.00    -0.205 C  
BRANCH  11  12
HETATM   12  C   UNL     1      -9.629   7.738  67.949  1.00  0.00    -0.146 C  
BRANCH  12  13
HETATM   13  S   UNL     1     -10.746   6.322  68.234  1.00  0.00    -0.312 SA 
BRANCH  13  14
HETATM   14  C   UNL     1     -11.659   6.940  69.689  1.00  0.00    -0.095 C  
BRANCH  14  15
HETATM   15  C   UNL     1     -11.319   6.150  70.906  1.00  0.00    -0.287 A  
HETATM   16  C   UNL     1     -11.829   6.325  72.176  1.00  0.00    -0.315 A  
HETATM   17  S   UNL     1     -11.150   5.175  73.248  1.00  0.00    -0.318 SA 
HETATM   18  C   UNL     1     -10.210   4.539  71.956  1.00  0.00    -0.181 A  
HETATM   19  N   UNL     1     -10.362   5.149  70.796  1.00  0.00    -0.241 NA 
BRANCH  18  20
HETATM   20  C   UNL     1      -9.261   3.387  72.186  1.00  0.00    -0.111 C  
BRANCH  20  21
HETATM   21  N   UNL     1      -8.093   3.721  73.033  1.00  0.00    -0.082 NA 
HETATM   22  C   UNL     1      -7.258   2.541  73.282  1.00  0.00    -0.036 C  
HETATM   23  C   UNL     1      -7.293   4.757  72.374  1.00  0.00    -0.083 C  
ENDBRANCH  20  21
ENDBRANCH  18  20
ENDBRANCH  14  15
ENDBRANCH  13  14
ENDBRANCH  12  13
ENDBRANCH  11  12
ENDBRANCH   9  11
ENDBRANCH   4   9
ENDBRANCH   2   4
TORSDOF 9
ENDMDL
MODEL      317
REMARK 921   NORMALIZED FREE ENERGY PREDICTED BY IDOCK:   -2.70 KCAL/MOL
REMARK 922        TOTAL FREE ENERGY PREDICTED BY IDOCK:   -5.19 KCAL/MOL
REMARK 923 INTER-LIGAND FREE ENERGY PREDICTED BY IDOCK:   -5.59 KCAL/MOL
REMARK 924 INTRA-LIGAND FREE ENERGY PREDICTED BY IDOCK:    0.40 KCAL/MOL
REMARK 927      BINDING AFFINITY PREDICTED BY RF-SCORE:    0.00 PKD
ROOT
HETATM    1  C   UNL     1      -8.153  13.164  67.742  1.00  0.00    -0.165 C  
HETATM    2  N   UNL     1      -8.754  11.888  67.423  1.00  0.00    -0.159 NA 
HETATM    3  H   UNL     1      -8.652  11.166  68.136  1.00  0.00     0.000 HD 
ENDROOT
BRANCH   2   4
HETATM    4  C   UNL     1      -9.449  11.508  66.287  1.00  0.00    -0.217 C  
HETATM    5  C   UNL     1      -9.992  12.462  65.501  1.00  0.00    -0.243 C  
HETATM    6  O   UNL     1     -10.875  11.019  63.907  1.00  0.00    -0.356 OA 
HETATM    7  N   UNL     1     -10.731  12.186  64.294  1.00  0.00    -0.310 N  
HETATM    8  O   UNL     1     -11.181  13.179  63.708  1.00  0.00    -0.379 OA 
BRANCH   4   9
HETATM    9  N   UNL     1      -9.569  10.156  66.019  1.00  0.00    -0.195 NA 
HETATM   10  H   UNL     1      -9.741   9.927  65.040  1.00  0.00     0.000 HD 
BRANCH   9  11
HETATM   11  C   UNL     1      -9.489   9.013  66.905  1.00  0.00    -0.167 C  
BRANCH  11  12
HETATM   12  C   UNL     1      -9.022   7.770  66.141  1.00  0.00    -0.163 C  
BRANCH  12  13
HETATM   13  S   UNL     1      -9.293   6.224  67.072  1.00  0.00    -0.130 SA 
BRANCH  13  14
HETATM   14  C   UNL     1     -10.892   6.615  67.858  1.00  0.00    -0.277 C  
BRANCH  14  15
HETATM   15  C   UNL     1     -10.807   6.473  69.339  1.00  0.00    -0.308 A  
HETATM   16  C   UNL     1     -10.440   5.345  70.044  1.00  0.00    -0.303 A  
HETATM   17  S   UNL     1     -10.479   5.661  71.726  1.00  0.00    -0.234 SA 
HETATM   18  C   UNL     1     -11.002   7.268  71.403  1.00  0.00    -0.232 A  
HETATM   19  N   UNL     1     -11.165   7.561  70.127  1.00  0.00    -0.236 NA 
BRANCH  18  20
HETATM   20  C   UNL     1     -11.279   8.231  72.532  1.00  0.00    -0.376 C  
BRANCH  20  21
HETATM   21  N   UNL     1     -12.263   9.288  72.202  1.00  0.00    -0.341 NA 
HETATM   22  C   UNL     1     -11.889  10.003  70.977  1.00  0.00    -0.386 C  
HETATM   23  C   UNL     1     -13.588   8.687  72.033  1.00  0.00    -0.412 C  
ENDBRANCH  20  21
ENDBRANCH  18  20
ENDBRANCH  14  15
ENDBRANCH  13  14
ENDBRANCH  12  13
ENDBRANCH  11  12
ENDBRANCH   9  11
ENDBRANCH   4   9
ENDBRANCH   2   4
TORSDOF 9
ENDMDL
MODEL      318
REMARK 921   NORMALIZED FREE ENERGY PREDICTED BY IDOCK:   -2.70 KCAL/MOL
REMARK 922        TOTAL FREE ENERGY PREDICTED BY IDOCK:   -5.19 KCAL/MOL
REMARK 923 INTER-LIGAND FREE ENERGY PREDICTED BY IDOCK:   -4.48 KCAL/MOL
REMARK 924 INTRA-LIGAND FREE ENERGY PREDICTED BY IDOCK:   -0.71 KCAL/MOL
REMARK 927      BINDING AFFINITY PREDICTED BY RF-SCORE:    0.00 PKD
ROOT
HETATM    1  C   UNL     1      -6.504   7.469  62.805  1.00  0.00    -0.066 C  
HETATM    2  N   UNL     1      -6.532   7.551  64.248  1.00  0.00    -0.048 NA 
HETATM    3  H   UNL     1      -6.333   6.681  64.740  1.00  0.00     0.000 HD 
ENDROOT
BRANCH   2   4
HETATM    4  C   UNL     1      -6.791   8.646  65.056  1.00  0.00    -0.072 C  
HETATM    5  C   UNL     1      -5.894   9.653  65.103  1.00  0.00    -0.072 C  
HETATM    6  O   UNL     1      -7.083  10.997  66.580  1.00  0.00    -0.125 OA 
HETATM    7  N   UNL     1      -6.058  10.841  65.902  1.00  0.00    -0.134 N  
HETATM    8  O   UNL     1      -5.126  11.654  65.845  1.00  0.00    -0.324 OA 
BRANCH   4   9
HETATM    9  N   UNL     1      -7.960   8.645  65.798  1.00  0.00    -0.102 NA 
HETATM   10  H   UNL     1      -7.836   8.446  66.791  1.00  0.00     0.000 HD 
BRANCH   9  11
HETATM   11  C   UNL     1      -9.329   8.882  65.391  1.00  0.00    -0.088 C  
BRANCH  11  12
HETATM   12  C   UNL     1      -9.379   9.844  64.201  1.00  0.00    -0.237 C  
BRANCH  12  13
HETATM   13  S   UNL     1     -10.392  11.326  64.531  1.00  0.00    -0.344 SA 
BRANCH  13  14
HETATM   14  C   UNL     1     -10.633  11.138  66.330  1.00  0.00    -0.253 C  
BRANCH  14  15
HETATM   15  C   UNL     1     -10.964  12.446  66.962  1.00  0.00    -0.260 A  
HETATM   16  C   UNL     1     -11.649  12.645  68.144  1.00  0.00    -0.338 A  
HETATM   17  S   UNL     1     -11.781  14.320  68.474  1.00  0.00    -0.346 SA 
HETATM   18  C   UNL     1     -10.939  14.665  67.014  1.00  0.00    -0.317 A  
HETATM   19  N   UNL     1     -10.594  13.611  66.301  1.00  0.00    -0.286 NA 
BRANCH  18  20
HETATM   20  C   UNL     1     -10.668  16.091  66.598  1.00  0.00    -0.247 C  
BRANCH  20  21
HETATM   21  N   UNL     1      -9.819  16.851  67.546  1.00  0.00    -0.254 NA 
HETATM   22  C   UNL     1      -8.408  16.814  67.148  1.00  0.00    -0.183 C  
HETATM   23  C   UNL     1     -10.275  18.242  67.601  1.00  0.00    -0.382 C  
ENDBRANCH  20  21
ENDBRANCH  18  20
ENDBRANCH  14  15
ENDBRANCH  13  14
ENDBRANCH  12  13
ENDBRANCH  11  12
ENDBRANCH   9  11
ENDBRANCH   4   9
ENDBRANCH   2   4
TORSDOF 9
ENDMDL
MODEL      319
REMARK 921   NORMALIZED FREE ENERGY PREDICTED BY IDOCK:   -2.69 KCAL/MOL
REMARK 922        TOTAL FREE ENERGY PREDICTED BY IDOCK:   -5.18 KCAL/MOL
REMARK 923 INTER-LIGAND FREE ENERGY PREDICTED BY IDOCK:   -4.68 KCAL/MOL
REMARK 924 INTRA-LIGAND FREE ENERGY PREDICTED BY IDOCK:   -0.49 KCAL/MOL
REMARK 927      BINDING AFFINITY PREDICTED BY RF-SCORE:    0.00 PKD
ROOT
HETATM    1  C   UNL     1      -7.856   5.820  68.594  1.00  0.00    -0.097 C  
HETATM    2  N   UNL     1      -9.140   5.197  68.825  1.00  0.00    -0.110 NA 
HETATM    3  H   UNL     1      -9.818   5.298  68.070  1.00  0.00     0.000 HD 
ENDROOT
BRANCH   2   4
HETATM    4  C   UNL     1      -9.580   4.481  69.926  1.00  0.00    -0.199 C  
HETATM    5  C   UNL     1      -8.929   3.352  70.276  1.00  0.00    -0.108 C  
HETATM    6  O   UNL     1     -10.236   2.860  72.135  1.00  0.00    -0.158 OA 
HETATM    7  N   UNL     1      -9.292   2.530  71.403  1.00  0.00    -0.119 N  
HETATM    8  O   UNL     1      -8.602   1.515  71.566  1.00  0.00    -0.050 OA 
BRANCH   4   9
HETATM    9  N   UNL     1     -10.686   4.953  70.610  1.00  0.00     0.004 NA 
HETATM   10  H   UNL     1     -11.292   4.229  70.996  1.00  0.00     0.000 HD 
BRANCH   9  11
HETATM   11  C   UNL     1     -11.123   6.310  70.865  1.00  0.00    -0.306 C  
BRANCH  11  12
HETATM   12  C   UNL     1     -11.066   6.621  72.364  1.00  0.00    -0.259 C  
BRANCH  12  13
HETATM   13  S   UNL     1     -10.910   8.407  72.711  1.00  0.00     0.043 SA 
BRANCH  13  14
HETATM   14  C   UNL     1     -12.477   8.998  71.986  1.00  0.00    -0.390 C  
BRANCH  14  15
HETATM   15  C   UNL     1     -12.274  10.274  71.245  1.00  0.00    -0.395 A  
HETATM   16  C   UNL     1     -11.379  10.504  70.219  1.00  0.00    -0.327 A  
HETATM   17  S   UNL     1     -11.512  12.121  69.672  1.00  0.00    -0.191 SA 
HETATM   18  C   UNL     1     -12.730  12.410  70.850  1.00  0.00    -0.185 A  
HETATM   19  N   UNL     1     -13.018  11.384  71.627  1.00  0.00    -0.453 NA 
BRANCH  18  20
HETATM   20  C   UNL     1     -13.374  13.770  70.976  1.00  0.00    -0.086 C  
BRANCH  20  21
HETATM   21  N   UNL     1     -12.941  14.541  72.165  1.00  0.00    -0.328 NA 
HETATM   22  C   UNL     1     -11.633  15.167  71.950  1.00  0.00    -0.413 C  
HETATM   23  C   UNL     1     -13.935  15.574  72.465  1.00  0.00    -0.555 C  
ENDBRANCH  20  21
ENDBRANCH  18  20
ENDBRANCH  14  15
ENDBRANCH  13  14
ENDBRANCH  12  13
ENDBRANCH  11  12
ENDBRANCH   9  11
ENDBRANCH   4   9
ENDBRANCH   2   4
TORSDOF 9
ENDMDL
MODEL      320
REMARK 921   NORMALIZED FREE ENERGY PREDICTED BY IDOCK:   -2.68 KCAL/MOL
REMARK 922        TOTAL FREE ENERGY PREDICTED BY IDOCK:   -5.15 KCAL/MOL
REMARK 923 INTER-LIGAND FREE ENERGY PREDICTED BY IDOCK:   -3.99 KCAL/MOL
REMARK 924 INTRA-LIGAND FREE ENERGY PREDICTED BY IDOCK:   -1.16 KCAL/MOL
REMARK 927      BINDING AFFINITY PREDICTED BY RF-SCORE:    0.00 PKD
ROOT
HETATM    1  C   UNL     1      -9.117  11.560  67.234  1.00  0.00    -0.164 C  
HETATM    2  N   UNL     1      -9.832  10.465  67.851  1.00  0.00    -0.152 NA 
HETATM    3  H   UNL     1     -10.706  10.203  67.396  1.00  0.00     0.000 HD 
ENDROOT
BRANCH   2   4
HETATM    4  C   UNL     1      -9.498   9.723  68.971  1.00  0.00    -0.173 C  
HETATM    5  C   UNL     1      -8.578   8.742  68.856  1.00  0.00    -0.136 C  
HETATM    6  O   UNL     1      -8.607   8.092  71.088  1.00  0.00    -0.122 OA 
HETATM    7  N   UNL     1      -8.148   7.910  69.952  1.00  0.00    -0.116 N  
HETATM    8  O   UNL     1      -7.313   7.042  69.665  1.00  0.00    -0.081 OA 
BRANCH   4   9
HETATM    9  N   UNL     1     -10.142  10.013  70.160  1.00  0.00    -0.361 NA 
HETATM   10  H   UNL     1      -9.534  10.357  70.903  1.00  0.00     0.000 HD 
BRANCH   9  11
HETATM   11  C   UNL     1     -11.541   9.908  70.520  1.00  0.00    -0.309 C  
BRANCH  11  12
HETATM   12  C   UNL     1     -11.697   9.236  71.887  1.00  0.00    -0.350 C  
BRANCH  12  13
HETATM   13  S   UNL     1     -12.658   7.685  71.808  1.00  0.00    -0.324 SA 
BRANCH  13  14
HETATM   14  C   UNL     1     -12.031   7.016  70.231  1.00  0.00    -0.147 C  
BRANCH  14  15
HETATM   15  C   UNL     1     -11.081   5.893  70.469  1.00  0.00    -0.277 A  
HETATM   16  C   UNL     1     -10.710   5.366  71.689  1.00  0.00    -0.198 A  
HETATM   17  S   UNL     1      -9.603   4.080  71.464  1.00  0.00    -0.176 SA 
HETATM   18  C   UNL     1      -9.675   4.327  69.764  1.00  0.00    -0.220 A  
HETATM   19  N   UNL     1     -10.453   5.317  69.371  1.00  0.00    -0.250 NA 
BRANCH  18  20
HETATM   20  C   UNL     1      -8.859   3.472  68.824  1.00  0.00    -0.111 C  
BRANCH  20  21
HETATM   21  N   UNL     1      -8.740   4.017  67.452  1.00  0.00    -0.101 NA 
HETATM   22  C   UNL     1      -7.365   4.438  67.161  1.00  0.00    -0.073 C  
HETATM   23  C   UNL     1      -9.156   2.999  66.485  1.00  0.00    -0.150 C  
ENDBRANCH  20  21
ENDBRANCH  18  20
ENDBRANCH  14  15
ENDBRANCH  13  14
ENDBRANCH  12  13
ENDBRANCH  11  12
ENDBRANCH   9  11
ENDBRANCH   4   9
ENDBRANCH   2   4
TORSDOF 9
ENDMDL
MODEL      321
REMARK 921   NORMALIZED FREE ENERGY PREDICTED BY IDOCK:   -2.68 KCAL/MOL
REMARK 922        TOTAL FREE ENERGY PREDICTED BY IDOCK:   -5.15 KCAL/MOL
REMARK 923 INTER-LIGAND FREE ENERGY PREDICTED BY IDOCK:   -4.66 KCAL/MOL
REMARK 924 INTRA-LIGAND FREE ENERGY PREDICTED BY IDOCK:   -0.49 KCAL/MOL
REMARK 927      BINDING AFFINITY PREDICTED BY RF-SCORE:    0.00 PKD
ROOT
HETATM    1  C   UNL     1     -11.613  14.974  64.812  1.00  0.00    -0.395 C  
HETATM    2  N   UNL     1     -10.604  16.010  64.824  1.00  0.00    -0.733 NA 
HETATM    3  H   UNL     1     -10.149  16.187  63.929  1.00  0.00     0.000 HD 
ENDROOT
BRANCH   2   4
HETATM    4  C   UNL     1     -10.169  16.794  65.879  1.00  0.00    -0.328 C  
HETATM    5  C   UNL     1     -10.655  18.047  66.007  1.00  0.00    -0.251 C  
HETATM    6  O   UNL     1      -9.487  18.585  67.944  1.00  0.00    -0.284 OA 
HETATM    7  N   UNL     1     -10.280  18.951  67.066  1.00  0.00    -0.354 N  
HETATM    8  O   UNL     1     -10.803  20.072  67.018  1.00  0.00    -0.352 OA 
BRANCH   4   9
HETATM    9  N   UNL     1      -9.236  16.257  66.748  1.00  0.00    -0.217 NA 
HETATM   10  H   UNL     1      -9.103  16.784  67.612  1.00  0.00     0.000 HD 
BRANCH   9  11
HETATM   11  C   UNL     1      -8.418  15.068  66.629  1.00  0.00    -0.157 C  
BRANCH  11  12
HETATM   12  C   UNL     1      -7.352  15.036  67.729  1.00  0.00    -0.166 C  
BRANCH  12  13
HETATM   13  S   UNL     1      -6.263  13.574  67.616  1.00  0.00    -0.073 SA 
BRANCH  13  14
HETATM   14  C   UNL     1      -6.908  12.602  69.018  1.00  0.00    -0.083 C  
BRANCH  14  15
HETATM   15  C   UNL     1      -7.588  11.365  68.540  1.00  0.00    -0.129 A  
HETATM   16  C   UNL     1      -8.206  11.178  67.320  1.00  0.00    -0.136 A  
HETATM   17  S   UNL     1      -8.839   9.590  67.217  1.00  0.00    -0.128 SA 
HETATM   18  C   UNL     1      -8.270   9.270  68.808  1.00  0.00    -0.112 A  
HETATM   19  N   UNL     1      -7.664  10.278  69.403  1.00  0.00    -0.131 NA 
BRANCH  18  20
HETATM   20  C   UNL     1      -8.503   7.925  69.455  1.00  0.00    -0.133 C  
BRANCH  20  21
HETATM   21  N   UNL     1      -9.232   7.987  70.743  1.00  0.00    -0.155 NA 
HETATM   22  C   UNL     1     -10.619   7.534  70.594  1.00  0.00    -0.224 C  
HETATM   23  C   UNL     1      -8.547   7.151  71.732  1.00  0.00    -0.117 C  
ENDBRANCH  20  21
ENDBRANCH  18  20
ENDBRANCH  14  15
ENDBRANCH  13  14
ENDBRANCH  12  13
ENDBRANCH  11  12
ENDBRANCH   9  11
ENDBRANCH   4   9
ENDBRANCH   2   4
TORSDOF 9
ENDMDL
MODEL      322
REMARK 921   NORMALIZED FREE ENERGY PREDICTED BY IDOCK:   -2.66 KCAL/MOL
REMARK 922        TOTAL FREE ENERGY PREDICTED BY IDOCK:   -5.13 KCAL/MOL
REMARK 923 INTER-LIGAND FREE ENERGY PREDICTED BY IDOCK:   -4.73 KCAL/MOL
REMARK 924 INTRA-LIGAND FREE ENERGY PREDICTED BY IDOCK:   -0.40 KCAL/MOL
REMARK 927      BINDING AFFINITY PREDICTED BY RF-SCORE:    0.00 PKD
ROOT
HETATM    1  C   UNL     1      -8.900  17.385  67.180  1.00  0.00    -0.232 C  
HETATM    2  N   UNL     1      -8.791  16.134  66.464  1.00  0.00    -0.265 NA 
HETATM    3  H   UNL     1      -7.856  15.727  66.434  1.00  0.00     0.000 HD 
ENDROOT
BRANCH   2   4
HETATM    4  C   UNL     1      -9.775  15.410  65.813  1.00  0.00    -0.350 C  
HETATM    5  C   UNL     1     -10.693  16.069  65.074  1.00  0.00    -0.378 C  
HETATM    6  O   UNL     1     -11.856  14.187  64.359  1.00  0.00    -0.415 OA 
HETATM    7  N   UNL     1     -11.758  15.422  64.350  1.00  0.00    -0.338 N  
HETATM    8  O   UNL     1     -12.526  16.181  63.743  1.00  0.00    -0.769 OA 
BRANCH   4   9
HETATM    9  N   UNL     1      -9.781  14.035  65.966  1.00  0.00    -0.422 NA 
HETATM   10  H   UNL     1      -9.824  13.507  65.094  1.00  0.00     0.000 HD 
BRANCH   9  11
HETATM   11  C   UNL     1      -9.736  13.224  67.166  1.00  0.00    -0.236 C  
BRANCH  11  12
HETATM   12  C   UNL     1      -8.622  12.177  67.067  1.00  0.00    -0.191 C  
BRANCH  12  13
HETATM   13  S   UNL     1      -9.264  10.473  66.927  1.00  0.00    -0.156 SA 
BRANCH  13  14
HETATM   14  C   UNL     1      -8.534   9.746  68.433  1.00  0.00    -0.114 C  
BRANCH  14  15
HETATM   15  C   UNL     1      -8.409   8.267  68.303  1.00  0.00    -0.132 A  
HETATM   16  C   UNL     1      -9.021   7.312  69.089  1.00  0.00    -0.135 A  
HETATM   17  S   UNL     1      -8.587   5.744  68.557  1.00  0.00    -0.108 SA 
HETATM   18  C   UNL     1      -7.598   6.442  67.335  1.00  0.00    -0.100 A  
HETATM   19  N   UNL     1      -7.563   7.760  67.324  1.00  0.00    -0.102 NA 
BRANCH  18  20
HETATM   20  C   UNL     1      -6.812   5.569  66.387  1.00  0.00    -0.059 C  
BRANCH  20  21
HETATM   21  N   UNL     1      -7.199   5.713  64.964  1.00  0.00    -0.064 NA 
HETATM   22  C   UNL     1      -6.331   4.917  64.090  1.00  0.00    -0.026 C  
HETATM   23  C   UNL     1      -8.590   5.288  64.792  1.00  0.00    -0.136 C  
ENDBRANCH  20  21
ENDBRANCH  18  20
ENDBRANCH  14  15
ENDBRANCH  13  14
ENDBRANCH  12  13
ENDBRANCH  11  12
ENDBRANCH   9  11
ENDBRANCH   4   9
ENDBRANCH   2   4
TORSDOF 9
ENDMDL
MODEL      323
REMARK 921   NORMALIZED FREE ENERGY PREDICTED BY IDOCK:   -2.65 KCAL/MOL
REMARK 922        TOTAL FREE ENERGY PREDICTED BY IDOCK:   -5.12 KCAL/MOL
REMARK 923 INTER-LIGAND FREE ENERGY PREDICTED BY IDOCK:   -4.35 KCAL/MOL
REMARK 924 INTRA-LIGAND FREE ENERGY PREDICTED BY IDOCK:   -0.77 KCAL/MOL
REMARK 927      BINDING AFFINITY PREDICTED BY RF-SCORE:    0.00 PKD
ROOT
HETATM    1  C   UNL     1      -8.712   5.195  66.990  1.00  0.00    -0.103 C  
HETATM    2  N   UNL     1      -9.861   5.743  67.676  1.00  0.00    -0.119 NA 
HETATM    3  H   UNL     1     -10.650   5.990  67.080  1.00  0.00     0.000 HD 
ENDROOT
BRANCH   2   4
HETATM    4  C   UNL     1     -10.041   5.980  69.029  1.00  0.00    -0.176 C  
HETATM    5  C   UNL     1     -11.274   6.289  69.481  1.00  0.00    -0.430 C  
HETATM    6  O   UNL     1     -10.694   6.470  71.725  1.00  0.00    -0.219 OA 
HETATM    7  N   UNL     1     -11.582   6.550  70.865  1.00  0.00    -0.346 N  
HETATM    8  O   UNL     1     -12.761   6.843  71.102  1.00  0.00    -0.369 OA 
BRANCH   4   9
HETATM    9  N   UNL     1      -8.934   5.905  69.856  1.00  0.00    -0.138 NA 
HETATM   10  H   UNL     1      -8.910   5.087  70.465  1.00  0.00     0.000 HD 
BRANCH   9  11
HETATM   11  C   UNL     1      -7.804   6.800  69.996  1.00  0.00    -0.111 C  
BRANCH  11  12
HETATM   12  C   UNL     1      -8.182   8.217  69.552  1.00  0.00    -0.121 C  
BRANCH  12  13
HETATM   13  S   UNL     1      -7.089   8.862  68.240  1.00  0.00    -0.078 SA 
BRANCH  13  14
HETATM   14  C   UNL     1      -8.308   9.061  66.896  1.00  0.00    -0.119 C  
BRANCH  14  15
HETATM   15  C   UNL     1      -9.407   9.980  67.307  1.00  0.00    -0.148 A  
HETATM   16  C   UNL     1     -10.752   9.682  67.380  1.00  0.00    -0.241 A  
HETATM   17  S   UNL     1     -11.632  11.052  67.910  1.00  0.00    -0.130 SA 
HETATM   18  C   UNL     1     -10.168  11.952  67.984  1.00  0.00    -0.192 A  
HETATM   19  N   UNL     1      -9.085  11.296  67.618  1.00  0.00    -0.147 NA 
BRANCH  18  20
HETATM   20  C   UNL     1     -10.174  13.401  68.409  1.00  0.00    -0.251 C  
BRANCH  20  21
HETATM   21  N   UNL     1     -11.527  13.977  68.591  1.00  0.00    -0.281 NA 
HETATM   22  C   UNL     1     -11.925  13.974  70.003  1.00  0.00    -0.339 C  
HETATM   23  C   UNL     1     -11.546  15.350  68.080  1.00  0.00    -0.292 C  
ENDBRANCH  20  21
ENDBRANCH  18  20
ENDBRANCH  14  15
ENDBRANCH  13  14
ENDBRANCH  12  13
ENDBRANCH  11  12
ENDBRANCH   9  11
ENDBRANCH   4   9
ENDBRANCH   2   4
TORSDOF 9
ENDMDL
MODEL      324
REMARK 921   NORMALIZED FREE ENERGY PREDICTED BY IDOCK:   -2.65 KCAL/MOL
REMARK 922        TOTAL FREE ENERGY PREDICTED BY IDOCK:   -5.11 KCAL/MOL
REMARK 923 INTER-LIGAND FREE ENERGY PREDICTED BY IDOCK:   -4.38 KCAL/MOL
REMARK 924 INTRA-LIGAND FREE ENERGY PREDICTED BY IDOCK:   -0.74 KCAL/MOL
REMARK 927      BINDING AFFINITY PREDICTED BY RF-SCORE:    0.00 PKD
ROOT
HETATM    1  C   UNL     1     -10.643   3.797  74.196  1.00  0.00    -0.211 C  
HETATM    2  N   UNL     1     -10.578   5.123  73.624  1.00  0.00    -0.251 NA 
HETATM    3  H   UNL     1     -10.134   5.830  74.208  1.00  0.00     0.000 HD 
ENDROOT
BRANCH   2   4
HETATM    4  C   UNL     1     -11.034   5.568  72.394  1.00  0.00    -0.255 C  
HETATM    5  C   UNL     1     -11.999   6.510  72.355  1.00  0.00    -0.160 C  
HETATM    6  O   UNL     1     -12.112   6.675  70.038  1.00  0.00    -0.280 OA 
HETATM    7  N   UNL     1     -12.546   7.051  71.136  1.00  0.00    -0.376 N  
HETATM    8  O   UNL     1     -13.444   7.891  71.282  1.00  0.00    -0.260 OA 
BRANCH   4   9
HETATM    9  N   UNL     1     -10.484   5.007  71.254  1.00  0.00    -0.183 NA 
HETATM   10  H   UNL     1     -11.155   4.551  70.636  1.00  0.00     0.000 HD 
BRANCH   9  11
HETATM   11  C   UNL     1      -9.110   4.963  70.799  1.00  0.00    -0.137 C  
BRANCH  11  12
HETATM   12  C   UNL     1      -9.029   5.267  69.300  1.00  0.00    -0.103 C  
BRANCH  12  13
HETATM   13  S   UNL     1      -7.622   6.348  68.872  1.00  0.00    -0.102 SA 
BRANCH  13  14
HETATM   14  C   UNL     1      -8.033   6.712  67.131  1.00  0.00    -0.109 C  
BRANCH  14  15
HETATM   15  C   UNL     1      -8.724   8.026  67.011  1.00  0.00    -0.128 A  
HETATM   16  C   UNL     1      -9.138   8.641  65.846  1.00  0.00    -0.205 A  
HETATM   17  S   UNL     1      -9.894  10.135  66.205  1.00  0.00    -0.243 SA 
HETATM   18  C   UNL     1      -9.599   9.872  67.879  1.00  0.00    -0.138 A  
HETATM   19  N   UNL     1      -8.958   8.757  68.169  1.00  0.00    -0.141 NA 
BRANCH  18  20
HETATM   20  C   UNL     1     -10.029  10.891  68.907  1.00  0.00    -0.196 C  
BRANCH  20  21
HETATM   21  N   UNL     1     -11.421  11.369  68.746  1.00  0.00    -0.260 NA 
HETATM   22  C   UNL     1     -12.265  10.949  69.870  1.00  0.00    -0.336 C  
HETATM   23  C   UNL     1     -11.427  12.831  68.650  1.00  0.00    -0.303 C  
ENDBRANCH  20  21
ENDBRANCH  18  20
ENDBRANCH  14  15
ENDBRANCH  13  14
ENDBRANCH  12  13
ENDBRANCH  11  12
ENDBRANCH   9  11
ENDBRANCH   4   9
ENDBRANCH   2   4
TORSDOF 9
ENDMDL
MODEL      325
REMARK 921   NORMALIZED FREE ENERGY PREDICTED BY IDOCK:   -2.65 KCAL/MOL
REMARK 922        TOTAL FREE ENERGY PREDICTED BY IDOCK:   -5.11 KCAL/MOL
REMARK 923 INTER-LIGAND FREE ENERGY PREDICTED BY IDOCK:   -4.55 KCAL/MOL
REMARK 924 INTRA-LIGAND FREE ENERGY PREDICTED BY IDOCK:   -0.56 KCAL/MOL
REMARK 927      BINDING AFFINITY PREDICTED BY RF-SCORE:    0.00 PKD
ROOT
HETATM    1  C   UNL     1     -11.238   6.039  73.137  1.00  0.00    -0.140 C  
HETATM    2  N   UNL     1     -12.024   6.578  72.049  1.00  0.00    -0.351 NA 
HETATM    3  H   UNL     1     -12.827   6.014  71.769  1.00  0.00     0.000 HD 
ENDROOT
BRANCH   2   4
HETATM    4  C   UNL     1     -11.842   7.750  71.335  1.00  0.00    -0.297 C  
HETATM    5  C   UNL     1     -12.504   8.861  71.720  1.00  0.00    -0.362 C  
HETATM    6  O   UNL     1     -11.626  10.268  70.090  1.00  0.00    -0.262 OA 
HETATM    7  N   UNL     1     -12.389  10.137  71.058  1.00  0.00    -0.342 N  
HETATM    8  O   UNL     1     -13.086  11.045  71.528  1.00  0.00    -0.418 OA 
BRANCH   4   9
HETATM    9  N   UNL     1     -10.995   7.720  70.240  1.00  0.00    -0.250 NA 
HETATM   10  H   UNL     1     -10.376   8.527  70.157  1.00  0.00     0.000 HD 
BRANCH   9  11
HETATM   11  C   UNL     1     -10.847   6.729  69.195  1.00  0.00    -0.258 C  
BRANCH  11  12
HETATM   12  C   UNL     1     -10.858   7.395  67.816  1.00  0.00    -0.116 C  
BRANCH  12  13
HETATM   13  S   UNL     1      -9.187   7.839  67.231  1.00  0.00    -0.143 SA 
BRANCH  13  14
HETATM   14  C   UNL     1      -9.559   9.429  66.417  1.00  0.00    -0.224 C  
BRANCH  14  15
HETATM   15  C   UNL     1      -8.465  10.414  66.647  1.00  0.00    -0.126 A  
HETATM   16  C   UNL     1      -7.138  10.275  66.296  1.00  0.00    -0.117 A  
HETATM   17  S   UNL     1      -6.257  11.670  66.754  1.00  0.00    -0.077 SA 
HETATM   18  C   UNL     1      -7.695  12.353  67.405  1.00  0.00    -0.170 A  
HETATM   19  N   UNL     1      -8.769  11.593  67.317  1.00  0.00    -0.154 NA 
BRANCH  18  20
HETATM   20  C   UNL     1      -7.676  13.715  68.057  1.00  0.00    -0.143 C  
BRANCH  20  21
HETATM   21  N   UNL     1      -7.637  14.846  67.101  1.00  0.00    -0.174 NA 
HETATM   22  C   UNL     1      -8.974  15.156  66.583  1.00  0.00    -0.287 C  
HETATM   23  C   UNL     1      -7.085  16.029  67.768  1.00  0.00    -0.143 C  
ENDBRANCH  20  21
ENDBRANCH  18  20
ENDBRANCH  14  15
ENDBRANCH  13  14
ENDBRANCH  12  13
ENDBRANCH  11  12
ENDBRANCH   9  11
ENDBRANCH   4   9
ENDBRANCH   2   4
TORSDOF 9
ENDMDL
MODEL      326
REMARK 921   NORMALIZED FREE ENERGY PREDICTED BY IDOCK:   -2.63 KCAL/MOL
REMARK 922        TOTAL FREE ENERGY PREDICTED BY IDOCK:   -5.08 KCAL/MOL
REMARK 923 INTER-LIGAND FREE ENERGY PREDICTED BY IDOCK:   -4.86 KCAL/MOL
REMARK 924 INTRA-LIGAND FREE ENERGY PREDICTED BY IDOCK:   -0.22 KCAL/MOL
REMARK 927      BINDING AFFINITY PREDICTED BY RF-SCORE:    0.00 PKD
ROOT
HETATM    1  C   UNL     1     -11.242  14.659  64.584  1.00  0.00    -0.346 C  
HETATM    2  N   UNL     1     -11.633  14.754  65.973  1.00  0.00    -0.326 NA 
HETATM    3  H   UNL     1     -12.513  14.297  66.212  1.00  0.00     0.000 HD 
ENDROOT
BRANCH   2   4
HETATM    4  C   UNL     1     -10.982  15.377  67.025  1.00  0.00    -0.306 C  
HETATM    5  C   UNL     1     -10.094  16.357  66.757  1.00  0.00    -0.285 C  
HETATM    6  O   UNL     1      -9.551  16.831  68.967  1.00  0.00    -0.259 OA 
HETATM    7  N   UNL     1      -9.362  17.078  67.768  1.00  0.00    -0.234 N  
HETATM    8  O   UNL     1      -8.569  17.930  67.345  1.00  0.00    -0.235 OA 
BRANCH   4   9
HETATM    9  N   UNL     1     -11.263  14.948  68.310  1.00  0.00    -0.280 NA 
HETATM   10  H   UNL     1     -10.648  15.325  69.031  1.00  0.00     0.000 HD 
BRANCH   9  11
HETATM   11  C   UNL     1     -12.291  14.051  68.797  1.00  0.00    -0.039 C  
BRANCH  11  12
HETATM   12  C   UNL     1     -11.672  12.740  69.290  1.00  0.00    -0.319 C  
BRANCH  12  13
HETATM   13  S   UNL     1     -11.456  11.512  67.956  1.00  0.00    -0.307 SA 
BRANCH  13  14
HETATM   14  C   UNL     1      -9.742  10.987  68.296  1.00  0.00    -0.177 C  
BRANCH  14  15
HETATM   15  C   UNL     1      -9.720   9.735  69.104  1.00  0.00    -0.184 A  
HETATM   16  C   UNL     1      -9.179   9.571  70.364  1.00  0.00    -0.253 A  
HETATM   17  S   UNL     1      -9.399   7.958  70.895  1.00  0.00    -0.153 SA 
HETATM   18  C   UNL     1     -10.177   7.584  69.407  1.00  0.00    -0.204 A  
HETATM   19  N   UNL     1     -10.256   8.580  68.547  1.00  0.00    -0.195 NA 
BRANCH  18  20
HETATM   20  C   UNL     1     -10.685   6.189  69.132  1.00  0.00    -0.316 C  
BRANCH  20  21
HETATM   21  N   UNL     1      -9.850   5.413  68.186  1.00  0.00    -0.138 NA 
HETATM   22  C   UNL     1     -10.098   5.815  66.798  1.00  0.00    -0.196 C  
HETATM   23  C   UNL     1      -8.434   5.612  68.508  1.00  0.00    -0.105 C  
ENDBRANCH  20  21
ENDBRANCH  18  20
ENDBRANCH  14  15
ENDBRANCH  13  14
ENDBRANCH  12  13
ENDBRANCH  11  12
ENDBRANCH   9  11
ENDBRANCH   4   9
ENDBRANCH   2   4
TORSDOF 9
ENDMDL
MODEL      327
REMARK 921   NORMALIZED FREE ENERGY PREDICTED BY IDOCK:   -2.61 KCAL/MOL
REMARK 922        TOTAL FREE ENERGY PREDICTED BY IDOCK:   -5.05 KCAL/MOL
REMARK 923 INTER-LIGAND FREE ENERGY PREDICTED BY IDOCK:   -4.10 KCAL/MOL
REMARK 924 INTRA-LIGAND FREE ENERGY PREDICTED BY IDOCK:   -0.94 KCAL/MOL
REMARK 927      BINDING AFFINITY PREDICTED BY RF-SCORE:    0.00 PKD
ROOT
HETATM    1  C   UNL     1     -10.466   7.826  67.725  1.00  0.00    -0.211 C  
HETATM    2  N   UNL     1     -10.974   8.109  69.050  1.00  0.00    -0.428 NA 
HETATM    3  H   UNL     1     -10.950   7.326  69.703  1.00  0.00     0.000 HD 
ENDROOT
BRANCH   2   4
HETATM    4  C   UNL     1     -11.488   9.291  69.555  1.00  0.00     0.216 C  
HETATM    5  C   UNL     1     -11.211  10.450  68.922  1.00  0.00    -0.235 C  
HETATM    6  O   UNL     1     -12.432  11.826  70.344  1.00  0.00    -0.270 OA 
HETATM    7  N   UNL     1     -11.694  11.738  69.352  1.00  0.00    -0.315 N  
HETATM    8  O   UNL     1     -11.323  12.701  68.668  1.00  0.00    -0.248 OA 
BRANCH   4   9
HETATM    9  N   UNL     1     -12.253   9.228  70.707  1.00  0.00    -0.470 NA 
HETATM   10  H   UNL     1     -12.636  10.122  71.015  1.00  0.00     0.000 HD 
BRANCH   9  11
HETATM   11  C   UNL     1     -12.597   8.098  71.545  1.00  0.00    -0.304 C  
BRANCH  11  12
HETATM   12  C   UNL     1     -11.528   7.878  72.619  1.00  0.00    -0.395 C  
BRANCH  12  13
HETATM   13  S   UNL     1     -10.750   6.230  72.517  1.00  0.00    -0.238 SA 
BRANCH  13  14
HETATM   14  C   UNL     1      -9.140   6.695  71.795  1.00  0.00    -0.144 C  
BRANCH  14  15
HETATM   15  C   UNL     1      -8.619   5.612  70.914  1.00  0.00    -0.129 A  
HETATM   16  C   UNL     1      -7.470   4.871  71.102  1.00  0.00    -0.073 A  
HETATM   17  S   UNL     1      -7.286   3.735  69.834  1.00  0.00    -0.042 SA 
HETATM   18  C   UNL     1      -8.732   4.323  69.111  1.00  0.00    -0.085 A  
HETATM   19  N   UNL     1      -9.316   5.318  69.748  1.00  0.00    -0.127 NA 
BRANCH  18  20
HETATM   20  C   UNL     1      -9.240   3.736  67.816  1.00  0.00    -0.173 C  
BRANCH  20  21
HETATM   21  N   UNL     1      -8.817   4.476  66.604  1.00  0.00    -0.111 NA 
HETATM   22  C   UNL     1      -7.684   3.820  65.944  1.00  0.00    -0.089 C  
HETATM   23  C   UNL     1      -9.943   4.566  65.670  1.00  0.00    -0.231 C  
ENDBRANCH  20  21
ENDBRANCH  18  20
ENDBRANCH  14  15
ENDBRANCH  13  14
ENDBRANCH  12  13
ENDBRANCH  11  12
ENDBRANCH   9  11
ENDBRANCH   4   9
ENDBRANCH   2   4
TORSDOF 9
ENDMDL
MODEL      328
REMARK 921   NORMALIZED FREE ENERGY PREDICTED BY IDOCK:   -2.59 KCAL/MOL
REMARK 922        TOTAL FREE ENERGY PREDICTED BY IDOCK:   -5.01 KCAL/MOL
REMARK 923 INTER-LIGAND FREE ENERGY PREDICTED BY IDOCK:   -4.56 KCAL/MOL
REMARK 924 INTRA-LIGAND FREE ENERGY PREDICTED BY IDOCK:   -0.45 KCAL/MOL
REMARK 927      BINDING AFFINITY PREDICTED BY RF-SCORE:    0.00 PKD
ROOT
HETATM    1  C   UNL     1     -11.790  14.197  68.718  1.00  0.00    -0.349 C  
HETATM    2  N   UNL     1     -11.336  14.524  67.385  1.00  0.00    -0.340 NA 
HETATM    3  H   UNL     1     -11.140  15.511  67.219  1.00  0.00     0.000 HD 
ENDROOT
BRANCH   2   4
HETATM    4  C   UNL     1     -11.128  13.686  66.302  1.00  0.00    -0.301 C  
HETATM    5  C   UNL     1     -12.016  13.697  65.285  1.00  0.00    -0.376 C  
HETATM    6  O   UNL     1     -10.929  12.119  63.969  1.00  0.00    -0.315 OA 
HETATM    7  N   UNL     1     -11.901  12.875  64.107  1.00  0.00    -0.384 N  
HETATM    8  O   UNL     1     -12.817  12.994  63.283  1.00  0.00    -0.596 OA 
BRANCH   4   9
HETATM    9  N   UNL     1     -10.020  12.857  66.322  1.00  0.00    -0.266 NA 
HETATM   10  H   UNL     1      -9.430  12.911  65.492  1.00  0.00     0.000 HD 
BRANCH   9  11
HETATM   11  C   UNL     1      -9.563  11.927  67.334  1.00  0.00    -0.174 C  
BRANCH  11  12
HETATM   12  C   UNL     1      -8.042  12.009  67.494  1.00  0.00    -0.159 C  
BRANCH  12  13
HETATM   13  S   UNL     1      -7.254  10.368  67.628  1.00  0.00    -0.087 SA 
BRANCH  13  14
HETATM   14  C   UNL     1      -8.704   9.305  67.316  1.00  0.00    -0.128 C  
BRANCH  14  15
HETATM   15  C   UNL     1      -8.887   8.318  68.417  1.00  0.00    -0.137 A  
HETATM   16  C   UNL     1      -9.621   8.492  69.573  1.00  0.00    -0.170 A  
HETATM   17  S   UNL     1      -9.548   7.078  70.536  1.00  0.00    -0.168 SA 
HETATM   18  C   UNL     1      -8.530   6.341  69.362  1.00  0.00    -0.125 A  
HETATM   19  N   UNL     1      -8.233   7.095  68.322  1.00  0.00    -0.123 NA 
BRANCH  18  20
HETATM   20  C   UNL     1      -8.004   4.941  69.566  1.00  0.00    -0.070 C  
BRANCH  20  21
HETATM   21  N   UNL     1      -8.369   3.991  68.490  1.00  0.00    -0.085 NA 
HETATM   22  C   UNL     1      -7.201   3.234  68.025  1.00  0.00    -0.050 C  
HETATM   23  C   UNL     1      -9.388   3.062  68.984  1.00  0.00    -0.156 C  
ENDBRANCH  20  21
ENDBRANCH  18  20
ENDBRANCH  14  15
ENDBRANCH  13  14
ENDBRANCH  12  13
ENDBRANCH  11  12
ENDBRANCH   9  11
ENDBRANCH   4   9
ENDBRANCH   2   4
TORSDOF 9
ENDMDL
MODEL      329
REMARK 921   NORMALIZED FREE ENERGY PREDICTED BY IDOCK:   -2.58 KCAL/MOL
REMARK 922        TOTAL FREE ENERGY PREDICTED BY IDOCK:   -5.00 KCAL/MOL
REMARK 923 INTER-LIGAND FREE ENERGY PREDICTED BY IDOCK:   -4.34 KCAL/MOL
REMARK 924 INTRA-LIGAND FREE ENERGY PREDICTED BY IDOCK:   -0.67 KCAL/MOL
REMARK 927      BINDING AFFINITY PREDICTED BY RF-SCORE:    0.00 PKD
ROOT
HETATM    1  C   UNL     1     -10.318  14.085  66.335  1.00  0.00    -0.289 C  
HETATM    2  N   UNL     1     -10.866  13.059  67.194  1.00  0.00    -0.257 NA 
HETATM    3  H   UNL     1     -11.883  12.979  67.186  1.00  0.00     0.000 HD 
ENDROOT
BRANCH   2   4
HETATM    4  C   UNL     1     -10.207  12.170  68.025  1.00  0.00    -0.201 C  
HETATM    5  C   UNL     1      -9.049  11.617  67.607  1.00  0.00    -0.174 C  
HETATM    6  O   UNL     1      -8.644  10.367  69.525  1.00  0.00    -0.159 OA 
HETATM    7  N   UNL     1      -8.273  10.685  68.387  1.00  0.00    -0.119 N  
HETATM    8  O   UNL     1      -7.249  10.256  67.839  1.00  0.00    -0.084 OA 
BRANCH   4   9
HETATM    9  N   UNL     1     -10.781  11.875  69.250  1.00  0.00    -0.438 NA 
HETATM   10  H   UNL     1     -10.235  12.169  70.060  1.00  0.00     0.000 HD 
BRANCH   9  11
HETATM   11  C   UNL     1     -12.031  11.215  69.566  1.00  0.00    -0.355 C  
BRANCH  11  12
HETATM   12  C   UNL     1     -11.939  10.507  70.920  1.00  0.00    -0.377 C  
BRANCH  12  13
HETATM   13  S   UNL     1     -11.564   8.727  70.764  1.00  0.00    -0.211 SA 
BRANCH  13  14
HETATM   14  C   UNL     1     -11.743   8.221  72.508  1.00  0.00    -0.383 C  
BRANCH  14  15
HETATM   15  C   UNL     1     -10.498   7.570  73.004  1.00  0.00    -0.342 A  
HETATM   16  C   UNL     1     -10.391   6.675  74.049  1.00  0.00    -0.351 A  
HETATM   17  S   UNL     1      -8.761   6.189  74.245  1.00  0.00    -0.130 SA 
HETATM   18  C   UNL     1      -8.307   7.218  72.943  1.00  0.00    -0.110 A  
HETATM   19  N   UNL     1      -9.293   7.906  72.400  1.00  0.00    -0.168 NA 
BRANCH  18  20
HETATM   20  C   UNL     1      -6.865   7.325  72.511  1.00  0.00    -0.067 C  
BRANCH  20  21
HETATM   21  N   UNL     1      -6.540   6.562  71.283  1.00  0.00    -0.050 NA 
HETATM   22  C   UNL     1      -6.798   7.354  70.076  1.00  0.00    -0.055 C  
HETATM   23  C   UNL     1      -5.130   6.164  71.315  1.00  0.00    -0.017 C  
ENDBRANCH  20  21
ENDBRANCH  18  20
ENDBRANCH  14  15
ENDBRANCH  13  14
ENDBRANCH  12  13
ENDBRANCH  11  12
ENDBRANCH   9  11
ENDBRANCH   4   9
ENDBRANCH   2   4
TORSDOF 9
ENDMDL
MODEL      330
REMARK 921   NORMALIZED FREE ENERGY PREDICTED BY IDOCK:   -2.58 KCAL/MOL
REMARK 922        TOTAL FREE ENERGY PREDICTED BY IDOCK:   -5.00 KCAL/MOL
REMARK 923 INTER-LIGAND FREE ENERGY PREDICTED BY IDOCK:   -4.25 KCAL/MOL
REMARK 924 INTRA-LIGAND FREE ENERGY PREDICTED BY IDOCK:   -0.75 KCAL/MOL
REMARK 927      BINDING AFFINITY PREDICTED BY RF-SCORE:    0.00 PKD
ROOT
HETATM    1  C   UNL     1      -7.039  10.257  69.211  1.00  0.00    -0.083 C  
HETATM    2  N   UNL     1      -6.990  10.838  67.888  1.00  0.00    -0.073 NA 
HETATM    3  H   UNL     1      -6.059  11.093  67.556  1.00  0.00     0.000 HD 
ENDROOT
BRANCH   2   4
HETATM    4  C   UNL     1      -8.026  11.097  67.006  1.00  0.00    -0.145 C  
HETATM    5  C   UNL     1      -7.988  10.552  65.772  1.00  0.00    -0.158 C  
HETATM    6  O   UNL     1     -10.013  11.426  65.036  1.00  0.00    -0.242 OA 
HETATM    7  N   UNL     1      -9.010  10.746  64.775  1.00  0.00    -0.193 N  
HETATM    8  O   UNL     1      -8.804  10.193  63.687  1.00  0.00    -0.185 OA 
BRANCH   4   9
HETATM    9  N   UNL     1      -9.051  11.923  67.432  1.00  0.00    -0.173 NA 
HETATM   10  H   UNL     1      -9.131  12.803  66.922  1.00  0.00     0.000 HD 
BRANCH   9  11
HETATM   11  C   UNL     1     -10.030  11.739  68.484  1.00  0.00    -0.199 C  
BRANCH  11  12
HETATM   12  C   UNL     1     -11.445  11.981  67.951  1.00  0.00    -0.330 C  
BRANCH  12  13
HETATM   13  S   UNL     1     -12.009  13.700  68.197  1.00  0.00    -0.298 SA 
BRANCH  13  14
HETATM   14  C   UNL     1     -11.573  14.402  66.570  1.00  0.00    -0.378 C  
BRANCH  14  15
HETATM   15  C   UNL     1     -10.484  15.411  66.699  1.00  0.00    -0.293 A  
HETATM   16  C   UNL     1     -10.179  16.419  65.807  1.00  0.00    -0.348 A  
HETATM   17  S   UNL     1      -8.853  17.335  66.385  1.00  0.00    -0.224 SA 
HETATM   18  C   UNL     1      -8.762  16.316  67.768  1.00  0.00    -0.179 A  
HETATM   19  N   UNL     1      -9.642  15.335  67.802  1.00  0.00    -0.206 NA 
BRANCH  18  20
HETATM   20  C   UNL     1      -7.709  16.542  68.825  1.00  0.00    -0.226 C  
BRANCH  20  21
HETATM   21  N   UNL     1      -6.444  15.808  68.592  1.00  0.00    -0.109 NA 
HETATM   22  C   UNL     1      -5.366  16.313  69.448  1.00  0.00    -0.117 C  
HETATM   23  C   UNL     1      -6.652  14.382  68.857  1.00  0.00    -0.094 C  
ENDBRANCH  20  21
ENDBRANCH  18  20
ENDBRANCH  14  15
ENDBRANCH  13  14
ENDBRANCH  12  13
ENDBRANCH  11  12
ENDBRANCH   9  11
ENDBRANCH   4   9
ENDBRANCH   2   4
TORSDOF 9
ENDMDL
MODEL      331
REMARK 921   NORMALIZED FREE ENERGY PREDICTED BY IDOCK:   -2.57 KCAL/MOL
REMARK 922        TOTAL FREE ENERGY PREDICTED BY IDOCK:   -4.99 KCAL/MOL
REMARK 923 INTER-LIGAND FREE ENERGY PREDICTED BY IDOCK:   -4.51 KCAL/MOL
REMARK 924 INTRA-LIGAND FREE ENERGY PREDICTED BY IDOCK:   -0.48 KCAL/MOL
REMARK 927      BINDING AFFINITY PREDICTED BY RF-SCORE:    0.00 PKD
ROOT
HETATM    1  C   UNL     1      -9.493   8.179  72.729  1.00  0.00    -0.279 C  
HETATM    2  N   UNL     1      -8.620   8.907  71.836  1.00  0.00    -0.371 NA 
HETATM    3  H   UNL     1      -7.734   9.209  72.241  1.00  0.00     0.000 HD 
ENDROOT
BRANCH   2   4
HETATM    4  C   UNL     1      -8.815   9.251  70.510  1.00  0.00    -0.241 C  
HETATM    5  C   UNL     1      -9.599   8.469  69.738  1.00  0.00    -0.170 C  
HETATM    6  O   UNL     1      -9.411   9.738  67.800  1.00  0.00    -0.133 OA 
HETATM    7  N   UNL     1      -9.878   8.731  68.348  1.00  0.00    -0.166 N  
HETATM    8  O   UNL     1     -10.598   7.896  67.784  1.00  0.00    -0.223 OA 
BRANCH   4   9
HETATM    9  N   UNL     1      -8.178  10.382  70.030  1.00  0.00    -0.335 NA 
HETATM   10  H   UNL     1      -8.802  11.107  69.674  1.00  0.00     0.000 HD 
BRANCH   9  11
HETATM   11  C   UNL     1      -6.768  10.703  69.952  1.00  0.00    -0.147 C  
BRANCH  11  12
HETATM   12  C   UNL     1      -6.569  12.185  69.622  1.00  0.00    -0.029 C  
BRANCH  12  13
HETATM   13  S   UNL     1      -6.446  12.501  67.828  1.00  0.00    -0.137 SA 
BRANCH  13  14
HETATM   14  C   UNL     1      -5.834  14.220  67.861  1.00  0.00    -0.123 C  
BRANCH  14  15
HETATM   15  C   UNL     1      -6.909  15.176  67.471  1.00  0.00    -0.174 A  
HETATM   16  C   UNL     1      -8.261  14.913  67.386  1.00  0.00    -0.197 A  
HETATM   17  S   UNL     1      -9.107  16.322  66.908  1.00  0.00    -0.236 SA 
HETATM   18  C   UNL     1      -7.617  17.178  66.825  1.00  0.00    -0.239 A  
HETATM   19  N   UNL     1      -6.544  16.467  67.110  1.00  0.00    -0.179 NA 
BRANCH  18  20
HETATM   20  C   UNL     1      -7.584  18.630  66.414  1.00  0.00    -0.259 C  
BRANCH  20  21
HETATM   21  N   UNL     1      -6.938  19.527  67.400  1.00  0.00    -0.210 NA 
HETATM   22  C   UNL     1      -6.885  20.909  66.911  1.00  0.00    -0.307 C  
HETATM   23  C   UNL     1      -7.683  19.482  68.661  1.00  0.00    -0.355 C  
ENDBRANCH  20  21
ENDBRANCH  18  20
ENDBRANCH  14  15
ENDBRANCH  13  14
ENDBRANCH  12  13
ENDBRANCH  11  12
ENDBRANCH   9  11
ENDBRANCH   4   9
ENDBRANCH   2   4
TORSDOF 9
ENDMDL
MODEL      332
REMARK 921   NORMALIZED FREE ENERGY PREDICTED BY IDOCK:   -2.56 KCAL/MOL
REMARK 922        TOTAL FREE ENERGY PREDICTED BY IDOCK:   -4.97 KCAL/MOL
REMARK 923 INTER-LIGAND FREE ENERGY PREDICTED BY IDOCK:   -4.28 KCAL/MOL
REMARK 924 INTRA-LIGAND FREE ENERGY PREDICTED BY IDOCK:   -0.70 KCAL/MOL
REMARK 927      BINDING AFFINITY PREDICTED BY RF-SCORE:    0.00 PKD
ROOT
HETATM    1  C   UNL     1     -11.237  10.658  68.241  1.00  0.00    -0.301 C  
HETATM    2  N   UNL     1     -11.573  10.096  69.530  1.00  0.00    -0.432 NA 
HETATM    3  H   UNL     1     -12.357  10.537  70.010  1.00  0.00     0.000 HD 
ENDROOT
BRANCH   2   4
HETATM    4  C   UNL     1     -10.980   9.043  70.206  1.00  0.00    -0.244 C  
HETATM    5  C   UNL     1     -10.220   9.305  71.290  1.00  0.00    -0.313 C  
HETATM    6  O   UNL     1      -9.694   7.094  71.784  1.00  0.00    -0.159 OA 
HETATM    7  N   UNL     1      -9.559   8.291  72.074  1.00  0.00    -0.221 N  
HETATM    8  O   UNL     1      -8.882   8.709  73.022  1.00  0.00    -0.355 OA 
BRANCH   4   9
HETATM    9  N   UNL     1     -11.182   7.762  69.722  1.00  0.00    -0.450 NA 
HETATM   10  H   UNL     1     -11.593   7.112  70.393  1.00  0.00     0.000 HD 
BRANCH   9  11
HETATM   11  C   UNL     1     -10.906   7.197  68.418  1.00  0.00    -0.097 C  
BRANCH  11  12
HETATM   12  C   UNL     1     -10.672   5.687  68.523  1.00  0.00    -0.162 C  
BRANCH  12  13
HETATM   13  S   UNL     1      -9.130   5.151  67.706  1.00  0.00    -0.114 SA 
BRANCH  13  14
HETATM   14  C   UNL     1      -8.095   6.624  68.008  1.00  0.00    -0.110 C  
BRANCH  14  15
HETATM   15  C   UNL     1      -7.637   7.226  66.724  1.00  0.00    -0.100 A  
HETATM   16  C   UNL     1      -6.758   6.672  65.816  1.00  0.00    -0.048 A  
HETATM   17  S   UNL     1      -6.542   7.728  64.485  1.00  0.00    -0.048 SA 
HETATM   18  C   UNL     1      -7.613   8.856  65.218  1.00  0.00    -0.098 A  
HETATM   19  N   UNL     1      -8.093   8.496  66.392  1.00  0.00    -0.101 NA 
BRANCH  18  20
HETATM   20  C   UNL     1      -7.924  10.173  64.547  1.00  0.00    -0.147 C  
BRANCH  20  21
HETATM   21  N   UNL     1      -9.369  10.421  64.334  1.00  0.00    -0.246 NA 
HETATM   22  C   UNL     1      -9.792  11.682  64.950  1.00  0.00    -0.235 C  
HETATM   23  C   UNL     1      -9.650  10.460  62.896  1.00  0.00    -0.295 C  
ENDBRANCH  20  21
ENDBRANCH  18  20
ENDBRANCH  14  15
ENDBRANCH  13  14
ENDBRANCH  12  13
ENDBRANCH  11  12
ENDBRANCH   9  11
ENDBRANCH   4   9
ENDBRANCH   2   4
TORSDOF 9
ENDMDL
MODEL      333
REMARK 921   NORMALIZED FREE ENERGY PREDICTED BY IDOCK:   -2.56 KCAL/MOL
REMARK 922        TOTAL FREE ENERGY PREDICTED BY IDOCK:   -4.97 KCAL/MOL
REMARK 923 INTER-LIGAND FREE ENERGY PREDICTED BY IDOCK:   -4.71 KCAL/MOL
REMARK 924 INTRA-LIGAND FREE ENERGY PREDICTED BY IDOCK:   -0.26 KCAL/MOL
REMARK 927      BINDING AFFINITY PREDICTED BY RF-SCORE:    0.00 PKD
ROOT
HETATM    1  C   UNL     1      -8.805   4.721  63.802  1.00  0.00    -0.106 C  
HETATM    2  N   UNL     1      -8.538   5.562  64.947  1.00  0.00    -0.228 NA 
HETATM    3  H   UNL     1      -7.866   6.314  64.791  1.00  0.00     0.000 HD 
ENDROOT
BRANCH   2   4
HETATM    4  C   UNL     1      -9.064   5.492  66.226  1.00  0.00    -0.146 C  
HETATM    5  C   UNL     1      -9.109   4.296  66.851  1.00  0.00    -0.135 C  
HETATM    6  O   UNL     1     -10.044   5.071  68.834  1.00  0.00    -0.178 OA 
HETATM    7  N   UNL     1      -9.629   4.103  68.182  1.00  0.00    -0.156 N  
HETATM    8  O   UNL     1      -9.616   2.935  68.593  1.00  0.00    -0.161 OA 
BRANCH   4   9
HETATM    9  N   UNL     1      -9.540   6.658  66.800  1.00  0.00    -0.162 NA 
HETATM   10  H   UNL     1     -10.549   6.682  66.945  1.00  0.00     0.000 HD 
BRANCH   9  11
HETATM   11  C   UNL     1      -8.836   7.849  67.227  1.00  0.00    -0.127 C  
BRANCH  11  12
HETATM   12  C   UNL     1      -9.809   9.019  67.396  1.00  0.00    -0.190 C  
BRANCH  12  13
HETATM   13  S   UNL     1      -9.945  10.050  65.895  1.00  0.00    -0.255 SA 
BRANCH  13  14
HETATM   14  C   UNL     1      -9.006  11.515  66.443  1.00  0.00    -0.197 C  
BRANCH  14  15
HETATM   15  C   UNL     1      -9.909  12.685  66.636  1.00  0.00    -0.244 A  
HETATM   16  C   UNL     1     -11.278  12.655  66.810  1.00  0.00    -0.300 A  
HETATM   17  S   UNL     1     -11.883  14.245  67.002  1.00  0.00    -0.427 SA 
HETATM   18  C   UNL     1     -10.288  14.864  66.818  1.00  0.00    -0.269 A  
HETATM   19  N   UNL     1      -9.354  13.958  66.603  1.00  0.00    -0.277 NA 
BRANCH  18  20
HETATM   20  C   UNL     1     -10.027  16.350  66.869  1.00  0.00    -0.271 C  
BRANCH  20  21
HETATM   21  N   UNL     1     -10.963  17.104  67.735  1.00  0.00    -0.264 NA 
HETATM   22  C   UNL     1     -10.728  16.817  69.154  1.00  0.00    -0.329 C  
HETATM   23  C   UNL     1     -10.803  18.540  67.493  1.00  0.00    -0.291 C  
ENDBRANCH  20  21
ENDBRANCH  18  20
ENDBRANCH  14  15
ENDBRANCH  13  14
ENDBRANCH  12  13
ENDBRANCH  11  12
ENDBRANCH   9  11
ENDBRANCH   4   9
ENDBRANCH   2   4
TORSDOF 9
ENDMDL
MODEL      334
REMARK 921   NORMALIZED FREE ENERGY PREDICTED BY IDOCK:   -2.55 KCAL/MOL
REMARK 922        TOTAL FREE ENERGY PREDICTED BY IDOCK:   -4.96 KCAL/MOL
REMARK 923 INTER-LIGAND FREE ENERGY PREDICTED BY IDOCK:   -4.58 KCAL/MOL
REMARK 924 INTRA-LIGAND FREE ENERGY PREDICTED BY IDOCK:   -0.39 KCAL/MOL
REMARK 927      BINDING AFFINITY PREDICTED BY RF-SCORE:    0.00 PKD
ROOT
HETATM    1  C   UNL     1     -11.120  15.229  64.894  1.00  0.00    -0.424 C  
HETATM    2  N   UNL     1     -11.327  15.324  66.322  1.00  0.00    -0.226 NA 
HETATM    3  H   UNL     1     -12.182  14.891  66.670  1.00  0.00     0.000 HD 
ENDROOT
BRANCH   2   4
HETATM    4  C   UNL     1     -10.527  15.918  67.284  1.00  0.00    -0.310 C  
HETATM    5  C   UNL     1      -9.690  16.911  66.917  1.00  0.00    -0.259 C  
HETATM    6  O   UNL     1      -8.825  17.322  69.035  1.00  0.00    -0.207 OA 
HETATM    7  N   UNL     1      -8.816  17.606  67.830  1.00  0.00    -0.237 N  
HETATM    8  O   UNL     1      -8.096  18.474  67.320  1.00  0.00    -0.237 OA 
BRANCH   4   9
HETATM    9  N   UNL     1     -10.614  15.450  68.583  1.00  0.00    -0.233 NA 
HETATM   10  H   UNL     1      -9.867  15.765  69.202  1.00  0.00     0.000 HD 
BRANCH   9  11
HETATM   11  C   UNL     1     -11.594  14.584  69.205  1.00  0.00    -0.298 C  
BRANCH  11  12
HETATM   12  C   UNL     1     -11.191  13.115  69.052  1.00  0.00    -0.258 C  
BRANCH  12  13
HETATM   13  S   UNL     1     -11.888  12.049  70.360  1.00  0.00    -0.081 SA 
BRANCH  13  14
HETATM   14  C   UNL     1     -11.810  10.434  69.514  1.00  0.00    -0.147 C  
BRANCH  14  15
HETATM   15  C   UNL     1     -10.812   9.540  70.165  1.00  0.00    -0.258 A  
HETATM   16  C   UNL     1      -9.454   9.758  70.281  1.00  0.00    -0.195 A  
HETATM   17  S   UNL     1      -8.716   8.459  71.117  1.00  0.00    -0.175 SA 
HETATM   18  C   UNL     1     -10.247   7.685  71.247  1.00  0.00    -0.187 A  
HETATM   19  N   UNL     1     -11.252   8.330  70.688  1.00  0.00    -0.259 NA 
BRANCH  18  20
HETATM   20  C   UNL     1     -10.378   6.345  71.929  1.00  0.00    -0.202 C  
BRANCH  20  21
HETATM   21  N   UNL     1      -9.086   5.713  72.284  1.00  0.00    -0.139 NA 
HETATM   22  C   UNL     1      -8.936   5.583  73.738  1.00  0.00    -0.124 C  
HETATM   23  C   UNL     1      -9.004   4.388  71.664  1.00  0.00    -0.124 C  
ENDBRANCH  20  21
ENDBRANCH  18  20
ENDBRANCH  14  15
ENDBRANCH  13  14
ENDBRANCH  12  13
ENDBRANCH  11  12
ENDBRANCH   9  11
ENDBRANCH   4   9
ENDBRANCH   2   4
TORSDOF 9
ENDMDL
MODEL      335
REMARK 921   NORMALIZED FREE ENERGY PREDICTED BY IDOCK:   -2.55 KCAL/MOL
REMARK 922        TOTAL FREE ENERGY PREDICTED BY IDOCK:   -4.96 KCAL/MOL
REMARK 923 INTER-LIGAND FREE ENERGY PREDICTED BY IDOCK:   -4.87 KCAL/MOL
REMARK 924 INTRA-LIGAND FREE ENERGY PREDICTED BY IDOCK:   -0.09 KCAL/MOL
REMARK 927      BINDING AFFINITY PREDICTED BY RF-SCORE:    0.00 PKD
ROOT
HETATM    1  C   UNL     1      -6.324   7.796  69.366  1.00  0.00    -0.035 C  
HETATM    2  N   UNL     1      -7.539   8.117  70.082  1.00  0.00    -0.075 NA 
HETATM    3  H   UNL     1      -7.559   9.038  70.519  1.00  0.00     0.000 HD 
ENDROOT
BRANCH   2   4
HETATM    4  C   UNL     1      -8.679   7.350  70.258  1.00  0.00    -0.146 C  
HETATM    5  C   UNL     1      -8.634   6.292  71.095  1.00  0.00    -0.125 C  
HETATM    6  O   UNL     1     -10.853   5.652  70.828  1.00  0.00    -0.265 OA 
HETATM    7  N   UNL     1      -9.757   5.428  71.360  1.00  0.00    -0.156 N  
HETATM    8  O   UNL     1      -9.535   4.490  72.136  1.00  0.00    -0.132 OA 
BRANCH   4   9
HETATM    9  N   UNL     1      -9.814   7.699  69.547  1.00  0.00    -0.175 NA 
HETATM   10  H   UNL     1     -10.580   7.028  69.608  1.00  0.00     0.000 HD 
BRANCH   9  11
HETATM   11  C   UNL     1     -10.089   8.864  68.732  1.00  0.00    -0.200 C  
BRANCH  11  12
HETATM   12  C   UNL     1     -10.536  10.040  69.605  1.00  0.00    -0.248 C  
BRANCH  12  13
HETATM   13  S   UNL     1     -12.222  10.616  69.208  1.00  0.00     0.136 SA 
BRANCH  13  14
HETATM   14  C   UNL     1     -11.968  12.419  69.331  1.00  0.00    -0.260 C  
BRANCH  14  15
HETATM   15  C   UNL     1     -11.732  13.016  67.986  1.00  0.00    -0.355 A  
HETATM   16  C   UNL     1     -11.441  14.336  67.705  1.00  0.00    -0.346 A  
HETATM   17  S   UNL     1     -11.244  14.549  66.017  1.00  0.00    -0.340 SA 
HETATM   18  C   UNL     1     -11.580  12.880  65.776  1.00  0.00    -0.368 A  
HETATM   19  N   UNL     1     -11.848  12.195  66.870  1.00  0.00    -0.601 NA 
BRANCH  18  20
HETATM   20  C   UNL     1     -11.594  12.289  64.386  1.00  0.00    -0.360 C  
BRANCH  20  21
HETATM   21  N   UNL     1     -10.512  11.311  64.130  1.00  0.00    -0.343 NA 
HETATM   22  C   UNL     1      -9.826  11.591  62.863  1.00  0.00    -0.249 C  
HETATM   23  C   UNL     1      -9.544  11.354  65.229  1.00  0.00    -0.228 C  
ENDBRANCH  20  21
ENDBRANCH  18  20
ENDBRANCH  14  15
ENDBRANCH  13  14
ENDBRANCH  12  13
ENDBRANCH  11  12
ENDBRANCH   9  11
ENDBRANCH   4   9
ENDBRANCH   2   4
TORSDOF 9
ENDMDL
MODEL      336
REMARK 921   NORMALIZED FREE ENERGY PREDICTED BY IDOCK:   -2.54 KCAL/MOL
REMARK 922        TOTAL FREE ENERGY PREDICTED BY IDOCK:   -4.94 KCAL/MOL
REMARK 923 INTER-LIGAND FREE ENERGY PREDICTED BY IDOCK:   -4.50 KCAL/MOL
REMARK 924 INTRA-LIGAND FREE ENERGY PREDICTED BY IDOCK:   -0.44 KCAL/MOL
REMARK 927      BINDING AFFINITY PREDICTED BY RF-SCORE:    0.00 PKD
ROOT
HETATM    1  C   UNL     1     -12.404  13.735  63.855  1.00  0.00    -0.292 C  
HETATM    2  N   UNL     1     -12.811  13.577  65.233  1.00  0.00    -0.704 NA 
HETATM    3  H   UNL     1     -13.818  13.542  65.390  1.00  0.00     0.000 HD 
ENDROOT
BRANCH   2   4
HETATM    4  C   UNL     1     -12.028  13.466  66.369  1.00  0.00    -0.406 C  
HETATM    5  C   UNL     1     -11.852  14.552  67.152  1.00  0.00    -0.387 C  
HETATM    6  O   UNL     1     -10.521  13.511  68.749  1.00  0.00    -0.245 OA 
HETATM    7  N   UNL     1     -11.063  14.554  68.359  1.00  0.00    -0.246 N  
HETATM    8  O   UNL     1     -10.988  15.643  68.943  1.00  0.00    -0.236 OA 
BRANCH   4   9
HETATM    9  N   UNL     1     -11.444  12.241  66.640  1.00  0.00    -0.357 NA 
HETATM   10  H   UNL     1     -11.799  11.773  67.474  1.00  0.00     0.000 HD 
BRANCH   9  11
HETATM   11  C   UNL     1     -10.410  11.517  65.931  1.00  0.00    -0.247 C  
BRANCH  11  12
HETATM   12  C   UNL     1      -9.793  10.441  66.829  1.00  0.00    -0.195 C  
BRANCH  12  13
HETATM   13  S   UNL     1      -8.149  10.911  67.470  1.00  0.00    -0.118 SA 
BRANCH  13  14
HETATM   14  C   UNL     1      -7.189   9.446  66.957  1.00  0.00    -0.087 C  
BRANCH  14  15
HETATM   15  C   UNL     1      -6.852   8.593  68.131  1.00  0.00    -0.069 A  
HETATM   16  C   UNL     1      -5.728   7.807  68.289  1.00  0.00    -0.032 A  
HETATM   17  S   UNL     1      -5.770   7.015  69.806  1.00  0.00    -0.023 SA 
HETATM   18  C   UNL     1      -7.288   7.753  70.139  1.00  0.00    -0.071 A  
HETATM   19  N   UNL     1      -7.760   8.526  69.181  1.00  0.00    -0.089 NA 
BRANCH  18  20
HETATM   20  C   UNL     1      -8.012   7.477  71.435  1.00  0.00    -0.095 C  
BRANCH  20  21
HETATM   21  N   UNL     1      -8.607   8.677  72.067  1.00  0.00    -0.320 NA 
HETATM   22  C   UNL     1      -9.996   8.874  71.641  1.00  0.00    -0.327 C  
HETATM   23  C   UNL     1      -8.558   8.535  73.525  1.00  0.00     0.042 C  
ENDBRANCH  20  21
ENDBRANCH  18  20
ENDBRANCH  14  15
ENDBRANCH  13  14
ENDBRANCH  12  13
ENDBRANCH  11  12
ENDBRANCH   9  11
ENDBRANCH   4   9
ENDBRANCH   2   4
TORSDOF 9
ENDMDL
MODEL      337
REMARK 921   NORMALIZED FREE ENERGY PREDICTED BY IDOCK:   -2.54 KCAL/MOL
REMARK 922        TOTAL FREE ENERGY PREDICTED BY IDOCK:   -4.94 KCAL/MOL
REMARK 923 INTER-LIGAND FREE ENERGY PREDICTED BY IDOCK:   -4.37 KCAL/MOL
REMARK 924 INTRA-LIGAND FREE ENERGY PREDICTED BY IDOCK:   -0.57 KCAL/MOL
REMARK 927      BINDING AFFINITY PREDICTED BY RF-SCORE:    0.00 PKD
ROOT
HETATM    1  C   UNL     1      -7.192   8.967  69.642  1.00  0.00    -0.059 C  
HETATM    2  N   UNL     1      -7.766   7.726  70.111  1.00  0.00    -0.088 NA 
HETATM    3  H   UNL     1      -7.141   7.133  70.655  1.00  0.00     0.000 HD 
ENDROOT
BRANCH   2   4
HETATM    4  C   UNL     1      -9.046   7.230  69.927  1.00  0.00    -0.141 C  
HETATM    5  C   UNL     1      -9.392   6.743  68.717  1.00  0.00    -0.132 C  
HETATM    6  O   UNL     1     -11.560   6.128  69.291  1.00  0.00    -0.329 OA 
HETATM    7  N   UNL     1     -10.691   6.197  68.411  1.00  0.00    -0.265 N  
HETATM    8  O   UNL     1     -10.846   5.817  67.243  1.00  0.00    -0.272 OA 
BRANCH   4   9
HETATM    9  N   UNL     1      -9.922   7.274  70.998  1.00  0.00    -0.188 NA 
HETATM   10  H   UNL     1     -10.273   6.365  71.301  1.00  0.00     0.000 HD 
BRANCH   9  11
HETATM   11  C   UNL     1     -10.419   8.401  71.758  1.00  0.00    -0.283 C  
BRANCH  11  12
HETATM   12  C   UNL     1     -11.765   8.875  71.202  1.00  0.00    -0.298 C  
BRANCH  12  13
HETATM   13  S   UNL     1     -11.934  10.693  71.210  1.00  0.00    -0.152 SA 
BRANCH  13  14
HETATM   14  C   UNL     1     -12.359  10.969  69.457  1.00  0.00    -0.197 C  
BRANCH  14  15
HETATM   15  C   UNL     1     -11.131  11.027  68.614  1.00  0.00    -0.240 A  
HETATM   16  C   UNL     1     -10.241  12.077  68.517  1.00  0.00    -0.212 A  
HETATM   17  S   UNL     1      -8.978  11.682  67.431  1.00  0.00    -0.171 SA 
HETATM   18  C   UNL     1      -9.712  10.152  67.148  1.00  0.00    -0.173 A  
HETATM   19  N   UNL     1     -10.841   9.941  67.796  1.00  0.00    -0.278 NA 
BRANCH  18  20
HETATM   20  C   UNL     1      -9.093   9.165  66.188  1.00  0.00    -0.187 C  
BRANCH  20  21
HETATM   21  N   UNL     1      -9.290   9.500  64.759  1.00  0.00    -0.223 NA 
HETATM   22  C   UNL     1     -10.198  10.641  64.597  1.00  0.00    -0.334 C  
HETATM   23  C   UNL     1      -7.996   9.815  64.149  1.00  0.00    -0.143 C  
ENDBRANCH  20  21
ENDBRANCH  18  20
ENDBRANCH  14  15
ENDBRANCH  13  14
ENDBRANCH  12  13
ENDBRANCH  11  12
ENDBRANCH   9  11
ENDBRANCH   4   9
ENDBRANCH   2   4
TORSDOF 9
ENDMDL
MODEL      338
REMARK 921   NORMALIZED FREE ENERGY PREDICTED BY IDOCK:   -2.52 KCAL/MOL
REMARK 922        TOTAL FREE ENERGY PREDICTED BY IDOCK:   -4.91 KCAL/MOL
REMARK 923 INTER-LIGAND FREE ENERGY PREDICTED BY IDOCK:   -4.33 KCAL/MOL
REMARK 924 INTRA-LIGAND FREE ENERGY PREDICTED BY IDOCK:   -0.57 KCAL/MOL
REMARK 927      BINDING AFFINITY PREDICTED BY RF-SCORE:    0.00 PKD
ROOT
HETATM    1  C   UNL     1      -7.130  11.545  69.243  1.00  0.00    -0.077 C  
HETATM    2  N   UNL     1      -8.287  10.687  69.365  1.00  0.00    -0.341 NA 
HETATM    3  H   UNL     1      -8.116   9.782  69.803  1.00  0.00     0.000 HD 
ENDROOT
BRANCH   2   4
HETATM    4  C   UNL     1      -9.594  10.919  68.972  1.00  0.00    -0.156 C  
HETATM    5  C   UNL     1      -9.845  11.895  68.074  1.00  0.00    -0.190 C  
HETATM    6  O   UNL     1     -12.146  11.576  67.974  1.00  0.00    -0.617 OA 
HETATM    7  N   UNL     1     -11.162  12.222  67.588  1.00  0.00    -0.271 N  
HETATM    8  O   UNL     1     -11.214  13.162  66.784  1.00  0.00    -0.282 OA 
BRANCH   4   9
HETATM    9  N   UNL     1     -10.592  10.145  69.538  1.00  0.00    -0.228 NA 
HETATM   10  H   UNL     1     -11.342   9.880  68.900  1.00  0.00     0.000 HD 
BRANCH   9  11
HETATM   11  C   UNL     1     -10.741   9.649  70.891  1.00  0.00    -0.332 C  
BRANCH  11  12
HETATM   12  C   UNL     1     -10.328   8.177  70.975  1.00  0.00    -0.195 C  
BRANCH  12  13
HETATM   13  S   UNL     1     -10.890   7.201  69.538  1.00  0.00    -0.196 SA 
BRANCH  13  14
HETATM   14  C   UNL     1      -9.282   6.869  68.744  1.00  0.00    -0.131 C  
BRANCH  14  15
HETATM   15  C   UNL     1      -9.189   5.449  68.302  1.00  0.00    -0.111 A  
HETATM   16  C   UNL     1      -9.217   4.327  69.107  1.00  0.00    -0.145 A  
HETATM   17  S   UNL     1      -9.089   2.913  68.151  1.00  0.00    -0.194 SA 
HETATM   18  C   UNL     1      -8.983   3.888  66.738  1.00  0.00    -0.136 A  
HETATM   19  N   UNL     1      -9.015   5.189  66.948  1.00  0.00    -0.109 NA 
BRANCH  18  20
HETATM   20  C   UNL     1      -8.826   3.257  65.375  1.00  0.00    -0.134 C  
BRANCH  20  21
HETATM   21  N   UNL     1      -9.347   4.080  64.259  1.00  0.00    -0.151 NA 
HETATM   22  C   UNL     1      -8.565   3.879  63.035  1.00  0.00    -0.094 C  
HETATM   23  C   UNL     1     -10.748   3.732  64.009  1.00  0.00    -0.242 C  
ENDBRANCH  20  21
ENDBRANCH  18  20
ENDBRANCH  14  15
ENDBRANCH  13  14
ENDBRANCH  12  13
ENDBRANCH  11  12
ENDBRANCH   9  11
ENDBRANCH   4   9
ENDBRANCH   2   4
TORSDOF 9
ENDMDL
MODEL      339
REMARK 921   NORMALIZED FREE ENERGY PREDICTED BY IDOCK:   -2.51 KCAL/MOL
REMARK 922        TOTAL FREE ENERGY PREDICTED BY IDOCK:   -4.89 KCAL/MOL
REMARK 923 INTER-LIGAND FREE ENERGY PREDICTED BY IDOCK:   -4.60 KCAL/MOL
REMARK 924 INTRA-LIGAND FREE ENERGY PREDICTED BY IDOCK:   -0.29 KCAL/MOL
REMARK 927      BINDING AFFINITY PREDICTED BY RF-SCORE:    0.00 PKD
ROOT
HETATM    1  C   UNL     1      -7.031   8.294  67.357  1.00  0.00    -0.075 C  
HETATM    2  N   UNL     1      -8.473   8.254  67.264  1.00  0.00    -0.123 NA 
HETATM    3  H   UNL     1      -8.927   9.154  67.110  1.00  0.00     0.000 HD 
ENDROOT
BRANCH   2   4
HETATM    4  C   UNL     1      -9.325   7.166  67.353  1.00  0.00    -0.127 C  
HETATM    5  C   UNL     1      -9.226   6.179  66.437  1.00  0.00    -0.152 C  
HETATM    6  O   UNL     1     -10.901   4.831  67.321  1.00  0.00     0.154 OA 
HETATM    7  N   UNL     1     -10.054   4.999  66.433  1.00  0.00    -0.223 N  
HETATM    8  O   UNL     1      -9.844   4.206  65.506  1.00  0.00    -0.185 OA 
BRANCH   4   9
HETATM    9  N   UNL     1     -10.258   7.152  68.375  1.00  0.00    -0.169 NA 
HETATM   10  H   UNL     1     -11.165   6.760  68.121  1.00  0.00     0.000 HD 
BRANCH   9  11
HETATM   11  C   UNL     1     -10.154   7.603  69.747  1.00  0.00    -0.196 C  
BRANCH  11  12
HETATM   12  C   UNL     1     -11.160   8.724  70.024  1.00  0.00    -0.162 C  
BRANCH  12  13
HETATM   13  S   UNL     1     -10.442  10.389  69.810  1.00  0.00    -0.207 SA 
BRANCH  13  14
HETATM   14  C   UNL     1     -11.890  11.407  70.251  1.00  0.00    -0.350 C  
BRANCH  14  15
HETATM   15  C   UNL     1     -11.823  12.742  69.592  1.00  0.00    -0.317 A  
HETATM   16  C   UNL     1     -12.371  13.922  70.054  1.00  0.00    -0.316 A  
HETATM   17  S   UNL     1     -12.028  15.197  68.964  1.00  0.00    -0.222 SA 
HETATM   18  C   UNL     1     -11.196  14.089  67.944  1.00  0.00    -0.273 A  
HETATM   19  N   UNL     1     -11.185  12.838  68.362  1.00  0.00    -0.258 NA 
BRANCH  18  20
HETATM   20  C   UNL     1     -10.570  14.552  66.650  1.00  0.00    -0.283 C  
BRANCH  20  21
HETATM   21  N   UNL     1     -11.194  13.982  65.434  1.00  0.00    -0.311 NA 
HETATM   22  C   UNL     1     -10.667  12.645  65.138  1.00  0.00    -0.292 C  
HETATM   23  C   UNL     1     -12.645  13.905  65.620  1.00  0.00    -0.517 C  
ENDBRANCH  20  21
ENDBRANCH  18  20
ENDBRANCH  14  15
ENDBRANCH  13  14
ENDBRANCH  12  13
ENDBRANCH  11  12
ENDBRANCH   9  11
ENDBRANCH   4   9
ENDBRANCH   2   4
TORSDOF 9
ENDMDL
MODEL      340
REMARK 921   NORMALIZED FREE ENERGY PREDICTED BY IDOCK:   -2.51 KCAL/MOL
REMARK 922        TOTAL FREE ENERGY PREDICTED BY IDOCK:   -4.89 KCAL/MOL
REMARK 923 INTER-LIGAND FREE ENERGY PREDICTED BY IDOCK:   -4.24 KCAL/MOL
REMARK 924 INTRA-LIGAND FREE ENERGY PREDICTED BY IDOCK:   -0.65 KCAL/MOL
REMARK 927      BINDING AFFINITY PREDICTED BY RF-SCORE:    0.00 PKD
ROOT
HETATM    1  C   UNL     1      -6.805   8.840  68.261  1.00  0.00    -0.066 C  
HETATM    2  N   UNL     1      -7.204   7.481  68.549  1.00  0.00    -0.087 NA 
HETATM    3  H   UNL     1      -6.503   6.910  69.023  1.00  0.00     0.000 HD 
ENDROOT
BRANCH   2   4
HETATM    4  C   UNL     1      -8.402   6.844  68.275  1.00  0.00    -0.123 C  
HETATM    5  C   UNL     1      -8.580   6.278  67.062  1.00  0.00    -0.104 C  
HETATM    6  O   UNL     1     -10.717   5.457  67.467  1.00  0.00    -0.185 OA 
HETATM    7  N   UNL     1      -9.781   5.585  66.666  1.00  0.00    -0.149 N  
HETATM    8  O   UNL     1      -9.785   5.147  65.508  1.00  0.00    -0.120 OA 
BRANCH   4   9
HETATM    9  N   UNL     1      -9.375   6.834  69.259  1.00  0.00    -0.144 NA 
HETATM   10  H   UNL     1      -9.829   5.932  69.402  1.00  0.00     0.000 HD 
BRANCH   9  11
HETATM   11  C   UNL     1      -9.851   7.897  70.119  1.00  0.00    -0.184 C  
BRANCH  11  12
HETATM   12  C   UNL     1     -10.749   8.861  69.337  1.00  0.00    -0.181 C  
BRANCH  12  13
HETATM   13  S   UNL     1     -11.065  10.419  70.235  1.00  0.00    -0.280 SA 
BRANCH  13  14
HETATM   14  C   UNL     1     -12.131  11.263  69.018  1.00  0.00    -0.257 C  
BRANCH  14  15
HETATM   15  C   UNL     1     -11.330  12.168  68.145  1.00  0.00    -0.293 A  
HETATM   16  C   UNL     1     -11.105  12.027  66.791  1.00  0.00    -0.305 A  
HETATM   17  S   UNL     1     -10.134  13.315  66.218  1.00  0.00    -0.298 SA 
HETATM   18  C   UNL     1     -10.061  13.958  67.811  1.00  0.00    -0.241 A  
HETATM   19  N   UNL     1     -10.696  13.257  68.730  1.00  0.00    -0.246 NA 
BRANCH  18  20
HETATM   20  C   UNL     1      -9.283  15.219  68.099  1.00  0.00    -0.183 C  
BRANCH  20  21
HETATM   21  N   UNL     1      -9.699  16.390  67.293  1.00  0.00    -0.235 NA 
HETATM   22  C   UNL     1     -10.784  17.130  67.945  1.00  0.00    -0.355 C  
HETATM   23  C   UNL     1      -8.551  17.278  67.094  1.00  0.00    -0.206 C  
ENDBRANCH  20  21
ENDBRANCH  18  20
ENDBRANCH  14  15
ENDBRANCH  13  14
ENDBRANCH  12  13
ENDBRANCH  11  12
ENDBRANCH   9  11
ENDBRANCH   4   9
ENDBRANCH   2   4
TORSDOF 9
ENDMDL
MODEL      341
REMARK 921   NORMALIZED FREE ENERGY PREDICTED BY IDOCK:   -2.50 KCAL/MOL
REMARK 922        TOTAL FREE ENERGY PREDICTED BY IDOCK:   -4.88 KCAL/MOL
REMARK 923 INTER-LIGAND FREE ENERGY PREDICTED BY IDOCK:   -4.57 KCAL/MOL
REMARK 924 INTRA-LIGAND FREE ENERGY PREDICTED BY IDOCK:   -0.31 KCAL/MOL
REMARK 927      BINDING AFFINITY PREDICTED BY RF-SCORE:    0.00 PKD
ROOT
HETATM    1  C   UNL     1     -14.408   8.424  72.289  1.00  0.00    -0.371 C  
HETATM    2  N   UNL     1     -13.523   9.548  72.496  1.00  0.00    -0.649 NA 
HETATM    3  H   UNL     1     -13.431   9.861  73.462  1.00  0.00     0.000 HD 
ENDROOT
BRANCH   2   4
HETATM    4  C   UNL     1     -12.783  10.261  71.568  1.00  0.00    -0.452 C  
HETATM    5  C   UNL     1     -12.940  11.599  71.493  1.00  0.00    -0.358 C  
HETATM    6  O   UNL     1     -11.381  11.953  69.805  1.00  0.00    -0.235 OA 
HETATM    7  N   UNL     1     -12.221  12.444  70.571  1.00  0.00    -0.349 N  
HETATM    8  O   UNL     1     -12.506  13.648  70.620  1.00  0.00    -0.344 OA 
BRANCH   4   9
HETATM    9  N   UNL     1     -11.922   9.558  70.742  1.00  0.00    -0.364 NA 
HETATM   10  H   UNL     1     -12.175   9.568  69.754  1.00  0.00     0.000 HD 
BRANCH   9  11
HETATM   11  C   UNL     1     -10.722   8.810  71.056  1.00  0.00    -0.229 C  
BRANCH  11  12
HETATM   12  C   UNL     1     -10.788   7.406  70.449  1.00  0.00    -0.243 C  
BRANCH  12  13
HETATM   13  S   UNL     1     -10.169   7.347  68.732  1.00  0.00    -0.194 SA 
BRANCH  13  14
HETATM   14  C   UNL     1      -8.408   6.993  69.053  1.00  0.00    -0.126 C  
BRANCH  14  15
HETATM   15  C   UNL     1      -7.555   8.161  68.694  1.00  0.00    -0.103 A  
HETATM   16  C   UNL     1      -6.428   8.150  67.898  1.00  0.00    -0.053 A  
HETATM   17  S   UNL     1      -5.787   9.732  67.761  1.00  0.00    -0.039 SA 
HETATM   18  C   UNL     1      -7.038  10.317  68.787  1.00  0.00    -0.072 A  
HETATM   19  N   UNL     1      -7.876   9.401  69.232  1.00  0.00    -0.081 NA 
BRANCH  18  20
HETATM   20  C   UNL     1      -7.111  11.779  69.157  1.00  0.00    -0.071 C  
BRANCH  20  21
HETATM   21  N   UNL     1      -7.467  12.675  68.032  1.00  0.00    -0.107 NA 
HETATM   22  C   UNL     1      -8.011  13.949  68.514  1.00  0.00    -0.137 C  
HETATM   23  C   UNL     1      -6.278  12.928  67.215  1.00  0.00     0.005 C  
ENDBRANCH  20  21
ENDBRANCH  18  20
ENDBRANCH  14  15
ENDBRANCH  13  14
ENDBRANCH  12  13
ENDBRANCH  11  12
ENDBRANCH   9  11
ENDBRANCH   4   9
ENDBRANCH   2   4
TORSDOF 9
ENDMDL
MODEL      342
REMARK 921   NORMALIZED FREE ENERGY PREDICTED BY IDOCK:   -2.50 KCAL/MOL
REMARK 922        TOTAL FREE ENERGY PREDICTED BY IDOCK:   -4.88 KCAL/MOL
REMARK 923 INTER-LIGAND FREE ENERGY PREDICTED BY IDOCK:   -4.92 KCAL/MOL
REMARK 924 INTRA-LIGAND FREE ENERGY PREDICTED BY IDOCK:    0.04 KCAL/MOL
REMARK 927      BINDING AFFINITY PREDICTED BY RF-SCORE:    0.00 PKD
ROOT
HETATM    1  C   UNL     1     -14.408   8.424  72.289  1.00  0.00    -0.371 C  
HETATM    2  N   UNL     1     -13.523   9.548  72.496  1.00  0.00    -0.649 NA 
HETATM    3  H   UNL     1     -13.431   9.861  73.462  1.00  0.00     0.000 HD 
ENDROOT
BRANCH   2   4
HETATM    4  C   UNL     1     -12.783  10.261  71.568  1.00  0.00    -0.452 C  
HETATM    5  C   UNL     1     -12.940  11.599  71.493  1.00  0.00    -0.358 C  
HETATM    6  O   UNL     1     -11.381  11.953  69.805  1.00  0.00    -0.235 OA 
HETATM    7  N   UNL     1     -12.221  12.444  70.571  1.00  0.00    -0.349 N  
HETATM    8  O   UNL     1     -12.506  13.648  70.620  1.00  0.00    -0.344 OA 
BRANCH   4   9
HETATM    9  N   UNL     1     -11.922   9.558  70.742  1.00  0.00    -0.364 NA 
HETATM   10  H   UNL     1     -12.175   9.568  69.754  1.00  0.00     0.000 HD 
BRANCH   9  11
HETATM   11  C   UNL     1     -10.722   8.810  71.056  1.00  0.00    -0.229 C  
BRANCH  11  12
HETATM   12  C   UNL     1     -10.788   7.406  70.449  1.00  0.00    -0.243 C  
BRANCH  12  13
HETATM   13  S   UNL     1     -10.169   7.347  68.732  1.00  0.00    -0.194 SA 
BRANCH  13  14
HETATM   14  C   UNL     1      -8.408   6.993  69.053  1.00  0.00    -0.126 C  
BRANCH  14  15
HETATM   15  C   UNL     1      -8.248   6.157  70.277  1.00  0.00    -0.124 A  
HETATM   16  C   UNL     1      -7.408   6.404  71.344  1.00  0.00    -0.084 A  
HETATM   17  S   UNL     1      -7.574   5.172  72.522  1.00  0.00    -0.098 SA 
HETATM   18  C   UNL     1      -8.732   4.385  71.522  1.00  0.00    -0.117 A  
HETATM   19  N   UNL     1      -8.975   4.977  70.369  1.00  0.00    -0.121 NA 
BRANCH  18  20
HETATM   20  C   UNL     1      -9.372   3.089  71.958  1.00  0.00    -0.123 C  
BRANCH  20  21
HETATM   21  N   UNL     1     -10.297   3.223  73.107  1.00  0.00    -0.150 NA 
HETATM   22  C   UNL     1     -11.245   2.105  73.165  1.00  0.00    -0.093 C  
HETATM   23  C   UNL     1      -9.524   3.274  74.351  1.00  0.00    -0.095 C  
ENDBRANCH  20  21
ENDBRANCH  18  20
ENDBRANCH  14  15
ENDBRANCH  13  14
ENDBRANCH  12  13
ENDBRANCH  11  12
ENDBRANCH   9  11
ENDBRANCH   4   9
ENDBRANCH   2   4
TORSDOF 9
ENDMDL
MODEL      343
REMARK 921   NORMALIZED FREE ENERGY PREDICTED BY IDOCK:   -2.49 KCAL/MOL
REMARK 922        TOTAL FREE ENERGY PREDICTED BY IDOCK:   -4.87 KCAL/MOL
REMARK 923 INTER-LIGAND FREE ENERGY PREDICTED BY IDOCK:   -4.26 KCAL/MOL
REMARK 924 INTRA-LIGAND FREE ENERGY PREDICTED BY IDOCK:   -0.61 KCAL/MOL
REMARK 927      BINDING AFFINITY PREDICTED BY RF-SCORE:    0.00 PKD
ROOT
HETATM    1  C   UNL     1     -10.303   2.937  73.813  1.00  0.00    -0.139 C  
HETATM    2  N   UNL     1     -10.402   4.183  73.084  1.00  0.00    -0.159 NA 
HETATM    3  H   UNL     1     -11.350   4.501  72.888  1.00  0.00     0.000 HD 
ENDROOT
BRANCH   2   4
HETATM    4  C   UNL     1      -9.390   5.005  72.617  1.00  0.00    -0.133 C  
HETATM    5  C   UNL     1      -9.253   6.240  73.144  1.00  0.00    -0.128 C  
HETATM    6  O   UNL     1      -7.403   6.861  71.881  1.00  0.00    -0.085 OA 
HETATM    7  N   UNL     1      -8.236   7.179  72.741  1.00  0.00    -0.106 N  
HETATM    8  O   UNL     1      -8.270   8.277  73.312  1.00  0.00    -0.210 OA 
BRANCH   4   9
HETATM    9  N   UNL     1      -8.573   4.523  71.610  1.00  0.00    -0.113 NA 
HETATM   10  H   UNL     1      -7.574   4.558  71.816  1.00  0.00     0.000 HD 
BRANCH   9  11
HETATM   11  C   UNL     1      -8.906   3.976  70.311  1.00  0.00    -0.086 C  
BRANCH  11  12
HETATM   12  C   UNL     1     -10.049   4.769  69.670  1.00  0.00    -0.205 C  
BRANCH  12  13
HETATM   13  S   UNL     1      -9.764   5.116  67.900  1.00  0.00    -0.151 SA 
BRANCH  13  14
HETATM   14  C   UNL     1     -10.869   6.553  67.688  1.00  0.00    -0.337 C  
BRANCH  14  15
HETATM   15  C   UNL     1     -10.535   7.630  68.662  1.00  0.00    -0.177 A  
HETATM   16  C   UNL     1      -9.521   8.559  68.555  1.00  0.00    -0.142 A  
HETATM   17  S   UNL     1      -9.531   9.603  69.912  1.00  0.00    -0.241 SA 
HETATM   18  C   UNL     1     -10.867   8.734  70.559  1.00  0.00    -0.233 A  
HETATM   19  N   UNL     1     -11.278   7.712  69.834  1.00  0.00    -0.152 NA 
BRANCH  18  20
HETATM   20  C   UNL     1     -11.471   9.124  71.887  1.00  0.00    -0.353 C  
BRANCH  20  21
HETATM   21  N   UNL     1     -12.768   9.832  71.780  1.00  0.00    -0.400 NA 
HETATM   22  C   UNL     1     -12.863  10.591  70.529  1.00  0.00    -0.264 C  
HETATM   23  C   UNL     1     -13.862   8.859  71.846  1.00  0.00    -0.440 C  
ENDBRANCH  20  21
ENDBRANCH  18  20
ENDBRANCH  14  15
ENDBRANCH  13  14
ENDBRANCH  12  13
ENDBRANCH  11  12
ENDBRANCH   9  11
ENDBRANCH   4   9
ENDBRANCH   2   4
TORSDOF 9
ENDMDL
MODEL      344
REMARK 921   NORMALIZED FREE ENERGY PREDICTED BY IDOCK:   -2.48 KCAL/MOL
REMARK 922        TOTAL FREE ENERGY PREDICTED BY IDOCK:   -4.84 KCAL/MOL
REMARK 923 INTER-LIGAND FREE ENERGY PREDICTED BY IDOCK:   -4.34 KCAL/MOL
REMARK 924 INTRA-LIGAND FREE ENERGY PREDICTED BY IDOCK:   -0.50 KCAL/MOL
REMARK 927      BINDING AFFINITY PREDICTED BY RF-SCORE:    0.00 PKD
ROOT
HETATM    1  C   UNL     1     -10.926   6.473  67.269  1.00  0.00    -0.400 C  
HETATM    2  N   UNL     1     -10.407   7.800  67.022  1.00  0.00    -0.310 NA 
HETATM    3  H   UNL     1     -10.944   8.563  67.433  1.00  0.00     0.000 HD 
ENDROOT
BRANCH   2   4
HETATM    4  C   UNL     1      -9.284   8.181  66.307  1.00  0.00    -0.191 C  
HETATM    5  C   UNL     1      -8.228   7.342  66.251  1.00  0.00    -0.126 C  
HETATM    6  O   UNL     1      -6.897   8.686  64.898  1.00  0.00    -0.071 OA 
HETATM    7  N   UNL     1      -7.010   7.629  65.534  1.00  0.00    -0.055 N  
HETATM    8  O   UNL     1      -6.132   6.759  65.607  1.00  0.00    -0.033 OA 
BRANCH   4   9
HETATM    9  N   UNL     1      -9.292   9.422  65.695  1.00  0.00    -0.229 NA 
HETATM   10  H   UNL     1      -8.387   9.892  65.669  1.00  0.00     0.000 HD 
BRANCH   9  11
HETATM   11  C   UNL     1     -10.378  10.161  65.085  1.00  0.00    -0.038 C  
BRANCH  11  12
HETATM   12  C   UNL     1     -10.168  11.668  65.256  1.00  0.00    -0.272 C  
BRANCH  12  13
HETATM   13  S   UNL     1     -11.209  12.382  66.575  1.00  0.00    -0.339 SA 
BRANCH  13  14
HETATM   14  C   UNL     1     -11.692  13.947  65.771  1.00  0.00    -0.359 C  
BRANCH  14  15
HETATM   15  C   UNL     1     -10.791  15.060  66.186  1.00  0.00    -0.329 A  
HETATM   16  C   UNL     1     -10.750  16.334  65.657  1.00  0.00    -0.286 A  
HETATM   17  S   UNL     1      -9.560  17.267  66.460  1.00  0.00    -0.278 SA 
HETATM   18  C   UNL     1      -9.168  15.909  67.439  1.00  0.00    -0.201 A  
HETATM   19  N   UNL     1      -9.854  14.812  67.182  1.00  0.00    -0.230 NA 
BRANCH  18  20
HETATM   20  C   UNL     1      -8.081  15.999  68.483  1.00  0.00    -0.169 C  
BRANCH  20  21
HETATM   21  N   UNL     1      -6.709  16.073  67.929  1.00  0.00    -0.130 NA 
HETATM   22  C   UNL     1      -5.908  17.091  68.617  1.00  0.00    -0.142 C  
HETATM   23  C   UNL     1      -6.059  14.767  68.060  1.00  0.00    -0.154 C  
ENDBRANCH  20  21
ENDBRANCH  18  20
ENDBRANCH  14  15
ENDBRANCH  13  14
ENDBRANCH  12  13
ENDBRANCH  11  12
ENDBRANCH   9  11
ENDBRANCH   4   9
ENDBRANCH   2   4
TORSDOF 9
ENDMDL
MODEL      345
REMARK 921   NORMALIZED FREE ENERGY PREDICTED BY IDOCK:   -2.47 KCAL/MOL
REMARK 922        TOTAL FREE ENERGY PREDICTED BY IDOCK:   -4.83 KCAL/MOL
REMARK 923 INTER-LIGAND FREE ENERGY PREDICTED BY IDOCK:   -4.24 KCAL/MOL
REMARK 924 INTRA-LIGAND FREE ENERGY PREDICTED BY IDOCK:   -0.60 KCAL/MOL
REMARK 927      BINDING AFFINITY PREDICTED BY RF-SCORE:    0.00 PKD
ROOT
HETATM    1  C   UNL     1      -7.469  12.572  68.795  1.00  0.00    -0.049 C  
HETATM    2  N   UNL     1      -8.610  11.685  68.852  1.00  0.00    -0.368 NA 
HETATM    3  H   UNL     1      -8.489  10.853  69.427  1.00  0.00     0.000 HD 
ENDROOT
BRANCH   2   4
HETATM    4  C   UNL     1      -9.844  11.808  68.235  1.00  0.00    -0.198 C  
HETATM    5  C   UNL     1      -9.975  12.657  67.194  1.00  0.00    -0.217 C  
HETATM    6  O   UNL     1     -12.220  12.220  66.780  1.00  0.00    -0.558 OA 
HETATM    7  N   UNL     1     -11.206  12.862  66.473  1.00  0.00    -0.291 N  
HETATM    8  O   UNL     1     -11.155  13.696  65.560  1.00  0.00    -0.292 OA 
BRANCH   4   9
HETATM    9  N   UNL     1     -10.897  11.060  68.732  1.00  0.00    -0.195 NA 
HETATM   10  H   UNL     1     -11.379  10.487  68.039  1.00  0.00     0.000 HD 
BRANCH   9  11
HETATM   11  C   UNL     1     -11.424  10.959  70.078  1.00  0.00    -0.329 C  
BRANCH  11  12
HETATM   12  C   UNL     1     -10.833   9.743  70.798  1.00  0.00    -0.333 C  
BRANCH  12  13
HETATM   13  S   UNL     1     -10.941   8.213  69.808  1.00  0.00    -0.060 SA 
BRANCH  13  14
HETATM   14  C   UNL     1      -9.174   7.978  69.414  1.00  0.00    -0.152 C  
BRANCH  14  15
HETATM   15  C   UNL     1      -8.719   6.614  69.802  1.00  0.00    -0.140 A  
HETATM   16  C   UNL     1      -7.875   5.787  69.088  1.00  0.00    -0.090 A  
HETATM   17  S   UNL     1      -7.631   4.320  69.936  1.00  0.00    -0.053 SA 
HETATM   18  C   UNL     1      -8.680   4.874  71.181  1.00  0.00    -0.126 A  
HETATM   19  N   UNL     1      -9.207   6.067  70.983  1.00  0.00    -0.156 NA 
BRANCH  18  20
HETATM   20  C   UNL     1      -8.978   4.008  72.382  1.00  0.00    -0.110 C  
BRANCH  20  21
HETATM   21  N   UNL     1     -10.060   4.526  73.252  1.00  0.00    -0.153 NA 
HETATM   22  C   UNL     1     -10.980   3.457  73.654  1.00  0.00    -0.237 C  
HETATM   23  C   UNL     1      -9.473   5.141  74.445  1.00  0.00    -0.130 C  
ENDBRANCH  20  21
ENDBRANCH  18  20
ENDBRANCH  14  15
ENDBRANCH  13  14
ENDBRANCH  12  13
ENDBRANCH  11  12
ENDBRANCH   9  11
ENDBRANCH   4   9
ENDBRANCH   2   4
TORSDOF 9
ENDMDL
MODEL      346
REMARK 921   NORMALIZED FREE ENERGY PREDICTED BY IDOCK:   -2.45 KCAL/MOL
REMARK 922        TOTAL FREE ENERGY PREDICTED BY IDOCK:   -4.80 KCAL/MOL
REMARK 923 INTER-LIGAND FREE ENERGY PREDICTED BY IDOCK:   -4.78 KCAL/MOL
REMARK 924 INTRA-LIGAND FREE ENERGY PREDICTED BY IDOCK:   -0.02 KCAL/MOL
REMARK 927      BINDING AFFINITY PREDICTED BY RF-SCORE:    0.00 PKD
ROOT
HETATM    1  C   UNL     1     -14.410   8.424  72.288  1.00  0.00    -0.371 C  
HETATM    2  N   UNL     1     -13.525   9.549  72.490  1.00  0.00    -0.649 NA 
HETATM    3  H   UNL     1     -13.428   9.862  73.456  1.00  0.00     0.000 HD 
ENDROOT
BRANCH   2   4
HETATM    4  C   UNL     1     -12.790  10.262  71.558  1.00  0.00    -0.452 C  
HETATM    5  C   UNL     1     -12.946  11.601  71.485  1.00  0.00    -0.358 C  
HETATM    6  O   UNL     1     -11.398  11.955  69.787  1.00  0.00    -0.235 OA 
HETATM    7  N   UNL     1     -12.232  12.446  70.560  1.00  0.00    -0.349 N  
HETATM    8  O   UNL     1     -12.515  13.650  70.613  1.00  0.00    -0.344 OA 
BRANCH   4   9
HETATM    9  N   UNL     1     -11.936   9.559  70.725  1.00  0.00    -0.364 NA 
HETATM   10  H   UNL     1     -12.195   9.571  69.739  1.00  0.00     0.000 HD 
BRANCH   9  11
HETATM   11  C   UNL     1     -10.735   8.809  71.030  1.00  0.00    -0.229 C  
BRANCH  11  12
HETATM   12  C   UNL     1     -10.809   7.405  70.422  1.00  0.00    -0.243 C  
BRANCH  12  13
HETATM   13  S   UNL     1     -10.204   7.346  68.700  1.00  0.00    -0.194 SA 
BRANCH  13  14
HETATM   14  C   UNL     1      -8.441   6.987  69.006  1.00  0.00    -0.129 C  
BRANCH  14  15
HETATM   15  C   UNL     1      -7.929   5.975  68.041  1.00  0.00    -0.109 A  
HETATM   16  C   UNL     1      -7.233   4.821  68.341  1.00  0.00    -0.061 A  
HETATM   17  S   UNL     1      -6.861   3.966  66.905  1.00  0.00    -0.051 SA 
HETATM   18  C   UNL     1      -7.630   5.197  65.983  1.00  0.00    -0.087 A  
HETATM   19  N   UNL     1      -8.119   6.203  66.683  1.00  0.00    -0.108 NA 
BRANCH  18  20
HETATM   20  C   UNL     1      -7.687   5.112  64.477  1.00  0.00    -0.087 C  
BRANCH  20  21
HETATM   21  N   UNL     1      -8.559   4.032  63.960  1.00  0.00    -0.099 NA 
HETATM   22  C   UNL     1      -7.874   2.735  63.979  1.00  0.00    -0.077 C  
HETATM   23  C   UNL     1      -9.774   3.955  64.775  1.00  0.00    -0.187 C  
ENDBRANCH  20  21
ENDBRANCH  18  20
ENDBRANCH  14  15
ENDBRANCH  13  14
ENDBRANCH  12  13
ENDBRANCH  11  12
ENDBRANCH   9  11
ENDBRANCH   4   9
ENDBRANCH   2   4
TORSDOF 9
ENDMDL
MODEL      347
REMARK 921   NORMALIZED FREE ENERGY PREDICTED BY IDOCK:   -2.43 KCAL/MOL
REMARK 922        TOTAL FREE ENERGY PREDICTED BY IDOCK:   -4.77 KCAL/MOL
REMARK 923 INTER-LIGAND FREE ENERGY PREDICTED BY IDOCK:   -4.27 KCAL/MOL
REMARK 924 INTRA-LIGAND FREE ENERGY PREDICTED BY IDOCK:   -0.49 KCAL/MOL
REMARK 927      BINDING AFFINITY PREDICTED BY RF-SCORE:    0.00 PKD
ROOT
HETATM    1  C   UNL     1     -12.608  14.244  66.250  1.00  0.00    -0.184 C  
HETATM    2  N   UNL     1     -12.473  13.985  67.666  1.00  0.00    -0.445 NA 
HETATM    3  H   UNL     1     -12.653  13.023  67.953  1.00  0.00     0.000 HD 
ENDROOT
BRANCH   2   4
HETATM    4  C   UNL     1     -12.135  14.857  68.686  1.00  0.00    -0.170 C  
HETATM    5  C   UNL     1     -12.447  14.530  69.958  1.00  0.00    -0.298 C  
HETATM    6  O   UNL     1     -11.532  16.423  70.949  1.00  0.00    -0.380 OA 
HETATM    7  N   UNL     1     -12.140  15.355  71.100  1.00  0.00    -0.327 N  
HETATM    8  O   UNL     1     -12.520  14.914  72.192  1.00  0.00    -0.315 OA 
BRANCH   4   9
HETATM    9  N   UNL     1     -11.504  16.041  68.348  1.00  0.00    -0.362 NA 
HETATM   10  H   UNL     1     -12.078  16.878  68.455  1.00  0.00     0.000 HD 
BRANCH   9  11
HETATM   11  C   UNL     1     -10.159  16.284  67.868  1.00  0.00    -0.247 C  
BRANCH  11  12
HETATM   12  C   UNL     1      -9.136  15.542  68.733  1.00  0.00    -0.207 C  
BRANCH  12  13
HETATM   13  S   UNL     1      -7.797  14.783  67.750  1.00  0.00    -0.168 SA 
BRANCH  13  14
HETATM   14  C   UNL     1      -8.789  13.717  66.651  1.00  0.00    -0.064 C  
BRANCH  14  15
HETATM   15  C   UNL     1      -8.956  12.357  67.237  1.00  0.00    -0.190 A  
HETATM   16  C   UNL     1      -9.732  11.330  66.739  1.00  0.00    -0.193 A  
HETATM   17  S   UNL     1      -9.602   9.951  67.746  1.00  0.00    -0.143 SA 
HETATM   18  C   UNL     1      -8.542  10.821  68.785  1.00  0.00    -0.156 A  
HETATM   19  N   UNL     1      -8.307  12.069  68.432  1.00  0.00    -0.163 NA 
BRANCH  18  20
HETATM   20  C   UNL     1      -7.973  10.173  70.025  1.00  0.00    -0.090 C  
BRANCH  20  21
HETATM   21  N   UNL     1      -6.630   9.577  69.838  1.00  0.00    -0.053 NA 
HETATM   22  C   UNL     1      -5.836  10.339  68.870  1.00  0.00    -0.041 C  
HETATM   23  C   UNL     1      -5.930   9.540  71.125  1.00  0.00    -0.078 C  
ENDBRANCH  20  21
ENDBRANCH  18  20
ENDBRANCH  14  15
ENDBRANCH  13  14
ENDBRANCH  12  13
ENDBRANCH  11  12
ENDBRANCH   9  11
ENDBRANCH   4   9
ENDBRANCH   2   4
TORSDOF 9
ENDMDL
MODEL      348
REMARK 921   NORMALIZED FREE ENERGY PREDICTED BY IDOCK:   -2.42 KCAL/MOL
REMARK 922        TOTAL FREE ENERGY PREDICTED BY IDOCK:   -4.76 KCAL/MOL
REMARK 923 INTER-LIGAND FREE ENERGY PREDICTED BY IDOCK:   -3.93 KCAL/MOL
REMARK 924 INTRA-LIGAND FREE ENERGY PREDICTED BY IDOCK:   -0.83 KCAL/MOL
REMARK 927      BINDING AFFINITY PREDICTED BY RF-SCORE:    0.00 PKD
ROOT
HETATM    1  C   UNL     1      -5.896   7.580  69.372  1.00  0.00    -0.026 C  
HETATM    2  N   UNL     1      -6.512   8.605  70.184  1.00  0.00    -0.037 NA 
HETATM    3  H   UNL     1      -6.233   9.562  69.967  1.00  0.00     0.000 HD 
ENDROOT
BRANCH   2   4
HETATM    4  C   UNL     1      -7.427   8.472  71.214  1.00  0.00    -0.098 C  
HETATM    5  C   UNL     1      -7.186   7.575  72.193  1.00  0.00    -0.068 C  
HETATM    6  O   UNL     1      -9.096   8.025  73.440  1.00  0.00    -0.258 OA 
HETATM    7  N   UNL     1      -8.063   7.353  73.316  1.00  0.00    -0.108 N  
HETATM    8  O   UNL     1      -7.700   6.474  74.109  1.00  0.00    -0.097 OA 
BRANCH   4   9
HETATM    9  N   UNL     1      -8.565   9.260  71.181  1.00  0.00    -0.308 NA 
HETATM   10  H   UNL     1      -8.969   9.466  72.095  1.00  0.00     0.000 HD 
BRANCH   9  11
HETATM   11  C   UNL     1      -9.272   9.840  70.058  1.00  0.00    -0.229 C  
BRANCH  11  12
HETATM   12  C   UNL     1     -10.692   9.272  69.965  1.00  0.00    -0.232 C  
BRANCH  12  13
HETATM   13  S   UNL     1     -11.505   9.128  71.593  1.00  0.00    -0.397 SA 
BRANCH  13  14
HETATM   14  C   UNL     1     -12.413   7.565  71.346  1.00  0.00    -0.352 C  
BRANCH  14  15
HETATM   15  C   UNL     1     -11.538   6.391  71.620  1.00  0.00    -0.310 A  
HETATM   16  C   UNL     1     -11.438   5.691  72.805  1.00  0.00    -0.274 A  
HETATM   17  S   UNL     1     -10.309   4.414  72.642  1.00  0.00    -0.180 SA 
HETATM   18  C   UNL     1     -10.014   4.894  71.017  1.00  0.00    -0.212 A  
HETATM   19  N   UNL     1     -10.689   5.952  70.611  1.00  0.00    -0.269 NA 
BRANCH  18  20
HETATM   20  C   UNL     1      -9.016   4.150  70.162  1.00  0.00    -0.090 C  
BRANCH  20  21
HETATM   21  N   UNL     1      -9.243   4.286  68.705  1.00  0.00    -0.130 NA 
HETATM   22  C   UNL     1      -8.121   4.967  68.050  1.00  0.00    -0.093 C  
HETATM   23  C   UNL     1      -9.421   2.957  68.113  1.00  0.00    -0.161 C  
ENDBRANCH  20  21
ENDBRANCH  18  20
ENDBRANCH  14  15
ENDBRANCH  13  14
ENDBRANCH  12  13
ENDBRANCH  11  12
ENDBRANCH   9  11
ENDBRANCH   4   9
ENDBRANCH   2   4
TORSDOF 9
ENDMDL
MODEL      349
REMARK 921   NORMALIZED FREE ENERGY PREDICTED BY IDOCK:   -2.42 KCAL/MOL
REMARK 922        TOTAL FREE ENERGY PREDICTED BY IDOCK:   -4.76 KCAL/MOL
REMARK 923 INTER-LIGAND FREE ENERGY PREDICTED BY IDOCK:   -4.28 KCAL/MOL
REMARK 924 INTRA-LIGAND FREE ENERGY PREDICTED BY IDOCK:   -0.48 KCAL/MOL
REMARK 927      BINDING AFFINITY PREDICTED BY RF-SCORE:    0.00 PKD
ROOT
HETATM    1  C   UNL     1     -10.028  12.453  67.048  1.00  0.00    -0.212 C  
HETATM    2  N   UNL     1     -10.735  11.500  67.873  1.00  0.00    -0.191 NA 
HETATM    3  H   UNL     1     -11.721  11.371  67.646  1.00  0.00     0.000 HD 
ENDROOT
BRANCH   2   4
HETATM    4  C   UNL     1     -10.264  10.736  68.928  1.00  0.00    -0.203 C  
HETATM    5  C   UNL     1      -9.147   9.999  68.755  1.00  0.00    -0.148 C  
HETATM    6  O   UNL     1      -9.070   9.129  70.910  1.00  0.00    -0.230 OA 
HETATM    7  N   UNL     1      -8.562   9.172  69.781  1.00  0.00    -0.131 N  
HETATM    8  O   UNL     1      -7.550   8.543  69.444  1.00  0.00    -0.086 OA 
BRANCH   4   9
HETATM    9  N   UNL     1     -10.977  10.753  70.114  1.00  0.00    -0.458 NA 
HETATM   10  H   UNL     1     -10.454  11.088  70.923  1.00  0.00     0.000 HD 
BRANCH   9  11
HETATM   11  C   UNL     1     -12.347  10.372  70.391  1.00  0.00    -0.286 C  
BRANCH  11  12
HETATM   12  C   UNL     1     -12.467   9.776  71.797  1.00  0.00    -0.398 C  
BRANCH  12  13
HETATM   13  S   UNL     1     -13.270   8.137  71.804  1.00  0.00    -0.326 SA 
BRANCH  13  14
HETATM   14  C   UNL     1     -12.078   7.206  70.784  1.00  0.00    -0.288 C  
BRANCH  14  15
HETATM   15  C   UNL     1     -11.344   6.203  71.605  1.00  0.00    -0.284 A  
HETATM   16  C   UNL     1     -11.796   5.576  72.748  1.00  0.00    -0.102 A  
HETATM   17  S   UNL     1     -10.606   4.496  73.339  1.00  0.00    -0.253 SA 
HETATM   18  C   UNL     1      -9.564   4.952  72.049  1.00  0.00    -0.154 A  
HETATM   19  N   UNL     1     -10.047   5.868  71.232  1.00  0.00    -0.190 NA 
BRANCH  18  20
HETATM   20  C   UNL     1      -8.186   4.348  71.920  1.00  0.00    -0.102 C  
BRANCH  20  21
HETATM   21  N   UNL     1      -7.167   4.966  72.799  1.00  0.00    -0.082 NA 
HETATM   22  C   UNL     1      -7.623   6.257  73.323  1.00  0.00    -0.095 C  
HETATM   23  C   UNL     1      -6.872   4.062  73.914  1.00  0.00    -0.058 C  
ENDBRANCH  20  21
ENDBRANCH  18  20
ENDBRANCH  14  15
ENDBRANCH  13  14
ENDBRANCH  12  13
ENDBRANCH  11  12
ENDBRANCH   9  11
ENDBRANCH   4   9
ENDBRANCH   2   4
TORSDOF 9
ENDMDL
MODEL      350
REMARK 921   NORMALIZED FREE ENERGY PREDICTED BY IDOCK:   -2.41 KCAL/MOL
REMARK 922        TOTAL FREE ENERGY PREDICTED BY IDOCK:   -4.74 KCAL/MOL
REMARK 923 INTER-LIGAND FREE ENERGY PREDICTED BY IDOCK:   -4.34 KCAL/MOL
REMARK 924 INTRA-LIGAND FREE ENERGY PREDICTED BY IDOCK:   -0.40 KCAL/MOL
REMARK 927      BINDING AFFINITY PREDICTED BY RF-SCORE:    0.00 PKD
ROOT
HETATM    1  C   UNL     1     -11.327  15.310  64.792  1.00  0.00    -0.391 C  
HETATM    2  N   UNL     1     -11.484  15.312  66.229  1.00  0.00    -0.163 NA 
HETATM    3  H   UNL     1     -12.379  14.963  66.572  1.00  0.00     0.000 HD 
ENDROOT
BRANCH   2   4
HETATM    4  C   UNL     1     -10.591  15.720  67.206  1.00  0.00    -0.313 C  
HETATM    5  C   UNL     1     -10.084  16.969  67.150  1.00  0.00    -0.292 C  
HETATM    6  O   UNL     1      -8.793  16.816  69.077  1.00  0.00    -0.253 OA 
HETATM    7  N   UNL     1      -9.153  17.504  68.112  1.00  0.00    -0.269 N  
HETATM    8  O   UNL     1      -8.770  18.661  67.895  1.00  0.00    -0.278 OA 
BRANCH   4   9
HETATM    9  N   UNL     1     -10.245  14.812  68.192  1.00  0.00    -0.225 NA 
HETATM   10  H   UNL     1      -9.559  15.153  68.865  1.00  0.00     0.000 HD 
BRANCH   9  11
HETATM   11  C   UNL     1     -10.700  13.456  68.421  1.00  0.00    -0.256 C  
BRANCH  11  12
HETATM   12  C   UNL     1      -9.802  12.455  67.689  1.00  0.00    -0.198 C  
BRANCH  12  13
HETATM   13  S   UNL     1     -10.141  10.724  68.161  1.00  0.00    -0.170 SA 
BRANCH  13  14
HETATM   14  C   UNL     1     -10.440  10.009  66.509  1.00  0.00    -0.153 C  
BRANCH  14  15
HETATM   15  C   UNL     1      -9.568   8.823  66.276  1.00  0.00    -0.259 A  
HETATM   16  C   UNL     1      -8.314   8.817  65.701  1.00  0.00    -0.138 A  
HETATM   17  S   UNL     1      -7.695   7.221  65.652  1.00  0.00    -0.112 SA 
HETATM   18  C   UNL     1      -9.145   6.647  66.377  1.00  0.00    -0.152 A  
HETATM   19  N   UNL     1     -10.054   7.569  66.625  1.00  0.00    -0.224 NA 
BRANCH  18  20
HETATM   20  C   UNL     1      -9.337   5.175  66.657  1.00  0.00    -0.137 C  
BRANCH  20  21
HETATM   21  N   UNL     1      -8.627   4.279  65.716  1.00  0.00    -0.113 NA 
HETATM   22  C   UNL     1      -7.711   3.377  66.424  1.00  0.00    -0.078 C  
HETATM   23  C   UNL     1      -9.605   3.490  64.962  1.00  0.00    -0.160 C  
ENDBRANCH  20  21
ENDBRANCH  18  20
ENDBRANCH  14  15
ENDBRANCH  13  14
ENDBRANCH  12  13
ENDBRANCH  11  12
ENDBRANCH   9  11
ENDBRANCH   4   9
ENDBRANCH   2   4
TORSDOF 9
ENDMDL
MODEL      351
REMARK 921   NORMALIZED FREE ENERGY PREDICTED BY IDOCK:   -2.36 KCAL/MOL
REMARK 922        TOTAL FREE ENERGY PREDICTED BY IDOCK:   -4.67 KCAL/MOL
REMARK 923 INTER-LIGAND FREE ENERGY PREDICTED BY IDOCK:   -4.34 KCAL/MOL
REMARK 924 INTRA-LIGAND FREE ENERGY PREDICTED BY IDOCK:   -0.34 KCAL/MOL
REMARK 927      BINDING AFFINITY PREDICTED BY RF-SCORE:    0.00 PKD
ROOT
HETATM    1  C   UNL     1     -10.723  12.318  67.000  1.00  0.00    -0.231 C  
HETATM    2  N   UNL     1     -10.215  11.018  67.377  1.00  0.00    -0.189 NA 
HETATM    3  H   UNL     1     -10.354  10.278  66.690  1.00  0.00     0.000 HD 
ENDROOT
BRANCH   2   4
HETATM    4  C   UNL     1      -9.566  10.637  68.540  1.00  0.00    -0.175 C  
HETATM    5  C   UNL     1      -8.381   9.996  68.449  1.00  0.00    -0.111 C  
HETATM    6  O   UNL     1      -8.019   9.786  70.736  1.00  0.00    -0.288 OA 
HETATM    7  N   UNL     1      -7.614   9.557  69.587  1.00  0.00    -0.091 N  
HETATM    8  O   UNL     1      -6.561   8.963  69.322  1.00  0.00    -0.048 OA 
BRANCH   4   9
HETATM    9  N   UNL     1     -10.177  10.918  69.749  1.00  0.00    -0.438 NA 
HETATM   10  H   UNL     1      -9.597  11.431  70.412  1.00  0.00     0.000 HD 
BRANCH   9  11
HETATM   11  C   UNL     1     -11.508  10.599  70.224  1.00  0.00    -0.337 C  
BRANCH  11  12
HETATM   12  C   UNL     1     -11.445   9.561  71.348  1.00  0.00    -0.392 C  
BRANCH  12  13
HETATM   13  S   UNL     1     -12.965   8.557  71.471  1.00  0.00    -0.272 SA 
BRANCH  13  14
HETATM   14  C   UNL     1     -12.239   6.965  71.988  1.00  0.00    -0.282 C  
BRANCH  14  15
HETATM   15  C   UNL     1     -11.201   6.513  71.020  1.00  0.00    -0.309 A  
HETATM   16  C   UNL     1     -11.364   6.310  69.664  1.00  0.00    -0.422 A  
HETATM   17  S   UNL     1      -9.887   5.801  68.963  1.00  0.00    -0.170 SA 
HETATM   18  C   UNL     1      -9.140   5.864  70.511  1.00  0.00    -0.148 A  
HETATM   19  N   UNL     1      -9.932   6.218  71.504  1.00  0.00    -0.184 NA 
BRANCH  18  20
HETATM   20  C   UNL     1      -7.686   5.496  70.681  1.00  0.00    -0.090 C  
BRANCH  20  21
HETATM   21  N   UNL     1      -7.417   4.040  70.634  1.00  0.00    -0.041 NA 
HETATM   22  C   UNL     1      -8.320   3.300  71.522  1.00  0.00    -0.064 C  
HETATM   23  C   UNL     1      -7.579   3.558  69.260  1.00  0.00    -0.052 C  
ENDBRANCH  20  21
ENDBRANCH  18  20
ENDBRANCH  14  15
ENDBRANCH  13  14
ENDBRANCH  12  13
ENDBRANCH  11  12
ENDBRANCH   9  11
ENDBRANCH   4   9
ENDBRANCH   2   4
TORSDOF 9
ENDMDL
MODEL      352
REMARK 921   NORMALIZED FREE ENERGY PREDICTED BY IDOCK:   -2.34 KCAL/MOL
REMARK 922        TOTAL FREE ENERGY PREDICTED BY IDOCK:   -4.64 KCAL/MOL
REMARK 923 INTER-LIGAND FREE ENERGY PREDICTED BY IDOCK:   -4.42 KCAL/MOL
REMARK 924 INTRA-LIGAND FREE ENERGY PREDICTED BY IDOCK:   -0.21 KCAL/MOL
REMARK 927      BINDING AFFINITY PREDICTED BY RF-SCORE:    0.00 PKD
ROOT
HETATM    1  C   UNL     1      -6.128   7.720  69.382  1.00  0.00    -0.034 C  
HETATM    2  N   UNL     1      -7.273   8.013  70.215  1.00  0.00    -0.052 NA 
HETATM    3  H   UNL     1      -7.221   8.887  70.739  1.00  0.00     0.000 HD 
ENDROOT
BRANCH   2   4
HETATM    4  C   UNL     1      -8.431   7.276  70.402  1.00  0.00    -0.139 C  
HETATM    5  C   UNL     1      -8.362   6.108  71.073  1.00  0.00    -0.124 C  
HETATM    6  O   UNL     1     -10.628   5.603  70.956  1.00  0.00    -0.237 OA 
HETATM    7  N   UNL     1      -9.499   5.260  71.333  1.00  0.00    -0.147 N  
HETATM    8  O   UNL     1      -9.253   4.211  71.942  1.00  0.00    -0.118 OA 
BRANCH   4   9
HETATM    9  N   UNL     1      -9.610   7.770  69.871  1.00  0.00    -0.164 NA 
HETATM   10  H   UNL     1     -10.429   7.184  70.032  1.00  0.00     0.000 HD 
BRANCH   9  11
HETATM   11  C   UNL     1      -9.867   8.984  69.124  1.00  0.00    -0.175 C  
BRANCH  11  12
HETATM   12  C   UNL     1     -10.066   8.670  67.638  1.00  0.00    -0.213 C  
BRANCH  12  13
HETATM   13  S   UNL     1      -8.831   9.487  66.571  1.00  0.00    -0.142 SA 
BRANCH  13  14
HETATM   14  C   UNL     1      -9.889   9.913  65.147  1.00  0.00    -0.278 C  
BRANCH  14  15
HETATM   15  C   UNL     1     -10.281  11.350  65.186  1.00  0.00    -0.277 A  
HETATM   16  C   UNL     1     -11.163  11.992  64.339  1.00  0.00    -0.344 A  
HETATM   17  S   UNL     1     -11.305  13.641  64.776  1.00  0.00    -0.371 SA 
HETATM   18  C   UNL     1     -10.169  13.394  66.043  1.00  0.00    -0.300 A  
HETATM   19  N   UNL     1      -9.685  12.171  66.136  1.00  0.00    -0.237 NA 
BRANCH  18  20
HETATM   20  C   UNL     1      -9.753  14.536  66.940  1.00  0.00    -0.252 C  
BRANCH  20  21
HETATM   21  N   UNL     1     -10.366  14.505  68.288  1.00  0.00    -0.231 NA 
HETATM   22  C   UNL     1     -10.843  15.833  68.690  1.00  0.00    -0.278 C  
HETATM   23  C   UNL     1     -11.487  13.561  68.293  1.00  0.00    -0.310 C  
ENDBRANCH  20  21
ENDBRANCH  18  20
ENDBRANCH  14  15
ENDBRANCH  13  14
ENDBRANCH  12  13
ENDBRANCH  11  12
ENDBRANCH   9  11
ENDBRANCH   4   9
ENDBRANCH   2   4
TORSDOF 9
ENDMDL
MODEL      353
REMARK 921   NORMALIZED FREE ENERGY PREDICTED BY IDOCK:   -2.33 KCAL/MOL
REMARK 922        TOTAL FREE ENERGY PREDICTED BY IDOCK:   -4.62 KCAL/MOL
REMARK 923 INTER-LIGAND FREE ENERGY PREDICTED BY IDOCK:   -4.26 KCAL/MOL
REMARK 924 INTRA-LIGAND FREE ENERGY PREDICTED BY IDOCK:   -0.36 KCAL/MOL
REMARK 927      BINDING AFFINITY PREDICTED BY RF-SCORE:    0.00 PKD
ROOT
HETATM    1  C   UNL     1      -8.595   4.703  63.932  1.00  0.00    -0.132 C  
HETATM    2  N   UNL     1      -8.210   5.127  65.260  1.00  0.00    -0.120 NA 
HETATM    3  H   UNL     1      -7.484   5.842  65.298  1.00  0.00     0.000 HD 
ENDROOT
BRANCH   2   4
HETATM    4  C   UNL     1      -8.688   4.700  66.487  1.00  0.00    -0.111 C  
HETATM    5  C   UNL     1      -8.935   3.386  66.673  1.00  0.00    -0.152 C  
HETATM    6  O   UNL     1      -9.624   3.558  68.886  1.00  0.00    -0.165 OA 
HETATM    7  N   UNL     1      -9.428   2.826  67.906  1.00  0.00    -0.198 N  
HETATM    8  O   UNL     1      -9.623   1.603  67.895  1.00  0.00    -0.152 OA 
BRANCH   4   9
HETATM    9  N   UNL     1      -8.909   5.652  67.467  1.00  0.00    -0.107 NA 
HETATM   10  H   UNL     1      -9.826   5.604  67.911  1.00  0.00     0.000 HD 
BRANCH   9  11
HETATM   11  C   UNL     1      -8.046   6.704  67.964  1.00  0.00    -0.110 C  
BRANCH  11  12
HETATM   12  C   UNL     1      -8.875   7.824  68.600  1.00  0.00    -0.131 C  
BRANCH  12  13
HETATM   13  S   UNL     1     -10.132   8.506  67.465  1.00  0.00    -0.241 SA 
BRANCH  13  14
HETATM   14  C   UNL     1      -9.285  10.039  66.953  1.00  0.00    -0.147 C  
BRANCH  14  15
HETATM   15  C   UNL     1     -10.076  11.240  67.343  1.00  0.00    -0.188 A  
HETATM   16  C   UNL     1     -10.419  11.627  68.623  1.00  0.00    -0.213 A  
HETATM   17  S   UNL     1     -11.325  13.079  68.576  1.00  0.00    -0.311 SA 
HETATM   18  C   UNL     1     -11.219  13.080  66.860  1.00  0.00    -0.295 A  
HETATM   19  N   UNL     1     -10.573  12.058  66.335  1.00  0.00    -0.235 NA 
BRANCH  18  20
HETATM   20  C   UNL     1     -11.868  14.175  66.048  1.00  0.00    -0.398 C  
BRANCH  20  21
HETATM   21  N   UNL     1     -10.948  15.267  65.653  1.00  0.00    -0.343 NA 
HETATM   22  C   UNL     1     -11.457  16.002  64.490  1.00  0.00    -0.271 C  
HETATM   23  C   UNL     1     -10.776  16.191  66.778  1.00  0.00    -0.235 C  
ENDBRANCH  20  21
ENDBRANCH  18  20
ENDBRANCH  14  15
ENDBRANCH  13  14
ENDBRANCH  12  13
ENDBRANCH  11  12
ENDBRANCH   9  11
ENDBRANCH   4   9
ENDBRANCH   2   4
TORSDOF 9
ENDMDL
MODEL      354
REMARK 921   NORMALIZED FREE ENERGY PREDICTED BY IDOCK:   -2.31 KCAL/MOL
REMARK 922        TOTAL FREE ENERGY PREDICTED BY IDOCK:   -4.60 KCAL/MOL
REMARK 923 INTER-LIGAND FREE ENERGY PREDICTED BY IDOCK:   -4.19 KCAL/MOL
REMARK 924 INTRA-LIGAND FREE ENERGY PREDICTED BY IDOCK:   -0.41 KCAL/MOL
REMARK 927      BINDING AFFINITY PREDICTED BY RF-SCORE:    0.00 PKD
ROOT
HETATM    1  C   UNL     1     -12.109  13.986  69.551  1.00  0.00    -0.347 C  
HETATM    2  N   UNL     1     -11.370  14.623  68.484  1.00  0.00    -0.270 NA 
HETATM    3  H   UNL     1     -10.949  15.522  68.719  1.00  0.00     0.000 HD 
ENDROOT
BRANCH   2   4
HETATM    4  C   UNL     1     -11.154  14.187  67.188  1.00  0.00    -0.307 C  
HETATM    5  C   UNL     1     -11.987  14.600  66.210  1.00  0.00    -0.251 C  
HETATM    6  O   UNL     1     -10.922  13.486  64.469  1.00  0.00    -0.361 OA 
HETATM    7  N   UNL     1     -11.857  14.216  64.826  1.00  0.00    -0.394 N  
HETATM    8  O   UNL     1     -12.723  14.668  64.065  1.00  0.00    -0.772 OA 
BRANCH   4   9
HETATM    9  N   UNL     1     -10.095  13.326  66.959  1.00  0.00    -0.239 NA 
HETATM   10  H   UNL     1     -10.017  12.989  65.999  1.00  0.00     0.000 HD 
BRANCH   9  11
HETATM   11  C   UNL     1      -9.080  12.826  67.863  1.00  0.00    -0.204 C  
BRANCH  11  12
HETATM   12  C   UNL     1      -7.939  12.166  67.081  1.00  0.00    -0.170 C  
BRANCH  12  13
HETATM   13  S   UNL     1      -8.338  10.467  66.545  1.00  0.00    -0.146 SA 
BRANCH  13  14
HETATM   14  C   UNL     1      -6.916  10.150  65.448  1.00  0.00    -0.139 C  
BRANCH  14  15
HETATM   15  C   UNL     1      -7.118   8.900  64.661  1.00  0.00    -0.088 A  
HETATM   16  C   UNL     1      -8.067   8.682  63.683  1.00  0.00    -0.163 A  
HETATM   17  S   UNL     1      -7.909   7.097  63.053  1.00  0.00    -0.093 SA 
HETATM   18  C   UNL     1      -6.608   6.804  64.139  1.00  0.00    -0.044 A  
HETATM   19  N   UNL     1      -6.311   7.805  64.944  1.00  0.00    -0.044 NA 
BRANCH  18  20
HETATM   20  C   UNL     1      -5.908   5.467  64.160  1.00  0.00    -0.021 C  
BRANCH  20  21
HETATM   21  N   UNL     1      -6.821   4.303  64.236  1.00  0.00    -0.044 NA 
HETATM   22  C   UNL     1      -6.198   3.097  63.681  1.00  0.00    -0.018 C  
HETATM   23  C   UNL     1      -7.190   4.063  65.634  1.00  0.00    -0.071 C  
ENDBRANCH  20  21
ENDBRANCH  18  20
ENDBRANCH  14  15
ENDBRANCH  13  14
ENDBRANCH  12  13
ENDBRANCH  11  12
ENDBRANCH   9  11
ENDBRANCH   4   9
ENDBRANCH   2   4
TORSDOF 9
ENDMDL
MODEL      355
REMARK 921   NORMALIZED FREE ENERGY PREDICTED BY IDOCK:   -2.30 KCAL/MOL
REMARK 922        TOTAL FREE ENERGY PREDICTED BY IDOCK:   -4.58 KCAL/MOL
REMARK 923 INTER-LIGAND FREE ENERGY PREDICTED BY IDOCK:   -3.95 KCAL/MOL
REMARK 924 INTRA-LIGAND FREE ENERGY PREDICTED BY IDOCK:   -0.63 KCAL/MOL
REMARK 927      BINDING AFFINITY PREDICTED BY RF-SCORE:    0.00 PKD
ROOT
HETATM    1  C   UNL     1     -10.982  14.399  65.262  1.00  0.00    -0.350 C  
HETATM    2  N   UNL     1      -9.603  14.785  65.465  1.00  0.00    -0.498 NA 
HETATM    3  H   UNL     1      -8.964  14.536  64.711  1.00  0.00     0.000 HD 
ENDROOT
BRANCH   2   4
HETATM    4  C   UNL     1      -9.028  15.445  66.538  1.00  0.00    -0.309 C  
HETATM    5  C   UNL     1      -9.135  16.788  66.615  1.00  0.00    -0.249 C  
HETATM    6  O   UNL     1      -7.991  17.029  68.624  1.00  0.00    -0.238 OA 
HETATM    7  N   UNL     1      -8.583  17.580  67.686  1.00  0.00    -0.217 N  
HETATM    8  O   UNL     1      -8.753  18.802  67.586  1.00  0.00    -0.275 OA 
BRANCH   4   9
HETATM    9  N   UNL     1      -8.350  14.690  67.479  1.00  0.00    -0.176 NA 
HETATM   10  H   UNL     1      -8.252  15.133  68.393  1.00  0.00     0.000 HD 
BRANCH   9  11
HETATM   11  C   UNL     1      -7.757  13.373  67.376  1.00  0.00    -0.137 C  
BRANCH  11  12
HETATM   12  C   UNL     1      -6.983  13.028  68.652  1.00  0.00    -0.102 C  
BRANCH  12  13
HETATM   13  S   UNL     1      -6.270  11.348  68.615  1.00  0.00    -0.050 SA 
BRANCH  13  14
HETATM   14  C   UNL     1      -7.701  10.394  69.226  1.00  0.00    -0.140 C  
BRANCH  14  15
HETATM   15  C   UNL     1      -8.359   9.651  68.115  1.00  0.00    -0.117 A  
HETATM   16  C   UNL     1      -9.449   8.809  68.212  1.00  0.00    -0.141 A  
HETATM   17  S   UNL     1      -9.856   8.190  66.669  1.00  0.00    -0.252 SA 
HETATM   18  C   UNL     1      -8.544   9.065  65.982  1.00  0.00    -0.142 A  
HETATM   19  N   UNL     1      -7.822   9.761  66.838  1.00  0.00    -0.102 NA 
BRANCH  18  20
HETATM   20  C   UNL     1      -8.251   8.982  64.503  1.00  0.00    -0.159 C  
BRANCH  20  21
HETATM   21  N   UNL     1      -7.922   7.620  64.023  1.00  0.00    -0.126 NA 
HETATM   22  C   UNL     1      -7.778   7.587  62.564  1.00  0.00    -0.120 C  
HETATM   23  C   UNL     1      -6.675   7.171  64.647  1.00  0.00    -0.046 C  
ENDBRANCH  20  21
ENDBRANCH  18  20
ENDBRANCH  14  15
ENDBRANCH  13  14
ENDBRANCH  12  13
ENDBRANCH  11  12
ENDBRANCH   9  11
ENDBRANCH   4   9
ENDBRANCH   2   4
TORSDOF 9
ENDMDL
MODEL      356
REMARK 921   NORMALIZED FREE ENERGY PREDICTED BY IDOCK:   -2.30 KCAL/MOL
REMARK 922        TOTAL FREE ENERGY PREDICTED BY IDOCK:   -4.58 KCAL/MOL
REMARK 923 INTER-LIGAND FREE ENERGY PREDICTED BY IDOCK:   -3.94 KCAL/MOL
REMARK 924 INTRA-LIGAND FREE ENERGY PREDICTED BY IDOCK:   -0.63 KCAL/MOL
REMARK 927      BINDING AFFINITY PREDICTED BY RF-SCORE:    0.00 PKD
ROOT
HETATM    1  C   UNL     1      -9.422  12.283  67.286  1.00  0.00    -0.186 C  
HETATM    2  N   UNL     1      -8.556  11.183  67.648  1.00  0.00    -0.125 NA 
HETATM    3  H   UNL     1      -7.944  10.845  66.905  1.00  0.00     0.000 HD 
ENDROOT
BRANCH   2   4
HETATM    4  C   UNL     1      -8.439  10.524  68.860  1.00  0.00    -0.152 C  
HETATM    5  C   UNL     1      -7.214  10.370  69.407  1.00  0.00    -0.109 C  
HETATM    6  O   UNL     1      -7.920   9.263  71.326  1.00  0.00    -0.322 OA 
HETATM    7  N   UNL     1      -6.972   9.708  70.664  1.00  0.00    -0.121 N  
HETATM    8  O   UNL     1      -5.784   9.633  71.006  1.00  0.00    -0.059 OA 
BRANCH   4   9
HETATM    9  N   UNL     1      -9.592  10.036  69.450  1.00  0.00    -0.210 NA 
HETATM   10  H   UNL     1      -9.818  10.450  70.354  1.00  0.00     0.000 HD 
BRANCH   9  11
HETATM   11  C   UNL     1     -10.528   9.032  68.989  1.00  0.00    -0.218 C  
BRANCH  11  12
HETATM   12  C   UNL     1      -9.838   7.671  68.858  1.00  0.00    -0.164 C  
BRANCH  12  13
HETATM   13  S   UNL     1     -11.021   6.282  68.784  1.00  0.00    -0.332 SA 
BRANCH  13  14
HETATM   14  C   UNL     1     -11.960   6.597  70.317  1.00  0.00    -0.240 C  
BRANCH  14  15
HETATM   15  C   UNL     1     -11.063   6.575  71.506  1.00  0.00    -0.265 A  
HETATM   16  C   UNL     1     -10.976   7.531  72.497  1.00  0.00    -0.313 A  
HETATM   17  S   UNL     1      -9.811   7.068  73.663  1.00  0.00    -0.314 SA 
HETATM   18  C   UNL     1      -9.487   5.641  72.760  1.00  0.00    -0.148 A  
HETATM   19  N   UNL     1     -10.177   5.513  71.644  1.00  0.00    -0.202 NA 
BRANCH  18  20
HETATM   20  C   UNL     1      -8.449   4.650  73.229  1.00  0.00    -0.103 C  
BRANCH  20  21
HETATM   21  N   UNL     1      -9.011   3.410  73.813  1.00  0.00    -0.087 NA 
HETATM   22  C   UNL     1     -10.329   3.649  74.409  1.00  0.00    -0.198 C  
HETATM   23  C   UNL     1      -9.123   2.388  72.770  1.00  0.00    -0.077 C  
ENDBRANCH  20  21
ENDBRANCH  18  20
ENDBRANCH  14  15
ENDBRANCH  13  14
ENDBRANCH  12  13
ENDBRANCH  11  12
ENDBRANCH   9  11
ENDBRANCH   4   9
ENDBRANCH   2   4
TORSDOF 9
ENDMDL
MODEL      357
REMARK 921   NORMALIZED FREE ENERGY PREDICTED BY IDOCK:   -2.30 KCAL/MOL
REMARK 922        TOTAL FREE ENERGY PREDICTED BY IDOCK:   -4.57 KCAL/MOL
REMARK 923 INTER-LIGAND FREE ENERGY PREDICTED BY IDOCK:   -3.87 KCAL/MOL
REMARK 924 INTRA-LIGAND FREE ENERGY PREDICTED BY IDOCK:   -0.70 KCAL/MOL
REMARK 927      BINDING AFFINITY PREDICTED BY RF-SCORE:    0.00 PKD
ROOT
HETATM    1  C   UNL     1      -9.422   8.230  66.119  1.00  0.00    -0.171 C  
HETATM    2  N   UNL     1     -10.200   9.303  66.697  1.00  0.00    -0.262 NA 
HETATM    3  H   UNL     1     -11.175   9.078  66.897  1.00  0.00     0.000 HD 
ENDROOT
BRANCH   2   4
HETATM    4  C   UNL     1      -9.810  10.592  67.018  1.00  0.00    -0.185 C  
HETATM    5  C   UNL     1      -8.505  10.841  67.255  1.00  0.00    -0.124 C  
HETATM    6  O   UNL     1      -8.739  13.120  67.650  1.00  0.00    -0.168 OA 
HETATM    7  N   UNL     1      -7.982  12.142  67.591  1.00  0.00    -0.146 N  
HETATM    8  O   UNL     1      -6.762  12.187  67.801  1.00  0.00    -0.082 OA 
BRANCH   4   9
HETATM    9  N   UNL     1     -10.788  11.568  67.097  1.00  0.00    -0.253 NA 
HETATM   10  H   UNL     1     -10.950  12.083  66.232  1.00  0.00     0.000 HD 
BRANCH   9  11
HETATM   11  C   UNL     1     -11.618  11.976  68.212  1.00  0.00    -0.334 C  
BRANCH  11  12
HETATM   12  C   UNL     1     -12.144  10.752  68.968  1.00  0.00    -0.098 C  
BRANCH  12  13
HETATM   13  S   UNL     1     -12.452  11.091  70.735  1.00  0.00    -0.400 SA 
BRANCH  13  14
HETATM   14  C   UNL     1     -12.246   9.408  71.410  1.00  0.00    -0.356 C  
BRANCH  14  15
HETATM   15  C   UNL     1     -10.994   8.780  70.903  1.00  0.00    -0.262 A  
HETATM   16  C   UNL     1     -10.884   7.591  70.211  1.00  0.00    -0.246 A  
HETATM   17  S   UNL     1      -9.245   7.280  69.827  1.00  0.00    -0.138 SA 
HETATM   18  C   UNL     1      -8.792   8.734  70.627  1.00  0.00    -0.182 A  
HETATM   19  N   UNL     1      -9.785   9.410  71.171  1.00  0.00    -0.244 NA 
BRANCH  18  20
HETATM   20  C   UNL     1      -7.343   9.151  70.708  1.00  0.00    -0.114 C  
BRANCH  20  21
HETATM   21  N   UNL     1      -6.410   8.254  69.986  1.00  0.00    -0.035 NA 
HETATM   22  C   UNL     1      -5.734   8.956  68.890  1.00  0.00    -0.040 C  
HETATM   23  C   UNL     1      -5.412   7.733  70.923  1.00  0.00    -0.030 C  
ENDBRANCH  20  21
ENDBRANCH  18  20
ENDBRANCH  14  15
ENDBRANCH  13  14
ENDBRANCH  12  13
ENDBRANCH  11  12
ENDBRANCH   9  11
ENDBRANCH   4   9
ENDBRANCH   2   4
TORSDOF 9
ENDMDL
MODEL      358
REMARK 921   NORMALIZED FREE ENERGY PREDICTED BY IDOCK:   -2.26 KCAL/MOL
REMARK 922        TOTAL FREE ENERGY PREDICTED BY IDOCK:   -4.51 KCAL/MOL
REMARK 923 INTER-LIGAND FREE ENERGY PREDICTED BY IDOCK:   -4.51 KCAL/MOL
REMARK 924 INTRA-LIGAND FREE ENERGY PREDICTED BY IDOCK:    0.00 KCAL/MOL
REMARK 927      BINDING AFFINITY PREDICTED BY RF-SCORE:    0.00 PKD
ROOT
HETATM    1  C   UNL     1      -5.236  13.993  73.883  1.00  0.00    -0.281 C  
HETATM    2  N   UNL     1      -5.512  13.191  72.713  1.00  0.00    -0.332 NA 
HETATM    3  H   UNL     1      -5.828  12.239  72.899  1.00  0.00     0.000 HD 
ENDROOT
BRANCH   2   4
HETATM    4  C   UNL     1      -5.408  13.531  71.374  1.00  0.00    -0.200 C  
HETATM    5  C   UNL     1      -5.570  14.822  71.012  1.00  0.00    -0.121 C  
HETATM    6  O   UNL     1      -5.212  14.503  68.737  1.00  0.00    -0.084 OA 
HETATM    7  N   UNL     1      -5.479  15.294  69.653  1.00  0.00    -0.100 N  
HETATM    8  O   UNL     1      -5.678  16.505  69.496  1.00  0.00    -0.148 OA 
BRANCH   4   9
HETATM    9  N   UNL     1      -5.160  12.520  70.463  1.00  0.00    -0.102 NA 
HETATM   10  H   UNL     1      -4.296  12.627  69.931  1.00  0.00     0.000 HD 
BRANCH   9  11
HETATM   11  C   UNL     1      -5.928  11.336  70.142  1.00  0.00    -0.141 C  
BRANCH  11  12
HETATM   12  C   UNL     1      -7.170  11.704  69.325  1.00  0.00    -0.020 C  
BRANCH  12  13
HETATM   13  S   UNL     1      -8.249  10.269  68.992  1.00  0.00    -0.149 SA 
BRANCH  13  14
HETATM   14  C   UNL     1      -8.377  10.396  67.176  1.00  0.00    -0.126 C  
BRANCH  14  15
HETATM   15  C   UNL     1      -9.109  11.632  66.778  1.00  0.00    -0.186 A  
HETATM   16  C   UNL     1      -8.578  12.897  66.631  1.00  0.00     0.019 A  
HETATM   17  S   UNL     1      -9.800  13.996  66.151  1.00  0.00    -0.288 SA 
HETATM   18  C   UNL     1     -10.952  12.720  66.194  1.00  0.00    -0.283 A  
HETATM   19  N   UNL     1     -10.479  11.546  66.564  1.00  0.00    -0.235 NA 
BRANCH  18  20
HETATM   20  C   UNL     1     -12.402  12.978  65.861  1.00  0.00    -0.368 C  
BRANCH  20  21
HETATM   21  N   UNL     1     -12.673  13.151  64.415  1.00  0.00    -0.685 NA 
HETATM   22  C   UNL     1     -12.391  14.522  63.977  1.00  0.00    -0.170 C  
HETATM   23  C   UNL     1     -11.849  12.213  63.649  1.00  0.00    -0.516 C  
ENDBRANCH  20  21
ENDBRANCH  18  20
ENDBRANCH  14  15
ENDBRANCH  13  14
ENDBRANCH  12  13
ENDBRANCH  11  12
ENDBRANCH   9  11
ENDBRANCH   4   9
ENDBRANCH   2   4
TORSDOF 9
ENDMDL
MODEL      359
REMARK 921   NORMALIZED FREE ENERGY PREDICTED BY IDOCK:   -2.25 KCAL/MOL
REMARK 922        TOTAL FREE ENERGY PREDICTED BY IDOCK:   -4.50 KCAL/MOL
REMARK 923 INTER-LIGAND FREE ENERGY PREDICTED BY IDOCK:   -4.22 KCAL/MOL
REMARK 924 INTRA-LIGAND FREE ENERGY PREDICTED BY IDOCK:   -0.28 KCAL/MOL
REMARK 927      BINDING AFFINITY PREDICTED BY RF-SCORE:    0.00 PKD
ROOT
HETATM    1  C   UNL     1      -5.965   9.427  68.647  1.00  0.00    -0.044 C  
HETATM    2  N   UNL     1      -5.953  10.000  67.319  1.00  0.00    -0.050 NA 
HETATM    3  H   UNL     1      -5.032  10.249  66.958  1.00  0.00     0.000 HD 
ENDROOT
BRANCH   2   4
HETATM    4  C   UNL     1      -7.015  10.258  66.468  1.00  0.00    -0.107 C  
HETATM    5  C   UNL     1      -6.892   9.957  65.158  1.00  0.00    -0.124 C  
HETATM    6  O   UNL     1      -9.024  10.641  64.530  1.00  0.00    -0.191 OA 
HETATM    7  N   UNL     1      -7.930  10.175  64.181  1.00  0.00    -0.157 N  
HETATM    8  O   UNL     1      -7.640   9.864  63.019  1.00  0.00    -0.123 OA 
BRANCH   4   9
HETATM    9  N   UNL     1      -8.154  10.834  67.004  1.00  0.00    -0.120 NA 
HETATM   10  H   UNL     1      -8.254  11.832  66.821  1.00  0.00     0.000 HD 
BRANCH   9  11
HETATM   11  C   UNL     1      -9.225  10.247  67.780  1.00  0.00    -0.141 C  
BRANCH  11  12
HETATM   12  C   UNL     1     -10.584  10.555  67.144  1.00  0.00    -0.264 C  
BRANCH  12  13
HETATM   13  S   UNL     1     -11.661  11.556  68.226  1.00  0.00    -0.269 SA 
BRANCH  13  14
HETATM   14  C   UNL     1     -11.706  13.106  67.264  1.00  0.00    -0.374 C  
BRANCH  14  15
HETATM   15  C   UNL     1     -10.634  14.040  67.709  1.00  0.00    -0.242 A  
HETATM   16  C   UNL     1      -9.824  13.904  68.818  1.00  0.00    -0.114 A  
HETATM   17  S   UNL     1      -8.732  15.219  68.916  1.00  0.00    -0.223 SA 
HETATM   18  C   UNL     1      -9.427  15.890  67.493  1.00  0.00    -0.219 A  
HETATM   19  N   UNL     1     -10.426  15.202  66.976  1.00  0.00    -0.276 NA 
BRANCH  18  20
HETATM   20  C   UNL     1      -8.921  17.197  66.930  1.00  0.00    -0.235 C  
BRANCH  20  21
HETATM   21  N   UNL     1      -9.100  18.358  67.833  1.00  0.00    -0.278 NA 
HETATM   22  C   UNL     1      -7.835  19.068  68.049  1.00  0.00    -0.287 C  
HETATM   23  C   UNL     1     -10.084  19.278  67.255  1.00  0.00    -0.384 C  
ENDBRANCH  20  21
ENDBRANCH  18  20
ENDBRANCH  14  15
ENDBRANCH  13  14
ENDBRANCH  12  13
ENDBRANCH  11  12
ENDBRANCH   9  11
ENDBRANCH   4   9
ENDBRANCH   2   4
TORSDOF 9
ENDMDL
MODEL      360
REMARK 921   NORMALIZED FREE ENERGY PREDICTED BY IDOCK:   -2.21 KCAL/MOL
REMARK 922        TOTAL FREE ENERGY PREDICTED BY IDOCK:   -4.44 KCAL/MOL
REMARK 923 INTER-LIGAND FREE ENERGY PREDICTED BY IDOCK:   -4.23 KCAL/MOL
REMARK 924 INTRA-LIGAND FREE ENERGY PREDICTED BY IDOCK:   -0.20 KCAL/MOL
REMARK 927      BINDING AFFINITY PREDICTED BY RF-SCORE:    0.00 PKD
ROOT
HETATM    1  C   UNL     1      -7.956   8.506  64.328  1.00  0.00    -0.149 C  
HETATM    2  N   UNL     1      -9.146   8.638  65.139  1.00  0.00    -0.426 NA 
HETATM    3  H   UNL     1      -9.427   7.797  65.642  1.00  0.00     0.000 HD 
ENDROOT
BRANCH   2   4
HETATM    4  C   UNL     1      -9.956   9.745  65.330  1.00  0.00    -0.232 C  
HETATM    5  C   UNL     1     -10.161  10.592  64.300  1.00  0.00    -0.343 C  
HETATM    6  O   UNL     1     -11.583  12.042  65.431  1.00  0.00    -0.343 OA 
HETATM    7  N   UNL     1     -10.987  11.771  64.380  1.00  0.00    -0.322 N  
HETATM    8  O   UNL     1     -11.046  12.450  63.347  1.00  0.00    -0.455 OA 
BRANCH   4   9
HETATM    9  N   UNL     1     -10.508   9.939  66.584  1.00  0.00    -0.200 NA 
HETATM   10  H   UNL     1     -11.497   9.700  66.658  1.00  0.00     0.000 HD 
BRANCH   9  11
HETATM   11  C   UNL     1      -9.907  10.426  67.809  1.00  0.00    -0.168 C  
BRANCH  11  12
HETATM   12  C   UNL     1      -8.395  10.597  67.636  1.00  0.00    -0.114 C  
BRANCH  12  13
HETATM   13  S   UNL     1      -7.465  10.262  69.171  1.00  0.00    -0.118 SA 
BRANCH  13  14
HETATM   14  C   UNL     1      -8.781   9.476  70.161  1.00  0.00    -0.230 C  
BRANCH  14  15
HETATM   15  C   UNL     1      -8.612   7.996  70.191  1.00  0.00    -0.130 A  
HETATM   16  C   UNL     1      -7.539   7.294  70.702  1.00  0.00    -0.091 A  
HETATM   17  S   UNL     1      -7.796   5.611  70.523  1.00  0.00    -0.101 SA 
HETATM   18  C   UNL     1      -9.304   5.931  69.760  1.00  0.00    -0.148 A  
HETATM   19  N   UNL     1      -9.603   7.207  69.618  1.00  0.00    -0.155 NA 
BRANCH  18  20
HETATM   20  C   UNL     1     -10.175   4.800  69.269  1.00  0.00    -0.074 C  
BRANCH  20  21
HETATM   21  N   UNL     1      -9.897   4.378  67.876  1.00  0.00    -0.120 NA 
HETATM   22  C   UNL     1      -8.983   5.310  67.207  1.00  0.00    -0.111 C  
HETATM   23  C   UNL     1      -9.311   3.036  67.882  1.00  0.00    -0.204 C  
ENDBRANCH  20  21
ENDBRANCH  18  20
ENDBRANCH  14  15
ENDBRANCH  13  14
ENDBRANCH  12  13
ENDBRANCH  11  12
ENDBRANCH   9  11
ENDBRANCH   4   9
ENDBRANCH   2   4
TORSDOF 9
ENDMDL
MODEL      361
REMARK 921   NORMALIZED FREE ENERGY PREDICTED BY IDOCK:   -2.20 KCAL/MOL
REMARK 922        TOTAL FREE ENERGY PREDICTED BY IDOCK:   -4.42 KCAL/MOL
REMARK 923 INTER-LIGAND FREE ENERGY PREDICTED BY IDOCK:   -3.81 KCAL/MOL
REMARK 924 INTRA-LIGAND FREE ENERGY PREDICTED BY IDOCK:   -0.61 KCAL/MOL
REMARK 927      BINDING AFFINITY PREDICTED BY RF-SCORE:    0.00 PKD
ROOT
HETATM    1  C   UNL     1      -7.382   6.021  68.368  1.00  0.00    -0.085 C  
HETATM    2  N   UNL     1      -8.772   5.692  68.589  1.00  0.00    -0.107 NA 
HETATM    3  H   UNL     1      -9.407   5.942  67.831  1.00  0.00     0.000 HD 
ENDROOT
BRANCH   2   4
HETATM    4  C   UNL     1      -9.364   5.084  69.684  1.00  0.00    -0.127 C  
HETATM    5  C   UNL     1      -8.683   4.128  70.350  1.00  0.00    -0.078 C  
HETATM    6  O   UNL     1     -10.311   3.718  71.958  1.00  0.00    -0.131 OA 
HETATM    7  N   UNL     1      -9.194   3.432  71.504  1.00  0.00    -0.113 N  
HETATM    8  O   UNL     1      -8.447   2.566  71.978  1.00  0.00    -0.057 OA 
BRANCH   4   9
HETATM    9  N   UNL     1     -10.643   5.478  70.034  1.00  0.00    -0.316 NA 
HETATM   10  H   UNL     1     -11.324   4.721  70.088  1.00  0.00     0.000 HD 
BRANCH   9  11
HETATM   11  C   UNL     1     -11.171   6.792  70.338  1.00  0.00    -0.328 C  
BRANCH  11  12
HETATM   12  C   UNL     1     -10.783   7.214  71.758  1.00  0.00    -0.215 C  
BRANCH  12  13
HETATM   13  S   UNL     1     -10.187   8.937  71.847  1.00  0.00    -0.269 SA 
BRANCH  13  14
HETATM   14  C   UNL     1     -10.834   9.568  70.262  1.00  0.00    -0.269 C  
BRANCH  14  15
HETATM   15  C   UNL     1      -9.817  10.407  69.567  1.00  0.00    -0.184 A  
HETATM   16  C   UNL     1      -8.459  10.169  69.490  1.00  0.00    -0.168 A  
HETATM   17  S   UNL     1      -7.695  11.402  68.580  1.00  0.00    -0.138 SA 
HETATM   18  C   UNL     1      -9.216  12.177  68.370  1.00  0.00    -0.154 A  
HETATM   19  N   UNL     1     -10.237  11.581  68.955  1.00  0.00    -0.187 NA 
BRANCH  18  20
HETATM   20  C   UNL     1      -9.324  13.468  67.595  1.00  0.00    -0.216 C  
BRANCH  20  21
HETATM   21  N   UNL     1      -9.539  14.668  68.437  1.00  0.00    -0.211 NA 
HETATM   22  C   UNL     1      -8.274  15.172  68.982  1.00  0.00    -0.193 C  
HETATM   23  C   UNL     1     -10.180  15.715  67.639  1.00  0.00    -0.261 C  
ENDBRANCH  20  21
ENDBRANCH  18  20
ENDBRANCH  14  15
ENDBRANCH  13  14
ENDBRANCH  12  13
ENDBRANCH  11  12
ENDBRANCH   9  11
ENDBRANCH   4   9
ENDBRANCH   2   4
TORSDOF 9
ENDMDL
MODEL      362
REMARK 921   NORMALIZED FREE ENERGY PREDICTED BY IDOCK:   -2.20 KCAL/MOL
REMARK 922        TOTAL FREE ENERGY PREDICTED BY IDOCK:   -4.42 KCAL/MOL
REMARK 923 INTER-LIGAND FREE ENERGY PREDICTED BY IDOCK:   -4.05 KCAL/MOL
REMARK 924 INTRA-LIGAND FREE ENERGY PREDICTED BY IDOCK:   -0.37 KCAL/MOL
REMARK 927      BINDING AFFINITY PREDICTED BY RF-SCORE:    0.00 PKD
ROOT
HETATM    1  C   UNL     1      -8.681   9.103  63.985  1.00  0.00    -0.137 C  
HETATM    2  N   UNL     1      -9.730   9.655  64.813  1.00  0.00    -0.431 NA 
HETATM    3  H   UNL     1     -10.540   9.051  64.953  1.00  0.00     0.000 HD 
ENDROOT
BRANCH   2   4
HETATM    4  C   UNL     1      -9.792  10.887  65.441  1.00  0.00    -0.255 C  
HETATM    5  C   UNL     1     -10.288  11.944  64.764  1.00  0.00    -0.281 C  
HETATM    6  O   UNL     1     -10.066  13.489  66.488  1.00  0.00    -0.268 OA 
HETATM    7  N   UNL     1     -10.406  13.271  65.317  1.00  0.00    -0.307 N  
HETATM    8  O   UNL     1     -10.861  14.128  64.549  1.00  0.00    -0.394 OA 
BRANCH   4   9
HETATM    9  N   UNL     1      -9.320  10.980  66.739  1.00  0.00    -0.179 NA 
HETATM   10  H   UNL     1      -9.867  11.586  67.351  1.00  0.00     0.000 HD 
BRANCH   9  11
HETATM   11  C   UNL     1      -8.174  10.356  67.368  1.00  0.00    -0.117 C  
BRANCH  11  12
HETATM   12  C   UNL     1      -8.532   9.867  68.774  1.00  0.00    -0.122 C  
BRANCH  12  13
HETATM   13  S   UNL     1      -7.196  10.155  69.985  1.00  0.00    -0.155 SA 
BRANCH  13  14
HETATM   14  C   UNL     1      -6.065  11.157  68.962  1.00  0.00    -0.044 C  
BRANCH  14  15
HETATM   15  C   UNL     1      -5.914  12.529  69.522  1.00  0.00    -0.113 A  
HETATM   16  C   UNL     1      -5.614  12.863  70.827  1.00  0.00    -0.177 A  
HETATM   17  S   UNL     1      -5.534  14.565  70.997  1.00  0.00    -0.166 SA 
HETATM   18  C   UNL     1      -5.927  14.741  69.332  1.00  0.00    -0.104 A  
HETATM   19  N   UNL     1      -6.131  13.613  68.679  1.00  0.00    -0.082 NA 
BRANCH  18  20
HETATM   20  C   UNL     1      -6.056  16.111  68.710  1.00  0.00    -0.111 C  
BRANCH  20  21
HETATM   21  N   UNL     1      -7.434  16.465  68.298  1.00  0.00    -0.155 NA 
HETATM   22  C   UNL     1      -7.769  15.882  66.994  1.00  0.00    -0.233 C  
HETATM   23  C   UNL     1      -8.383  15.986  69.306  1.00  0.00    -0.217 C  
ENDBRANCH  20  21
ENDBRANCH  18  20
ENDBRANCH  14  15
ENDBRANCH  13  14
ENDBRANCH  12  13
ENDBRANCH  11  12
ENDBRANCH   9  11
ENDBRANCH   4   9
ENDBRANCH   2   4
TORSDOF 9
ENDMDL
MODEL      363
REMARK 921   NORMALIZED FREE ENERGY PREDICTED BY IDOCK:   -2.20 KCAL/MOL
REMARK 922        TOTAL FREE ENERGY PREDICTED BY IDOCK:   -4.42 KCAL/MOL
REMARK 923 INTER-LIGAND FREE ENERGY PREDICTED BY IDOCK:   -4.30 KCAL/MOL
REMARK 924 INTRA-LIGAND FREE ENERGY PREDICTED BY IDOCK:   -0.12 KCAL/MOL
REMARK 927      BINDING AFFINITY PREDICTED BY RF-SCORE:    0.00 PKD
ROOT
HETATM    1  C   UNL     1      -5.996   7.676  69.449  1.00  0.00    -0.030 C  
HETATM    2  N   UNL     1      -6.741   7.997  70.647  1.00  0.00    -0.037 NA 
HETATM    3  H   UNL     1      -6.611   8.945  71.001  1.00  0.00     0.000 HD 
ENDROOT
BRANCH   2   4
HETATM    4  C   UNL     1      -7.604   7.201  71.379  1.00  0.00    -0.088 C  
HETATM    5  C   UNL     1      -7.161   6.018  71.855  1.00  0.00    -0.086 C  
HETATM    6  O   UNL     1      -9.132   5.410  72.927  1.00  0.00    -0.126 OA 
HETATM    7  N   UNL     1      -7.966   5.111  72.633  1.00  0.00    -0.101 N  
HETATM    8  O   UNL     1      -7.408   4.058  72.968  1.00  0.00    -0.065 OA 
BRANCH   4   9
HETATM    9  N   UNL     1      -8.898   7.652  71.576  1.00  0.00    -0.123 NA 
HETATM   10  H   UNL     1      -9.534   6.965  71.980  1.00  0.00     0.000 HD 
BRANCH   9  11
HETATM   11  C   UNL     1      -9.493   8.943  71.299  1.00  0.00    -0.272 C  
BRANCH  11  12
HETATM   12  C   UNL     1     -10.355   8.880  70.034  1.00  0.00    -0.204 C  
BRANCH  12  13
HETATM   13  S   UNL     1      -9.802  10.047  68.743  1.00  0.00    -0.176 SA 
BRANCH  13  14
HETATM   14  C   UNL     1     -11.417  10.720  68.227  1.00  0.00    -0.280 C  
BRANCH  14  15
HETATM   15  C   UNL     1     -11.654  12.061  68.832  1.00  0.00    -0.321 A  
HETATM   16  C   UNL     1     -12.154  12.326  70.090  1.00  0.00    -0.287 A  
HETATM   17  S   UNL     1     -12.240  14.016  70.347  1.00  0.00    -0.379 SA 
HETATM   18  C   UNL     1     -11.628  14.279  68.762  1.00  0.00    -0.322 A  
HETATM   19  N   UNL     1     -11.390  13.187  68.061  1.00  0.00    -0.274 NA 
BRANCH  18  20
HETATM   20  C   UNL     1     -11.426  15.680  68.235  1.00  0.00    -0.350 C  
BRANCH  20  21
HETATM   21  N   UNL     1     -10.044  16.192  68.379  1.00  0.00    -0.230 NA 
HETATM   22  C   UNL     1     -10.030  17.541  68.954  1.00  0.00    -0.313 C  
HETATM   23  C   UNL     1      -9.276  15.287  69.238  1.00  0.00    -0.233 C  
ENDBRANCH  20  21
ENDBRANCH  18  20
ENDBRANCH  14  15
ENDBRANCH  13  14
ENDBRANCH  12  13
ENDBRANCH  11  12
ENDBRANCH   9  11
ENDBRANCH   4   9
ENDBRANCH   2   4
TORSDOF 9
ENDMDL
MODEL      364
REMARK 921   NORMALIZED FREE ENERGY PREDICTED BY IDOCK:   -2.19 KCAL/MOL
REMARK 922        TOTAL FREE ENERGY PREDICTED BY IDOCK:   -4.41 KCAL/MOL
REMARK 923 INTER-LIGAND FREE ENERGY PREDICTED BY IDOCK:   -4.02 KCAL/MOL
REMARK 924 INTRA-LIGAND FREE ENERGY PREDICTED BY IDOCK:   -0.39 KCAL/MOL
REMARK 927      BINDING AFFINITY PREDICTED BY RF-SCORE:    0.00 PKD
ROOT
HETATM    1  C   UNL     1      -9.594   4.990  65.738  1.00  0.00    -0.148 C  
HETATM    2  N   UNL     1      -9.242   6.232  66.388  1.00  0.00    -0.156 NA 
HETATM    3  H   UNL     1      -8.594   6.828  65.873  1.00  0.00     0.000 HD 
ENDROOT
BRANCH   2   4
HETATM    4  C   UNL     1      -9.660   6.728  67.612  1.00  0.00    -0.125 C  
HETATM    5  C   UNL     1      -9.592   5.931  68.699  1.00  0.00    -0.123 C  
HETATM    6  O   UNL     1     -10.405   7.491  70.219  1.00  0.00    -0.206 OA 
HETATM    7  N   UNL     1      -9.993   6.340  70.022  1.00  0.00    -0.168 N  
HETATM    8  O   UNL     1      -9.888   5.474  70.901  1.00  0.00    -0.169 OA 
BRANCH   4   9
HETATM    9  N   UNL     1     -10.148   8.022  67.658  1.00  0.00    -0.193 NA 
HETATM   10  H   UNL     1     -10.927   8.163  68.300  1.00  0.00     0.000 HD 
BRANCH   9  11
HETATM   11  C   UNL     1      -9.729   9.209  66.940  1.00  0.00    -0.194 C  
BRANCH  11  12
HETATM   12  C   UNL     1      -9.349  10.324  67.919  1.00  0.00    -0.138 C  
BRANCH  12  13
HETATM   13  S   UNL     1     -10.387  11.814  67.732  1.00  0.00    -0.199 SA 
BRANCH  13  14
HETATM   14  C   UNL     1      -9.247  12.864  66.769  1.00  0.00    -0.230 C  
BRANCH  14  15
HETATM   15  C   UNL     1      -9.159  14.231  67.355  1.00  0.00    -0.196 A  
HETATM   16  C   UNL     1      -9.449  14.597  68.654  1.00  0.00    -0.211 A  
HETATM   17  S   UNL     1      -9.192  16.276  68.865  1.00  0.00    -0.252 SA 
HETATM   18  C   UNL     1      -8.736  16.406  67.212  1.00  0.00    -0.181 A  
HETATM   19  N   UNL     1      -8.789  15.282  66.524  1.00  0.00    -0.296 NA 
BRANCH  18  20
HETATM   20  C   UNL     1      -8.347  17.739  66.621  1.00  0.00    -0.259 C  
BRANCH  20  21
HETATM   21  N   UNL     1      -7.302  18.461  67.384  1.00  0.00    -0.215 NA 
HETATM   22  C   UNL     1      -6.031  17.729  67.376  1.00  0.00    -0.146 C  
HETATM   23  C   UNL     1      -7.104  19.791  66.801  1.00  0.00    -0.219 C  
ENDBRANCH  20  21
ENDBRANCH  18  20
ENDBRANCH  14  15
ENDBRANCH  13  14
ENDBRANCH  12  13
ENDBRANCH  11  12
ENDBRANCH   9  11
ENDBRANCH   4   9
ENDBRANCH   2   4
TORSDOF 9
ENDMDL
MODEL      365
REMARK 921   NORMALIZED FREE ENERGY PREDICTED BY IDOCK:   -2.18 KCAL/MOL
REMARK 922        TOTAL FREE ENERGY PREDICTED BY IDOCK:   -4.40 KCAL/MOL
REMARK 923 INTER-LIGAND FREE ENERGY PREDICTED BY IDOCK:   -4.28 KCAL/MOL
REMARK 924 INTRA-LIGAND FREE ENERGY PREDICTED BY IDOCK:   -0.11 KCAL/MOL
REMARK 927      BINDING AFFINITY PREDICTED BY RF-SCORE:    0.00 PKD
ROOT
HETATM    1  C   UNL     1      -7.414  12.746  68.479  1.00  0.00    -0.120 C  
HETATM    2  N   UNL     1      -8.562  11.868  68.477  1.00  0.00    -0.281 NA 
HETATM    3  H   UNL     1      -8.434  10.978  68.959  1.00  0.00     0.000 HD 
ENDROOT
BRANCH   2   4
HETATM    4  C   UNL     1      -9.812  12.063  67.912  1.00  0.00    -0.196 C  
HETATM    5  C   UNL     1      -9.997  13.104  67.074  1.00  0.00    -0.244 C  
HETATM    6  O   UNL     1     -12.231  12.667  66.600  1.00  0.00    -0.517 OA 
HETATM    7  N   UNL     1     -11.249  13.402  66.425  1.00  0.00    -0.299 N  
HETATM    8  O   UNL     1     -11.249  14.411  65.707  1.00  0.00    -0.315 OA 
BRANCH   4   9
HETATM    9  N   UNL     1     -10.824  11.182  68.252  1.00  0.00    -0.196 NA 
HETATM   10  H   UNL     1     -11.635  11.203  67.633  1.00  0.00     0.000 HD 
BRANCH   9  11
HETATM   11  C   UNL     1     -10.918  10.237  69.345  1.00  0.00    -0.247 C  
BRANCH  11  12
HETATM   12  C   UNL     1     -10.459   8.847  68.896  1.00  0.00    -0.205 C  
BRANCH  12  13
HETATM   13  S   UNL     1      -9.288   8.076  70.065  1.00  0.00    -0.156 SA 
BRANCH  13  14
HETATM   14  C   UNL     1     -10.346   6.741  70.723  1.00  0.00    -0.204 C  
BRANCH  14  15
HETATM   15  C   UNL     1      -9.967   5.424  70.138  1.00  0.00    -0.232 A  
HETATM   16  C   UNL     1      -9.679   4.264  70.827  1.00  0.00    -0.204 A  
HETATM   17  S   UNL     1      -9.306   3.003  69.730  1.00  0.00    -0.117 SA 
HETATM   18  C   UNL     1      -9.531   4.092  68.417  1.00  0.00    -0.149 A  
HETATM   19  N   UNL     1      -9.842   5.328  68.757  1.00  0.00    -0.150 NA 
BRANCH  18  20
HETATM   20  C   UNL     1      -9.338   3.632  66.992  1.00  0.00    -0.198 C  
BRANCH  20  21
HETATM   21  N   UNL     1      -8.045   4.035  66.392  1.00  0.00    -0.097 NA 
HETATM   22  C   UNL     1      -7.979   5.485  66.186  1.00  0.00    -0.105 C  
HETATM   23  C   UNL     1      -6.949   3.614  67.268  1.00  0.00    -0.055 C  
ENDBRANCH  20  21
ENDBRANCH  18  20
ENDBRANCH  14  15
ENDBRANCH  13  14
ENDBRANCH  12  13
ENDBRANCH  11  12
ENDBRANCH   9  11
ENDBRANCH   4   9
ENDBRANCH   2   4
TORSDOF 9
ENDMDL
MODEL      366
REMARK 921   NORMALIZED FREE ENERGY PREDICTED BY IDOCK:   -2.18 KCAL/MOL
REMARK 922        TOTAL FREE ENERGY PREDICTED BY IDOCK:   -4.39 KCAL/MOL
REMARK 923 INTER-LIGAND FREE ENERGY PREDICTED BY IDOCK:   -3.80 KCAL/MOL
REMARK 924 INTRA-LIGAND FREE ENERGY PREDICTED BY IDOCK:   -0.59 KCAL/MOL
REMARK 927      BINDING AFFINITY PREDICTED BY RF-SCORE:    0.00 PKD
ROOT
HETATM    1  C   UNL     1      -7.121  11.557  69.252  1.00  0.00    -0.077 C  
HETATM    2  N   UNL     1      -8.288  10.715  69.389  1.00  0.00    -0.341 NA 
HETATM    3  H   UNL     1      -8.125   9.807  69.822  1.00  0.00     0.000 HD 
ENDROOT
BRANCH   2   4
HETATM    4  C   UNL     1      -9.598  10.969  69.015  1.00  0.00    -0.121 C  
HETATM    5  C   UNL     1      -9.846  11.952  68.125  1.00  0.00    -0.192 C  
HETATM    6  O   UNL     1     -12.152  11.667  68.055  1.00  0.00    -0.597 OA 
HETATM    7  N   UNL     1     -11.165  12.301  67.659  1.00  0.00    -0.271 N  
HETATM    8  O   UNL     1     -11.214  13.246  66.861  1.00  0.00    -0.289 OA 
BRANCH   4   9
HETATM    9  N   UNL     1     -10.598  10.205  69.591  1.00  0.00    -0.239 NA 
HETATM   10  H   UNL     1     -11.356   9.946  68.958  1.00  0.00     0.000 HD 
BRANCH   9  11
HETATM   11  C   UNL     1     -10.743   9.715  70.946  1.00  0.00    -0.332 C  
BRANCH  11  12
HETATM   12  C   UNL     1     -10.317   8.246  71.036  1.00  0.00    -0.191 C  
BRANCH  12  13
HETATM   13  S   UNL     1     -10.863   7.262  69.598  1.00  0.00    -0.190 SA 
BRANCH  13  14
HETATM   14  C   UNL     1      -9.248   6.954  68.806  1.00  0.00    -0.131 C  
BRANCH  14  15
HETATM   15  C   UNL     1      -9.127   5.532  68.379  1.00  0.00    -0.111 A  
HETATM   16  C   UNL     1      -9.398   5.017  67.127  1.00  0.00    -0.125 A  
HETATM   17  S   UNL     1      -9.104   3.330  67.107  1.00  0.00    -0.186 SA 
HETATM   18  C   UNL     1      -8.660   3.397  68.767  1.00  0.00    -0.084 A  
HETATM   19  N   UNL     1      -8.742   4.589  69.325  1.00  0.00    -0.085 NA 
BRANCH  18  20
HETATM   20  C   UNL     1      -8.248   2.147  69.507  1.00  0.00    -0.044 C  
BRANCH  20  21
HETATM   21  N   UNL     1      -8.201   2.298  70.979  1.00  0.00    -0.049 NA 
HETATM   22  C   UNL     1      -9.432   1.807  71.607  1.00  0.00    -0.114 C  
HETATM   23  C   UNL     1      -7.053   1.557  71.509  1.00  0.00    -0.031 C  
ENDBRANCH  20  21
ENDBRANCH  18  20
ENDBRANCH  14  15
ENDBRANCH  13  14
ENDBRANCH  12  13
ENDBRANCH  11  12
ENDBRANCH   9  11
ENDBRANCH   4   9
ENDBRANCH   2   4
TORSDOF 9
ENDMDL
MODEL      367
REMARK 921   NORMALIZED FREE ENERGY PREDICTED BY IDOCK:   -2.15 KCAL/MOL
REMARK 922        TOTAL FREE ENERGY PREDICTED BY IDOCK:   -4.35 KCAL/MOL
REMARK 923 INTER-LIGAND FREE ENERGY PREDICTED BY IDOCK:   -3.92 KCAL/MOL
REMARK 924 INTRA-LIGAND FREE ENERGY PREDICTED BY IDOCK:   -0.43 KCAL/MOL
REMARK 927      BINDING AFFINITY PREDICTED BY RF-SCORE:    0.00 PKD
ROOT
HETATM    1  C   UNL     1     -11.793  13.080  68.997  1.00  0.00    -0.316 C  
HETATM    2  N   UNL     1     -11.116  13.404  67.762  1.00  0.00    -0.260 NA 
HETATM    3  H   UNL     1     -10.731  14.347  67.708  1.00  0.00     0.000 HD 
ENDROOT
BRANCH   2   4
HETATM    4  C   UNL     1     -10.915  12.616  66.641  1.00  0.00    -0.258 C  
HETATM    5  C   UNL     1     -11.797  12.690  65.622  1.00  0.00    -0.437 C  
HETATM    6  O   UNL     1     -10.728  11.159  64.237  1.00  0.00    -0.358 OA 
HETATM    7  N   UNL     1     -11.688  11.923  64.406  1.00  0.00    -0.307 N  
HETATM    8  O   UNL     1     -12.598  12.095  63.585  1.00  0.00    -0.623 OA 
BRANCH   4   9
HETATM    9  N   UNL     1      -9.820  11.770  66.627  1.00  0.00    -0.199 NA 
HETATM   10  H   UNL     1      -9.625  11.337  65.724  1.00  0.00     0.000 HD 
BRANCH   9  11
HETATM   11  C   UNL     1      -8.906  11.401  67.689  1.00  0.00    -0.139 C  
BRANCH  11  12
HETATM   12  C   UNL     1      -7.807  10.476  67.156  1.00  0.00    -0.112 C  
BRANCH  12  13
HETATM   13  S   UNL     1      -8.465   8.915  66.475  1.00  0.00    -0.122 SA 
BRANCH  13  14
HETATM   14  C   UNL     1      -6.897   8.081  66.052  1.00  0.00    -0.057 C  
BRANCH  14  15
HETATM   15  C   UNL     1      -7.092   7.119  64.932  1.00  0.00    -0.064 A  
HETATM   16  C   UNL     1      -7.058   7.402  63.581  1.00  0.00    -0.066 A  
HETATM   17  S   UNL     1      -7.325   5.975  62.673  1.00  0.00    -0.061 SA 
HETATM   18  C   UNL     1      -7.490   5.085  64.136  1.00  0.00    -0.064 A  
HETATM   19  N   UNL     1      -7.379   5.795  65.242  1.00  0.00    -0.073 NA 
BRANCH  18  20
HETATM   20  C   UNL     1      -7.779   3.603  64.109  1.00  0.00    -0.080 C  
BRANCH  20  21
HETATM   21  N   UNL     1      -8.875   3.213  63.192  1.00  0.00    -0.092 NA 
HETATM   22  C   UNL     1      -8.536   2.003  62.436  1.00  0.00    -0.072 C  
HETATM   23  C   UNL     1     -10.097   2.980  63.966  1.00  0.00    -0.157 C  
ENDBRANCH  20  21
ENDBRANCH  18  20
ENDBRANCH  14  15
ENDBRANCH  13  14
ENDBRANCH  12  13
ENDBRANCH  11  12
ENDBRANCH   9  11
ENDBRANCH   4   9
ENDBRANCH   2   4
TORSDOF 9
ENDMDL
MODEL      368
REMARK 921   NORMALIZED FREE ENERGY PREDICTED BY IDOCK:   -2.15 KCAL/MOL
REMARK 922        TOTAL FREE ENERGY PREDICTED BY IDOCK:   -4.35 KCAL/MOL
REMARK 923 INTER-LIGAND FREE ENERGY PREDICTED BY IDOCK:   -4.07 KCAL/MOL
REMARK 924 INTRA-LIGAND FREE ENERGY PREDICTED BY IDOCK:   -0.28 KCAL/MOL
REMARK 927      BINDING AFFINITY PREDICTED BY RF-SCORE:    0.00 PKD
ROOT
HETATM    1  C   UNL     1      -8.058   8.496  64.182  1.00  0.00    -0.154 C  
HETATM    2  N   UNL     1      -9.123   8.836  65.100  1.00  0.00    -0.419 NA 
HETATM    3  H   UNL     1      -9.449   8.074  65.693  1.00  0.00     0.000 HD 
ENDROOT
BRANCH   2   4
HETATM    4  C   UNL     1      -9.761  10.051  65.287  1.00  0.00    -0.306 C  
HETATM    5  C   UNL     1     -10.278  10.691  64.218  1.00  0.00    -0.320 C  
HETATM    6  O   UNL     1     -11.139  12.506  65.389  1.00  0.00    -0.287 OA 
HETATM    7  N   UNL     1     -10.968  11.955  64.292  1.00  0.00    -0.329 N  
HETATM    8  O   UNL     1     -11.357  12.413  63.210  1.00  0.00    -0.437 OA 
BRANCH   4   9
HETATM    9  N   UNL     1      -9.823  10.562  66.572  1.00  0.00    -0.199 NA 
HETATM   10  H   UNL     1     -10.746  10.525  67.003  1.00  0.00     0.000 HD 
BRANCH   9  11
HETATM   11  C   UNL     1      -8.787  11.141  67.402  1.00  0.00    -0.139 C  
BRANCH  11  12
HETATM   12  C   UNL     1      -7.436  11.105  66.682  1.00  0.00    -0.146 C  
BRANCH  12  13
HETATM   13  S   UNL     1      -6.055  10.658  67.790  1.00  0.00    -0.047 SA 
BRANCH  13  14
HETATM   14  C   UNL     1      -7.000  10.100  69.248  1.00  0.00    -0.068 C  
BRANCH  14  15
HETATM   15  C   UNL     1      -7.052   8.612  69.311  1.00  0.00    -0.062 A  
HETATM   16  C   UNL     1      -5.977   7.748  69.388  1.00  0.00    -0.033 A  
HETATM   17  S   UNL     1      -6.527   6.128  69.449  1.00  0.00    -0.044 SA 
HETATM   18  C   UNL     1      -8.151   6.684  69.346  1.00  0.00    -0.119 A  
HETATM   19  N   UNL     1      -8.293   7.991  69.248  1.00  0.00    -0.133 NA 
BRANCH  18  20
HETATM   20  C   UNL     1      -9.302   5.707  69.334  1.00  0.00    -0.125 C  
BRANCH  20  21
HETATM   21  N   UNL     1     -10.151   5.751  70.547  1.00  0.00    -0.196 NA 
HETATM   22  C   UNL     1      -9.390   6.200  71.717  1.00  0.00    -0.151 C  
HETATM   23  C   UNL     1     -11.279   6.658  70.320  1.00  0.00    -0.353 C  
ENDBRANCH  20  21
ENDBRANCH  18  20
ENDBRANCH  14  15
ENDBRANCH  13  14
ENDBRANCH  12  13
ENDBRANCH  11  12
ENDBRANCH   9  11
ENDBRANCH   4   9
ENDBRANCH   2   4
TORSDOF 9
ENDMDL
MODEL      369
REMARK 921   NORMALIZED FREE ENERGY PREDICTED BY IDOCK:   -2.14 KCAL/MOL
REMARK 922        TOTAL FREE ENERGY PREDICTED BY IDOCK:   -4.33 KCAL/MOL
REMARK 923 INTER-LIGAND FREE ENERGY PREDICTED BY IDOCK:   -4.50 KCAL/MOL
REMARK 924 INTRA-LIGAND FREE ENERGY PREDICTED BY IDOCK:    0.17 KCAL/MOL
REMARK 927      BINDING AFFINITY PREDICTED BY RF-SCORE:    0.00 PKD
ROOT
HETATM    1  C   UNL     1      -9.363  11.403  65.209  1.00  0.00    -0.171 C  
HETATM    2  N   UNL     1      -9.988  10.356  65.986  1.00  0.00    -0.229 NA 
HETATM    3  H   UNL     1      -9.928   9.419  65.586  1.00  0.00     0.000 HD 
ENDROOT
BRANCH   2   4
HETATM    4  C   UNL     1     -10.655  10.444  67.196  1.00  0.00    -0.261 C  
HETATM    5  C   UNL     1     -11.066  11.654  67.631  1.00  0.00    -0.255 C  
HETATM    6  O   UNL     1     -12.064  10.904  69.592  1.00  0.00    -0.319 OA 
HETATM    7  N   UNL     1     -11.773  11.867  68.869  1.00  0.00    -0.302 N  
HETATM    8  O   UNL     1     -12.053  13.045  69.126  1.00  0.00    -0.276 OA 
BRANCH   4   9
HETATM    9  N   UNL     1     -10.856   9.279  67.916  1.00  0.00    -0.473 NA 
HETATM   10  H   UNL     1     -11.303   9.409  68.823  1.00  0.00     0.000 HD 
BRANCH   9  11
HETATM   11  C   UNL     1     -10.534   7.906  67.587  1.00  0.00    -0.234 C  
BRANCH  11  12
HETATM   12  C   UNL     1      -9.870   7.208  68.778  1.00  0.00    -0.158 C  
BRANCH  12  13
HETATM   13  S   UNL     1     -10.776   5.719  69.321  1.00  0.00    -0.296 SA 
BRANCH  13  14
HETATM   14  C   UNL     1     -11.400   6.308  70.931  1.00  0.00    -0.325 C  
BRANCH  14  15
HETATM   15  C   UNL     1     -10.837   5.499  72.048  1.00  0.00    -0.226 A  
HETATM   16  C   UNL     1     -11.514   5.034  73.158  1.00  0.00    -0.282 A  
HETATM   17  S   UNL     1     -10.454   4.142  74.164  1.00  0.00    -0.242 SA 
HETATM   18  C   UNL     1      -9.165   4.454  73.069  1.00  0.00    -0.118 A  
HETATM   19  N   UNL     1      -9.481   5.195  72.025  1.00  0.00    -0.147 NA 
BRANCH  18  20
HETATM   20  C   UNL     1      -7.776   3.930  73.342  1.00  0.00    -0.083 C  
BRANCH  20  21
HETATM   21  N   UNL     1      -7.327   2.876  72.402  1.00  0.00    -0.046 NA 
HETATM   22  C   UNL     1      -7.905   3.068  71.068  1.00  0.00    -0.047 C  
HETATM   23  C   UNL     1      -5.865   2.896  72.310  1.00  0.00    -0.009 C  
ENDBRANCH  20  21
ENDBRANCH  18  20
ENDBRANCH  14  15
ENDBRANCH  13  14
ENDBRANCH  12  13
ENDBRANCH  11  12
ENDBRANCH   9  11
ENDBRANCH   4   9
ENDBRANCH   2   4
TORSDOF 9
ENDMDL
MODEL      370
REMARK 921   NORMALIZED FREE ENERGY PREDICTED BY IDOCK:   -2.13 KCAL/MOL
REMARK 922        TOTAL FREE ENERGY PREDICTED BY IDOCK:   -4.31 KCAL/MOL
REMARK 923 INTER-LIGAND FREE ENERGY PREDICTED BY IDOCK:   -3.84 KCAL/MOL
REMARK 924 INTRA-LIGAND FREE ENERGY PREDICTED BY IDOCK:   -0.47 KCAL/MOL
REMARK 927      BINDING AFFINITY PREDICTED BY RF-SCORE:    0.00 PKD
ROOT
HETATM    1  C   UNL     1      -9.928   5.138  66.548  1.00  0.00    -0.212 C  
HETATM    2  N   UNL     1     -10.613   5.782  67.646  1.00  0.00    -0.241 NA 
HETATM    3  H   UNL     1     -11.545   6.138  67.432  1.00  0.00     0.000 HD 
ENDROOT
BRANCH   2   4
HETATM    4  C   UNL     1     -10.183   5.985  68.947  1.00  0.00    -0.196 C  
HETATM    5  C   UNL     1     -11.099   6.222  69.910  1.00  0.00    -0.401 C  
HETATM    6  O   UNL     1      -9.591   6.391  71.671  1.00  0.00    -0.161 OA 
HETATM    7  N   UNL     1     -10.770   6.441  71.296  1.00  0.00    -0.233 N  
HETATM    8  O   UNL     1     -11.733   6.669  72.041  1.00  0.00    -0.286 OA 
BRANCH   4   9
HETATM    9  N   UNL     1      -8.822   5.952  69.196  1.00  0.00    -0.117 NA 
HETATM   10  H   UNL     1      -8.533   5.275  69.901  1.00  0.00     0.000 HD 
BRANCH   9  11
HETATM   11  C   UNL     1      -7.743   6.724  68.615  1.00  0.00    -0.113 C  
BRANCH  11  12
HETATM   12  C   UNL     1      -8.160   8.188  68.444  1.00  0.00    -0.128 C  
BRANCH  12  13
HETATM   13  S   UNL     1      -6.734   9.328  68.391  1.00  0.00    -0.059 SA 
BRANCH  13  14
HETATM   14  C   UNL     1      -7.126  10.237  66.858  1.00  0.00    -0.092 C  
BRANCH  14  15
HETATM   15  C   UNL     1      -8.063  11.363  67.132  1.00  0.00    -0.155 A  
HETATM   16  C   UNL     1      -9.363  11.485  66.686  1.00  0.00    -0.189 A  
HETATM   17  S   UNL     1     -10.049  12.945  67.262  1.00  0.00    -0.233 SA 
HETATM   18  C   UNL     1      -8.565  13.323  68.044  1.00  0.00    -0.178 A  
HETATM   19  N   UNL     1      -7.600  12.440  67.877  1.00  0.00    -0.117 NA 
BRANCH  18  20
HETATM   20  C   UNL     1      -8.409  14.607  68.824  1.00  0.00    -0.163 C  
BRANCH  20  21
HETATM   21  N   UNL     1      -8.503  15.835  68.001  1.00  0.00    -0.159 NA 
HETATM   22  C   UNL     1      -8.291  17.039  68.811  1.00  0.00    -0.237 C  
HETATM   23  C   UNL     1      -7.504  15.782  66.931  1.00  0.00    -0.169 C  
ENDBRANCH  20  21
ENDBRANCH  18  20
ENDBRANCH  14  15
ENDBRANCH  13  14
ENDBRANCH  12  13
ENDBRANCH  11  12
ENDBRANCH   9  11
ENDBRANCH   4   9
ENDBRANCH   2   4
TORSDOF 9
ENDMDL
MODEL      371
REMARK 921   NORMALIZED FREE ENERGY PREDICTED BY IDOCK:   -2.13 KCAL/MOL
REMARK 922        TOTAL FREE ENERGY PREDICTED BY IDOCK:   -4.31 KCAL/MOL
REMARK 923 INTER-LIGAND FREE ENERGY PREDICTED BY IDOCK:   -3.72 KCAL/MOL
REMARK 924 INTRA-LIGAND FREE ENERGY PREDICTED BY IDOCK:   -0.59 KCAL/MOL
REMARK 927      BINDING AFFINITY PREDICTED BY RF-SCORE:    0.00 PKD
ROOT
HETATM    1  C   UNL     1      -8.547   5.303  67.033  1.00  0.00    -0.105 C  
HETATM    2  N   UNL     1      -9.729   5.706  67.761  1.00  0.00    -0.119 NA 
HETATM    3  H   UNL     1     -10.540   5.934  67.187  1.00  0.00     0.000 HD 
ENDROOT
BRANCH   2   4
HETATM    4  C   UNL     1      -9.917   5.825  69.128  1.00  0.00    -0.177 C  
HETATM    5  C   UNL     1     -11.143   6.139  69.596  1.00  0.00    -0.419 C  
HETATM    6  O   UNL     1     -10.583   6.093  71.852  1.00  0.00    -0.208 OA 
HETATM    7  N   UNL     1     -11.457   6.285  70.996  1.00  0.00    -0.322 N  
HETATM    8  O   UNL     1     -12.628   6.599  71.248  1.00  0.00    -0.317 OA 
BRANCH   4   9
HETATM    9  N   UNL     1      -8.823   5.633  69.954  1.00  0.00    -0.127 NA 
HETATM   10  H   UNL     1      -8.849   4.775  70.506  1.00  0.00     0.000 HD 
BRANCH   9  11
HETATM   11  C   UNL     1      -7.648   6.454  70.162  1.00  0.00    -0.096 C  
BRANCH  11  12
HETATM   12  C   UNL     1      -7.867   7.861  69.599  1.00  0.00    -0.105 C  
BRANCH  12  13
HETATM   13  S   UNL     1      -8.077   9.121  70.904  1.00  0.00    -0.122 SA 
BRANCH  13  14
HETATM   14  C   UNL     1      -6.748  10.277  70.431  1.00  0.00    -0.118 C  
BRANCH  14  15
HETATM   15  C   UNL     1      -6.957  10.792  69.048  1.00  0.00    -0.085 A  
HETATM   16  C   UNL     1      -6.014  10.874  68.044  1.00  0.00    -0.049 A  
HETATM   17  S   UNL     1      -6.719  11.521  66.624  1.00  0.00    -0.020 SA 
HETATM   18  C   UNL     1      -8.221  11.669  67.449  1.00  0.00    -0.153 A  
HETATM   19  N   UNL     1      -8.210  11.286  68.711  1.00  0.00    -0.144 NA 
BRANCH  18  20
HETATM   20  C   UNL     1      -9.432  12.238  66.750  1.00  0.00    -0.222 C  
BRANCH  20  21
HETATM   21  N   UNL     1     -10.011  13.432  67.409  1.00  0.00    -0.227 NA 
HETATM   22  C   UNL     1      -9.386  14.667  66.925  1.00  0.00    -0.243 C  
HETATM   23  C   UNL     1     -11.453  13.480  67.152  1.00  0.00    -0.338 C  
ENDBRANCH  20  21
ENDBRANCH  18  20
ENDBRANCH  14  15
ENDBRANCH  13  14
ENDBRANCH  12  13
ENDBRANCH  11  12
ENDBRANCH   9  11
ENDBRANCH   4   9
ENDBRANCH   2   4
TORSDOF 9
ENDMDL
MODEL      372
REMARK 921   NORMALIZED FREE ENERGY PREDICTED BY IDOCK:   -2.11 KCAL/MOL
REMARK 922        TOTAL FREE ENERGY PREDICTED BY IDOCK:   -4.29 KCAL/MOL
REMARK 923 INTER-LIGAND FREE ENERGY PREDICTED BY IDOCK:   -3.69 KCAL/MOL
REMARK 924 INTRA-LIGAND FREE ENERGY PREDICTED BY IDOCK:   -0.60 KCAL/MOL
REMARK 927      BINDING AFFINITY PREDICTED BY RF-SCORE:    0.00 PKD
ROOT
HETATM    1  C   UNL     1      -8.512   9.871  69.641  1.00  0.00    -0.187 C  
HETATM    2  N   UNL     1      -7.548  10.947  69.584  1.00  0.00    -0.354 NA 
HETATM    3  H   UNL     1      -6.686  10.791  70.106  1.00  0.00     0.000 HD 
ENDROOT
BRANCH   2   4
HETATM    4  C   UNL     1      -7.630  12.160  68.921  1.00  0.00     0.003 C  
HETATM    5  C   UNL     1      -6.494  12.752  68.495  1.00  0.00    -0.082 C  
HETATM    6  O   UNL     1      -7.511  14.601  67.519  1.00  0.00    -0.169 OA 
HETATM    7  N   UNL     1      -6.457  14.010  67.791  1.00  0.00    -0.168 N  
HETATM    8  O   UNL     1      -5.327  14.420  67.495  1.00  0.00    -0.337 OA 
BRANCH   4   9
HETATM    9  N   UNL     1      -8.883  12.721  68.742  1.00  0.00    -0.382 NA 
HETATM   10  H   UNL     1      -9.111  13.473  69.392  1.00  0.00     0.000 HD 
BRANCH   9  11
HETATM   11  C   UNL     1      -9.920  12.412  67.780  1.00  0.00    -0.205 C  
BRANCH  11  12
HETATM   12  C   UNL     1      -9.337  11.656  66.583  1.00  0.00    -0.194 C  
BRANCH  12  13
HETATM   13  S   UNL     1     -10.449  10.347  65.962  1.00  0.00    -0.083 SA 
BRANCH  13  14
HETATM   14  C   UNL     1      -9.311   9.494  64.819  1.00  0.00    -0.169 C  
BRANCH  14  15
HETATM   15  C   UNL     1      -8.869   8.188  65.384  1.00  0.00    -0.044 A  
HETATM   16  C   UNL     1      -7.787   7.433  64.978  1.00  0.00    -0.124 A  
HETATM   17  S   UNL     1      -7.669   6.013  65.928  1.00  0.00    -0.099 SA 
HETATM   18  C   UNL     1      -9.075   6.488  66.796  1.00  0.00    -0.144 A  
HETATM   19  N   UNL     1      -9.626   7.619  66.402  1.00  0.00    -0.185 NA 
BRANCH  18  20
HETATM   20  C   UNL     1      -9.629   5.621  67.901  1.00  0.00    -0.120 C  
BRANCH  20  21
HETATM   21  N   UNL     1      -9.986   6.360  69.134  1.00  0.00    -0.146 NA 
HETATM   22  C   UNL     1     -11.402   6.182  69.474  1.00  0.00    -0.356 C  
HETATM   23  C   UNL     1      -9.154   5.888  70.244  1.00  0.00    -0.147 C  
ENDBRANCH  20  21
ENDBRANCH  18  20
ENDBRANCH  14  15
ENDBRANCH  13  14
ENDBRANCH  12  13
ENDBRANCH  11  12
ENDBRANCH   9  11
ENDBRANCH   4   9
ENDBRANCH   2   4
TORSDOF 9
ENDMDL
MODEL      373
REMARK 921   NORMALIZED FREE ENERGY PREDICTED BY IDOCK:   -2.09 KCAL/MOL
REMARK 922        TOTAL FREE ENERGY PREDICTED BY IDOCK:   -4.26 KCAL/MOL
REMARK 923 INTER-LIGAND FREE ENERGY PREDICTED BY IDOCK:   -3.55 KCAL/MOL
REMARK 924 INTRA-LIGAND FREE ENERGY PREDICTED BY IDOCK:   -0.71 KCAL/MOL
REMARK 927      BINDING AFFINITY PREDICTED BY RF-SCORE:    0.00 PKD
ROOT
HETATM    1  C   UNL     1      -8.638   9.355  64.171  1.00  0.00    -0.198 C  
HETATM    2  N   UNL     1      -9.882   9.661  64.841  1.00  0.00    -0.422 NA 
HETATM    3  H   UNL     1     -10.505   8.868  64.990  1.00  0.00     0.000 HD 
ENDROOT
BRANCH   2   4
HETATM    4  C   UNL     1     -10.347  10.879  65.308  1.00  0.00    -0.268 C  
HETATM    5  C   UNL     1     -10.906  11.745  64.437  1.00  0.00    -0.334 C  
HETATM    6  O   UNL     1     -11.407  13.398  65.994  1.00  0.00    -0.301 OA 
HETATM    7  N   UNL     1     -11.428  13.036  64.809  1.00  0.00    -0.316 N  
HETATM    8  O   UNL     1     -11.884  13.714  63.879  1.00  0.00    -0.420 OA 
BRANCH   4   9
HETATM    9  N   UNL     1     -10.200  11.158  66.656  1.00  0.00    -0.224 NA 
HETATM   10  H   UNL     1     -11.062  11.421  67.135  1.00  0.00     0.000 HD 
BRANCH   9  11
HETATM   11  C   UNL     1      -9.020  11.136  67.495  1.00  0.00    -0.139 C  
BRANCH  11  12
HETATM   12  C   UNL     1      -7.862  11.873  66.816  1.00  0.00    -0.070 C  
BRANCH  12  13
HETATM   13  S   UNL     1      -6.290  10.948  66.896  1.00  0.00    -0.099 SA 
BRANCH  13  14
HETATM   14  C   UNL     1      -6.879   9.410  67.683  1.00  0.00    -0.076 C  
BRANCH  14  15
HETATM   15  C   UNL     1      -6.756   8.255  66.750  1.00  0.00    -0.064 A  
HETATM   16  C   UNL     1      -5.828   8.099  65.741  1.00  0.00    -0.037 A  
HETATM   17  S   UNL     1      -6.071   6.605  64.941  1.00  0.00    -0.035 SA 
HETATM   18  C   UNL     1      -7.406   6.279  65.974  1.00  0.00    -0.080 A  
HETATM   19  N   UNL     1      -7.683   7.224  66.852  1.00  0.00    -0.107 NA 
BRANCH  18  20
HETATM   20  C   UNL     1      -8.202   5.004  65.828  1.00  0.00    -0.115 C  
BRANCH  20  21
HETATM   21  N   UNL     1      -7.598   3.829  66.497  1.00  0.00    -0.083 NA 
HETATM   22  C   UNL     1      -8.598   3.075  67.260  1.00  0.00    -0.106 C  
HETATM   23  C   UNL     1      -6.989   2.955  65.492  1.00  0.00    -0.053 C  
ENDBRANCH  20  21
ENDBRANCH  18  20
ENDBRANCH  14  15
ENDBRANCH  13  14
ENDBRANCH  12  13
ENDBRANCH  11  12
ENDBRANCH   9  11
ENDBRANCH   4   9
ENDBRANCH   2   4
TORSDOF 9
ENDMDL
MODEL      374
REMARK 921   NORMALIZED FREE ENERGY PREDICTED BY IDOCK:   -2.09 KCAL/MOL
REMARK 922        TOTAL FREE ENERGY PREDICTED BY IDOCK:   -4.25 KCAL/MOL
REMARK 923 INTER-LIGAND FREE ENERGY PREDICTED BY IDOCK:   -4.32 KCAL/MOL
REMARK 924 INTRA-LIGAND FREE ENERGY PREDICTED BY IDOCK:    0.06 KCAL/MOL
REMARK 927      BINDING AFFINITY PREDICTED BY RF-SCORE:    0.00 PKD
ROOT
HETATM    1  C   UNL     1      -9.367  11.399  65.212  1.00  0.00    -0.171 C  
HETATM    2  N   UNL     1     -10.052  10.368  65.958  1.00  0.00    -0.240 NA 
HETATM    3  H   UNL     1     -10.005   9.432  65.556  1.00  0.00     0.000 HD 
ENDROOT
BRANCH   2   4
HETATM    4  C   UNL     1     -10.763  10.470  67.142  1.00  0.00    -0.265 C  
HETATM    5  C   UNL     1     -11.130  11.692  67.582  1.00  0.00    -0.255 C  
HETATM    6  O   UNL     1     -12.243  10.962  69.488  1.00  0.00    -0.336 OA 
HETATM    7  N   UNL     1     -11.876  11.920  68.795  1.00  0.00    -0.319 N  
HETATM    8  O   UNL     1     -12.107  13.107  69.062  1.00  0.00    -0.291 OA 
BRANCH   4   9
HETATM    9  N   UNL     1     -11.051   9.305  67.832  1.00  0.00    -0.493 NA 
HETATM   10  H   UNL     1     -11.532   9.442  68.720  1.00  0.00     0.000 HD 
BRANCH   9  11
HETATM   11  C   UNL     1     -10.778   7.923  67.495  1.00  0.00    -0.181 C  
BRANCH  11  12
HETATM   12  C   UNL     1     -10.235   7.169  68.712  1.00  0.00    -0.179 C  
BRANCH  12  13
HETATM   13  S   UNL     1     -10.782   7.895  70.296  1.00  0.00    -0.236 SA 
BRANCH  13  14
HETATM   14  C   UNL     1      -9.194   8.573  70.887  1.00  0.00    -0.175 C  
BRANCH  14  15
HETATM   15  C   UNL     1      -8.777   7.921  72.159  1.00  0.00    -0.142 A  
HETATM   16  C   UNL     1      -8.234   8.538  73.268  1.00  0.00    -0.001 A  
HETATM   17  S   UNL     1      -7.923   7.384  74.493  1.00  0.00    -0.186 SA 
HETATM   18  C   UNL     1      -8.509   6.141  73.459  1.00  0.00    -0.118 A  
HETATM   19  N   UNL     1      -8.895   6.540  72.262  1.00  0.00    -0.134 NA 
BRANCH  18  20
HETATM   20  C   UNL     1      -8.527   4.702  73.915  1.00  0.00    -0.104 C  
BRANCH  20  21
HETATM   21  N   UNL     1      -9.885   4.144  74.114  1.00  0.00    -0.120 NA 
HETATM   22  C   UNL     1     -10.852   4.744  73.189  1.00  0.00    -0.270 C  
HETATM   23  C   UNL     1      -9.850   2.693  73.913  1.00  0.00    -0.098 C  
ENDBRANCH  20  21
ENDBRANCH  18  20
ENDBRANCH  14  15
ENDBRANCH  13  14
ENDBRANCH  12  13
ENDBRANCH  11  12
ENDBRANCH   9  11
ENDBRANCH   4   9
ENDBRANCH   2   4
TORSDOF 9
ENDMDL
MODEL      375
REMARK 921   NORMALIZED FREE ENERGY PREDICTED BY IDOCK:   -2.08 KCAL/MOL
REMARK 922        TOTAL FREE ENERGY PREDICTED BY IDOCK:   -4.24 KCAL/MOL
REMARK 923 INTER-LIGAND FREE ENERGY PREDICTED BY IDOCK:   -3.76 KCAL/MOL
REMARK 924 INTRA-LIGAND FREE ENERGY PREDICTED BY IDOCK:   -0.48 KCAL/MOL
REMARK 927      BINDING AFFINITY PREDICTED BY RF-SCORE:    0.00 PKD
ROOT
HETATM    1  C   UNL     1     -10.319  15.025  65.725  1.00  0.00    -0.335 C  
HETATM    2  N   UNL     1     -10.325  13.992  66.736  1.00  0.00    -0.269 NA 
HETATM    3  H   UNL     1     -11.232  13.563  66.918  1.00  0.00     0.000 HD 
ENDROOT
BRANCH   2   4
HETATM    4  C   UNL     1      -9.273  13.502  67.493  1.00  0.00    -0.219 C  
HETATM    5  C   UNL     1      -8.018  13.912  67.213  1.00  0.00    -0.129 C  
HETATM    6  O   UNL     1      -6.964  12.697  68.892  1.00  0.00    -0.096 OA 
HETATM    7  N   UNL     1      -6.849  13.475  67.934  1.00  0.00    -0.132 N  
HETATM    8  O   UNL     1      -5.772  13.932  67.529  1.00  0.00    -0.338 OA 
BRANCH   4   9
HETATM    9  N   UNL     1      -9.561  12.594  68.497  1.00  0.00    -0.374 NA 
HETATM   10  H   UNL     1      -9.244  12.870  69.426  1.00  0.00     0.000 HD 
BRANCH   9  11
HETATM   11  C   UNL     1     -10.240  11.316  68.440  1.00  0.00    -0.195 C  
BRANCH  11  12
HETATM   12  C   UNL     1      -9.665  10.354  69.483  1.00  0.00    -0.170 C  
BRANCH  12  13
HETATM   13  S   UNL     1     -10.714   8.882  69.743  1.00  0.00    -0.200 SA 
BRANCH  13  14
HETATM   14  C   UNL     1      -9.758   8.051  71.056  1.00  0.00    -0.160 C  
BRANCH  14  15
HETATM   15  C   UNL     1      -9.337   6.688  70.627  1.00  0.00    -0.162 A  
HETATM   16  C   UNL     1      -9.300   5.549  71.406  1.00  0.00    -0.147 A  
HETATM   17  S   UNL     1      -8.759   4.217  70.477  1.00  0.00    -0.082 SA 
HETATM   18  C   UNL     1      -8.590   5.249  69.111  1.00  0.00    -0.101 A  
HETATM   19  N   UNL     1      -8.891   6.515  69.323  1.00  0.00    -0.132 NA 
BRANCH  18  20
HETATM   20  C   UNL     1      -8.092   4.709  67.792  1.00  0.00    -0.096 C  
BRANCH  20  21
HETATM   21  N   UNL     1      -9.165   4.355  66.835  1.00  0.00    -0.130 NA 
HETATM   22  C   UNL     1      -9.092   5.176  65.622  1.00  0.00    -0.157 C  
HETATM   23  C   UNL     1      -9.051   2.939  66.476  1.00  0.00    -0.139 C  
ENDBRANCH  20  21
ENDBRANCH  18  20
ENDBRANCH  14  15
ENDBRANCH  13  14
ENDBRANCH  12  13
ENDBRANCH  11  12
ENDBRANCH   9  11
ENDBRANCH   4   9
ENDBRANCH   2   4
TORSDOF 9
ENDMDL
MODEL      376
REMARK 921   NORMALIZED FREE ENERGY PREDICTED BY IDOCK:   -2.04 KCAL/MOL
REMARK 922        TOTAL FREE ENERGY PREDICTED BY IDOCK:   -4.18 KCAL/MOL
REMARK 923 INTER-LIGAND FREE ENERGY PREDICTED BY IDOCK:   -3.82 KCAL/MOL
REMARK 924 INTRA-LIGAND FREE ENERGY PREDICTED BY IDOCK:   -0.35 KCAL/MOL
REMARK 927      BINDING AFFINITY PREDICTED BY RF-SCORE:    0.00 PKD
ROOT
HETATM    1  C   UNL     1     -11.564  10.466  68.988  1.00  0.00    -0.150 C  
HETATM    2  N   UNL     1     -11.170  11.046  67.723  1.00  0.00    -0.302 NA 
HETATM    3  H   UNL     1     -11.636  11.920  67.478  1.00  0.00     0.000 HD 
ENDROOT
BRANCH   2   4
HETATM    4  C   UNL     1     -10.249  10.584  66.798  1.00  0.00    -0.234 C  
HETATM    5  C   UNL     1     -10.488  10.776  65.484  1.00  0.00    -0.194 C  
HETATM    6  O   UNL     1      -8.532   9.783  64.713  1.00  0.00    -0.142 OA 
HETATM    7  N   UNL     1      -9.600  10.345  64.433  1.00  0.00    -0.291 N  
HETATM    8  O   UNL     1      -9.986  10.581  63.281  1.00  0.00    -0.302 OA 
BRANCH   4   9
HETATM    9  N   UNL     1      -9.127   9.925  67.270  1.00  0.00    -0.135 NA 
HETATM   10  H   UNL     1      -9.068   8.941  67.008  1.00  0.00     0.000 HD 
BRANCH   9  11
HETATM   11  C   UNL     1      -8.024  10.408  68.074  1.00  0.00    -0.105 C  
BRANCH  11  12
HETATM   12  C   UNL     1      -8.123   9.868  69.504  1.00  0.00    -0.152 C  
BRANCH  12  13
HETATM   13  S   UNL     1      -6.657   8.899  69.997  1.00  0.00    -0.044 SA 
BRANCH  13  14
HETATM   14  C   UNL     1      -6.983   7.359  69.074  1.00  0.00    -0.077 C  
BRANCH  14  15
HETATM   15  C   UNL     1      -8.248   6.720  69.533  1.00  0.00    -0.131 A  
HETATM   16  C   UNL     1      -9.433   6.631  68.832  1.00  0.00    -0.130 A  
HETATM   17  S   UNL     1     -10.607   5.801  69.761  1.00  0.00    -0.337 SA 
HETATM   18  C   UNL     1      -9.468   5.637  71.039  1.00  0.00    -0.166 A  
HETATM   19  N   UNL     1      -8.288   6.182  70.814  1.00  0.00    -0.125 NA 
BRANCH  18  20
HETATM   20  C   UNL     1      -9.846   4.945  72.326  1.00  0.00    -0.169 C  
BRANCH  20  21
HETATM   21  N   UNL     1     -10.191   5.865  73.434  1.00  0.00    -0.198 NA 
HETATM   22  C   UNL     1      -9.025   6.148  74.278  1.00  0.00    -0.135 C  
HETATM   23  C   UNL     1     -10.712   7.119  72.883  1.00  0.00    -0.302 C  
ENDBRANCH  20  21
ENDBRANCH  18  20
ENDBRANCH  14  15
ENDBRANCH  13  14
ENDBRANCH  12  13
ENDBRANCH  11  12
ENDBRANCH   9  11
ENDBRANCH   4   9
ENDBRANCH   2   4
TORSDOF 9
ENDMDL
MODEL      377
REMARK 921   NORMALIZED FREE ENERGY PREDICTED BY IDOCK:   -2.02 KCAL/MOL
REMARK 922        TOTAL FREE ENERGY PREDICTED BY IDOCK:   -4.14 KCAL/MOL
REMARK 923 INTER-LIGAND FREE ENERGY PREDICTED BY IDOCK:   -3.67 KCAL/MOL
REMARK 924 INTRA-LIGAND FREE ENERGY PREDICTED BY IDOCK:   -0.47 KCAL/MOL
REMARK 927      BINDING AFFINITY PREDICTED BY RF-SCORE:    0.00 PKD
ROOT
HETATM    1  C   UNL     1     -10.310  15.610  66.193  1.00  0.00    -0.316 C  
HETATM    2  N   UNL     1     -10.252  14.394  66.973  1.00  0.00    -0.260 NA 
HETATM    3  H   UNL     1     -11.099  14.167  67.493  1.00  0.00     0.000 HD 
ENDROOT
BRANCH   2   4
HETATM    4  C   UNL     1      -9.209  13.494  67.113  1.00  0.00    -0.236 C  
HETATM    5  C   UNL     1      -8.181  13.804  67.931  1.00  0.00    -0.166 C  
HETATM    6  O   UNL     1      -6.986  11.836  67.611  1.00  0.00    -0.087 OA 
HETATM    7  N   UNL     1      -7.047  12.945  68.159  1.00  0.00    -0.095 N  
HETATM    8  O   UNL     1      -6.182  13.396  68.922  1.00  0.00    -0.080 OA 
BRANCH   4   9
HETATM    9  N   UNL     1      -9.263  12.316  66.387  1.00  0.00    -0.287 NA 
HETATM   10  H   UNL     1      -8.413  12.094  65.870  1.00  0.00     0.000 HD 
BRANCH   9  11
HETATM   11  C   UNL     1     -10.332  11.350  66.245  1.00  0.00    -0.243 C  
BRANCH  11  12
HETATM   12  C   UNL     1      -9.921  10.229  65.286  1.00  0.00    -0.317 C  
BRANCH  12  13
HETATM   13  S   UNL     1      -8.131   9.871  65.341  1.00  0.00    -0.143 SA 
BRANCH  13  14
HETATM   14  C   UNL     1      -8.165   8.081  64.991  1.00  0.00    -0.141 C  
BRANCH  14  15
HETATM   15  C   UNL     1      -7.830   7.293  66.210  1.00  0.00    -0.106 A  
HETATM   16  C   UNL     1      -6.612   6.724  66.520  1.00  0.00    -0.044 A  
HETATM   17  S   UNL     1      -6.702   5.924  68.031  1.00  0.00    -0.063 SA 
HETATM   18  C   UNL     1      -8.358   6.370  68.158  1.00  0.00    -0.116 A  
HETATM   19  N   UNL     1      -8.837   7.052  67.137  1.00  0.00    -0.119 NA 
BRANCH  18  20
HETATM   20  C   UNL     1      -9.179   5.955  69.356  1.00  0.00    -0.130 C  
BRANCH  20  21
HETATM   21  N   UNL     1     -10.135   6.984  69.824  1.00  0.00    -0.186 NA 
HETATM   22  C   UNL     1     -11.522   6.526  69.693  1.00  0.00    -0.352 C  
HETATM   23  C   UNL     1      -9.857   7.307  71.226  1.00  0.00    -0.180 C  
ENDBRANCH  20  21
ENDBRANCH  18  20
ENDBRANCH  14  15
ENDBRANCH  13  14
ENDBRANCH  12  13
ENDBRANCH  11  12
ENDBRANCH   9  11
ENDBRANCH   4   9
ENDBRANCH   2   4
TORSDOF 9
ENDMDL
MODEL      378
REMARK 921   NORMALIZED FREE ENERGY PREDICTED BY IDOCK:   -1.97 KCAL/MOL
REMARK 922        TOTAL FREE ENERGY PREDICTED BY IDOCK:   -4.07 KCAL/MOL
REMARK 923 INTER-LIGAND FREE ENERGY PREDICTED BY IDOCK:   -3.92 KCAL/MOL
REMARK 924 INTRA-LIGAND FREE ENERGY PREDICTED BY IDOCK:   -0.15 KCAL/MOL
REMARK 927      BINDING AFFINITY PREDICTED BY RF-SCORE:    0.00 PKD
ROOT
HETATM    1  C   UNL     1     -13.190   6.600  71.256  1.00  0.00     0.126 C  
HETATM    2  N   UNL     1     -12.027   7.036  70.515  1.00  0.00    -0.547 NA 
HETATM    3  H   UNL     1     -12.020   6.790  69.526  1.00  0.00     0.000 HD 
ENDROOT
BRANCH   2   4
HETATM    4  C   UNL     1     -10.921   7.742  70.960  1.00  0.00    -0.244 C  
HETATM    5  C   UNL     1      -9.690   7.326  70.597  1.00  0.00    -0.175 C  
HETATM    6  O   UNL     1      -8.512   9.009  71.686  1.00  0.00    -0.339 OA 
HETATM    7  N   UNL     1      -8.469   7.983  70.993  1.00  0.00    -0.123 N  
HETATM    8  O   UNL     1      -7.425   7.453  70.591  1.00  0.00    -0.076 OA 
BRANCH   4   9
HETATM    9  N   UNL     1     -11.134   8.839  71.776  1.00  0.00    -0.322 NA 
HETATM   10  H   UNL     1     -11.280   8.618  72.761  1.00  0.00     0.000 HD 
BRANCH   9  11
HETATM   11  C   UNL     1     -11.182  10.251  71.456  1.00  0.00     0.462 C  
BRANCH  11  12
HETATM   12  C   UNL     1     -11.888  10.476  70.116  1.00  0.00    -0.320 C  
BRANCH  12  13
HETATM   13  S   UNL     1     -12.643  12.133  69.984  1.00  0.00     0.272 SA 
BRANCH  13  14
HETATM   14  C   UNL     1     -11.149  13.126  69.651  1.00  0.00     0.079 C  
BRANCH  14  15
HETATM   15  C   UNL     1     -11.053  13.476  68.206  1.00  0.00    -0.261 A  
HETATM   16  C   UNL     1     -11.292  12.641  67.133  1.00  0.00    -0.319 A  
HETATM   17  S   UNL     1     -11.066  13.490  65.663  1.00  0.00    -0.292 SA 
HETATM   18  C   UNL     1     -10.644  14.900  66.553  1.00  0.00    -0.306 A  
HETATM   19  N   UNL     1     -10.644  14.760  67.864  1.00  0.00    -0.246 NA 
BRANCH  18  20
HETATM   20  C   UNL     1     -10.270  16.178  65.841  1.00  0.00    -0.360 C  
BRANCH  20  21
HETATM   21  N   UNL     1      -9.565  17.165  66.692  1.00  0.00    -0.256 NA 
HETATM   22  C   UNL     1      -8.159  17.305  66.297  1.00  0.00    -0.280 C  
HETATM   23  C   UNL     1     -10.234  18.464  66.589  1.00  0.00    -0.394 C  
ENDBRANCH  20  21
ENDBRANCH  18  20
ENDBRANCH  14  15
ENDBRANCH  13  14
ENDBRANCH  12  13
ENDBRANCH  11  12
ENDBRANCH   9  11
ENDBRANCH   4   9
ENDBRANCH   2   4
TORSDOF 9
ENDMDL
MODEL      379
REMARK 921   NORMALIZED FREE ENERGY PREDICTED BY IDOCK:   -1.94 KCAL/MOL
REMARK 922        TOTAL FREE ENERGY PREDICTED BY IDOCK:   -4.03 KCAL/MOL
REMARK 923 INTER-LIGAND FREE ENERGY PREDICTED BY IDOCK:   -3.76 KCAL/MOL
REMARK 924 INTRA-LIGAND FREE ENERGY PREDICTED BY IDOCK:   -0.26 KCAL/MOL
REMARK 927      BINDING AFFINITY PREDICTED BY RF-SCORE:    0.00 PKD
ROOT
HETATM    1  C   UNL     1     -12.548   8.797  71.554  1.00  0.00    -0.326 C  
HETATM    2  N   UNL     1     -11.786   9.938  71.098  1.00  0.00    -0.356 NA 
HETATM    3  H   UNL     1     -11.500  10.593  71.825  1.00  0.00     0.000 HD 
ENDROOT
BRANCH   2   4
HETATM    4  C   UNL     1     -11.390  10.268  69.812  1.00  0.00    -0.273 C  
HETATM    5  C   UNL     1     -11.930  11.353  69.219  1.00  0.00    -0.332 C  
HETATM    6  O   UNL     1     -10.738  11.184  67.229  1.00  0.00    -0.228 OA 
HETATM    7  N   UNL     1     -11.591  11.795  67.889  1.00  0.00    -0.311 N  
HETATM    8  O   UNL     1     -12.199  12.797  67.490  1.00  0.00    -0.348 OA 
BRANCH   4   9
HETATM    9  N   UNL     1     -10.465   9.450  69.186  1.00  0.00    -0.213 NA 
HETATM   10  H   UNL     1     -10.741   9.123  68.260  1.00  0.00     0.000 HD 
BRANCH   9  11
HETATM   11  C   UNL     1      -9.169   8.985  69.635  1.00  0.00    -0.159 C  
BRANCH  11  12
HETATM   12  C   UNL     1      -9.252   7.529  70.103  1.00  0.00    -0.154 C  
BRANCH  12  13
HETATM   13  S   UNL     1      -9.299   6.342  68.717  1.00  0.00    -0.123 SA 
BRANCH  13  14
HETATM   14  C   UNL     1      -7.661   5.566  68.922  1.00  0.00    -0.087 C  
BRANCH  14  15
HETATM   15  C   UNL     1      -7.395   4.586  67.831  1.00  0.00    -0.066 A  
HETATM   16  C   UNL     1      -6.167   4.252  67.298  1.00  0.00    -0.036 A  
HETATM   17  S   UNL     1      -6.357   3.073  66.071  1.00  0.00    -0.028 SA 
HETATM   18  C   UNL     1      -8.059   3.104  66.317  1.00  0.00    -0.089 A  
HETATM   19  N   UNL     1      -8.479   3.952  67.236  1.00  0.00    -0.099 NA 
BRANCH  18  20
HETATM   20  C   UNL     1      -8.974   2.233  65.491  1.00  0.00    -0.122 C  
BRANCH  20  21
HETATM   21  N   UNL     1      -9.223   2.739  64.121  1.00  0.00    -0.114 NA 
HETATM   22  C   UNL     1     -10.479   2.214  63.576  1.00  0.00    -0.150 C  
HETATM   23  C   UNL     1      -9.274   4.203  64.144  1.00  0.00    -0.149 C  
ENDBRANCH  20  21
ENDBRANCH  18  20
ENDBRANCH  14  15
ENDBRANCH  13  14
ENDBRANCH  12  13
ENDBRANCH  11  12
ENDBRANCH   9  11
ENDBRANCH   4   9
ENDBRANCH   2   4
TORSDOF 9
ENDMDL
MODEL      380
REMARK 921   NORMALIZED FREE ENERGY PREDICTED BY IDOCK:   -1.92 KCAL/MOL
REMARK 922        TOTAL FREE ENERGY PREDICTED BY IDOCK:   -4.00 KCAL/MOL
REMARK 923 INTER-LIGAND FREE ENERGY PREDICTED BY IDOCK:   -4.37 KCAL/MOL
REMARK 924 INTRA-LIGAND FREE ENERGY PREDICTED BY IDOCK:    0.37 KCAL/MOL
REMARK 927      BINDING AFFINITY PREDICTED BY RF-SCORE:    0.00 PKD
ROOT
HETATM    1  C   UNL     1     -13.727   7.236  71.493  1.00  0.00    -0.351 C  
HETATM    2  N   UNL     1     -12.448   6.679  71.114  1.00  0.00    -0.282 NA 
HETATM    3  H   UNL     1     -12.486   5.915  70.440  1.00  0.00     0.000 HD 
ENDROOT
BRANCH   2   4
HETATM    4  C   UNL     1     -11.179   7.036  71.537  1.00  0.00    -0.249 C  
HETATM    5  C   UNL     1     -10.786   6.701  72.784  1.00  0.00    -0.243 C  
HETATM    6  O   UNL     1      -8.647   7.601  72.637  1.00  0.00    -0.111 OA 
HETATM    7  N   UNL     1      -9.489   7.014  73.331  1.00  0.00    -0.162 N  
HETATM    8  O   UNL     1      -9.303   6.654  74.500  1.00  0.00    -0.201 OA 
BRANCH   4   9
HETATM    9  N   UNL     1     -10.374   7.740  70.659  1.00  0.00    -0.201 NA 
HETATM   10  H   UNL     1      -9.750   7.163  70.095  1.00  0.00     0.000 HD 
BRANCH   9  11
HETATM   11  C   UNL     1     -10.275   9.164  70.412  1.00  0.00    -0.222 C  
BRANCH  11  12
HETATM   12  C   UNL     1     -11.543   9.681  69.727  1.00  0.00     0.025 C  
BRANCH  12  13
HETATM   13  S   UNL     1     -11.787  11.476  69.951  1.00  0.00    -0.361 SA 
BRANCH  13  14
HETATM   14  C   UNL     1     -11.908  11.990  68.204  1.00  0.00    -0.286 C  
BRANCH  14  15
HETATM   15  C   UNL     1     -10.935  13.076  67.899  1.00  0.00    -0.241 A  
HETATM   16  C   UNL     1     -11.229  14.361  67.489  1.00  0.00    -0.315 A  
HETATM   17  S   UNL     1      -9.785  15.255  67.272  1.00  0.00    -0.213 SA 
HETATM   18  C   UNL     1      -8.870  13.868  67.715  1.00  0.00    -0.189 A  
HETATM   19  N   UNL     1      -9.578  12.790  67.989  1.00  0.00    -0.211 NA 
BRANCH  18  20
HETATM   20  C   UNL     1      -7.361  13.915  67.739  1.00  0.00    -0.162 C  
BRANCH  20  21
HETATM   21  N   UNL     1      -6.797  14.921  68.668  1.00  0.00    -0.101 NA 
HETATM   22  C   UNL     1      -7.834  15.485  69.540  1.00  0.00    -0.194 C  
HETATM   23  C   UNL     1      -5.754  14.299  69.488  1.00  0.00    -0.096 C  
ENDBRANCH  20  21
ENDBRANCH  18  20
ENDBRANCH  14  15
ENDBRANCH  13  14
ENDBRANCH  12  13
ENDBRANCH  11  12
ENDBRANCH   9  11
ENDBRANCH   4   9
ENDBRANCH   2   4
TORSDOF 9
ENDMDL
MODEL      381
REMARK 921   NORMALIZED FREE ENERGY PREDICTED BY IDOCK:   -1.90 KCAL/MOL
REMARK 922        TOTAL FREE ENERGY PREDICTED BY IDOCK:   -3.97 KCAL/MOL
REMARK 923 INTER-LIGAND FREE ENERGY PREDICTED BY IDOCK:   -4.08 KCAL/MOL
REMARK 924 INTRA-LIGAND FREE ENERGY PREDICTED BY IDOCK:    0.11 KCAL/MOL
REMARK 927      BINDING AFFINITY PREDICTED BY RF-SCORE:    0.00 PKD
ROOT
HETATM    1  C   UNL     1      -8.555   5.170  67.038  1.00  0.00    -0.105 C  
HETATM    2  N   UNL     1      -9.768   5.383  67.796  1.00  0.00    -0.129 NA 
HETATM    3  H   UNL     1     -10.631   5.370  67.252  1.00  0.00     0.000 HD 
ENDROOT
BRANCH   2   4
HETATM    4  C   UNL     1      -9.924   5.602  69.154  1.00  0.00    -0.183 C  
HETATM    5  C   UNL     1     -11.130   5.991  69.620  1.00  0.00    -0.404 C  
HETATM    6  O   UNL     1     -10.527   6.078  71.864  1.00  0.00    -0.207 OA 
HETATM    7  N   UNL     1     -11.411   6.243  71.012  1.00  0.00    -0.318 N  
HETATM    8  O   UNL     1     -12.564   6.617  71.262  1.00  0.00    -0.317 OA 
BRANCH   4   9
HETATM    9  N   UNL     1      -8.822   5.427  69.972  1.00  0.00    -0.124 NA 
HETATM   10  H   UNL     1      -8.876   4.620  70.594  1.00  0.00     0.000 HD 
BRANCH   9  11
HETATM   11  C   UNL     1      -7.606   6.204  70.088  1.00  0.00    -0.096 C  
BRANCH  11  12
HETATM   12  C   UNL     1      -7.868   7.670  69.732  1.00  0.00    -0.110 C  
BRANCH  12  13
HETATM   13  S   UNL     1      -6.352   8.688  69.767  1.00  0.00    -0.035 SA 
BRANCH  13  14
HETATM   14  C   UNL     1      -6.695   9.797  68.359  1.00  0.00    -0.060 C  
BRANCH  14  15
HETATM   15  C   UNL     1      -8.159   9.887  68.096  1.00  0.00    -0.104 A  
HETATM   16  C   UNL     1      -8.853   9.300  67.057  1.00  0.00    -0.123 A  
HETATM   17  S   UNL     1     -10.519   9.676  67.173  1.00  0.00    -0.229 SA 
HETATM   18  C   UNL     1     -10.201  10.611  68.582  1.00  0.00    -0.182 A  
HETATM   19  N   UNL     1      -8.934  10.669  68.944  1.00  0.00    -0.165 NA 
BRANCH  18  20
HETATM   20  C   UNL     1     -11.318  11.328  69.300  1.00  0.00    -0.287 C  
BRANCH  20  21
HETATM   21  N   UNL     1     -11.663  10.750  70.620  1.00  0.00    -0.342 NA 
HETATM   22  C   UNL     1     -13.048  10.267  70.648  1.00  0.00    -0.226 C  
HETATM   23  C   UNL     1     -10.752   9.643  70.921  1.00  0.00    -0.332 C  
ENDBRANCH  20  21
ENDBRANCH  18  20
ENDBRANCH  14  15
ENDBRANCH  13  14
ENDBRANCH  12  13
ENDBRANCH  11  12
ENDBRANCH   9  11
ENDBRANCH   4   9
ENDBRANCH   2   4
TORSDOF 9
ENDMDL
MODEL      382
REMARK 921   NORMALIZED FREE ENERGY PREDICTED BY IDOCK:   -1.83 KCAL/MOL
REMARK 922        TOTAL FREE ENERGY PREDICTED BY IDOCK:   -3.86 KCAL/MOL
REMARK 923 INTER-LIGAND FREE ENERGY PREDICTED BY IDOCK:   -3.72 KCAL/MOL
REMARK 924 INTRA-LIGAND FREE ENERGY PREDICTED BY IDOCK:   -0.14 KCAL/MOL
REMARK 927      BINDING AFFINITY PREDICTED BY RF-SCORE:    0.00 PKD
ROOT
HETATM    1  C   UNL     1     -10.601   4.483  66.053  1.00  0.00    -0.100 C  
HETATM    2  N   UNL     1     -11.052   5.156  67.251  1.00  0.00     0.130 NA 
HETATM    3  H   UNL     1     -12.000   5.529  67.212  1.00  0.00     0.000 HD 
ENDROOT
BRANCH   2   4
HETATM    4  C   UNL     1     -10.379   5.364  68.443  1.00  0.00    -0.146 C  
HETATM    5  C   UNL     1     -11.091   5.510  69.580  1.00  0.00     0.109 C  
HETATM    6  O   UNL     1      -9.268   5.758  71.001  1.00  0.00    -0.147 OA 
HETATM    7  N   UNL     1     -10.500   5.725  70.877  1.00  0.00    -0.239 N  
HETATM    8  O   UNL     1     -11.301   5.863  71.811  1.00  0.00    -0.273 OA 
BRANCH   4   9
HETATM    9  N   UNL     1      -8.997   5.430  68.407  1.00  0.00    -0.107 NA 
HETATM   10  H   UNL     1      -8.522   4.803  69.056  1.00  0.00     0.000 HD 
BRANCH   9  11
HETATM   11  C   UNL     1      -8.117   6.247  67.597  1.00  0.00    -0.117 C  
BRANCH  11  12
HETATM   12  C   UNL     1      -8.711   7.644  67.398  1.00  0.00    -0.124 C  
BRANCH  12  13
HETATM   13  S   UNL     1      -7.490   8.849  66.771  1.00  0.00    -0.082 SA 
BRANCH  13  14
HETATM   14  C   UNL     1      -8.397   9.477  65.318  1.00  0.00    -0.139 C  
BRANCH  14  15
HETATM   15  C   UNL     1      -9.399  10.504  65.718  1.00  0.00    -0.188 A  
HETATM   16  C   UNL     1     -10.369  10.381  66.692  1.00  0.00    -0.231 A  
HETATM   17  S   UNL     1     -11.280  11.826  66.804  1.00  0.00    -0.316 SA 
HETATM   18  C   UNL     1     -10.339  12.507  65.536  1.00  0.00    -0.280 A  
HETATM   19  N   UNL     1      -9.413  11.713  65.033  1.00  0.00    -0.165 NA 
BRANCH  18  20
HETATM   20  C   UNL     1     -10.611  13.907  65.039  1.00  0.00    -0.404 C  
BRANCH  20  21
HETATM   21  N   UNL     1     -11.958  14.093  64.453  1.00  0.00    -0.450 NA 
HETATM   22  C   UNL     1     -12.144  15.463  63.964  1.00  0.00     0.036 C  
HETATM   23  C   UNL     1     -12.144  13.150  63.347  1.00  0.00    -0.486 C  
ENDBRANCH  20  21
ENDBRANCH  18  20
ENDBRANCH  14  15
ENDBRANCH  13  14
ENDBRANCH  12  13
ENDBRANCH  11  12
ENDBRANCH   9  11
ENDBRANCH   4   9
ENDBRANCH   2   4
TORSDOF 9
ENDMDL
MODEL      383
REMARK 921   NORMALIZED FREE ENERGY PREDICTED BY IDOCK:   -1.81 KCAL/MOL
REMARK 922        TOTAL FREE ENERGY PREDICTED BY IDOCK:   -3.82 KCAL/MOL
REMARK 923 INTER-LIGAND FREE ENERGY PREDICTED BY IDOCK:   -3.57 KCAL/MOL
REMARK 924 INTRA-LIGAND FREE ENERGY PREDICTED BY IDOCK:   -0.25 KCAL/MOL
REMARK 927      BINDING AFFINITY PREDICTED BY RF-SCORE:    0.00 PKD
ROOT
HETATM    1  C   UNL     1      -8.143  10.621  68.831  1.00  0.00    -0.139 C  
HETATM    2  N   UNL     1      -7.607  11.957  68.968  1.00  0.00    -0.313 NA 
HETATM    3  H   UNL     1      -6.763  12.033  69.535  1.00  0.00     0.000 HD 
ENDROOT
BRANCH   2   4
HETATM    4  C   UNL     1      -8.077  13.146  68.438  1.00  0.00    -0.130 C  
HETATM    5  C   UNL     1      -7.205  13.991  67.849  1.00  0.00    -0.159 C  
HETATM    6  O   UNL     1      -8.767  15.606  67.249  1.00  0.00    -0.177 OA 
HETATM    7  N   UNL     1      -7.580  15.253  67.259  1.00  0.00    -0.204 N  
HETATM    8  O   UNL     1      -6.648  15.915  66.783  1.00  0.00    -0.254 OA 
BRANCH   4   9
HETATM    9  N   UNL     1      -9.429  13.422  68.555  1.00  0.00    -0.356 NA 
HETATM   10  H   UNL     1      -9.693  13.912  69.409  1.00  0.00     0.000 HD 
BRANCH   9  11
HETATM   11  C   UNL     1     -10.527  13.127  67.658  1.00  0.00    -0.221 C  
BRANCH  11  12
HETATM   12  C   UNL     1     -10.011  12.497  66.362  1.00  0.00    -0.252 C  
BRANCH  12  13
HETATM   13  S   UNL     1     -10.439  10.728  66.215  1.00  0.00    -0.193 SA 
BRANCH  13  14
HETATM   14  C   UNL     1      -9.819  10.401  64.530  1.00  0.00    -0.339 C  
BRANCH  14  15
HETATM   15  C   UNL     1      -8.546   9.629  64.572  1.00  0.00    -0.188 A  
HETATM   16  C   UNL     1      -7.376   9.994  65.208  1.00  0.00    -0.137 A  
HETATM   17  S   UNL     1      -6.184   8.785  64.988  1.00  0.00    -0.061 SA 
HETATM   18  C   UNL     1      -7.295   7.873  64.044  1.00  0.00    -0.101 A  
HETATM   19  N   UNL     1      -8.478   8.430  63.873  1.00  0.00    -0.052 NA 
BRANCH  18  20
HETATM   20  C   UNL     1      -6.890   6.550  63.440  1.00  0.00    -0.049 C  
BRANCH  20  21
HETATM   21  N   UNL     1      -7.883   5.467  63.625  1.00  0.00    -0.084 NA 
HETATM   22  C   UNL     1      -8.388   4.977  62.338  1.00  0.00    -0.096 C  
HETATM   23  C   UNL     1      -7.267   4.360  64.362  1.00  0.00    -0.062 C  
ENDBRANCH  20  21
ENDBRANCH  18  20
ENDBRANCH  14  15
ENDBRANCH  13  14
ENDBRANCH  12  13
ENDBRANCH  11  12
ENDBRANCH   9  11
ENDBRANCH   4   9
ENDBRANCH   2   4
TORSDOF 9
ENDMDL
MODEL      384
REMARK 921   NORMALIZED FREE ENERGY PREDICTED BY IDOCK:   -1.80 KCAL/MOL
REMARK 922        TOTAL FREE ENERGY PREDICTED BY IDOCK:   -3.81 KCAL/MOL
REMARK 923 INTER-LIGAND FREE ENERGY PREDICTED BY IDOCK:   -3.77 KCAL/MOL
REMARK 924 INTRA-LIGAND FREE ENERGY PREDICTED BY IDOCK:   -0.04 KCAL/MOL
REMARK 927      BINDING AFFINITY PREDICTED BY RF-SCORE:    0.00 PKD
ROOT
HETATM    1  C   UNL     1     -11.573   2.127  73.414  1.00  0.00    -0.125 C  
HETATM    2  N   UNL     1     -10.148   2.278  73.607  1.00  0.00    -0.096 NA 
HETATM    3  H   UNL     1      -9.684   1.500  74.074  1.00  0.00     0.000 HD 
ENDROOT
BRANCH   2   4
HETATM    4  C   UNL     1      -9.323   3.331  73.246  1.00  0.00    -0.093 C  
HETATM    5  C   UNL     1      -8.164   3.514  73.913  1.00  0.00    -0.078 C  
HETATM    6  O   UNL     1      -7.449   5.361  72.695  1.00  0.00    -0.093 OA 
HETATM    7  N   UNL     1      -7.227   4.570  73.623  1.00  0.00    -0.071 N  
HETATM    8  O   UNL     1      -6.225   4.606  74.349  1.00  0.00    -0.047 OA 
BRANCH   4   9
HETATM    9  N   UNL     1      -9.740   4.162  72.221  1.00  0.00    -0.147 NA 
HETATM   10  H   UNL     1     -10.074   5.078  72.522  1.00  0.00     0.000 HD 
BRANCH   9  11
HETATM   11  C   UNL     1      -9.777   3.942  70.790  1.00  0.00    -0.185 C  
BRANCH  11  12
HETATM   12  C   UNL     1     -10.192   5.222  70.058  1.00  0.00    -0.288 C  
BRANCH  12  13
HETATM   13  S   UNL     1      -9.039   5.675  68.717  1.00  0.00    -0.119 SA 
BRANCH  13  14
HETATM   14  C   UNL     1     -10.178   6.601  67.633  1.00  0.00    -0.177 C  
BRANCH  14  15
HETATM   15  C   UNL     1     -10.451   7.958  68.183  1.00  0.00    -0.173 A  
HETATM   16  C   UNL     1     -10.595   8.300  69.512  1.00  0.00    -0.213 A  
HETATM   17  S   UNL     1     -10.889   9.980  69.660  1.00  0.00    -0.276 SA 
HETATM   18  C   UNL     1     -10.828  10.133  67.949  1.00  0.00    -0.284 A  
HETATM   19  N   UNL     1     -10.625   9.009  67.290  1.00  0.00    -0.269 NA 
BRANCH  18  20
HETATM   20  C   UNL     1     -11.035  11.474  67.286  1.00  0.00    -0.271 C  
BRANCH  20  21
HETATM   21  N   UNL     1      -9.991  11.832  66.297  1.00  0.00    -0.213 NA 
HETATM   22  C   UNL     1     -10.492  11.714  64.923  1.00  0.00    -0.288 C  
HETATM   23  C   UNL     1      -9.542  13.205  66.538  1.00  0.00    -0.268 C  
ENDBRANCH  20  21
ENDBRANCH  18  20
ENDBRANCH  14  15
ENDBRANCH  13  14
ENDBRANCH  12  13
ENDBRANCH  11  12
ENDBRANCH   9  11
ENDBRANCH   4   9
ENDBRANCH   2   4
TORSDOF 9
ENDMDL
MODEL      385
REMARK 921   NORMALIZED FREE ENERGY PREDICTED BY IDOCK:   -1.79 KCAL/MOL
REMARK 922        TOTAL FREE ENERGY PREDICTED BY IDOCK:   -3.80 KCAL/MOL
REMARK 923 INTER-LIGAND FREE ENERGY PREDICTED BY IDOCK:   -3.26 KCAL/MOL
REMARK 924 INTRA-LIGAND FREE ENERGY PREDICTED BY IDOCK:   -0.54 KCAL/MOL
REMARK 927      BINDING AFFINITY PREDICTED BY RF-SCORE:    0.00 PKD
ROOT
HETATM    1  C   UNL     1      -8.457   9.833  69.677  1.00  0.00    -0.185 C  
HETATM    2  N   UNL     1      -7.577  10.972  69.542  1.00  0.00    -0.351 NA 
HETATM    3  H   UNL     1      -6.706  10.918  70.070  1.00  0.00     0.000 HD 
ENDROOT
BRANCH   2   4
HETATM    4  C   UNL     1      -7.749  12.127  68.797  1.00  0.00    -0.034 C  
HETATM    5  C   UNL     1      -6.660  12.783  68.344  1.00  0.00    -0.083 C  
HETATM    6  O   UNL     1      -7.811  14.468  67.232  1.00  0.00    -0.192 OA 
HETATM    7  N   UNL     1      -6.716  13.989  67.556  1.00  0.00    -0.169 N  
HETATM    8  O   UNL     1      -5.620  14.473  67.246  1.00  0.00    -0.289 OA 
BRANCH   4   9
HETATM    9  N   UNL     1      -9.041  12.565  68.565  1.00  0.00    -0.371 NA 
HETATM   10  H   UNL     1      -9.349  13.325  69.171  1.00  0.00     0.000 HD 
BRANCH   9  11
HETATM   11  C   UNL     1     -10.025  12.119  67.600  1.00  0.00    -0.197 C  
BRANCH  11  12
HETATM   12  C   UNL     1      -9.344  11.413  66.424  1.00  0.00    -0.204 C  
BRANCH  12  13
HETATM   13  S   UNL     1     -10.140   9.828  65.993  1.00  0.00    -0.209 SA 
BRANCH  13  14
HETATM   14  C   UNL     1      -8.894   9.163  64.837  1.00  0.00    -0.173 C  
BRANCH  14  15
HETATM   15  C   UNL     1      -7.950   8.249  65.539  1.00  0.00    -0.120 A  
HETATM   16  C   UNL     1      -6.928   8.610  66.393  1.00  0.00    -0.078 A  
HETATM   17  S   UNL     1      -6.117   7.215  66.966  1.00  0.00    -0.042 SA 
HETATM   18  C   UNL     1      -7.165   6.230  66.023  1.00  0.00    -0.075 A  
HETATM   19  N   UNL     1      -8.055   6.884  65.301  1.00  0.00    -0.130 NA 
BRANCH  18  20
HETATM   20  C   UNL     1      -7.018   4.727  66.021  1.00  0.00    -0.066 C  
BRANCH  20  21
HETATM   21  N   UNL     1      -8.291   3.990  66.198  1.00  0.00    -0.108 NA 
HETATM   22  C   UNL     1      -8.548   3.088  65.070  1.00  0.00    -0.101 C  
HETATM   23  C   UNL     1      -8.238   3.216  67.441  1.00  0.00    -0.082 C  
ENDBRANCH  20  21
ENDBRANCH  18  20
ENDBRANCH  14  15
ENDBRANCH  13  14
ENDBRANCH  12  13
ENDBRANCH  11  12
ENDBRANCH   9  11
ENDBRANCH   4   9
ENDBRANCH   2   4
TORSDOF 9
ENDMDL
MODEL      386
REMARK 921   NORMALIZED FREE ENERGY PREDICTED BY IDOCK:   -1.77 KCAL/MOL
REMARK 922        TOTAL FREE ENERGY PREDICTED BY IDOCK:   -3.77 KCAL/MOL
REMARK 923 INTER-LIGAND FREE ENERGY PREDICTED BY IDOCK:   -3.28 KCAL/MOL
REMARK 924 INTRA-LIGAND FREE ENERGY PREDICTED BY IDOCK:   -0.49 KCAL/MOL
REMARK 927      BINDING AFFINITY PREDICTED BY RF-SCORE:    0.00 PKD
ROOT
HETATM    1  C   UNL     1      -7.514   8.505  62.739  1.00  0.00    -0.102 C  
HETATM    2  N   UNL     1      -8.761   8.630  63.460  1.00  0.00    -0.428 NA 
HETATM    3  H   UNL     1      -9.587   8.290  62.968  1.00  0.00     0.000 HD 
ENDROOT
BRANCH   2   4
HETATM    4  C   UNL     1      -8.993   9.146  64.724  1.00  0.00    -0.127 C  
HETATM    5  C   UNL     1      -9.708  10.284  64.846  1.00  0.00    -0.320 C  
HETATM    6  O   UNL     1      -9.642  10.388  67.168  1.00  0.00    -0.160 OA 
HETATM    7  N   UNL     1     -10.016  10.910  66.108  1.00  0.00    -0.224 N  
HETATM    8  O   UNL     1     -10.661  11.964  66.036  1.00  0.00    -0.265 OA 
BRANCH   4   9
HETATM    9  N   UNL     1      -8.460   8.473  65.810  1.00  0.00    -0.145 NA 
HETATM   10  H   UNL     1      -8.053   9.073  66.527  1.00  0.00     0.000 HD 
BRANCH   9  11
HETATM   11  C   UNL     1      -8.388   7.054  66.091  1.00  0.00    -0.130 C  
BRANCH  11  12
HETATM   12  C   UNL     1      -8.590   6.790  67.586  1.00  0.00    -0.121 C  
BRANCH  12  13
HETATM   13  S   UNL     1      -8.898   5.030  67.959  1.00  0.00    -0.104 SA 
BRANCH  13  14
HETATM   14  C   UNL     1     -10.438   5.186  68.926  1.00  0.00    -0.061 C  
BRANCH  14  15
HETATM   15  C   UNL     1     -10.140   5.430  70.366  1.00  0.00    -0.244 A  
HETATM   16  C   UNL     1     -11.056   5.588  71.386  1.00  0.00    -0.080 A  
HETATM   17  S   UNL     1     -10.245   5.838  72.873  1.00  0.00    -0.199 SA 
HETATM   18  C   UNL     1      -8.735   5.742  72.056  1.00  0.00    -0.137 A  
HETATM   19  N   UNL     1      -8.812   5.558  70.752  1.00  0.00    -0.133 NA 
BRANCH  18  20
HETATM   20  C   UNL     1      -7.437   5.899  72.811  1.00  0.00    -0.095 C  
BRANCH  20  21
HETATM   21  N   UNL     1      -6.977   7.300  72.945  1.00  0.00    -0.068 NA 
HETATM   22  C   UNL     1      -6.687   7.638  74.342  1.00  0.00    -0.099 C  
HETATM   23  C   UNL     1      -5.772   7.497  72.134  1.00  0.00    -0.036 C  
ENDBRANCH  20  21
ENDBRANCH  18  20
ENDBRANCH  14  15
ENDBRANCH  13  14
ENDBRANCH  12  13
ENDBRANCH  11  12
ENDBRANCH   9  11
ENDBRANCH   4   9
ENDBRANCH   2   4
TORSDOF 9
ENDMDL
MODEL      387
REMARK 921   NORMALIZED FREE ENERGY PREDICTED BY IDOCK:   -1.71 KCAL/MOL
REMARK 922        TOTAL FREE ENERGY PREDICTED BY IDOCK:   -3.67 KCAL/MOL
REMARK 923 INTER-LIGAND FREE ENERGY PREDICTED BY IDOCK:   -3.02 KCAL/MOL
REMARK 924 INTRA-LIGAND FREE ENERGY PREDICTED BY IDOCK:   -0.65 KCAL/MOL
REMARK 927      BINDING AFFINITY PREDICTED BY RF-SCORE:    0.00 PKD
ROOT
HETATM    1  C   UNL     1      -5.916  10.374  63.289  1.00  0.00    -0.135 C  
HETATM    2  N   UNL     1      -6.680  10.389  64.517  1.00  0.00    -0.310 NA 
HETATM    3  H   UNL     1      -7.693  10.420  64.402  1.00  0.00     0.000 HD 
ENDROOT
BRANCH   2   4
HETATM    4  C   UNL     1      -6.231  10.367  65.826  1.00  0.00    -0.123 C  
HETATM    5  C   UNL     1      -6.414  11.457  66.600  1.00  0.00    -0.117 C  
HETATM    6  O   UNL     1      -5.453  10.577  68.526  1.00  0.00    -0.038 OA 
HETATM    7  N   UNL     1      -5.995  11.547  67.977  1.00  0.00    -0.046 N  
HETATM    8  O   UNL     1      -6.220  12.630  68.532  1.00  0.00    -0.061 OA 
BRANCH   4   9
HETATM    9  N   UNL     1      -5.593   9.224  66.277  1.00  0.00    -0.051 NA 
HETATM   10  H   UNL     1      -4.880   9.384  66.988  1.00  0.00     0.000 HD 
BRANCH   9  11
HETATM   11  C   UNL     1      -5.777   7.837  65.901  1.00  0.00    -0.037 C  
BRANCH  11  12
HETATM   12  C   UNL     1      -6.425   7.051  67.044  1.00  0.00    -0.050 C  
BRANCH  12  13
HETATM   13  S   UNL     1      -8.232   7.296  67.136  1.00  0.00    -0.119 SA 
BRANCH  13  14
HETATM   14  C   UNL     1      -8.338   8.206  68.714  1.00  0.00    -0.126 C  
BRANCH  14  15
HETATM   15  C   UNL     1      -9.402   7.634  69.588  1.00  0.00    -0.156 A  
HETATM   16  C   UNL     1     -10.759   7.616  69.338  1.00  0.00    -0.184 A  
HETATM   17  S   UNL     1     -11.585   6.845  70.624  1.00  0.00    -0.357 SA 
HETATM   18  C   UNL     1     -10.086   6.609  71.434  1.00  0.00    -0.190 A  
HETATM   19  N   UNL     1      -9.028   7.089  70.810  1.00  0.00    -0.149 NA 
BRANCH  18  20
HETATM   20  C   UNL     1     -10.036   5.928  72.780  1.00  0.00    -0.183 C  
BRANCH  20  21
HETATM   21  N   UNL     1     -10.539   4.535  72.777  1.00  0.00    -0.196 NA 
HETATM   22  C   UNL     1      -9.670   3.653  71.991  1.00  0.00    -0.168 C  
HETATM   23  C   UNL     1     -10.618   4.042  74.155  1.00  0.00    -0.227 C  
ENDBRANCH  20  21
ENDBRANCH  18  20
ENDBRANCH  14  15
ENDBRANCH  13  14
ENDBRANCH  12  13
ENDBRANCH  11  12
ENDBRANCH   9  11
ENDBRANCH   4   9
ENDBRANCH   2   4
TORSDOF 9
ENDMDL
MODEL      388
REMARK 921   NORMALIZED FREE ENERGY PREDICTED BY IDOCK:   -1.71 KCAL/MOL
REMARK 922        TOTAL FREE ENERGY PREDICTED BY IDOCK:   -3.67 KCAL/MOL
REMARK 923 INTER-LIGAND FREE ENERGY PREDICTED BY IDOCK:   -3.53 KCAL/MOL
REMARK 924 INTRA-LIGAND FREE ENERGY PREDICTED BY IDOCK:   -0.14 KCAL/MOL
REMARK 927      BINDING AFFINITY PREDICTED BY RF-SCORE:    0.00 PKD
ROOT
HETATM    1  C   UNL     1      -5.395  14.022  72.233  1.00  0.00    -0.215 C  
HETATM    2  N   UNL     1      -5.844  12.938  71.387  1.00  0.00    -0.534 NA 
HETATM    3  H   UNL     1      -6.117  12.086  71.877  1.00  0.00     0.000 HD 
ENDROOT
BRANCH   2   4
HETATM    4  C   UNL     1      -5.954  12.893  70.008  1.00  0.00    -0.139 C  
HETATM    5  C   UNL     1      -6.019  14.051  69.318  1.00  0.00    -0.095 C  
HETATM    6  O   UNL     1      -6.142  13.091  67.204  1.00  0.00    -0.307 OA 
HETATM    7  N   UNL     1      -6.129  14.128  67.882  1.00  0.00    -0.147 N  
HETATM    8  O   UNL     1      -6.201  15.272  67.415  1.00  0.00    -0.299 OA 
BRANCH   4   9
HETATM    9  N   UNL     1      -6.012  11.651  69.399  1.00  0.00    -0.070 NA 
HETATM   10  H   UNL     1      -5.326  11.506  68.658  1.00  0.00     0.000 HD 
BRANCH   9  11
HETATM   11  C   UNL     1      -6.888  10.525  69.646  1.00  0.00    -0.117 C  
BRANCH  11  12
HETATM   12  C   UNL     1      -7.900  10.370  68.506  1.00  0.00    -0.107 C  
BRANCH  12  13
HETATM   13  S   UNL     1      -9.553   9.864  69.092  1.00  0.00    -0.211 SA 
BRANCH  13  14
HETATM   14  C   UNL     1      -9.797   8.373  68.069  1.00  0.00    -0.169 C  
BRANCH  14  15
HETATM   15  C   UNL     1      -9.657   7.136  68.887  1.00  0.00    -0.142 A  
HETATM   16  C   UNL     1     -10.415   6.776  69.983  1.00  0.00    -0.210 A  
HETATM   17  S   UNL     1      -9.893   5.264  70.591  1.00  0.00    -0.213 SA 
HETATM   18  C   UNL     1      -8.681   5.202  69.372  1.00  0.00    -0.099 A  
HETATM   19  N   UNL     1      -8.639   6.246  68.567  1.00  0.00    -0.114 NA 
BRANCH  18  20
HETATM   20  C   UNL     1      -7.729   4.033  69.289  1.00  0.00    -0.053 C  
BRANCH  20  21
HETATM   21  N   UNL     1      -8.311   2.817  68.675  1.00  0.00    -0.063 NA 
HETATM   22  C   UNL     1      -8.722   1.846  69.695  1.00  0.00    -0.062 C  
HETATM   23  C   UNL     1      -9.469   3.189  67.859  1.00  0.00    -0.160 C  
ENDBRANCH  20  21
ENDBRANCH  18  20
ENDBRANCH  14  15
ENDBRANCH  13  14
ENDBRANCH  12  13
ENDBRANCH  11  12
ENDBRANCH   9  11
ENDBRANCH   4   9
ENDBRANCH   2   4
TORSDOF 9
ENDMDL
MODEL      389
REMARK 921   NORMALIZED FREE ENERGY PREDICTED BY IDOCK:   -1.61 KCAL/MOL
REMARK 922        TOTAL FREE ENERGY PREDICTED BY IDOCK:   -3.52 KCAL/MOL
REMARK 923 INTER-LIGAND FREE ENERGY PREDICTED BY IDOCK:   -3.72 KCAL/MOL
REMARK 924 INTRA-LIGAND FREE ENERGY PREDICTED BY IDOCK:    0.20 KCAL/MOL
REMARK 927      BINDING AFFINITY PREDICTED BY RF-SCORE:    0.00 PKD
ROOT
HETATM    1  C   UNL     1     -11.560   2.492  73.413  1.00  0.00    -0.056 C  
HETATM    2  N   UNL     1     -10.120   2.399  73.502  1.00  0.00    -0.098 NA 
HETATM    3  H   UNL     1      -9.765   1.610  74.042  1.00  0.00     0.000 HD 
ENDROOT
BRANCH   2   4
HETATM    4  C   UNL     1      -9.155   3.229  72.958  1.00  0.00    -0.090 C  
HETATM    5  C   UNL     1      -7.929   3.267  73.521  1.00  0.00    -0.073 C  
HETATM    6  O   UNL     1      -7.001   4.794  72.034  1.00  0.00    -0.056 OA 
HETATM    7  N   UNL     1      -6.846   4.087  73.039  1.00  0.00    -0.046 N  
HETATM    8  O   UNL     1      -5.795   4.017  73.690  1.00  0.00    -0.007 OA 
BRANCH   4   9
HETATM    9  N   UNL     1      -9.502   4.001  71.862  1.00  0.00    -0.130 NA 
HETATM   10  H   UNL     1      -9.609   4.997  72.058  1.00  0.00     0.000 HD 
BRANCH   9  11
HETATM   11  C   UNL     1      -9.737   3.623  70.484  1.00  0.00    -0.140 C  
BRANCH  11  12
HETATM   12  C   UNL     1     -10.024   4.860  69.628  1.00  0.00    -0.231 C  
BRANCH  12  13
HETATM   13  S   UNL     1      -9.002   4.926  68.116  1.00  0.00    -0.113 SA 
BRANCH  13  14
HETATM   14  C   UNL     1     -10.121   5.874  67.031  1.00  0.00    -0.183 C  
BRANCH  14  15
HETATM   15  C   UNL     1     -10.313   7.260  67.544  1.00  0.00    -0.242 A  
HETATM   16  C   UNL     1     -10.470   8.407  66.794  1.00  0.00    -0.245 A  
HETATM   17  S   UNL     1     -10.668   9.762  67.822  1.00  0.00    -0.243 SA 
HETATM   18  C   UNL     1     -10.508   8.735  69.192  1.00  0.00    -0.217 A  
HETATM   19  N   UNL     1     -10.297   7.462  68.919  1.00  0.00    -0.203 NA 
BRANCH  18  20
HETATM   20  C   UNL     1     -10.575   9.298  70.591  1.00  0.00    -0.262 C  
BRANCH  20  21
HETATM   21  N   UNL     1     -11.654   8.725  71.428  1.00  0.00    -0.280 NA 
HETATM   22  C   UNL     1     -11.114   8.073  72.625  1.00  0.00    -0.387 C  
HETATM   23  C   UNL     1     -12.580   9.788  71.826  1.00  0.00    -0.416 C  
ENDBRANCH  20  21
ENDBRANCH  18  20
ENDBRANCH  14  15
ENDBRANCH  13  14
ENDBRANCH  12  13
ENDBRANCH  11  12
ENDBRANCH   9  11
ENDBRANCH   4   9
ENDBRANCH   2   4
TORSDOF 9
ENDMDL
MODEL      390
REMARK 921   NORMALIZED FREE ENERGY PREDICTED BY IDOCK:   -1.38 KCAL/MOL
REMARK 922        TOTAL FREE ENERGY PREDICTED BY IDOCK:   -3.18 KCAL/MOL
REMARK 923 INTER-LIGAND FREE ENERGY PREDICTED BY IDOCK:   -3.04 KCAL/MOL
REMARK 924 INTRA-LIGAND FREE ENERGY PREDICTED BY IDOCK:   -0.13 KCAL/MOL
REMARK 927      BINDING AFFINITY PREDICTED BY RF-SCORE:    0.00 PKD
ROOT
HETATM    1  C   UNL     1      -9.734  11.322  64.217  1.00  0.00    -0.256 C  
HETATM    2  N   UNL     1     -10.291  10.436  65.215  1.00  0.00    -0.255 NA 
HETATM    3  H   UNL     1     -10.802   9.632  64.850  1.00  0.00     0.000 HD 
ENDROOT
BRANCH   2   4
HETATM    4  C   UNL     1     -10.230  10.525  66.595  1.00  0.00    -0.233 C  
HETATM    5  C   UNL     1     -11.377  10.641  67.296  1.00  0.00    -0.040 C  
HETATM    6  O   UNL     1     -10.396  10.684  69.403  1.00  0.00    -0.218 OA 
HETATM    7  N   UNL     1     -11.437  10.735  68.733  1.00  0.00    -0.288 N  
HETATM    8  O   UNL     1     -12.571  10.861  69.212  1.00  0.00    -0.356 OA 
BRANCH   4   9
HETATM    9  N   UNL     1      -8.982  10.509  67.194  1.00  0.00    -0.140 NA 
HETATM   10  H   UNL     1      -8.524  11.418  67.253  1.00  0.00     0.000 HD 
BRANCH   9  11
HETATM   11  C   UNL     1      -8.222   9.408  67.749  1.00  0.00    -0.114 C  
BRANCH  11  12
HETATM   12  C   UNL     1      -7.619   8.552  66.632  1.00  0.00    -0.082 C  
BRANCH  12  13
HETATM   13  S   UNL     1      -6.558   9.512  65.498  1.00  0.00    -0.076 SA 
BRANCH  13  14
HETATM   14  C   UNL     1      -7.018   8.733  63.914  1.00  0.00    -0.087 C  
BRANCH  14  15
HETATM   15  C   UNL     1      -6.975   7.247  64.019  1.00  0.00    -0.057 A  
HETATM   16  C   UNL     1      -5.887   6.472  64.364  1.00  0.00    -0.030 A  
HETATM   17  S   UNL     1      -6.318   4.815  64.361  1.00  0.00    -0.034 SA 
HETATM   18  C   UNL     1      -7.914   5.240  63.880  1.00  0.00    -0.105 A  
HETATM   19  N   UNL     1      -8.124   6.530  63.705  1.00  0.00    -0.065 NA 
BRANCH  18  20
HETATM   20  C   UNL     1      -8.959   4.176  63.648  1.00  0.00    -0.130 C  
BRANCH  20  21
HETATM   21  N   UNL     1      -9.569   3.642  64.888  1.00  0.00    -0.165 NA 
HETATM   22  C   UNL     1      -8.756   2.565  65.464  1.00  0.00    -0.119 C  
HETATM   23  C   UNL     1      -9.713   4.723  65.866  1.00  0.00    -0.193 C  
ENDBRANCH  20  21
ENDBRANCH  18  20
ENDBRANCH  14  15
ENDBRANCH  13  14
ENDBRANCH  12  13
ENDBRANCH  11  12
ENDBRANCH   9  11
ENDBRANCH   4   9
ENDBRANCH   2   4
TORSDOF 9
ENDMDL
MODEL      391
REMARK 921   NORMALIZED FREE ENERGY PREDICTED BY IDOCK:   -1.03 KCAL/MOL
REMARK 922        TOTAL FREE ENERGY PREDICTED BY IDOCK:   -2.63 KCAL/MOL
REMARK 923 INTER-LIGAND FREE ENERGY PREDICTED BY IDOCK:   -2.51 KCAL/MOL
REMARK 924 INTRA-LIGAND FREE ENERGY PREDICTED BY IDOCK:   -0.12 KCAL/MOL
REMARK 927      BINDING AFFINITY PREDICTED BY RF-SCORE:    0.00 PKD
ROOT
HETATM    1  C   UNL     1      -8.531   4.650  63.893  1.00  0.00    -0.126 C  
HETATM    2  N   UNL     1      -7.796   5.290  64.961  1.00  0.00    -0.093 NA 
HETATM    3  H   UNL     1      -7.191   6.060  64.675  1.00  0.00     0.000 HD 
ENDROOT
BRANCH   2   4
HETATM    4  C   UNL     1      -7.796   5.007  66.316  1.00  0.00    -0.099 C  
HETATM    5  C   UNL     1      -7.662   3.725  66.717  1.00  0.00    -0.084 C  
HETATM    6  O   UNL     1      -7.725   4.156  69.001  1.00  0.00    -0.055 OA 
HETATM    7  N   UNL     1      -7.642   3.312  68.098  1.00  0.00    -0.056 N  
HETATM    8  O   UNL     1      -7.535   2.093  68.287  1.00  0.00    -0.050 OA 
BRANCH   4   9
HETATM    9  N   UNL     1      -7.954   6.059  67.201  1.00  0.00    -0.102 NA 
HETATM   10  H   UNL     1      -8.791   6.007  67.782  1.00  0.00     0.000 HD 
BRANCH   9  11
HETATM   11  C   UNL     1      -7.122   7.221  67.436  1.00  0.00    -0.088 C  
BRANCH  11  12
HETATM   12  C   UNL     1      -7.969   8.402  67.917  1.00  0.00    -0.115 C  
BRANCH  12  13
HETATM   13  S   UNL     1      -9.031   9.094  66.603  1.00  0.00    -0.143 SA 
BRANCH  13  14
HETATM   14  C   UNL     1      -8.357  10.787  66.523  1.00  0.00    -0.146 C  
BRANCH  14  15
HETATM   15  C   UNL     1      -9.442  11.799  66.664  1.00  0.00    -0.205 A  
HETATM   16  C   UNL     1     -10.395  12.128  65.722  1.00  0.00    -0.258 A  
HETATM   17  S   UNL     1     -11.438  13.339  66.336  1.00  0.00    -0.345 SA 
HETATM   18  C   UNL     1     -10.538  13.359  67.801  1.00  0.00    -0.245 A  
HETATM   19  N   UNL     1      -9.507  12.537  67.839  1.00  0.00    -0.190 NA 
BRANCH  18  20
HETATM   20  C   UNL     1     -10.914  14.294  68.925  1.00  0.00    -0.257 C  
BRANCH  20  21
HETATM   21  N   UNL     1     -11.766  13.679  69.969  1.00  0.00    -0.274 NA 
HETATM   22  C   UNL     1     -12.427  14.699  70.790  1.00  0.00    -0.340 C  
HETATM   23  C   UNL     1     -12.778  12.830  69.335  1.00  0.00     0.764 C  
ENDBRANCH  20  21
ENDBRANCH  18  20
ENDBRANCH  14  15
ENDBRANCH  13  14
ENDBRANCH  12  13
ENDBRANCH  11  12
ENDBRANCH   9  11
ENDBRANCH   4   9
ENDBRANCH   2   4
TORSDOF 9
ENDMDL
MODEL      392
REMARK 921   NORMALIZED FREE ENERGY PREDICTED BY IDOCK:   -1.00 KCAL/MOL
REMARK 922        TOTAL FREE ENERGY PREDICTED BY IDOCK:   -2.59 KCAL/MOL
REMARK 923 INTER-LIGAND FREE ENERGY PREDICTED BY IDOCK:   -3.87 KCAL/MOL
REMARK 924 INTRA-LIGAND FREE ENERGY PREDICTED BY IDOCK:    1.28 KCAL/MOL
REMARK 927      BINDING AFFINITY PREDICTED BY RF-SCORE:    0.00 PKD
ROOT
HETATM    1  C   UNL     1     -11.641  10.637  69.114  1.00  0.00    -0.271 C  
HETATM    2  N   UNL     1     -11.400  11.637  68.098  1.00  0.00    -0.266 NA 
HETATM    3  H   UNL     1     -12.008  12.455  68.137  1.00  0.00     0.000 HD 
ENDROOT
BRANCH   2   4
HETATM    4  C   UNL     1     -10.461  11.642  67.081  1.00  0.00    -0.220 C  
HETATM    5  C   UNL     1     -10.179  10.486  66.444  1.00  0.00    -0.237 C  
HETATM    6  O   UNL     1      -8.628  11.375  64.958  1.00  0.00     0.104 OA 
HETATM    7  N   UNL     1      -9.225  10.371  65.369  1.00  0.00    -0.179 N  
HETATM    8  O   UNL     1      -9.071   9.230  64.914  1.00  0.00    -0.218 OA 
BRANCH   4   9
HETATM    9  N   UNL     1      -9.838  12.840  66.775  1.00  0.00    -0.236 NA 
HETATM   10  H   UNL     1      -8.821  12.824  66.850  1.00  0.00     0.000 HD 
BRANCH   9  11
HETATM   11  C   UNL     1     -10.399  14.110  66.364  1.00  0.00    -0.287 C  
BRANCH  11  12
HETATM   12  C   UNL     1     -10.342  15.120  67.514  1.00  0.00    -0.242 C  
BRANCH  12  13
HETATM   13  S   UNL     1      -9.766  16.769  66.981  1.00  0.00    -0.260 SA 
BRANCH  13  14
HETATM   14  C   UNL     1      -8.001  16.400  66.699  1.00  0.00    -0.288 C  
BRANCH  14  15
HETATM   15  C   UNL     1      -7.269  16.280  67.991  1.00  0.00    -0.132 A  
HETATM   16  C   UNL     1      -6.843  15.116  68.597  1.00  0.00    -0.105 A  
HETATM   17  S   UNL     1      -6.037  15.476  70.064  1.00  0.00    -0.123 SA 
HETATM   18  C   UNL     1      -6.329  17.150  69.804  1.00  0.00    -0.152 A  
HETATM   19  N   UNL     1      -7.004  17.440  68.709  1.00  0.00    -0.226 NA 
BRANCH  18  20
HETATM   20  C   UNL     1      -5.861  18.180  70.804  1.00  0.00     0.184 C  
BRANCH  20  21
HETATM   21  N   UNL     1      -6.343  19.554  70.534  1.00  0.00    -0.090 NA 
HETATM   22  C   UNL     1      -5.226  20.494  70.386  1.00  0.00    -0.294 C  
HETATM   23  C   UNL     1      -7.149  19.557  69.311  1.00  0.00    -0.337 C  
ENDBRANCH  20  21
ENDBRANCH  18  20
ENDBRANCH  14  15
ENDBRANCH  13  14
ENDBRANCH  12  13
ENDBRANCH  11  12
ENDBRANCH   9  11
ENDBRANCH   4   9
ENDBRANCH   2   4
TORSDOF 9
ENDMDL
MODEL      393
REMARK 921   NORMALIZED FREE ENERGY PREDICTED BY IDOCK:   -0.94 KCAL/MOL
REMARK 922        TOTAL FREE ENERGY PREDICTED BY IDOCK:   -2.50 KCAL/MOL
REMARK 923 INTER-LIGAND FREE ENERGY PREDICTED BY IDOCK:   -2.17 KCAL/MOL
REMARK 924 INTRA-LIGAND FREE ENERGY PREDICTED BY IDOCK:   -0.33 KCAL/MOL
REMARK 927      BINDING AFFINITY PREDICTED BY RF-SCORE:    0.00 PKD
ROOT
HETATM    1  C   UNL     1      -9.636  10.046  69.628  1.00  0.00    -0.226 C  
HETATM    2  N   UNL     1      -9.092  10.218  68.299  1.00  0.00    -0.136 NA 
HETATM    3  H   UNL     1      -9.564  10.913  67.721  1.00  0.00     0.000 HD 
ENDROOT
BRANCH   2   4
HETATM    4  C   UNL     1      -8.022   9.574  67.702  1.00  0.00    -0.106 C  
HETATM    5  C   UNL     1      -7.620   9.971  66.476  1.00  0.00    -0.106 C  
HETATM    6  O   UNL     1      -5.858   8.468  66.277  1.00  0.00    -0.043 OA 
HETATM    7  N   UNL     1      -6.518   9.380  65.760  1.00  0.00    -0.067 N  
HETATM    8  O   UNL     1      -6.300   9.850  64.635  1.00  0.00    -0.102 OA 
BRANCH   4   9
HETATM    9  N   UNL     1      -7.423   8.533  68.389  1.00  0.00    -0.093 NA 
HETATM   10  H   UNL     1      -7.912   7.640  68.324  1.00  0.00     0.000 HD 
BRANCH   9  11
HETATM   11  C   UNL     1      -6.213   8.507  69.184  1.00  0.00    -0.043 C  
BRANCH  11  12
HETATM   12  C   UNL     1      -6.526   8.112  70.630  1.00  0.00    -0.036 C  
BRANCH  12  13
HETATM   13  S   UNL     1      -5.415   6.811  71.265  1.00  0.00    -0.028 SA 
BRANCH  13  14
HETATM   14  C   UNL     1      -5.615   5.566  69.947  1.00  0.00    -0.008 C  
BRANCH  14  15
HETATM   15  C   UNL     1      -7.020   5.073  69.888  1.00  0.00    -0.053 A  
HETATM   16  C   UNL     1      -7.754   4.795  68.752  1.00  0.00    -0.072 A  
HETATM   17  S   UNL     1      -9.318   4.245  69.181  1.00  0.00    -0.174 SA 
HETATM   18  C   UNL     1      -8.920   4.437  70.843  1.00  0.00    -0.112 A  
HETATM   19  N   UNL     1      -7.709   4.903  71.082  1.00  0.00    -0.081 NA 
BRANCH  18  20
HETATM   20  C   UNL     1      -9.929   4.119  71.920  1.00  0.00    -0.183 C  
BRANCH  20  21
HETATM   21  N   UNL     1      -9.503   4.500  73.286  1.00  0.00    -0.119 NA 
HETATM   22  C   UNL     1     -10.616   5.067  74.056  1.00  0.00    -0.298 C  
HETATM   23  C   UNL     1      -8.978   3.321  73.980  1.00  0.00    -0.083 C  
ENDBRANCH  20  21
ENDBRANCH  18  20
ENDBRANCH  14  15
ENDBRANCH  13  14
ENDBRANCH  12  13
ENDBRANCH  11  12
ENDBRANCH   9  11
ENDBRANCH   4   9
ENDBRANCH   2   4
TORSDOF 9
ENDMDL
MODEL      394
REMARK 921   NORMALIZED FREE ENERGY PREDICTED BY IDOCK:   -0.71 KCAL/MOL
REMARK 922        TOTAL FREE ENERGY PREDICTED BY IDOCK:   -2.14 KCAL/MOL
REMARK 923 INTER-LIGAND FREE ENERGY PREDICTED BY IDOCK:   -2.62 KCAL/MOL
REMARK 924 INTRA-LIGAND FREE ENERGY PREDICTED BY IDOCK:    0.48 KCAL/MOL
REMARK 927      BINDING AFFINITY PREDICTED BY RF-SCORE:    0.00 PKD
ROOT
HETATM    1  C   UNL     1     -11.653   2.692  73.351  1.00  0.00    -0.036 C  
HETATM    2  N   UNL     1     -10.321   2.150  73.499  1.00  0.00    -0.107 NA 
HETATM    3  H   UNL     1     -10.269   1.135  73.587  1.00  0.00     0.000 HD 
ENDROOT
BRANCH   2   4
HETATM    4  C   UNL     1      -9.106   2.813  73.539  1.00  0.00    -0.084 C  
HETATM    5  C   UNL     1      -8.005   2.141  73.936  1.00  0.00    -0.053 C  
HETATM    6  O   UNL     1      -6.512   3.903  73.674  1.00  0.00    -0.037 OA 
HETATM    7  N   UNL     1      -6.689   2.725  74.011  1.00  0.00    -0.029 N  
HETATM    8  O   UNL     1      -5.796   1.971  74.419  1.00  0.00    -0.003 OA 
BRANCH   4   9
HETATM    9  N   UNL     1      -9.083   4.150  73.183  1.00  0.00    -0.110 NA 
HETATM   10  H   UNL     1      -9.311   4.798  73.937  1.00  0.00     0.000 HD 
BRANCH   9  11
HETATM   11  C   UNL     1      -8.786   4.778  71.912  1.00  0.00    -0.123 C  
BRANCH  11  12
HETATM   12  C   UNL     1      -8.920   6.300  72.018  1.00  0.00    -0.142 C  
BRANCH  12  13
HETATM   13  S   UNL     1      -7.306   7.145  72.142  1.00  0.00    -0.081 SA 
BRANCH  13  14
HETATM   14  C   UNL     1      -7.387   8.181  70.642  1.00  0.00    -0.053 C  
BRANCH  14  15
HETATM   15  C   UNL     1      -8.677   8.923  70.576  1.00  0.00    -0.186 A  
HETATM   16  C   UNL     1      -9.606   9.062  71.588  1.00  0.00    -0.248 A  
HETATM   17  S   UNL     1     -10.927  10.009  71.049  1.00  0.00    -0.054 SA 
HETATM   18  C   UNL     1     -10.185  10.150  69.504  1.00  0.00    -0.236 A  
HETATM   19  N   UNL     1      -9.035   9.517  69.372  1.00  0.00    -0.160 NA 
BRANCH  18  20
HETATM   20  C   UNL     1     -10.856  10.921  68.393  1.00  0.00    -0.222 C  
BRANCH  20  21
HETATM   21  N   UNL     1     -10.018  11.989  67.801  1.00  0.00    -0.191 NA 
HETATM   22  C   UNL     1     -10.000  11.905  66.336  1.00  0.00    -0.213 C  
HETATM   23  C   UNL     1     -10.534  13.298  68.210  1.00  0.00    -0.250 C  
ENDBRANCH  20  21
ENDBRANCH  18  20
ENDBRANCH  14  15
ENDBRANCH  13  14
ENDBRANCH  12  13
ENDBRANCH  11  12
ENDBRANCH   9  11
ENDBRANCH   4   9
ENDBRANCH   2   4
TORSDOF 9
ENDMDL
MODEL      395
REMARK 921   NORMALIZED FREE ENERGY PREDICTED BY IDOCK:   -0.68 KCAL/MOL
REMARK 922        TOTAL FREE ENERGY PREDICTED BY IDOCK:   -2.10 KCAL/MOL
REMARK 923 INTER-LIGAND FREE ENERGY PREDICTED BY IDOCK:   -2.40 KCAL/MOL
REMARK 924 INTRA-LIGAND FREE ENERGY PREDICTED BY IDOCK:    0.30 KCAL/MOL
REMARK 927      BINDING AFFINITY PREDICTED BY RF-SCORE:    0.00 PKD
ROOT
HETATM    1  C   UNL     1     -13.310  14.757  69.120  1.00  0.00     2.265 C  
HETATM    2  N   UNL     1     -12.621  14.595  70.380  1.00  0.00    -0.402 NA 
HETATM    3  H   UNL     1     -12.416  13.632  70.646  1.00  0.00     0.000 HD 
ENDROOT
BRANCH   2   4
HETATM    4  C   UNL     1     -12.200  15.561  71.278  1.00  0.00    -0.390 C  
HETATM    5  C   UNL     1     -12.778  15.620  72.496  1.00  0.00    -0.433 C  
HETATM    6  O   UNL     1     -11.511  17.395  73.303  1.00  0.00     0.310 OA 
HETATM    7  N   UNL     1     -12.418  16.578  73.512  1.00  0.00    -0.419 N  
HETATM    8  O   UNL     1     -13.066  16.506  74.564  1.00  0.00    -0.395 OA 
BRANCH   4   9
HETATM    9  N   UNL     1     -11.210  16.440  70.872  1.00  0.00    -0.403 NA 
HETATM   10  H   UNL     1     -10.916  17.110  71.583  1.00  0.00     0.000 HD 
BRANCH   9  11
HETATM   11  C   UNL     1     -10.525  16.560  69.602  1.00  0.00    -0.267 C  
BRANCH  11  12
HETATM   12  C   UNL     1      -9.563  15.386  69.396  1.00  0.00    -0.270 C  
BRANCH  12  13
HETATM   13  S   UNL     1      -7.894  15.920  68.884  1.00  0.00    -0.212 SA 
BRANCH  13  14
HETATM   14  C   UNL     1      -7.896  15.324  67.160  1.00  0.00    -0.214 C  
BRANCH  14  15
HETATM   15  C   UNL     1      -9.163  14.606  66.846  1.00  0.00    -0.249 A  
HETATM   16  C   UNL     1     -10.244  15.101  66.144  1.00  0.00    -0.295 A  
HETATM   17  S   UNL     1     -11.466  13.908  66.025  1.00  0.00    -0.352 SA 
HETATM   18  C   UNL     1     -10.485  12.826  66.933  1.00  0.00    -0.240 A  
HETATM   19  N   UNL     1      -9.326  13.313  67.328  1.00  0.00    -0.217 NA 
BRANCH  18  20
HETATM   20  C   UNL     1     -10.973  11.435  67.264  1.00  0.00    -0.282 C  
BRANCH  20  21
HETATM   21  N   UNL     1     -11.060  11.150  68.715  1.00  0.00    -0.214 NA 
HETATM   22  C   UNL     1     -12.229  10.321  69.028  1.00  0.00     0.509 C  
HETATM   23  C   UNL     1      -9.842  10.463  69.151  1.00  0.00    -0.223 C  
ENDBRANCH  20  21
ENDBRANCH  18  20
ENDBRANCH  14  15
ENDBRANCH  13  14
ENDBRANCH  12  13
ENDBRANCH  11  12
ENDBRANCH   9  11
ENDBRANCH   4   9
ENDBRANCH   2   4
TORSDOF 9
ENDMDL
MODEL      396
REMARK 921   NORMALIZED FREE ENERGY PREDICTED BY IDOCK:   -0.58 KCAL/MOL
REMARK 922        TOTAL FREE ENERGY PREDICTED BY IDOCK:   -1.96 KCAL/MOL
REMARK 923 INTER-LIGAND FREE ENERGY PREDICTED BY IDOCK:   -2.46 KCAL/MOL
REMARK 924 INTRA-LIGAND FREE ENERGY PREDICTED BY IDOCK:    0.50 KCAL/MOL
REMARK 927      BINDING AFFINITY PREDICTED BY RF-SCORE:    0.00 PKD
ROOT
HETATM    1  C   UNL     1     -11.675   2.708  73.305  1.00  0.00     0.115 C  
HETATM    2  N   UNL     1     -10.355   2.144  73.480  1.00  0.00    -0.107 NA 
HETATM    3  H   UNL     1     -10.331   1.150  73.706  1.00  0.00     0.000 HD 
ENDROOT
BRANCH   2   4
HETATM    4  C   UNL     1      -9.120   2.762  73.383  1.00  0.00    -0.085 C  
HETATM    5  C   UNL     1      -8.049   2.179  73.960  1.00  0.00    -0.054 C  
HETATM    6  O   UNL     1      -6.494   3.778  73.306  1.00  0.00    -0.026 OA 
HETATM    7  N   UNL     1      -6.715   2.725  73.920  1.00  0.00    -0.029 N  
HETATM    8  O   UNL     1      -5.854   2.072  74.524  1.00  0.00    -0.003 OA 
BRANCH   4   9
HETATM    9  N   UNL     1      -9.046   3.967  72.707  1.00  0.00    -0.104 NA 
HETATM   10  H   UNL     1      -9.608   4.718  73.109  1.00  0.00     0.000 HD 
BRANCH   9  11
HETATM   11  C   UNL     1      -8.300   4.335  71.521  1.00  0.00    -0.092 C  
BRANCH  11  12
HETATM   12  C   UNL     1      -8.595   5.785  71.127  1.00  0.00    -0.128 C  
BRANCH  12  13
HETATM   13  S   UNL     1      -7.258   6.933  71.603  1.00  0.00    -0.080 SA 
BRANCH  13  14
HETATM   14  C   UNL     1      -7.087   7.867  70.045  1.00  0.00    -0.050 C  
BRANCH  14  15
HETATM   15  C   UNL     1      -8.422   8.226  69.489  1.00  0.00    -0.125 A  
HETATM   16  C   UNL     1      -8.844   8.072  68.184  1.00  0.00    -0.132 A  
HETATM   17  S   UNL     1     -10.460   8.615  68.020  1.00  0.00    -0.160 SA 
HETATM   18  C   UNL     1     -10.479   9.037  69.687  1.00  0.00    -0.222 A  
HETATM   19  N   UNL     1      -9.352   8.816  70.336  1.00  0.00    -0.169 NA 
BRANCH  18  20
HETATM   20  C   UNL     1     -11.708   9.650  70.314  1.00  0.00    -0.155 C  
BRANCH  20  21
HETATM   21  N   UNL     1     -12.199   8.935  71.516  1.00  0.00    -0.311 NA 
HETATM   22  C   UNL     1     -13.133   9.763  72.286  1.00  0.00    -0.356 C  
HETATM   23  C   UNL     1     -12.865   7.696  71.108  1.00  0.00    -0.185 C  
ENDBRANCH  20  21
ENDBRANCH  18  20
ENDBRANCH  14  15
ENDBRANCH  13  14
ENDBRANCH  12  13
ENDBRANCH  11  12
ENDBRANCH   9  11
ENDBRANCH   4   9
ENDBRANCH   2   4
TORSDOF 9
ENDMDL
MODEL      397
REMARK 921   NORMALIZED FREE ENERGY PREDICTED BY IDOCK:   -0.51 KCAL/MOL
REMARK 922        TOTAL FREE ENERGY PREDICTED BY IDOCK:   -1.84 KCAL/MOL
REMARK 923 INTER-LIGAND FREE ENERGY PREDICTED BY IDOCK:   -4.51 KCAL/MOL
REMARK 924 INTRA-LIGAND FREE ENERGY PREDICTED BY IDOCK:    2.66 KCAL/MOL
REMARK 927      BINDING AFFINITY PREDICTED BY RF-SCORE:    0.00 PKD
ROOT
HETATM    1  C   UNL     1     -10.743  16.204  65.549  1.00  0.00    -0.342 C  
HETATM    2  N   UNL     1     -11.398  14.993  65.106  1.00  0.00    -0.372 NA 
HETATM    3  H   UNL     1     -12.402  15.071  64.948  1.00  0.00     0.000 HD 
ENDROOT
BRANCH   2   4
HETATM    4  C   UNL     1     -10.853  13.743  64.864  1.00  0.00    -0.391 C  
HETATM    5  C   UNL     1     -11.512  12.886  64.055  1.00  0.00    -0.422 C  
HETATM    6  O   UNL     1      -9.957  11.162  64.175  1.00  0.00    -0.261 OA 
HETATM    7  N   UNL     1     -11.040  11.564  63.728  1.00  0.00    -0.399 N  
HETATM    8  O   UNL     1     -11.782  10.902  62.990  1.00  0.00     0.731 OA 
BRANCH   4   9
HETATM    9  N   UNL     1      -9.658  13.422  65.485  1.00  0.00    -0.504 NA 
HETATM   10  H   UNL     1      -8.822  13.725  64.984  1.00  0.00     0.000 HD 
BRANCH   9  11
HETATM   11  C   UNL     1      -9.404  12.726  66.729  1.00  0.00    -0.241 C  
BRANCH  11  12
HETATM   12  C   UNL     1      -9.591  13.669  67.921  1.00  0.00    -0.223 C  
BRANCH  12  13
HETATM   13  S   UNL     1     -11.348  13.991  68.299  1.00  0.00    -0.307 SA 
BRANCH  13  14
HETATM   14  C   UNL     1     -12.094  12.478  67.603  1.00  0.00    -0.056 C  
BRANCH  14  15
HETATM   15  C   UNL     1     -11.425  11.259  68.139  1.00  0.00    -0.306 A  
HETATM   16  C   UNL     1     -10.843  11.112  69.382  1.00  0.00    -0.216 A  
HETATM   17  S   UNL     1     -10.209   9.531  69.552  1.00  0.00    -0.228 SA 
HETATM   18  C   UNL     1     -10.730   9.159  67.956  1.00  0.00    -0.147 A  
HETATM   19  N   UNL     1     -11.321  10.147  67.313  1.00  0.00    -0.138 NA 
BRANCH  18  20
HETATM   20  C   UNL     1     -10.475   7.796  67.359  1.00  0.00    -0.292 C  
BRANCH  20  21
HETATM   21  N   UNL     1      -9.322   7.079  67.951  1.00  0.00    -0.124 NA 
HETATM   22  C   UNL     1      -8.148   7.951  68.061  1.00  0.00    -0.126 C  
HETATM   23  C   UNL     1      -9.687   6.579  69.279  1.00  0.00    -0.144 C  
ENDBRANCH  20  21
ENDBRANCH  18  20
ENDBRANCH  14  15
ENDBRANCH  13  14
ENDBRANCH  12  13
ENDBRANCH  11  12
ENDBRANCH   9  11
ENDBRANCH   4   9
ENDBRANCH   2   4
TORSDOF 9
ENDMDL
MODEL      398
REMARK 921   NORMALIZED FREE ENERGY PREDICTED BY IDOCK:    1.05 KCAL/MOL
REMARK 922        TOTAL FREE ENERGY PREDICTED BY IDOCK:    0.53 KCAL/MOL
REMARK 923 INTER-LIGAND FREE ENERGY PREDICTED BY IDOCK:   -1.24 KCAL/MOL
REMARK 924 INTRA-LIGAND FREE ENERGY PREDICTED BY IDOCK:    1.77 KCAL/MOL
REMARK 927      BINDING AFFINITY PREDICTED BY RF-SCORE:    0.00 PKD
ROOT
HETATM    1  C   UNL     1      -7.637  14.936  70.661  1.00  0.00     1.143 C  
HETATM    2  N   UNL     1      -8.524  15.724  69.834  1.00  0.00     0.139 NA 
HETATM    3  H   UNL     1      -8.212  16.676  69.642  1.00  0.00     0.000 HD 
ENDROOT
BRANCH   2   4
HETATM    4  C   UNL     1      -9.736  15.369  69.267  1.00  0.00    -0.268 C  
HETATM    5  C   UNL     1     -10.590  14.599  69.973  1.00  0.00     0.068 C  
HETATM    6  O   UNL     1     -12.274  14.536  68.372  1.00  0.00    -0.251 OA 
HETATM    7  N   UNL     1     -11.879  14.172  69.489  1.00  0.00    -0.302 N  
HETATM    8  O   UNL     1     -12.523  13.448  70.258  1.00  0.00    -0.290 OA 
BRANCH   4   9
HETATM    9  N   UNL     1     -10.009  15.811  67.984  1.00  0.00    -0.221 NA 
HETATM   10  H   UNL     1     -10.993  15.774  67.719  1.00  0.00     0.000 HD 
BRANCH   9  11
HETATM   11  C   UNL     1      -9.121  16.318  66.957  1.00  0.00    -0.207 C  
BRANCH  11  12
HETATM   12  C   UNL     1      -8.341  15.172  66.307  1.00  0.00     0.290 C  
BRANCH  12  13
HETATM   13  S   UNL     1      -7.756  13.937  67.517  1.00  0.00    -0.162 SA 
BRANCH  13  14
HETATM   14  C   UNL     1      -9.221  12.850  67.578  1.00  0.00    -0.192 C  
BRANCH  14  15
HETATM   15  C   UNL     1      -8.962  11.566  66.868  1.00  0.00    -0.179 A  
HETATM   16  C   UNL     1      -8.903  10.306  67.429  1.00  0.00    -0.131 A  
HETATM   17  S   UNL     1      -8.589   9.136  66.219  1.00  0.00    -0.131 SA 
HETATM   18  C   UNL     1      -8.531  10.386  65.038  1.00  0.00    -0.176 A  
HETATM   19  N   UNL     1      -8.708  11.607  65.502  1.00  0.00     0.089 NA 
BRANCH  18  20
HETATM   20  C   UNL     1      -8.254  10.065  63.589  1.00  0.00    -0.160 C  
BRANCH  20  21
HETATM   21  N   UNL     1      -7.040   9.247  63.367  1.00  0.00    -0.089 NA 
HETATM   22  C   UNL     1      -7.372   7.945  62.780  1.00  0.00    -0.102 C  
HETATM   23  C   UNL     1      -6.124   9.966  62.477  1.00  0.00    -0.108 C  
ENDBRANCH  20  21
ENDBRANCH  18  20
ENDBRANCH  14  15
ENDBRANCH  13  14
ENDBRANCH  12  13
ENDBRANCH  11  12
ENDBRANCH   9  11
ENDBRANCH   4   9
ENDBRANCH   2   4
TORSDOF 9
ENDMDL
MODEL      399
REMARK 921   NORMALIZED FREE ENERGY PREDICTED BY IDOCK:    1.94 KCAL/MOL
REMARK 922        TOTAL FREE ENERGY PREDICTED BY IDOCK:    1.90 KCAL/MOL
REMARK 923 INTER-LIGAND FREE ENERGY PREDICTED BY IDOCK:   -2.26 KCAL/MOL
REMARK 924 INTRA-LIGAND FREE ENERGY PREDICTED BY IDOCK:    4.16 KCAL/MOL
REMARK 927      BINDING AFFINITY PREDICTED BY RF-SCORE:    0.00 PKD
ROOT
HETATM    1  C   UNL     1      -7.702   5.350  66.968  1.00  0.00    -0.100 C  
HETATM    2  N   UNL     1      -9.008   5.429  67.585  1.00  0.00    -0.109 NA 
HETATM    3  H   UNL     1      -9.765   4.988  67.064  1.00  0.00     0.000 HD 
ENDROOT
BRANCH   2   4
HETATM    4  C   UNL     1      -9.375   6.020  68.782  1.00  0.00    -0.122 C  
HETATM    5  C   UNL     1     -10.684   6.101  69.099  1.00  0.00    -0.316 C  
HETATM    6  O   UNL     1     -10.394   7.132  71.162  1.00  0.00    -0.203 OA 
HETATM    7  N   UNL     1     -11.183   6.688  70.317  1.00  0.00    -0.324 N  
HETATM    8  O   UNL     1     -12.415   6.702  70.435  1.00  0.00    -0.196 OA 
BRANCH   4   9
HETATM    9  N   UNL     1      -8.373   6.519  69.597  1.00  0.00    -0.129 NA 
HETATM   10  H   UNL     1      -7.544   6.849  69.101  1.00  0.00     0.000 HD 
BRANCH   9  11
HETATM   11  C   UNL     1      -8.311   6.648  71.038  1.00  0.00    -0.125 C  
BRANCH  11  12
HETATM   12  C   UNL     1      -8.746   5.344  71.714  1.00  0.00    -0.135 C  
BRANCH  12  13
HETATM   13  S   UNL     1      -8.232   5.250  73.464  1.00  0.00    -0.110 SA 
BRANCH  13  14
HETATM   14  C   UNL     1      -7.908   3.459  73.592  1.00  0.00    -0.066 C  
BRANCH  14  15
HETATM   15  C   UNL     1      -7.924   2.817  72.247  1.00  0.00    -0.055 A  
HETATM   16  C   UNL     1      -9.036   2.438  71.523  1.00  0.00    -0.093 A  
HETATM   17  S   UNL     1      -8.561   1.751  70.028  1.00  0.00    -0.055 SA 
HETATM   18  C   UNL     1      -6.912   1.983  70.456  1.00  0.00    -0.033 A  
HETATM   19  N   UNL     1      -6.708   2.517  71.645  1.00  0.00    -0.022 NA 
BRANCH  18  20
HETATM   20  C   UNL     1      -5.805   1.556  69.522  1.00  0.00    -0.022 C  
BRANCH  20  21
HETATM   21  N   UNL     1      -5.136   2.676  68.820  1.00  0.00    -0.011 NA 
HETATM   22  C   UNL     1      -5.283   2.559  67.365  1.00  0.00    -0.012 C  
HETATM   23  C   UNL     1      -5.710   3.946  69.269  1.00  0.00    -0.018 C  
ENDBRANCH  20  21
ENDBRANCH  18  20
ENDBRANCH  14  15
ENDBRANCH  13  14
ENDBRANCH  12  13
ENDBRANCH  11  12
ENDBRANCH   9  11
ENDBRANCH   4   9
ENDBRANCH   2   4
TORSDOF 9
ENDMDL
