MODEL        1
REMARK 921   NORMALIZED FREE ENERGY PREDICTED BY IDOCK:   -8.05 KCAL/MOL
REMARK 922        TOTAL FREE ENERGY PREDICTED BY IDOCK:   -8.10 KCAL/MOL
REMARK 923 INTER-LIGAND FREE ENERGY PREDICTED BY IDOCK:   -8.52 KCAL/MOL
REMARK 924 INTRA-LIGAND FREE ENERGY PREDICTED BY IDOCK:    0.42 KCAL/MOL
REMARK 927      BINDING AFFINITY PREDICTED BY RF-SCORE:    0.00 PKD
ROOT
HETATM    1  C   UNL     1     -11.611  13.085  63.214  1.00  0.00    -0.250 C  
HETATM    2  C   UNL     1     -11.945  13.562  64.609  1.00  0.00    -0.400 C  
HETATM    3  O   UNL     1     -13.082  13.988  64.854  1.00  0.00    -0.693 OA 
ENDROOT
BRANCH   2   4
HETATM    4  C   UNL     1     -10.804  13.543  65.709  1.00  0.00    -0.275 C  
HETATM    5  O   UNL     1      -9.726  14.350  65.167  1.00  0.00    -0.529 OA 
HETATM    6  C   UNL     1     -11.450  14.373  66.827  1.00  0.00    -0.381 C  
HETATM    7  C   UNL     1     -10.369  14.276  67.836  1.00  0.00    -0.233 C  
HETATM    8  H   UNL     1      -9.043  14.339  65.827  1.00  0.00     0.000 HD 
HETATM    9  C   UNL     1     -10.240  12.758  67.881  1.00  0.00    -0.229 C  
HETATM   10  C   UNL     1     -11.370  12.038  68.671  1.00  0.00    -0.329 C  
HETATM   11  C   UNL     1     -11.972  12.880  69.754  1.00  0.00    -0.365 C  
HETATM   12  C   UNL     1     -12.452  12.438  70.926  1.00  0.00    -0.367 C  
HETATM   13  C   UNL     1     -12.988  13.464  71.894  1.00  0.00    -0.422 C  
HETATM   14  C   UNL     1     -12.535  11.015  71.178  1.00  0.00    -0.502 C  
HETATM   15  C   UNL     1     -13.283  10.564  72.204  1.00  0.00    -0.398 C  
HETATM   16  C   UNL     1     -13.360   9.125  72.413  1.00  0.00    -0.463 C  
HETATM   17  O   UNL     1     -14.381   8.598  72.846  1.00  0.00    -0.474 OA 
HETATM   18  C   UNL     1     -12.059   8.388  72.196  1.00  0.00    -0.435 C  
HETATM   19  C   UNL     1     -11.436   8.711  70.832  1.00  0.00    -0.315 C  
HETATM   20  C   UNL     1     -11.898  10.037  70.159  1.00  0.00    -0.245 C  
HETATM   21  C   UNL     1     -10.815  10.718  69.231  1.00  0.00    -0.287 C  
HETATM   22  C   UNL     1     -10.320   9.950  67.983  1.00  0.00    -0.244 C  
HETATM   23  C   UNL     1      -9.424  10.846  67.022  1.00  0.00    -0.184 C  
HETATM   24  C   UNL     1     -10.033  12.179  66.311  1.00  0.00    -0.249 C  
HETATM   25  C   UNL     1     -10.895  11.221  65.363  1.00  0.00    -0.255 C  
ENDBRANCH   2   4
TORSDOF 1
ENDMDL
MODEL        2
REMARK 921   NORMALIZED FREE ENERGY PREDICTED BY IDOCK:   -7.76 KCAL/MOL
REMARK 922        TOTAL FREE ENERGY PREDICTED BY IDOCK:   -7.79 KCAL/MOL
REMARK 923 INTER-LIGAND FREE ENERGY PREDICTED BY IDOCK:   -7.92 KCAL/MOL
REMARK 924 INTRA-LIGAND FREE ENERGY PREDICTED BY IDOCK:    0.14 KCAL/MOL
REMARK 927      BINDING AFFINITY PREDICTED BY RF-SCORE:    0.00 PKD
ROOT
HETATM    1  C   UNL     1     -11.831  13.079  63.209  1.00  0.00    -0.432 C  
HETATM    2  C   UNL     1     -12.255  12.907  64.650  1.00  0.00    -0.435 C  
HETATM    3  O   UNL     1     -13.397  12.501  64.907  1.00  0.00    -0.702 OA 
ENDROOT
BRANCH   2   4
HETATM    4  C   UNL     1     -11.230  13.298  65.794  1.00  0.00    -0.294 C  
HETATM    5  O   UNL     1     -10.601  14.529  65.350  1.00  0.00    -0.322 OA 
HETATM    6  C   UNL     1     -12.181  13.680  66.935  1.00  0.00    -0.398 C  
HETATM    7  C   UNL     1     -11.175  13.983  67.979  1.00  0.00    -0.302 C  
HETATM    8  H   UNL     1      -9.987  14.763  66.035  1.00  0.00     0.000 HD 
HETATM    9  C   UNL     1     -10.402  12.670  67.932  1.00  0.00    -0.221 C  
HETATM   10  C   UNL     1     -11.117  11.476  68.627  1.00  0.00    -0.291 C  
HETATM   11  C   UNL     1     -12.034  11.891  69.736  1.00  0.00    -0.377 C  
HETATM   12  C   UNL     1     -12.287  11.198  70.855  1.00  0.00    -0.500 C  
HETATM   13  C   UNL     1     -13.223  11.816  71.864  1.00  0.00    -0.468 C  
HETATM   14  C   UNL     1     -11.749   9.864  71.012  1.00  0.00    -0.466 C  
HETATM   15  C   UNL     1     -12.237   9.058  71.975  1.00  0.00    -0.446 C  
HETATM   16  C   UNL     1     -11.686   7.715  72.088  1.00  0.00    -0.311 C  
HETATM   17  O   UNL     1     -12.382   6.768  72.443  1.00  0.00    -0.138 OA 
HETATM   18  C   UNL     1     -10.192   7.630  71.879  1.00  0.00    -0.234 C  
HETATM   19  C   UNL     1      -9.757   8.292  70.565  1.00  0.00    -0.185 C  
HETATM   20  C   UNL     1     -10.741   9.337  69.960  1.00  0.00    -0.259 C  
HETATM   21  C   UNL     1     -10.050  10.486  69.123  1.00  0.00    -0.240 C  
HETATM   22  C   UNL     1      -9.260  10.103  67.850  1.00  0.00    -0.144 C  
HETATM   23  C   UNL     1      -8.830  11.368  66.987  1.00  0.00    -0.168 C  
HETATM   24  C   UNL     1      -9.949  12.357  66.338  1.00  0.00    -0.254 C  
HETATM   25  C   UNL     1     -10.303  11.196  65.296  1.00  0.00    -0.336 C  
ENDBRANCH   2   4
TORSDOF 1
ENDMDL
MODEL        3
REMARK 921   NORMALIZED FREE ENERGY PREDICTED BY IDOCK:   -7.63 KCAL/MOL
REMARK 922        TOTAL FREE ENERGY PREDICTED BY IDOCK:   -7.65 KCAL/MOL
REMARK 923 INTER-LIGAND FREE ENERGY PREDICTED BY IDOCK:   -7.63 KCAL/MOL
REMARK 924 INTRA-LIGAND FREE ENERGY PREDICTED BY IDOCK:   -0.02 KCAL/MOL
REMARK 927      BINDING AFFINITY PREDICTED BY RF-SCORE:    0.00 PKD
ROOT
HETATM    1  C   UNL     1      -7.292  15.418  67.447  1.00  0.00    -0.244 C  
HETATM    2  C   UNL     1      -8.253  16.491  66.990  1.00  0.00    -0.196 C  
HETATM    3  O   UNL     1      -7.854  17.659  66.870  1.00  0.00    -0.204 OA 
ENDROOT
BRANCH   2   4
HETATM    4  C   UNL     1      -9.763  16.092  66.721  1.00  0.00    -0.242 C  
HETATM    5  O   UNL     1     -10.230  17.003  65.692  1.00  0.00    -0.556 OA 
HETATM    6  C   UNL     1      -9.598  14.723  66.049  1.00  0.00    -0.334 C  
HETATM    7  C   UNL     1     -11.029  14.382  65.870  1.00  0.00    -0.312 C  
HETATM    8  H   UNL     1     -11.135  16.764  65.530  1.00  0.00     0.000 HD 
HETATM    9  C   UNL     1     -11.483  14.563  67.315  1.00  0.00    -0.381 C  
HETATM   10  C   UNL     1     -11.078  13.402  68.267  1.00  0.00    -0.289 C  
HETATM   11  C   UNL     1     -10.930  12.082  67.573  1.00  0.00    -0.303 C  
HETATM   12  C   UNL     1     -11.201  10.878  68.096  1.00  0.00    -0.363 C  
HETATM   13  C   UNL     1     -11.012   9.671  67.210  1.00  0.00    -0.107 C  
HETATM   14  C   UNL     1     -11.559  10.765  69.494  1.00  0.00    -0.375 C  
HETATM   15  C   UNL     1     -11.536   9.558  70.091  1.00  0.00    -0.205 C  
HETATM   16  C   UNL     1     -11.880   9.487  71.504  1.00  0.00    -0.405 C  
HETATM   17  O   UNL     1     -11.349   8.669  72.250  1.00  0.00    -0.359 OA 
HETATM   18  C   UNL     1     -13.025  10.383  71.916  1.00  0.00    -0.555 C  
HETATM   19  C   UNL     1     -12.803  11.837  71.479  1.00  0.00    -0.450 C  
HETATM   20  C   UNL     1     -11.798  12.060  70.311  1.00  0.00    -0.356 C  
HETATM   21  C   UNL     1     -12.104  13.321  69.409  1.00  0.00    -0.301 C  
HETATM   22  C   UNL     1     -12.064  14.724  70.059  1.00  0.00    -0.380 C  
HETATM   23  C   UNL     1     -12.151  15.902  68.994  1.00  0.00    -0.116 C  
HETATM   24  C   UNL     1     -11.001  16.085  67.855  1.00  0.00    -0.327 C  
HETATM   25  C   UNL     1     -10.009  16.587  69.005  1.00  0.00    -0.275 C  
ENDBRANCH   2   4
TORSDOF 1
ENDMDL
MODEL        4
REMARK 921   NORMALIZED FREE ENERGY PREDICTED BY IDOCK:   -7.53 KCAL/MOL
REMARK 922        TOTAL FREE ENERGY PREDICTED BY IDOCK:   -7.55 KCAL/MOL
REMARK 923 INTER-LIGAND FREE ENERGY PREDICTED BY IDOCK:   -7.56 KCAL/MOL
REMARK 924 INTRA-LIGAND FREE ENERGY PREDICTED BY IDOCK:    0.01 KCAL/MOL
REMARK 927      BINDING AFFINITY PREDICTED BY RF-SCORE:    0.00 PKD
ROOT
HETATM    1  C   UNL     1      -7.076  10.502  68.555  1.00  0.00    -0.075 C  
HETATM    2  C   UNL     1      -7.428  10.849  67.127  1.00  0.00    -0.109 C  
HETATM    3  O   UNL     1      -6.522  11.076  66.311  1.00  0.00    -0.129 OA 
ENDROOT
BRANCH   2   4
HETATM    4  C   UNL     1      -8.957  10.957  66.728  1.00  0.00    -0.150 C  
HETATM    5  O   UNL     1      -9.070  10.307  65.435  1.00  0.00    -0.164 OA 
HETATM    6  C   UNL     1      -9.603  10.011  67.749  1.00  0.00    -0.168 C  
HETATM    7  C   UNL     1     -11.022  10.193  67.364  1.00  0.00    -0.295 C  
HETATM    8  H   UNL     1      -9.988  10.372  65.196  1.00  0.00     0.000 HD 
HETATM    9  C   UNL     1     -11.088  11.713  67.463  1.00  0.00    -0.333 C  
HETATM   10  C   UNL     1     -11.163  12.260  68.918  1.00  0.00    -0.323 C  
HETATM   11  C   UNL     1     -11.802  11.309  69.883  1.00  0.00    -0.436 C  
HETATM   12  C   UNL     1     -12.546  11.641  70.947  1.00  0.00    -0.409 C  
HETATM   13  C   UNL     1     -13.125  10.520  71.774  1.00  0.00    -0.570 C  
HETATM   14  C   UNL     1     -12.683  13.033  71.323  1.00  0.00    -0.385 C  
HETATM   15  C   UNL     1     -13.165  13.349  72.540  1.00  0.00    -0.517 C  
HETATM   16  C   UNL     1     -13.266  14.759  72.890  1.00  0.00    -0.500 C  
HETATM   17  O   UNL     1     -13.097  15.143  74.044  1.00  0.00    -0.340 OA 
HETATM   18  C   UNL     1     -13.734  15.653  71.765  1.00  0.00    -0.482 C  
HETATM   19  C   UNL     1     -12.895  15.463  70.495  1.00  0.00    -0.425 C  
HETATM   20  C   UNL     1     -12.114  14.121  70.377  1.00  0.00    -0.417 C  
HETATM   21  C   UNL     1     -11.895  13.612  68.897  1.00  0.00    -0.402 C  
HETATM   22  C   UNL     1     -11.062  14.485  67.929  1.00  0.00    -0.290 C  
HETATM   23  C   UNL     1     -10.724  13.742  66.563  1.00  0.00    -0.284 C  
HETATM   24  C   UNL     1      -9.836  12.377  66.551  1.00  0.00    -0.244 C  
HETATM   25  C   UNL     1      -8.555  13.265  66.913  1.00  0.00    -0.116 C  
ENDBRANCH   2   4
TORSDOF 1
ENDMDL
MODEL        5
REMARK 921   NORMALIZED FREE ENERGY PREDICTED BY IDOCK:   -7.51 KCAL/MOL
REMARK 922        TOTAL FREE ENERGY PREDICTED BY IDOCK:   -7.53 KCAL/MOL
REMARK 923 INTER-LIGAND FREE ENERGY PREDICTED BY IDOCK:   -7.61 KCAL/MOL
REMARK 924 INTRA-LIGAND FREE ENERGY PREDICTED BY IDOCK:    0.08 KCAL/MOL
REMARK 927      BINDING AFFINITY PREDICTED BY RF-SCORE:    0.00 PKD
ROOT
HETATM    1  C   UNL     1      -8.696  18.181  68.633  1.00  0.00    -0.280 C  
HETATM    2  C   UNL     1      -9.004  16.712  68.819  1.00  0.00    -0.253 C  
HETATM    3  O   UNL     1      -8.153  15.969  69.328  1.00  0.00    -0.232 OA 
ENDROOT
BRANCH   2   4
HETATM    4  C   UNL     1     -10.401  16.161  68.312  1.00  0.00    -0.266 C  
HETATM    5  O   UNL     1     -10.908  17.166  67.396  1.00  0.00    -0.284 OA 
HETATM    6  C   UNL     1      -9.960  14.969  67.452  1.00  0.00    -0.226 C  
HETATM    7  C   UNL     1     -11.297  14.470  67.053  1.00  0.00    -0.359 C  
HETATM    8  H   UNL     1     -11.745  16.835  67.092  1.00  0.00     0.000 HD 
HETATM    9  C   UNL     1     -11.906  14.326  68.443  1.00  0.00    -0.373 C  
HETATM   10  C   UNL     1     -11.413  13.082  69.237  1.00  0.00    -0.348 C  
HETATM   11  C   UNL     1     -10.995  11.940  68.361  1.00  0.00    -0.273 C  
HETATM   12  C   UNL     1     -11.120  10.636  68.646  1.00  0.00    -0.315 C  
HETATM   13  C   UNL     1     -10.662   9.645  67.605  1.00  0.00    -0.324 C  
HETATM   14  C   UNL     1     -11.584  10.228  69.955  1.00  0.00    -0.349 C  
HETATM   15  C   UNL     1     -11.426   8.949  70.348  1.00  0.00    -0.182 C  
HETATM   16  C   UNL     1     -11.885   8.582  71.680  1.00  0.00    -0.311 C  
HETATM   17  O   UNL     1     -11.303   7.727  72.341  1.00  0.00    -0.295 OA 
HETATM   18  C   UNL     1     -13.190   9.222  72.093  1.00  0.00    -0.535 C  
HETATM   19  C   UNL     1     -13.161  10.746  71.926  1.00  0.00    -0.557 C  
HETATM   20  C   UNL     1     -12.099  11.312  70.936  1.00  0.00    -0.406 C  
HETATM   21  C   UNL     1     -12.515  12.658  70.221  1.00  0.00    -0.163 C  
HETATM   22  C   UNL     1     -12.757  13.914  71.090  1.00  0.00    -0.441 C  
HETATM   23  C   UNL     1     -12.929  15.239  70.226  1.00  0.00    -0.228 C  
HETATM   24  C   UNL     1     -11.722  15.780  69.275  1.00  0.00    -0.384 C  
HETATM   25  C   UNL     1     -10.933  16.203  70.601  1.00  0.00    -0.229 C  
ENDBRANCH   2   4
TORSDOF 1
ENDMDL
MODEL        6
REMARK 921   NORMALIZED FREE ENERGY PREDICTED BY IDOCK:   -7.48 KCAL/MOL
REMARK 922        TOTAL FREE ENERGY PREDICTED BY IDOCK:   -7.50 KCAL/MOL
REMARK 923 INTER-LIGAND FREE ENERGY PREDICTED BY IDOCK:   -7.56 KCAL/MOL
REMARK 924 INTRA-LIGAND FREE ENERGY PREDICTED BY IDOCK:    0.06 KCAL/MOL
REMARK 927      BINDING AFFINITY PREDICTED BY RF-SCORE:    0.00 PKD
ROOT
HETATM    1  C   UNL     1     -12.040  15.042  63.963  1.00  0.00    -0.119 C  
HETATM    2  C   UNL     1     -12.288  14.233  65.216  1.00  0.00    -0.424 C  
HETATM    3  O   UNL     1     -13.328  13.567  65.318  1.00  0.00    -0.618 OA 
ENDROOT
BRANCH   2   4
HETATM    4  C   UNL     1     -11.220  14.301  66.384  1.00  0.00    -0.337 C  
HETATM    5  O   UNL     1     -10.460  15.515  66.149  1.00  0.00    -0.289 OA 
HETATM    6  C   UNL     1     -12.117  14.576  67.598  1.00  0.00    -0.266 C  
HETATM    7  C   UNL     1     -11.078  14.577  68.655  1.00  0.00    -0.272 C  
HETATM    8  H   UNL     1      -9.820  15.556  66.850  1.00  0.00     0.000 HD 
HETATM    9  C   UNL     1     -10.456  13.217  68.358  1.00  0.00    -0.261 C  
HETATM   10  C   UNL     1     -11.297  12.003  68.849  1.00  0.00    -0.333 C  
HETATM   11  C   UNL     1     -12.156  12.312  70.036  1.00  0.00    -0.346 C  
HETATM   12  C   UNL     1     -12.480  11.464  71.022  1.00  0.00    -0.486 C  
HETATM   13  C   UNL     1     -13.336  11.990  72.147  1.00  0.00    -0.396 C  
HETATM   14  C   UNL     1     -12.093  10.072  70.928  1.00  0.00    -0.448 C  
HETATM   15  C   UNL     1     -12.663   9.167  71.747  1.00  0.00    -0.446 C  
HETATM   16  C   UNL     1     -12.265   7.772  71.607  1.00  0.00    -0.313 C  
HETATM   17  O   UNL     1     -13.061   6.859  71.808  1.00  0.00    -0.356 OA 
HETATM   18  C   UNL     1     -10.791   7.564  71.350  1.00  0.00    -0.251 C  
HETATM   19  C   UNL     1     -10.291   8.397  70.163  1.00  0.00    -0.214 C  
HETATM   20  C   UNL     1     -11.155   9.633  69.775  1.00  0.00    -0.247 C  
HETATM   21  C   UNL     1     -10.345  10.831  69.137  1.00  0.00    -0.238 C  
HETATM   22  C   UNL     1      -9.608  10.597  67.798  1.00  0.00    -0.172 C  
HETATM   23  C   UNL     1      -9.044  11.940  67.160  1.00  0.00    -0.178 C  
HETATM   24  C   UNL     1     -10.050  13.145  66.723  1.00  0.00    -0.253 C  
HETATM   25  C   UNL     1     -10.536  12.233  65.502  1.00  0.00    -0.296 C  
ENDBRANCH   2   4
TORSDOF 1
ENDMDL
MODEL        7
REMARK 921   NORMALIZED FREE ENERGY PREDICTED BY IDOCK:   -7.37 KCAL/MOL
REMARK 922        TOTAL FREE ENERGY PREDICTED BY IDOCK:   -7.38 KCAL/MOL
REMARK 923 INTER-LIGAND FREE ENERGY PREDICTED BY IDOCK:   -7.47 KCAL/MOL
REMARK 924 INTRA-LIGAND FREE ENERGY PREDICTED BY IDOCK:    0.09 KCAL/MOL
REMARK 927      BINDING AFFINITY PREDICTED BY RF-SCORE:    0.00 PKD
ROOT
HETATM    1  C   UNL     1      -8.723  16.646  66.257  1.00  0.00    -0.359 C  
HETATM    2  C   UNL     1      -8.899  15.218  66.722  1.00  0.00    -0.271 C  
HETATM    3  O   UNL     1      -7.913  14.576  67.112  1.00  0.00    -0.198 OA 
ENDROOT
BRANCH   2   4
HETATM    4  C   UNL     1     -10.344  14.571  66.653  1.00  0.00    -0.274 C  
HETATM    5  O   UNL     1     -11.115  15.431  65.774  1.00  0.00    -0.324 OA 
HETATM    6  C   UNL     1     -10.061  13.284  65.867  1.00  0.00    -0.296 C  
HETATM    7  C   UNL     1     -11.424  12.704  65.880  1.00  0.00    -0.407 C  
HETATM    8  H   UNL     1     -11.981  15.043  65.732  1.00  0.00     0.000 HD 
HETATM    9  C   UNL     1     -11.666  12.737  67.386  1.00  0.00    -0.425 C  
HETATM   10  C   UNL     1     -10.925  11.624  68.181  1.00  0.00    -0.275 C  
HETATM   11  C   UNL     1     -10.671  10.384  67.380  1.00  0.00    -0.338 C  
HETATM   12  C   UNL     1     -10.650   9.128  67.849  1.00  0.00    -0.272 C  
HETATM   13  C   UNL     1     -10.405   8.015  66.860  1.00  0.00    -0.408 C  
HETATM   14  C   UNL     1     -10.756   8.891  69.273  1.00  0.00    -0.177 C  
HETATM   15  C   UNL     1     -10.436   7.682  69.772  1.00  0.00    -0.232 C  
HETATM   16  C   UNL     1     -10.534   7.488  71.212  1.00  0.00    -0.207 C  
HETATM   17  O   UNL     1      -9.761   6.744  71.809  1.00  0.00    -0.162 OA 
HETATM   18  C   UNL     1     -11.732   8.148  71.854  1.00  0.00    -0.362 C  
HETATM   19  C   UNL     1     -11.830   9.636  71.493  1.00  0.00    -0.483 C  
HETATM   20  C   UNL     1     -11.076  10.086  70.207  1.00  0.00    -0.381 C  
HETATM   21  C   UNL     1     -11.728  11.313  69.454  1.00  0.00    -0.409 C  
HETATM   22  C   UNL     1     -11.821  12.669  70.191  1.00  0.00    -0.326 C  
HETATM   23  C   UNL     1     -12.273  13.860  69.237  1.00  0.00    -0.319 C  
HETATM   24  C   UNL     1     -11.367  14.294  67.956  1.00  0.00    -0.318 C  
HETATM   25  C   UNL     1     -10.302  14.912  68.978  1.00  0.00    -0.245 C  
ENDBRANCH   2   4
TORSDOF 1
ENDMDL
MODEL        8
REMARK 921   NORMALIZED FREE ENERGY PREDICTED BY IDOCK:   -7.30 KCAL/MOL
REMARK 922        TOTAL FREE ENERGY PREDICTED BY IDOCK:   -7.31 KCAL/MOL
REMARK 923 INTER-LIGAND FREE ENERGY PREDICTED BY IDOCK:   -7.29 KCAL/MOL
REMARK 924 INTRA-LIGAND FREE ENERGY PREDICTED BY IDOCK:   -0.02 KCAL/MOL
REMARK 927      BINDING AFFINITY PREDICTED BY RF-SCORE:    0.00 PKD
ROOT
HETATM    1  C   UNL     1      -7.929  10.520  68.840  1.00  0.00    -0.128 C  
HETATM    2  C   UNL     1      -8.937   9.752  68.016  1.00  0.00    -0.118 C  
HETATM    3  O   UNL     1      -8.616   8.665  67.514  1.00  0.00    -0.132 OA 
ENDROOT
BRANCH   2   4
HETATM    4  C   UNL     1     -10.369  10.389  67.784  1.00  0.00    -0.206 C  
HETATM    5  O   UNL     1     -11.286   9.267  67.695  1.00  0.00    -0.454 OA 
HETATM    6  C   UNL     1     -10.627  11.056  69.141  1.00  0.00    -0.253 C  
HETATM    7  C   UNL     1     -11.942  11.671  68.848  1.00  0.00    -0.355 C  
HETATM    8  H   UNL     1     -12.144   9.648  67.556  1.00  0.00     0.000 HD 
HETATM    9  C   UNL     1     -11.553  12.441  67.590  1.00  0.00    -0.421 C  
HETATM   10  C   UNL     1     -10.736  13.738  67.856  1.00  0.00    -0.256 C  
HETATM   11  C   UNL     1     -11.018  14.360  69.190  1.00  0.00    -0.288 C  
HETATM   12  C   UNL     1     -11.004  15.670  69.472  1.00  0.00    -0.281 C  
HETATM   13  C   UNL     1     -11.351  16.088  70.879  1.00  0.00    -0.421 C  
HETATM   14  C   UNL     1     -10.566  16.617  68.467  1.00  0.00    -0.338 C  
HETATM   15  C   UNL     1     -10.264  17.878  68.830  1.00  0.00    -0.362 C  
HETATM   16  C   UNL     1      -9.805  18.795  67.795  1.00  0.00    -0.333 C  
HETATM   17  O   UNL     1      -8.982  19.673  68.040  1.00  0.00    -0.313 OA 
HETATM   18  C   UNL     1     -10.529  18.665  66.475  1.00  0.00    -0.465 C  
HETATM   19  C   UNL     1     -10.532  17.219  65.963  1.00  0.00    -0.285 C  
HETATM   20  C   UNL     1     -10.297  16.108  67.029  1.00  0.00    -0.290 C  
HETATM   21  C   UNL     1     -10.999  14.728  66.711  1.00  0.00    -0.327 C  
HETATM   22  C   UNL     1     -10.579  13.960  65.436  1.00  0.00    -0.344 C  
HETATM   23  C   UNL     1     -11.186  12.491  65.372  1.00  0.00    -0.343 C  
HETATM   24  C   UNL     1     -10.814  11.383  66.506  1.00  0.00    -0.334 C  
HETATM   25  C   UNL     1      -9.348  11.295  65.872  1.00  0.00    -0.240 C  
ENDBRANCH   2   4
TORSDOF 1
ENDMDL
MODEL        9
REMARK 921   NORMALIZED FREE ENERGY PREDICTED BY IDOCK:   -7.24 KCAL/MOL
REMARK 922        TOTAL FREE ENERGY PREDICTED BY IDOCK:   -7.24 KCAL/MOL
REMARK 923 INTER-LIGAND FREE ENERGY PREDICTED BY IDOCK:   -7.29 KCAL/MOL
REMARK 924 INTRA-LIGAND FREE ENERGY PREDICTED BY IDOCK:    0.05 KCAL/MOL
REMARK 927      BINDING AFFINITY PREDICTED BY RF-SCORE:    0.00 PKD
ROOT
HETATM    1  C   UNL     1      -7.862   6.162  72.568  1.00  0.00    -0.104 C  
HETATM    2  C   UNL     1      -8.663   7.440  72.467  1.00  0.00    -0.123 C  
HETATM    3  O   UNL     1      -8.245   8.469  73.016  1.00  0.00    -0.357 OA 
ENDROOT
BRANCH   2   4
HETATM    4  C   UNL     1     -10.046   7.408  71.693  1.00  0.00    -0.183 C  
HETATM    5  O   UNL     1     -10.536   6.049  71.827  1.00  0.00    -0.214 OA 
HETATM    6  C   UNL     1     -10.921   8.280  72.603  1.00  0.00    -0.386 C  
HETATM    7  C   UNL     1     -12.172   8.255  71.809  1.00  0.00    -0.367 C  
HETATM    8  H   UNL     1     -11.365   6.030  71.363  1.00  0.00     0.000 HD 
HETATM    9  C   UNL     1     -11.601   8.734  70.479  1.00  0.00    -0.170 C  
HETATM   10  C   UNL     1     -11.307  10.261  70.416  1.00  0.00    -0.410 C  
HETATM   11  C   UNL     1     -12.185  11.076  71.316  1.00  0.00    -0.365 C  
HETATM   12  C   UNL     1     -12.623  12.320  71.080  1.00  0.00    -0.352 C  
HETATM   13  C   UNL     1     -13.529  12.951  72.108  1.00  0.00    -0.619 C  
HETATM   14  C   UNL     1     -12.143  13.044  69.922  1.00  0.00    -0.347 C  
HETATM   15  C   UNL     1     -12.336  14.375  69.842  1.00  0.00    -0.365 C  
HETATM   16  C   UNL     1     -11.818  15.071  68.672  1.00  0.00    -0.296 C  
HETATM   17  O   UNL     1     -11.398  16.222  68.750  1.00  0.00    -0.350 OA 
HETATM   18  C   UNL     1     -11.984  14.321  67.371  1.00  0.00    -0.426 C  
HETATM   19  C   UNL     1     -11.420  12.897  67.453  1.00  0.00    -0.388 C  
HETATM   20  C   UNL     1     -11.272  12.295  68.881  1.00  0.00    -0.323 C  
HETATM   21  C   UNL     1     -11.422  10.723  68.955  1.00  0.00    -0.362 C  
HETATM   22  C   UNL     1     -10.400   9.846  68.193  1.00  0.00    -0.232 C  
HETATM   23  C   UNL     1     -10.527   8.301  68.551  1.00  0.00    -0.199 C  
HETATM   24  C   UNL     1     -10.279   7.771  70.070  1.00  0.00    -0.210 C  
HETATM   25  C   UNL     1      -8.720   8.062  69.867  1.00  0.00    -0.139 C  
ENDBRANCH   2   4
TORSDOF 1
ENDMDL
MODEL       10
REMARK 921   NORMALIZED FREE ENERGY PREDICTED BY IDOCK:   -7.21 KCAL/MOL
REMARK 922        TOTAL FREE ENERGY PREDICTED BY IDOCK:   -7.21 KCAL/MOL
REMARK 923 INTER-LIGAND FREE ENERGY PREDICTED BY IDOCK:   -7.26 KCAL/MOL
REMARK 924 INTRA-LIGAND FREE ENERGY PREDICTED BY IDOCK:    0.05 KCAL/MOL
REMARK 927      BINDING AFFINITY PREDICTED BY RF-SCORE:    0.00 PKD
ROOT
HETATM    1  C   UNL     1      -9.612   6.927  71.511  1.00  0.00    -0.162 C  
HETATM    2  C   UNL     1      -9.944   8.399  71.424  1.00  0.00    -0.213 C  
HETATM    3  O   UNL     1      -9.271   9.217  72.067  1.00  0.00    -0.339 OA 
ENDROOT
BRANCH   2   4
HETATM    4  C   UNL     1     -11.181   8.845  70.540  1.00  0.00    -0.252 C  
HETATM    5  O   UNL     1     -12.042   7.680  70.456  1.00  0.00    -0.500 OA 
HETATM    6  C   UNL     1     -11.881   9.837  71.479  1.00  0.00    -0.476 C  
HETATM    7  C   UNL     1     -12.988  10.254  70.587  1.00  0.00    -0.338 C  
HETATM    8  H   UNL     1     -12.784   7.947  69.927  1.00  0.00     0.000 HD 
HETATM    9  C   UNL     1     -12.156  10.679  69.382  1.00  0.00    -0.250 C  
HETATM   10  C   UNL     1     -11.446  12.054  69.541  1.00  0.00    -0.351 C  
HETATM   11  C   UNL     1     -12.161  12.993  70.463  1.00  0.00    -0.392 C  
HETATM   12  C   UNL     1     -12.207  14.328  70.354  1.00  0.00    -0.411 C  
HETATM   13  C   UNL     1     -13.015  15.088  71.377  1.00  0.00    -0.445 C  
HETATM   14  C   UNL     1     -11.414  14.994  69.343  1.00  0.00    -0.320 C  
HETATM   15  C   UNL     1     -11.219  16.325  69.420  1.00  0.00    -0.311 C  
HETATM   16  C   UNL     1     -10.396  16.956  68.397  1.00  0.00    -0.338 C  
HETATM   17  O   UNL     1      -9.686  17.923  68.657  1.00  0.00    -0.328 OA 
HETATM   18  C   UNL     1     -10.611  16.420  67.000  1.00  0.00    -0.260 C  
HETATM   19  C   UNL     1     -10.478  14.893  66.945  1.00  0.00    -0.280 C  
HETATM   20  C   UNL     1     -10.669  14.134  68.291  1.00  0.00    -0.256 C  
HETATM   21  C   UNL     1     -11.256  12.673  68.148  1.00  0.00    -0.311 C  
HETATM   22  C   UNL     1     -10.437  11.619  67.367  1.00  0.00    -0.239 C  
HETATM   23  C   UNL     1     -11.027  10.149  67.510  1.00  0.00    -0.319 C  
HETATM   24  C   UNL     1     -11.115   9.420  68.964  1.00  0.00    -0.014 C  
HETATM   25  C   UNL     1      -9.523   9.268  68.930  1.00  0.00    -0.154 C  
ENDBRANCH   2   4
TORSDOF 1
ENDMDL
MODEL       11
REMARK 921   NORMALIZED FREE ENERGY PREDICTED BY IDOCK:   -7.20 KCAL/MOL
REMARK 922        TOTAL FREE ENERGY PREDICTED BY IDOCK:   -7.19 KCAL/MOL
REMARK 923 INTER-LIGAND FREE ENERGY PREDICTED BY IDOCK:   -7.18 KCAL/MOL
REMARK 924 INTRA-LIGAND FREE ENERGY PREDICTED BY IDOCK:   -0.01 KCAL/MOL
REMARK 927      BINDING AFFINITY PREDICTED BY RF-SCORE:    0.00 PKD
ROOT
HETATM    1  C   UNL     1     -12.129  13.170  69.938  1.00  0.00    -0.357 C  
HETATM    2  C   UNL     1     -11.902  12.265  68.749  1.00  0.00    -0.306 C  
HETATM    3  O   UNL     1     -12.164  11.057  68.841  1.00  0.00    -0.519 OA 
ENDROOT
BRANCH   2   4
HETATM    4  C   UNL     1     -11.290  12.889  67.427  1.00  0.00    -0.309 C  
HETATM    5  O   UNL     1     -11.799  12.074  66.339  1.00  0.00    -0.578 OA 
HETATM    6  C   UNL     1     -12.033  14.229  67.353  1.00  0.00    -0.426 C  
HETATM    7  C   UNL     1     -11.387  14.782  66.140  1.00  0.00    -0.330 C  
HETATM    8  H   UNL     1     -11.432  12.448  65.547  1.00  0.00     0.000 HD 
HETATM    9  C   UNL     1      -9.934  14.647  66.580  1.00  0.00    -0.292 C  
HETATM   10  C   UNL     1      -9.470  15.720  67.608  1.00  0.00    -0.218 C  
HETATM   11  C   UNL     1     -10.218  17.013  67.501  1.00  0.00    -0.323 C  
HETATM   12  C   UNL     1      -9.723  18.236  67.740  1.00  0.00    -0.305 C  
HETATM   13  C   UNL     1     -10.643  19.415  67.541  1.00  0.00    -0.591 C  
HETATM   14  C   UNL     1      -8.383  18.378  68.270  1.00  0.00    -0.321 C  
HETATM   15  C   UNL     1      -7.996  19.559  68.790  1.00  0.00    -0.362 C  
HETATM   16  C   UNL     1      -6.648  19.657  69.334  1.00  0.00    -0.348 C  
HETATM   17  O   UNL     1      -6.401  20.374  70.299  1.00  0.00    -0.408 OA 
HETATM   18  C   UNL     1      -5.593  18.935  68.529  1.00  0.00    -0.200 C  
HETATM   19  C   UNL     1      -5.972  17.472  68.266  1.00  0.00    -0.162 C  
HETATM   20  C   UNL     1      -7.485  17.120  68.376  1.00  0.00    -0.227 C  
HETATM   21  C   UNL     1      -7.956  15.933  67.446  1.00  0.00    -0.187 C  
HETATM   22  C   UNL     1      -7.345  14.530  67.668  1.00  0.00    -0.201 C  
HETATM   23  C   UNL     1      -8.082  13.396  66.831  1.00  0.00     0.097 C  
HETATM   24  C   UNL     1      -9.656  13.062  67.080  1.00  0.00    -0.230 C  
HETATM   25  C   UNL     1      -9.245  12.399  68.477  1.00  0.00    -0.077 C  
ENDBRANCH   2   4
TORSDOF 1
ENDMDL
MODEL       12
REMARK 921   NORMALIZED FREE ENERGY PREDICTED BY IDOCK:   -7.04 KCAL/MOL
REMARK 922        TOTAL FREE ENERGY PREDICTED BY IDOCK:   -7.03 KCAL/MOL
REMARK 923 INTER-LIGAND FREE ENERGY PREDICTED BY IDOCK:   -7.09 KCAL/MOL
REMARK 924 INTRA-LIGAND FREE ENERGY PREDICTED BY IDOCK:    0.06 KCAL/MOL
REMARK 927      BINDING AFFINITY PREDICTED BY RF-SCORE:    0.00 PKD
ROOT
HETATM    1  C   UNL     1     -12.033   6.310  72.095  1.00  0.00    -0.338 C  
HETATM    2  C   UNL     1     -11.567   6.970  70.818  1.00  0.00    -0.338 C  
HETATM    3  O   UNL     1     -11.854   6.460  69.725  1.00  0.00    -0.357 OA 
ENDROOT
BRANCH   2   4
HETATM    4  C   UNL     1     -10.681   8.280  70.921  1.00  0.00    -0.218 C  
HETATM    5  O   UNL     1      -9.929   8.146  72.155  1.00  0.00    -0.202 OA 
HETATM    6  C   UNL     1      -9.684   8.062  69.776  1.00  0.00    -0.176 C  
HETATM    7  C   UNL     1      -8.925   9.329  69.889  1.00  0.00    -0.194 C  
HETATM    8  H   UNL     1      -9.398   8.931  72.217  1.00  0.00     0.000 HD 
HETATM    9  C   UNL     1     -10.098  10.300  69.812  1.00  0.00    -0.244 C  
HETATM   10  C   UNL     1     -10.679  10.496  68.382  1.00  0.00    -0.262 C  
HETATM   11  C   UNL     1      -9.673  10.277  67.293  1.00  0.00    -0.199 C  
HETATM   12  C   UNL     1      -9.631  10.914  66.114  1.00  0.00    -0.239 C  
HETATM   13  C   UNL     1      -8.510  10.563  65.168  1.00  0.00    -0.170 C  
HETATM   14  C   UNL     1     -10.697  11.823  65.750  1.00  0.00    -0.328 C  
HETATM   15  C   UNL     1     -10.820  12.225  64.470  1.00  0.00    -0.355 C  
HETATM   16  C   UNL     1     -11.918  13.122  64.137  1.00  0.00    -0.436 C  
HETATM   17  O   UNL     1     -12.476  13.069  63.045  1.00  0.00    -0.565 OA 
HETATM   18  C   UNL     1     -12.193  14.188  65.172  1.00  0.00    -0.439 C  
HETATM   19  C   UNL     1     -12.377  13.593  66.575  1.00  0.00    -0.412 C  
HETATM   20  C   UNL     1     -11.771  12.178  66.809  1.00  0.00    -0.377 C  
HETATM   21  C   UNL     1     -11.303  11.898  68.292  1.00  0.00    -0.335 C  
HETATM   22  C   UNL     1     -12.362  11.918  69.419  1.00  0.00    -0.056 C  
HETATM   23  C   UNL     1     -11.797  11.386  70.808  1.00  0.00    -0.232 C  
HETATM   24  C   UNL     1     -11.252   9.859  70.959  1.00  0.00    -0.435 C  
HETATM   25  C   UNL     1     -12.768   9.359  70.866  1.00  0.00    -0.179 C  
ENDBRANCH   2   4
TORSDOF 1
ENDMDL
MODEL       13
REMARK 921   NORMALIZED FREE ENERGY PREDICTED BY IDOCK:   -6.95 KCAL/MOL
REMARK 922        TOTAL FREE ENERGY PREDICTED BY IDOCK:   -6.94 KCAL/MOL
REMARK 923 INTER-LIGAND FREE ENERGY PREDICTED BY IDOCK:   -7.01 KCAL/MOL
REMARK 924 INTRA-LIGAND FREE ENERGY PREDICTED BY IDOCK:    0.08 KCAL/MOL
REMARK 927      BINDING AFFINITY PREDICTED BY RF-SCORE:    0.00 PKD
ROOT
HETATM    1  C   UNL     1      -8.812   7.571  69.758  1.00  0.00    -0.141 C  
HETATM    2  C   UNL     1      -9.103   9.054  69.733  1.00  0.00    -0.159 C  
HETATM    3  O   UNL     1      -8.327   9.840  70.296  1.00  0.00    -0.189 OA 
ENDROOT
BRANCH   2   4
HETATM    4  C   UNL     1     -10.428   9.554  69.021  1.00  0.00    -0.213 C  
HETATM    5  O   UNL     1     -11.281   8.384  68.918  1.00  0.00    -0.388 OA 
HETATM    6  C   UNL     1     -11.039  10.445  70.111  1.00  0.00    -0.383 C  
HETATM    7  C   UNL     1     -12.234  10.919  69.375  1.00  0.00    -0.293 C  
HETATM    8  H   UNL     1     -12.074   8.684  68.491  1.00  0.00     0.000 HD 
HETATM    9  C   UNL     1     -11.532  11.464  68.136  1.00  0.00    -0.375 C  
HETATM   10  C   UNL     1     -10.823  12.833  68.348  1.00  0.00    -0.272 C  
HETATM   11  C   UNL     1     -11.451  13.673  69.417  1.00  0.00    -0.343 C  
HETATM   12  C   UNL     1     -11.521  15.011  69.435  1.00  0.00    -0.320 C  
HETATM   13  C   UNL     1     -12.230  15.661  70.597  1.00  0.00    -0.446 C  
HETATM   14  C   UNL     1     -10.840  15.780  68.414  1.00  0.00    -0.297 C  
HETATM   15  C   UNL     1     -10.652  17.102  68.591  1.00  0.00    -0.352 C  
HETATM   16  C   UNL     1      -9.943  17.837  67.553  1.00  0.00    -0.324 C  
HETATM   17  O   UNL     1      -9.220  18.790  67.827  1.00  0.00    -0.283 OA 
HETATM   18  C   UNL     1     -10.291  17.423  66.142  1.00  0.00    -0.329 C  
HETATM   19  C   UNL     1     -10.150  15.909  65.935  1.00  0.00    -0.376 C  
HETATM   20  C   UNL     1     -10.197  15.030  67.219  1.00  0.00    -0.242 C  
HETATM   21  C   UNL     1     -10.781  13.578  67.004  1.00  0.00    -0.278 C  
HETATM   22  C   UNL     1     -10.034  12.612  66.054  1.00  0.00    -0.267 C  
HETATM   23  C   UNL     1     -10.592  11.125  66.121  1.00  0.00    -0.305 C  
HETATM   24  C   UNL     1     -10.526  10.268  67.505  1.00  0.00    -0.293 C  
HETATM   25  C   UNL     1      -8.944  10.149  67.299  1.00  0.00    -0.144 C  
ENDBRANCH   2   4
TORSDOF 1
ENDMDL
MODEL       14
REMARK 921   NORMALIZED FREE ENERGY PREDICTED BY IDOCK:   -6.88 KCAL/MOL
REMARK 922        TOTAL FREE ENERGY PREDICTED BY IDOCK:   -6.86 KCAL/MOL
REMARK 923 INTER-LIGAND FREE ENERGY PREDICTED BY IDOCK:   -6.91 KCAL/MOL
REMARK 924 INTRA-LIGAND FREE ENERGY PREDICTED BY IDOCK:    0.05 KCAL/MOL
REMARK 927      BINDING AFFINITY PREDICTED BY RF-SCORE:    0.00 PKD
ROOT
HETATM    1  C   UNL     1      -6.435  20.631  66.978  1.00  0.00    -0.324 C  
HETATM    2  C   UNL     1      -7.255  19.475  66.453  1.00  0.00    -0.241 C  
HETATM    3  O   UNL     1      -7.044  19.044  65.310  1.00  0.00    -0.485 OA 
ENDROOT
BRANCH   2   4
HETATM    4  C   UNL     1      -8.398  18.877  67.374  1.00  0.00    -0.275 C  
HETATM    5  O   UNL     1      -8.779  19.952  68.271  1.00  0.00    -0.302 OA 
HETATM    6  C   UNL     1      -9.546  18.721  66.368  1.00  0.00    -0.354 C  
HETATM    7  C   UNL     1     -10.557  18.116  67.266  1.00  0.00    -0.384 C  
HETATM    8  H   UNL     1      -9.464  19.593  68.823  1.00  0.00     0.000 HD 
HETATM    9  C   UNL     1      -9.725  16.947  67.784  1.00  0.00    -0.250 C  
HETATM   10  C   UNL     1      -9.567  15.773  66.776  1.00  0.00    -0.253 C  
HETATM   11  C   UNL     1     -10.709  15.653  65.814  1.00  0.00    -0.350 C  
HETATM   12  C   UNL     1     -11.190  14.515  65.292  1.00  0.00    -0.352 C  
HETATM   13  C   UNL     1     -12.373  14.616  64.362  1.00  0.00    -0.420 C  
HETATM   14  C   UNL     1     -10.510  13.263  65.549  1.00  0.00    -0.295 C  
HETATM   15  C   UNL     1     -10.799  12.183  64.799  1.00  0.00    -0.351 C  
HETATM   16  C   UNL     1     -10.078  10.947  65.073  1.00  0.00    -0.300 C  
HETATM   17  O   UNL     1      -9.798  10.160  64.173  1.00  0.00    -0.305 OA 
HETATM   18  C   UNL     1      -9.851  10.665  66.540  1.00  0.00    -0.250 C  
HETATM   19  C   UNL     1      -9.196  11.852  67.258  1.00  0.00    -0.179 C  
HETATM   20  C   UNL     1      -9.345  13.242  66.572  1.00  0.00    -0.221 C  
HETATM   21  C   UNL     1      -9.363  14.470  67.566  1.00  0.00    -0.193 C  
HETATM   22  C   UNL     1      -8.110  14.740  68.433  1.00  0.00    -0.144 C  
HETATM   23  C   UNL     1      -8.177  16.133  69.198  1.00  0.00    -0.230 C  
HETATM   24  C   UNL     1      -8.260  17.536  68.375  1.00  0.00    -0.278 C  
HETATM   25  C   UNL     1      -6.732  17.324  67.953  1.00  0.00    -0.172 C  
ENDBRANCH   2   4
TORSDOF 1
ENDMDL
MODEL       15
REMARK 921   NORMALIZED FREE ENERGY PREDICTED BY IDOCK:   -6.78 KCAL/MOL
REMARK 922        TOTAL FREE ENERGY PREDICTED BY IDOCK:   -6.75 KCAL/MOL
REMARK 923 INTER-LIGAND FREE ENERGY PREDICTED BY IDOCK:   -6.74 KCAL/MOL
REMARK 924 INTRA-LIGAND FREE ENERGY PREDICTED BY IDOCK:   -0.01 KCAL/MOL
REMARK 927      BINDING AFFINITY PREDICTED BY RF-SCORE:    0.00 PKD
ROOT
HETATM    1  C   UNL     1      -7.771   8.186  72.108  1.00  0.00    -0.149 C  
HETATM    2  C   UNL     1      -8.272   6.924  71.443  1.00  0.00    -0.110 C  
HETATM    3  O   UNL     1      -7.534   5.930  71.381  1.00  0.00    -0.091 OA 
ENDROOT
BRANCH   2   4
HETATM    4  C   UNL     1      -9.721   6.930  70.802  1.00  0.00    -0.171 C  
HETATM    5  O   UNL     1     -10.186   5.557  70.875  1.00  0.00    -0.203 OA 
HETATM    6  C   UNL     1     -10.514   7.715  71.855  1.00  0.00    -0.256 C  
HETATM    7  C   UNL     1     -11.834   7.731  71.181  1.00  0.00    -0.311 C  
HETATM    8  H   UNL     1     -11.054   5.560  70.490  1.00  0.00     0.000 HD 
HETATM    9  C   UNL     1     -11.395   8.320  69.845  1.00  0.00     0.064 C  
HETATM   10  C   UNL     1     -11.122   9.851  69.874  1.00  0.00    -0.318 C  
HETATM   11  C   UNL     1     -11.917  10.581  70.913  1.00  0.00    -0.481 C  
HETATM   12  C   UNL     1     -12.387  11.833  70.816  1.00  0.00    -0.433 C  
HETATM   13  C   UNL     1     -13.196  12.369  71.971  1.00  0.00    -0.514 C  
HETATM   14  C   UNL     1     -12.024  12.651  69.678  1.00  0.00    -0.352 C  
HETATM   15  C   UNL     1     -12.235  13.981  69.720  1.00  0.00    -0.396 C  
HETATM   16  C   UNL     1     -11.836  14.773  68.565  1.00  0.00    -0.306 C  
HETATM   17  O   UNL     1     -11.420  15.921  68.692  1.00  0.00    -0.363 OA 
HETATM   18  C   UNL     1     -12.117  14.122  67.230  1.00  0.00    -0.407 C  
HETATM   19  C   UNL     1     -11.537  12.705  67.148  1.00  0.00    -0.434 C  
HETATM   20  C   UNL     1     -11.249  11.998  68.505  1.00  0.00    -0.306 C  
HETATM   21  C   UNL     1     -11.378  10.423  68.470  1.00  0.00    -0.283 C  
HETATM   22  C   UNL     1     -10.426   9.622  67.551  1.00  0.00    -0.321 C  
HETATM   23  C   UNL     1     -10.505   8.053  67.797  1.00  0.00    -0.280 C  
HETATM   24  C   UNL     1     -10.110   7.412  69.241  1.00  0.00    -0.186 C  
HETATM   25  C   UNL     1      -8.579   7.742  68.915  1.00  0.00    -0.132 C  
ENDBRANCH   2   4
TORSDOF 1
ENDMDL
MODEL       16
REMARK 921   NORMALIZED FREE ENERGY PREDICTED BY IDOCK:   -6.76 KCAL/MOL
REMARK 922        TOTAL FREE ENERGY PREDICTED BY IDOCK:   -6.73 KCAL/MOL
REMARK 923 INTER-LIGAND FREE ENERGY PREDICTED BY IDOCK:   -6.71 KCAL/MOL
REMARK 924 INTRA-LIGAND FREE ENERGY PREDICTED BY IDOCK:   -0.02 KCAL/MOL
REMARK 927      BINDING AFFINITY PREDICTED BY RF-SCORE:    0.00 PKD
ROOT
HETATM    1  C   UNL     1      -7.287  16.625  67.145  1.00  0.00    -0.220 C  
HETATM    2  C   UNL     1      -8.494  17.312  67.741  1.00  0.00    -0.217 C  
HETATM    3  O   UNL     1      -8.335  18.272  68.509  1.00  0.00    -0.306 OA 
ENDROOT
BRANCH   2   4
HETATM    4  C   UNL     1      -9.934  16.748  67.396  1.00  0.00    -0.267 C  
HETATM    5  O   UNL     1     -10.812  17.903  67.375  1.00  0.00    -0.339 OA 
HETATM    6  C   UNL     1      -9.748  16.315  65.936  1.00  0.00    -0.354 C  
HETATM    7  C   UNL     1     -11.097  15.755  65.689  1.00  0.00    -0.155 C  
HETATM    8  H   UNL     1     -11.675  17.565  67.168  1.00  0.00     0.000 HD 
HETATM    9  C   UNL     1     -11.149  14.776  66.858  1.00  0.00    -0.339 C  
HETATM   10  C   UNL     1     -10.311  13.482  66.652  1.00  0.00    -0.271 C  
HETATM   11  C   UNL     1     -10.155  13.093  65.214  1.00  0.00    -0.250 C  
HETATM   12  C   UNL     1     -10.070  11.843  64.736  1.00  0.00    -0.295 C  
HETATM   13  C   UNL     1      -9.948  11.671  63.243  1.00  0.00    -0.442 C  
HETATM   14  C   UNL     1      -9.998  10.726  65.655  1.00  0.00    -0.317 C  
HETATM   15  C   UNL     1      -9.614   9.517  65.202  1.00  0.00    -0.270 C  
HETATM   16  C   UNL     1      -9.531   8.423  66.160  1.00  0.00    -0.194 C  
HETATM   17  O   UNL     1      -8.687   7.538  66.046  1.00  0.00    -0.151 OA 
HETATM   18  C   UNL     1     -10.642   8.400  67.183  1.00  0.00    -0.326 C  
HETATM   19  C   UNL     1     -10.789   9.747  67.902  1.00  0.00    -0.298 C  
HETATM   20  C   UNL     1     -10.203  10.989  67.168  1.00  0.00    -0.243 C  
HETATM   21  C   UNL     1     -10.948  12.349  67.472  1.00  0.00    -0.293 C  
HETATM   22  C   UNL     1     -10.953  12.882  68.924  1.00  0.00    -0.271 C  
HETATM   23  C   UNL     1     -11.524  14.362  69.036  1.00  0.00    -0.314 C  
HETATM   24  C   UNL     1     -10.786  15.603  68.281  1.00  0.00    -0.298 C  
HETATM   25  C   UNL     1      -9.605  15.490  69.354  1.00  0.00    -0.279 C  
ENDBRANCH   2   4
TORSDOF 1
ENDMDL
MODEL       17
REMARK 921   NORMALIZED FREE ENERGY PREDICTED BY IDOCK:   -6.65 KCAL/MOL
REMARK 922        TOTAL FREE ENERGY PREDICTED BY IDOCK:   -6.61 KCAL/MOL
REMARK 923 INTER-LIGAND FREE ENERGY PREDICTED BY IDOCK:   -6.76 KCAL/MOL
REMARK 924 INTRA-LIGAND FREE ENERGY PREDICTED BY IDOCK:    0.15 KCAL/MOL
REMARK 927      BINDING AFFINITY PREDICTED BY RF-SCORE:    0.00 PKD
ROOT
HETATM    1  C   UNL     1      -6.892   6.650  71.226  1.00  0.00    -0.062 C  
HETATM    2  C   UNL     1      -7.757   7.887  71.316  1.00  0.00    -0.086 C  
HETATM    3  O   UNL     1      -7.264   8.950  71.721  1.00  0.00    -0.237 OA 
ENDROOT
BRANCH   2   4
HETATM    4  C   UNL     1      -9.289   7.770  70.929  1.00  0.00    -0.153 C  
HETATM    5  O   UNL     1      -9.745   6.523  71.514  1.00  0.00    -0.169 OA 
HETATM    6  C   UNL     1      -9.901   8.897  71.773  1.00  0.00    -0.386 C  
HETATM    7  C   UNL     1     -11.310   8.772  71.334  1.00  0.00    -0.364 C  
HETATM    8  H   UNL     1     -10.664   6.453  71.282  1.00  0.00     0.000 HD 
HETATM    9  C   UNL     1     -11.084   8.874  69.829  1.00  0.00    -0.099 C  
HETATM   10  C   UNL     1     -10.800  10.315  69.316  1.00  0.00    -0.275 C  
HETATM   11  C   UNL     1     -11.416  11.384  70.166  1.00  0.00    -0.302 C  
HETATM   12  C   UNL     1     -11.887  12.564  69.736  1.00  0.00    -0.380 C  
HETATM   13  C   UNL     1     -12.500  13.488  70.759  1.00  0.00    -0.428 C  
HETATM   14  C   UNL     1     -11.703  12.950  68.353  1.00  0.00    -0.382 C  
HETATM   15  C   UNL     1     -11.896  14.233  67.990  1.00  0.00    -0.379 C  
HETATM   16  C   UNL     1     -11.680  14.588  66.594  1.00  0.00    -0.371 C  
HETATM   17  O   UNL     1     -11.242  15.691  66.277  1.00  0.00    -0.197 OA 
HETATM   18  C   UNL     1     -12.173  13.561  65.602  1.00  0.00    -0.500 C  
HETATM   19  C   UNL     1     -11.622  12.161  65.902  1.00  0.00    -0.425 C  
HETATM   20  C   UNL     1     -11.128  11.912  67.357  1.00  0.00    -0.336 C  
HETATM   21  C   UNL     1     -11.271  10.419  67.857  1.00  0.00    -0.332 C  
HETATM   22  C   UNL     1     -10.482   9.312  67.119  1.00  0.00    -0.319 C  
HETATM   23  C   UNL     1     -10.531   7.912  67.873  1.00  0.00    -0.261 C  
HETATM   24  C   UNL     1      -9.917   7.747  69.372  1.00  0.00    -0.188 C  
HETATM   25  C   UNL     1      -8.455   7.867  68.734  1.00  0.00    -0.128 C  
ENDBRANCH   2   4
TORSDOF 1
ENDMDL
MODEL       18
REMARK 921   NORMALIZED FREE ENERGY PREDICTED BY IDOCK:   -6.63 KCAL/MOL
REMARK 922        TOTAL FREE ENERGY PREDICTED BY IDOCK:   -6.59 KCAL/MOL
REMARK 923 INTER-LIGAND FREE ENERGY PREDICTED BY IDOCK:   -6.59 KCAL/MOL
REMARK 924 INTRA-LIGAND FREE ENERGY PREDICTED BY IDOCK:   -0.01 KCAL/MOL
REMARK 927      BINDING AFFINITY PREDICTED BY RF-SCORE:    0.00 PKD
ROOT
HETATM    1  C   UNL     1      -7.311  16.814  66.619  1.00  0.00    -0.297 C  
HETATM    2  C   UNL     1      -8.490  17.723  66.883  1.00  0.00    -0.243 C  
HETATM    3  O   UNL     1      -8.292  18.884  67.268  1.00  0.00    -0.267 OA 
ENDROOT
BRANCH   2   4
HETATM    4  C   UNL     1      -9.952  17.140  66.701  1.00  0.00    -0.295 C  
HETATM    5  O   UNL     1     -10.725  18.208  66.094  1.00  0.00    -0.320 OA 
HETATM    6  C   UNL     1      -9.724  16.089  65.606  1.00  0.00    -0.273 C  
HETATM    7  C   UNL     1     -11.101  15.549  65.517  1.00  0.00    -0.265 C  
HETATM    8  H   UNL     1     -11.601  17.858  65.984  1.00  0.00     0.000 HD 
HETATM    9  C   UNL     1     -11.300  15.203  66.989  1.00  0.00    -0.277 C  
HETATM   10  C   UNL     1     -10.565  13.912  67.452  1.00  0.00    -0.267 C  
HETATM   11  C   UNL     1     -10.365  12.912  66.355  1.00  0.00    -0.277 C  
HETATM   12  C   UNL     1     -10.363  11.578  66.489  1.00  0.00    -0.269 C  
HETATM   13  C   UNL     1     -10.174  10.748  65.244  1.00  0.00    -0.351 C  
HETATM   14  C   UNL     1     -10.436  10.989  67.810  1.00  0.00    -0.232 C  
HETATM   15  C   UNL     1     -10.133   9.687  67.975  1.00  0.00    -0.213 C  
HETATM   16  C   UNL     1     -10.195   9.136  69.322  1.00  0.00    -0.210 C  
HETATM   17  O   UNL     1      -9.425   8.251  69.685  1.00  0.00    -0.162 OA 
HETATM   18  C   UNL     1     -11.358   9.632  70.149  1.00  0.00    -0.275 C  
HETATM   19  C   UNL     1     -11.428  11.165  70.181  1.00  0.00    -0.361 C  
HETATM   20  C   UNL     1     -10.698  11.913  69.026  1.00  0.00    -0.197 C  
HETATM   21  C   UNL     1     -11.340  13.302  68.631  1.00  0.00    -0.324 C  
HETATM   22  C   UNL     1     -11.378  14.429  69.689  1.00  0.00    -0.309 C  
HETATM   23  C   UNL     1     -11.825  15.830  69.084  1.00  0.00    -0.367 C  
HETATM   24  C   UNL     1     -10.945  16.559  67.924  1.00  0.00    -0.288 C  
HETATM   25  C   UNL     1      -9.837  16.878  69.033  1.00  0.00    -0.247 C  
ENDBRANCH   2   4
TORSDOF 1
ENDMDL
MODEL       19
REMARK 921   NORMALIZED FREE ENERGY PREDICTED BY IDOCK:   -6.60 KCAL/MOL
REMARK 922        TOTAL FREE ENERGY PREDICTED BY IDOCK:   -6.57 KCAL/MOL
REMARK 923 INTER-LIGAND FREE ENERGY PREDICTED BY IDOCK:   -6.62 KCAL/MOL
REMARK 924 INTRA-LIGAND FREE ENERGY PREDICTED BY IDOCK:    0.05 KCAL/MOL
REMARK 927      BINDING AFFINITY PREDICTED BY RF-SCORE:    0.00 PKD
ROOT
HETATM    1  C   UNL     1     -10.260   5.158  69.965  1.00  0.00    -0.354 C  
HETATM    2  C   UNL     1     -10.303   6.046  68.742  1.00  0.00    -0.214 C  
HETATM    3  O   UNL     1     -11.266   5.971  67.965  1.00  0.00    -0.253 OA 
ENDROOT
BRANCH   2   4
HETATM    4  C   UNL     1      -9.083   7.019  68.469  1.00  0.00    -0.131 C  
HETATM    5  O   UNL     1      -7.926   6.367  69.053  1.00  0.00    -0.107 OA 
HETATM    6  C   UNL     1      -8.932   6.895  66.948  1.00  0.00    -0.128 C  
HETATM    7  C   UNL     1      -7.823   7.857  66.749  1.00  0.00    -0.103 C  
HETATM    8  H   UNL     1      -7.194   6.951  68.890  1.00  0.00     0.000 HD 
HETATM    9  C   UNL     1      -8.448   9.065  67.438  1.00  0.00    -0.115 C  
HETATM   10  C   UNL     1      -9.544   9.787  66.602  1.00  0.00    -0.239 C  
HETATM   11  C   UNL     1      -9.359   9.645  65.123  1.00  0.00    -0.322 C  
HETATM   12  C   UNL     1      -9.679  10.556  64.193  1.00  0.00    -0.388 C  
HETATM   13  C   UNL     1      -9.378  10.222  62.753  1.00  0.00    -0.340 C  
HETATM   14  C   UNL     1     -10.383  11.760  64.580  1.00  0.00    -0.340 C  
HETATM   15  C   UNL     1     -10.967  12.522  63.634  1.00  0.00    -0.507 C  
HETATM   16  C   UNL     1     -11.685  13.714  64.064  1.00  0.00    -0.364 C  
HETATM   17  O   UNL     1     -12.685  14.105  63.469  1.00  0.00    -0.794 OA 
HETATM   18  C   UNL     1     -11.015  14.481  65.180  1.00  0.00    -0.387 C  
HETATM   19  C   UNL     1     -10.683  13.581  66.377  1.00  0.00    -0.287 C  
HETATM   20  C   UNL     1     -10.588  12.054  66.087  1.00  0.00    -0.298 C  
HETATM   21  C   UNL     1      -9.586  11.266  67.021  1.00  0.00    -0.197 C  
HETATM   22  C   UNL     1      -9.866  11.226  68.542  1.00  0.00    -0.198 C  
HETATM   23  C   UNL     1      -8.922  10.207  69.317  1.00  0.00    -0.193 C  
HETATM   24  C   UNL     1      -8.957   8.614  68.980  1.00  0.00    -0.142 C  
HETATM   25  C   UNL     1     -10.385   8.543  69.697  1.00  0.00    -0.218 C  
ENDBRANCH   2   4
TORSDOF 1
ENDMDL
MODEL       20
REMARK 921   NORMALIZED FREE ENERGY PREDICTED BY IDOCK:   -6.60 KCAL/MOL
REMARK 922        TOTAL FREE ENERGY PREDICTED BY IDOCK:   -6.56 KCAL/MOL
REMARK 923 INTER-LIGAND FREE ENERGY PREDICTED BY IDOCK:   -6.61 KCAL/MOL
REMARK 924 INTRA-LIGAND FREE ENERGY PREDICTED BY IDOCK:    0.05 KCAL/MOL
REMARK 927      BINDING AFFINITY PREDICTED BY RF-SCORE:    0.00 PKD
ROOT
HETATM    1  C   UNL     1     -12.259  14.386  64.158  1.00  0.00    -0.393 C  
HETATM    2  C   UNL     1     -12.264  13.386  65.292  1.00  0.00    -0.440 C  
HETATM    3  O   UNL     1     -13.106  12.477  65.303  1.00  0.00    -0.531 OA 
ENDROOT
BRANCH   2   4
HETATM    4  C   UNL     1     -11.209  13.562  66.462  1.00  0.00    -0.306 C  
HETATM    5  O   UNL     1     -10.837  14.964  66.444  1.00  0.00    -0.313 OA 
HETATM    6  C   UNL     1     -12.094  13.361  67.699  1.00  0.00    -0.311 C  
HETATM    7  C   UNL     1     -11.054  13.484  68.746  1.00  0.00    -0.298 C  
HETATM    8  H   UNL     1     -10.205  15.070  67.145  1.00  0.00     0.000 HD 
HETATM    9  C   UNL     1     -10.084  12.429  68.224  1.00  0.00    -0.227 C  
HETATM   10  C   UNL     1     -10.523  10.961  68.493  1.00  0.00    -0.209 C  
HETATM   11  C   UNL     1     -11.382  10.808  69.710  1.00  0.00    -0.372 C  
HETATM   12  C   UNL     1     -11.408   9.750  70.534  1.00  0.00    -0.382 C  
HETATM   13  C   UNL     1     -12.329   9.813  71.727  1.00  0.00    -0.470 C  
HETATM   14  C   UNL     1     -10.646   8.564  70.204  1.00  0.00    -0.238 C  
HETATM   15  C   UNL     1     -10.899   7.410  70.850  1.00  0.00    -0.255 C  
HETATM   16  C   UNL     1     -10.128   6.233  70.475  1.00  0.00    -0.189 C  
HETATM   17  O   UNL     1     -10.622   5.109  70.511  1.00  0.00    -0.242 OA 
HETATM   18  C   UNL     1      -8.668   6.502  70.195  1.00  0.00    -0.140 C  
HETATM   19  C   UNL     1      -8.478   7.630  69.173  1.00  0.00    -0.138 C  
HETATM   20  C   UNL     1      -9.673   8.612  68.998  1.00  0.00    -0.173 C  
HETATM   21  C   UNL     1      -9.266  10.081  68.581  1.00  0.00    -0.152 C  
HETATM   22  C   UNL     1      -8.552  10.295  67.226  1.00  0.00    -0.125 C  
HETATM   23  C   UNL     1      -8.421  11.831  66.833  1.00  0.00    -0.174 C  
HETATM   24  C   UNL     1      -9.745  12.751  66.604  1.00  0.00    -0.252 C  
HETATM   25  C   UNL     1     -10.005  11.955  65.241  1.00  0.00    -0.280 C  
ENDBRANCH   2   4
TORSDOF 1
ENDMDL
MODEL       21
REMARK 921   NORMALIZED FREE ENERGY PREDICTED BY IDOCK:   -6.59 KCAL/MOL
REMARK 922        TOTAL FREE ENERGY PREDICTED BY IDOCK:   -6.55 KCAL/MOL
REMARK 923 INTER-LIGAND FREE ENERGY PREDICTED BY IDOCK:   -6.61 KCAL/MOL
REMARK 924 INTRA-LIGAND FREE ENERGY PREDICTED BY IDOCK:    0.06 KCAL/MOL
REMARK 927      BINDING AFFINITY PREDICTED BY RF-SCORE:    0.00 PKD
ROOT
HETATM    1  C   UNL     1      -8.291   5.083  73.098  1.00  0.00    -0.108 C  
HETATM    2  C   UNL     1      -8.893   6.428  72.762  1.00  0.00    -0.124 C  
HETATM    3  O   UNL     1      -8.343   7.462  73.167  1.00  0.00    -0.112 OA 
ENDROOT
BRANCH   2   4
HETATM    4  C   UNL     1     -10.242   6.469  71.932  1.00  0.00    -0.194 C  
HETATM    5  O   UNL     1     -10.840   5.156  72.095  1.00  0.00    -0.212 OA 
HETATM    6  C   UNL     1     -11.084   7.438  72.773  1.00  0.00    -0.394 C  
HETATM    7  C   UNL     1     -12.301   7.475  71.928  1.00  0.00    -0.342 C  
HETATM    8  H   UNL     1     -11.649   5.180  71.598  1.00  0.00     0.000 HD 
HETATM    9  C   UNL     1     -11.644   7.857  70.606  1.00  0.00    -0.215 C  
HETATM   10  C   UNL     1     -11.233   9.354  70.501  1.00  0.00    -0.329 C  
HETATM   11  C   UNL     1     -12.081  10.267  71.333  1.00  0.00    -0.457 C  
HETATM   12  C   UNL     1     -12.414  11.531  71.034  1.00  0.00    -0.458 C  
HETATM   13  C   UNL     1     -13.308  12.267  72.000  1.00  0.00    -0.491 C  
HETATM   14  C   UNL     1     -11.835  12.170  69.871  1.00  0.00    -0.392 C  
HETATM   15  C   UNL     1     -11.924  13.507  69.735  1.00  0.00    -0.405 C  
HETATM   16  C   UNL     1     -11.310  14.117  68.563  1.00  0.00    -0.283 C  
HETATM   17  O   UNL     1     -10.807  15.236  68.617  1.00  0.00    -0.237 OA 
HETATM   18  C   UNL     1     -11.481  13.331  67.284  1.00  0.00    -0.378 C  
HETATM   19  C   UNL     1     -11.031  11.873  67.442  1.00  0.00    -0.315 C  
HETATM   20  C   UNL     1     -10.984  11.318  68.896  1.00  0.00    -0.274 C  
HETATM   21  C   UNL     1     -11.255   9.766  69.020  1.00  0.00    -0.080 C  
HETATM   22  C   UNL     1     -10.275   8.786  68.335  1.00  0.00    -0.228 C  
HETATM   23  C   UNL     1     -10.532   7.270  68.742  1.00  0.00    -0.214 C  
HETATM   24  C   UNL     1     -10.384   6.783  70.289  1.00  0.00    -0.224 C  
HETATM   25  C   UNL     1      -8.800   6.950  70.140  1.00  0.00    -0.145 C  
ENDBRANCH   2   4
TORSDOF 1
ENDMDL
MODEL       22
REMARK 921   NORMALIZED FREE ENERGY PREDICTED BY IDOCK:   -6.57 KCAL/MOL
REMARK 922        TOTAL FREE ENERGY PREDICTED BY IDOCK:   -6.53 KCAL/MOL
REMARK 923 INTER-LIGAND FREE ENERGY PREDICTED BY IDOCK:   -6.52 KCAL/MOL
REMARK 924 INTRA-LIGAND FREE ENERGY PREDICTED BY IDOCK:   -0.00 KCAL/MOL
REMARK 927      BINDING AFFINITY PREDICTED BY RF-SCORE:    0.00 PKD
ROOT
HETATM    1  C   UNL     1     -10.733   5.145  70.640  1.00  0.00    -0.133 C  
HETATM    2  C   UNL     1     -11.103   5.814  71.945  1.00  0.00    -0.248 C  
HETATM    3  O   UNL     1     -11.842   5.225  72.747  1.00  0.00    -0.251 OA 
ENDROOT
BRANCH   2   4
HETATM    4  C   UNL     1     -10.564   7.278  72.224  1.00  0.00    -0.224 C  
HETATM    5  O   UNL     1     -10.201   7.298  73.629  1.00  0.00    -0.321 OA 
HETATM    6  C   UNL     1      -9.249   7.272  71.434  1.00  0.00    -0.145 C  
HETATM    7  C   UNL     1      -8.822   8.668  71.689  1.00  0.00    -0.292 C  
HETATM    8  H   UNL     1      -9.878   8.176  73.797  1.00  0.00     0.000 HD 
HETATM    9  C   UNL     1     -10.087   9.377  71.216  1.00  0.00    -0.309 C  
HETATM   10  C   UNL     1     -10.242   9.453  69.669  1.00  0.00    -0.225 C  
HETATM   11  C   UNL     1      -8.936   9.447  68.936  1.00  0.00    -0.136 C  
HETATM   12  C   UNL     1      -8.672  10.082  67.785  1.00  0.00    -0.125 C  
HETATM   13  C   UNL     1      -7.274   9.971  67.229  1.00  0.00    -0.086 C  
HETATM   14  C   UNL     1      -9.738  10.753  67.073  1.00  0.00    -0.205 C  
HETATM   15  C   UNL     1      -9.552  11.125  65.791  1.00  0.00    -0.255 C  
HETATM   16  C   UNL     1     -10.656  11.778  65.101  1.00  0.00    -0.283 C  
HETATM   17  O   UNL     1     -10.842  11.613  63.899  1.00  0.00    -0.343 OA 
HETATM   18  C   UNL     1     -11.430  12.762  65.946  1.00  0.00    -0.399 C  
HETATM   19  C   UNL     1     -11.902  12.139  67.267  1.00  0.00    -0.293 C  
HETATM   20  C   UNL     1     -11.126  10.878  67.751  1.00  0.00    -0.371 C  
HETATM   21  C   UNL     1     -11.075  10.697  69.320  1.00  0.00    -0.306 C  
HETATM   22  C   UNL     1     -12.404  10.496  70.086  1.00  0.00    -0.339 C  
HETATM   23  C   UNL     1     -12.184  10.089  71.608  1.00  0.00    -0.456 C  
HETATM   24  C   UNL     1     -11.419   8.706  72.001  1.00  0.00    -0.437 C  
HETATM   25  C   UNL     1     -12.710   7.905  71.500  1.00  0.00    -0.342 C  
ENDBRANCH   2   4
TORSDOF 1
ENDMDL
MODEL       23
REMARK 921   NORMALIZED FREE ENERGY PREDICTED BY IDOCK:   -6.57 KCAL/MOL
REMARK 922        TOTAL FREE ENERGY PREDICTED BY IDOCK:   -6.53 KCAL/MOL
REMARK 923 INTER-LIGAND FREE ENERGY PREDICTED BY IDOCK:   -6.64 KCAL/MOL
REMARK 924 INTRA-LIGAND FREE ENERGY PREDICTED BY IDOCK:    0.11 KCAL/MOL
REMARK 927      BINDING AFFINITY PREDICTED BY RF-SCORE:    0.00 PKD
ROOT
HETATM    1  C   UNL     1      -8.700   6.721  72.118  1.00  0.00    -0.132 C  
HETATM    2  C   UNL     1      -9.096   8.105  71.653  1.00  0.00    -0.163 C  
HETATM    3  O   UNL     1      -8.379   9.074  71.940  1.00  0.00    -0.365 OA 
ENDROOT
BRANCH   2   4
HETATM    4  C   UNL     1     -10.450   8.275  70.848  1.00  0.00    -0.196 C  
HETATM    5  O   UNL     1     -11.170   7.028  71.026  1.00  0.00    -0.254 OA 
HETATM    6  C   UNL     1     -11.178   9.325  71.698  1.00  0.00    -0.449 C  
HETATM    7  C   UNL     1     -12.399   9.478  70.875  1.00  0.00    -0.305 C  
HETATM    8  H   UNL     1     -11.981   7.130  70.543  1.00  0.00     0.000 HD 
HETATM    9  C   UNL     1     -11.732   9.791  69.540  1.00  0.00     0.106 C  
HETATM   10  C   UNL     1     -11.178  11.240  69.420  1.00  0.00    -0.345 C  
HETATM   11  C   UNL     1     -11.917  12.234  70.263  1.00  0.00    -0.373 C  
HETATM   12  C   UNL     1     -12.130  13.523  69.964  1.00  0.00    -0.411 C  
HETATM   13  C   UNL     1     -12.931  14.347  70.943  1.00  0.00    -0.413 C  
HETATM   14  C   UNL     1     -11.512  14.100  68.789  1.00  0.00    -0.333 C  
HETATM   15  C   UNL     1     -11.471  15.439  68.649  1.00  0.00    -0.357 C  
HETATM   16  C   UNL     1     -10.821  15.983  67.464  1.00  0.00    -0.292 C  
HETATM   17  O   UNL     1     -10.211  17.047  67.503  1.00  0.00    -0.302 OA 
HETATM   18  C   UNL     1     -11.091  15.214  66.191  1.00  0.00    -0.311 C  
HETATM   19  C   UNL     1     -10.784  13.719  66.348  1.00  0.00    -0.281 C  
HETATM   20  C   UNL     1     -10.766  13.166  67.803  1.00  0.00    -0.252 C  
HETATM   21  C   UNL     1     -11.186  11.649  67.939  1.00  0.00    -0.334 C  
HETATM   22  C   UNL     1     -10.318  10.575  67.241  1.00  0.00    -0.275 C  
HETATM   23  C   UNL     1     -10.716   9.092  67.659  1.00  0.00    -0.257 C  
HETATM   24  C   UNL     1     -10.589   8.598  69.205  1.00  0.00    -0.204 C  
HETATM   25  C   UNL     1      -8.999   8.608  69.029  1.00  0.00    -0.142 C  
ENDBRANCH   2   4
TORSDOF 1
ENDMDL
MODEL       24
REMARK 921   NORMALIZED FREE ENERGY PREDICTED BY IDOCK:   -6.52 KCAL/MOL
REMARK 922        TOTAL FREE ENERGY PREDICTED BY IDOCK:   -6.48 KCAL/MOL
REMARK 923 INTER-LIGAND FREE ENERGY PREDICTED BY IDOCK:   -6.46 KCAL/MOL
REMARK 924 INTRA-LIGAND FREE ENERGY PREDICTED BY IDOCK:   -0.02 KCAL/MOL
REMARK 927      BINDING AFFINITY PREDICTED BY RF-SCORE:    0.00 PKD
ROOT
HETATM    1  C   UNL     1      -6.831   9.958  70.265  1.00  0.00    -0.138 C  
HETATM    2  C   UNL     1      -7.426   8.579  70.089  1.00  0.00    -0.060 C  
HETATM    3  O   UNL     1      -6.697   7.582  70.184  1.00  0.00    -0.048 OA 
ENDROOT
BRANCH   2   4
HETATM    4  C   UNL     1      -8.967   8.458  69.743  1.00  0.00    -0.146 C  
HETATM    5  O   UNL     1      -9.421   7.246  70.400  1.00  0.00    -0.165 OA 
HETATM    6  C   UNL     1      -9.550   9.631  70.542  1.00  0.00    -0.261 C  
HETATM    7  C   UNL     1     -10.970   9.498  70.140  1.00  0.00    -0.302 C  
HETATM    8  H   UNL     1     -10.345   7.173  70.192  1.00  0.00     0.000 HD 
HETATM    9  C   UNL     1     -10.778   9.521  68.628  1.00  0.00    -0.218 C  
HETATM   10  C   UNL     1     -10.493  10.932  68.036  1.00  0.00    -0.222 C  
HETATM   11  C   UNL     1     -11.080  12.049  68.844  1.00  0.00    -0.298 C  
HETATM   12  C   UNL     1     -11.550  13.210  68.365  1.00  0.00    -0.372 C  
HETATM   13  C   UNL     1     -12.132  14.190  69.353  1.00  0.00    -0.372 C  
HETATM   14  C   UNL     1     -11.395  13.524  66.961  1.00  0.00    -0.348 C  
HETATM   15  C   UNL     1     -11.585  14.788  66.537  1.00  0.00    -0.306 C  
HETATM   16  C   UNL     1     -11.397  15.070  65.121  1.00  0.00    -0.372 C  
HETATM   17  O   UNL     1     -10.957  16.151  64.739  1.00  0.00    -0.594 OA 
HETATM   18  C   UNL     1     -11.921  13.999  64.193  1.00  0.00    -0.439 C  
HETATM   19  C   UNL     1     -11.375  12.611  64.552  1.00  0.00    -0.378 C  
HETATM   20  C   UNL     1     -10.850  12.431  66.007  1.00  0.00    -0.308 C  
HETATM   21  C   UNL     1     -10.995  10.967  66.584  1.00  0.00    -0.212 C  
HETATM   22  C   UNL     1     -10.232   9.816  65.887  1.00  0.00    -0.245 C  
HETATM   23  C   UNL     1     -10.276   8.457  66.711  1.00  0.00    -0.376 C  
HETATM   24  C   UNL     1      -9.630   8.362  68.203  1.00  0.00    -0.158 C  
HETATM   25  C   UNL     1      -8.182   8.435  67.528  1.00  0.00    -0.125 C  
ENDBRANCH   2   4
TORSDOF 1
ENDMDL
MODEL       25
REMARK 921   NORMALIZED FREE ENERGY PREDICTED BY IDOCK:   -6.40 KCAL/MOL
REMARK 922        TOTAL FREE ENERGY PREDICTED BY IDOCK:   -6.35 KCAL/MOL
REMARK 923 INTER-LIGAND FREE ENERGY PREDICTED BY IDOCK:   -6.93 KCAL/MOL
REMARK 924 INTRA-LIGAND FREE ENERGY PREDICTED BY IDOCK:    0.58 KCAL/MOL
REMARK 927      BINDING AFFINITY PREDICTED BY RF-SCORE:    0.00 PKD
ROOT
HETATM    1  C   UNL     1     -10.480  11.957  63.587  1.00  0.00    -0.493 C  
HETATM    2  C   UNL     1     -10.172  11.212  64.866  1.00  0.00    -0.303 C  
HETATM    3  O   UNL     1     -10.230   9.974  64.882  1.00  0.00    -0.261 OA 
ENDROOT
BRANCH   2   4
HETATM    4  C   UNL     1      -9.827  12.049  66.166  1.00  0.00    -0.235 C  
HETATM    5  O   UNL     1      -9.532  13.391  65.700  1.00  0.00    -0.485 OA 
HETATM    6  C   UNL     1     -11.197  12.117  66.854  1.00  0.00    -0.375 C  
HETATM    7  C   UNL     1     -10.804  12.859  68.075  1.00  0.00    -0.261 C  
HETATM    8  H   UNL     1      -9.326  13.893  66.479  1.00  0.00     0.000 HD 
HETATM    9  C   UNL     1      -9.674  11.944  68.536  1.00  0.00    -0.173 C  
HETATM   10  C   UNL     1     -10.148  10.621  69.203  1.00  0.00    -0.234 C  
HETATM   11  C   UNL     1     -11.487  10.730  69.864  1.00  0.00    -0.398 C  
HETATM   12  C   UNL     1     -11.882  10.077  70.966  1.00  0.00    -0.476 C  
HETATM   13  C   UNL     1     -13.269  10.358  71.488  1.00  0.00    -0.485 C  
HETATM   14  C   UNL     1     -11.024   9.067  71.549  1.00  0.00    -0.418 C  
HETATM   15  C   UNL     1     -11.528   8.208  72.456  1.00  0.00    -0.470 C  
HETATM   16  C   UNL     1     -10.640   7.192  73.003  1.00  0.00    -0.308 C  
HETATM   17  O   UNL     1     -11.057   6.079  73.310  1.00  0.00    -0.244 OA 
HETATM   18  C   UNL     1      -9.237   7.674  73.290  1.00  0.00    -0.285 C  
HETATM   19  C   UNL     1      -8.603   8.355  72.070  1.00  0.00    -0.254 C  
HETATM   20  C   UNL     1      -9.588   8.894  70.991  1.00  0.00    -0.321 C  
HETATM   21  C   UNL     1      -9.069  10.157  70.195  1.00  0.00     0.076 C  
HETATM   22  C   UNL     1      -7.791  10.016  69.335  1.00  0.00    -0.141 C  
HETATM   23  C   UNL     1      -7.528  11.283  68.409  1.00  0.00    -0.108 C  
HETATM   24  C   UNL     1      -8.597  11.715  67.260  1.00  0.00    -0.154 C  
HETATM   25  C   UNL     1      -8.137  10.436  66.418  1.00  0.00    -0.129 C  
ENDBRANCH   2   4
TORSDOF 1
ENDMDL
MODEL       26
REMARK 921   NORMALIZED FREE ENERGY PREDICTED BY IDOCK:   -6.40 KCAL/MOL
REMARK 922        TOTAL FREE ENERGY PREDICTED BY IDOCK:   -6.35 KCAL/MOL
REMARK 923 INTER-LIGAND FREE ENERGY PREDICTED BY IDOCK:   -6.47 KCAL/MOL
REMARK 924 INTRA-LIGAND FREE ENERGY PREDICTED BY IDOCK:    0.12 KCAL/MOL
REMARK 927      BINDING AFFINITY PREDICTED BY RF-SCORE:    0.00 PKD
ROOT
HETATM    1  C   UNL     1     -12.472  15.582  63.833  1.00  0.00     0.424 C  
HETATM    2  C   UNL     1     -11.940  14.172  63.729  1.00  0.00    -0.119 C  
HETATM    3  O   UNL     1     -12.415  13.399  62.885  1.00  0.00    -0.563 OA 
ENDROOT
BRANCH   2   4
HETATM    4  C   UNL     1     -10.811  13.711  64.742  1.00  0.00    -0.394 C  
HETATM    5  O   UNL     1      -9.747  13.166  63.919  1.00  0.00    -0.678 OA 
HETATM    6  C   UNL     1     -10.307  15.062  65.267  1.00  0.00    -0.424 C  
HETATM    7  C   UNL     1      -9.301  14.569  66.237  1.00  0.00    -0.277 C  
HETATM    8  H   UNL     1      -9.071  12.890  64.526  1.00  0.00     0.000 HD 
HETATM    9  C   UNL     1     -10.202  13.636  67.039  1.00  0.00    -0.250 C  
HETATM   10  C   UNL     1     -11.157  14.359  68.031  1.00  0.00    -0.287 C  
HETATM   11  C   UNL     1     -10.628  15.671  68.522  1.00  0.00    -0.256 C  
HETATM   12  C   UNL     1     -10.835  16.205  69.735  1.00  0.00    -0.333 C  
HETATM   13  C   UNL     1     -10.180  17.530  70.038  1.00  0.00     0.681 C  
HETATM   14  C   UNL     1     -11.742  15.559  70.659  1.00  0.00    -0.389 C  
HETATM   15  C   UNL     1     -12.183  16.233  71.739  1.00  0.00    -0.327 C  
HETATM   16  C   UNL     1     -13.113  15.558  72.634  1.00  0.00    -0.459 C  
HETATM   17  O   UNL     1     -13.991  16.178  73.226  1.00  0.00    -0.515 OA 
HETATM   18  C   UNL     1     -12.806  14.097  72.872  1.00  0.00    -0.433 C  
HETATM   19  C   UNL     1     -12.650  13.321  71.558  1.00  0.00    -0.311 C  
HETATM   20  C   UNL     1     -12.315  14.166  70.293  1.00  0.00    -0.421 C  
HETATM   21  C   UNL     1     -11.465  13.407  69.199  1.00  0.00    -0.351 C  
HETATM   22  C   UNL     1     -12.074  12.156  68.524  1.00  0.00    -0.115 C  
HETATM   23  C   UNL     1     -11.217  11.644  67.285  1.00  0.00    -0.365 C  
HETATM   24  C   UNL     1     -10.990  12.589  65.978  1.00  0.00    -0.318 C  
HETATM   25  C   UNL     1     -12.525  12.349  65.597  1.00  0.00     0.007 C  
ENDBRANCH   2   4
TORSDOF 1
ENDMDL
MODEL       27
REMARK 921   NORMALIZED FREE ENERGY PREDICTED BY IDOCK:   -6.37 KCAL/MOL
REMARK 922        TOTAL FREE ENERGY PREDICTED BY IDOCK:   -6.32 KCAL/MOL
REMARK 923 INTER-LIGAND FREE ENERGY PREDICTED BY IDOCK:   -6.48 KCAL/MOL
REMARK 924 INTRA-LIGAND FREE ENERGY PREDICTED BY IDOCK:    0.17 KCAL/MOL
REMARK 927      BINDING AFFINITY PREDICTED BY RF-SCORE:    0.00 PKD
ROOT
HETATM    1  C   UNL     1      -7.114  10.275  64.571  1.00  0.00    -0.072 C  
HETATM    2  C   UNL     1      -8.559   9.919  64.304  1.00  0.00    -0.188 C  
HETATM    3  O   UNL     1      -8.852   9.279  63.284  1.00  0.00    -0.219 OA 
ENDROOT
BRANCH   2   4
HETATM    4  C   UNL     1      -9.664  10.418  65.324  1.00  0.00    -0.278 C  
HETATM    5  O   UNL     1     -10.379   9.226  65.739  1.00  0.00    -0.268 OA 
HETATM    6  C   UNL     1      -8.801  10.847  66.518  1.00  0.00    -0.169 C  
HETATM    7  C   UNL     1      -9.874  11.348  67.408  1.00  0.00    -0.199 C  
HETATM    8  H   UNL     1     -11.041   9.525  66.351  1.00  0.00     0.000 HD 
HETATM    9  C   UNL     1     -10.525  12.332  66.442  1.00  0.00    -0.263 C  
HETATM   10  C   UNL     1      -9.737  13.659  66.247  1.00  0.00    -0.295 C  
HETATM   11  C   UNL     1      -8.910  14.044  67.435  1.00  0.00    -0.210 C  
HETATM   12  C   UNL     1      -8.645  15.292  67.845  1.00  0.00    -0.153 C  
HETATM   13  C   UNL     1      -7.813  15.459  69.092  1.00  0.00    -0.212 C  
HETATM   14  C   UNL     1      -9.069  16.418  67.039  1.00  0.00    -0.232 C  
HETATM   15  C   UNL     1      -8.553  17.639  67.280  1.00  0.00    -0.238 C  
HETATM   16  C   UNL     1      -8.987  18.743  66.434  1.00  0.00    -0.292 C  
HETATM   17  O   UNL     1      -8.225  19.662  66.145  1.00  0.00    -0.335 OA 
HETATM   18  C   UNL     1     -10.457  18.726  66.085  1.00  0.00    -0.499 C  
HETATM   19  C   UNL     1     -10.891  17.379  65.493  1.00  0.00     0.001 C  
HETATM   20  C   UNL     1      -9.979  16.159  65.812  1.00  0.00    -0.370 C  
HETATM   21  C   UNL     1     -10.732  14.770  65.874  1.00  0.00    -0.320 C  
HETATM   22  C   UNL     1     -11.429  14.248  64.596  1.00  0.00    -0.389 C  
HETATM   23  C   UNL     1     -11.932  12.746  64.736  1.00  0.00    -0.455 C  
HETATM   24  C   UNL     1     -10.877  11.533  65.000  1.00  0.00    -0.336 C  
HETATM   25  C   UNL     1     -10.377  11.703  63.490  1.00  0.00    -0.488 C  
ENDBRANCH   2   4
TORSDOF 1
ENDMDL
MODEL       28
REMARK 921   NORMALIZED FREE ENERGY PREDICTED BY IDOCK:   -6.36 KCAL/MOL
REMARK 922        TOTAL FREE ENERGY PREDICTED BY IDOCK:   -6.31 KCAL/MOL
REMARK 923 INTER-LIGAND FREE ENERGY PREDICTED BY IDOCK:   -6.34 KCAL/MOL
REMARK 924 INTRA-LIGAND FREE ENERGY PREDICTED BY IDOCK:    0.02 KCAL/MOL
REMARK 927      BINDING AFFINITY PREDICTED BY RF-SCORE:    0.00 PKD
ROOT
HETATM    1  C   UNL     1      -6.897   8.036  68.210  1.00  0.00    -0.072 C  
HETATM    2  C   UNL     1      -7.271   7.836  66.759  1.00  0.00    -0.088 C  
HETATM    3  O   UNL     1      -6.396   7.522  65.940  1.00  0.00    -0.041 OA 
ENDROOT
BRANCH   2   4
HETATM    4  C   UNL     1      -8.775   8.081  66.324  1.00  0.00    -0.153 C  
HETATM    5  O   UNL     1      -9.110   6.979  65.441  1.00  0.00    -0.369 OA 
HETATM    6  C   UNL     1      -9.517   7.825  67.642  1.00  0.00    -0.168 C  
HETATM    7  C   UNL     1     -10.897   8.116  67.188  1.00  0.00    -0.120 C  
HETATM    8  H   UNL     1     -10.011   7.125  65.180  1.00  0.00     0.000 HD 
HETATM    9  C   UNL     1     -10.653   9.508  66.615  1.00  0.00    -0.174 C  
HETATM   10  C   UNL     1     -10.511  10.630  67.684  1.00  0.00    -0.267 C  
HETATM   11  C   UNL     1     -11.252  10.343  68.954  1.00  0.00    -0.290 C  
HETATM   12  C   UNL     1     -11.834  11.248  69.753  1.00  0.00    -0.437 C  
HETATM   13  C   UNL     1     -12.560  10.741  70.974  1.00  0.00    -0.520 C  
HETATM   14  C   UNL     1     -11.665  12.660  69.482  1.00  0.00    -0.374 C  
HETATM   15  C   UNL     1     -11.983  13.562  70.431  1.00  0.00    -0.367 C  
HETATM   16  C   UNL     1     -11.778  14.972  70.130  1.00  0.00    -0.299 C  
HETATM   17  O   UNL     1     -11.451  15.769  71.004  1.00  0.00    -0.343 OA 
HETATM   18  C   UNL     1     -12.142  15.372  68.719  1.00  0.00    -0.183 C  
HETATM   19  C   UNL     1     -11.454  14.483  67.674  1.00  0.00    -0.374 C  
HETATM   20  C   UNL     1     -10.964  13.090  68.168  1.00  0.00    -0.269 C  
HETATM   21  C   UNL     1     -10.961  11.961  67.062  1.00  0.00    -0.326 C  
HETATM   22  C   UNL     1     -10.046  12.137  65.827  1.00  0.00    -0.272 C  
HETATM   23  C   UNL     1      -9.964  10.827  64.928  1.00  0.00    -0.374 C  
HETATM   24  C   UNL     1      -9.366   9.437  65.529  1.00  0.00    -0.315 C  
HETATM   25  C   UNL     1      -7.912  10.102  65.493  1.00  0.00    -0.146 C  
ENDBRANCH   2   4
TORSDOF 1
ENDMDL
MODEL       29
REMARK 921   NORMALIZED FREE ENERGY PREDICTED BY IDOCK:   -6.26 KCAL/MOL
REMARK 922        TOTAL FREE ENERGY PREDICTED BY IDOCK:   -6.21 KCAL/MOL
REMARK 923 INTER-LIGAND FREE ENERGY PREDICTED BY IDOCK:   -6.61 KCAL/MOL
REMARK 924 INTRA-LIGAND FREE ENERGY PREDICTED BY IDOCK:    0.40 KCAL/MOL
REMARK 927      BINDING AFFINITY PREDICTED BY RF-SCORE:    0.00 PKD
ROOT
HETATM    1  C   UNL     1      -9.961   8.732  66.234  1.00  0.00    -0.315 C  
HETATM    2  C   UNL     1      -9.817  10.233  66.125  1.00  0.00    -0.225 C  
HETATM    3  O   UNL     1      -9.015  10.712  65.311  1.00  0.00    -0.179 OA 
ENDROOT
BRANCH   2   4
HETATM    4  C   UNL     1     -10.672  11.149  67.095  1.00  0.00    -0.259 C  
HETATM    5  O   UNL     1     -11.548  10.243  67.815  1.00  0.00    -0.651 OA 
HETATM    6  C   UNL     1      -9.604  11.610  68.095  1.00  0.00    -0.190 C  
HETATM    7  C   UNL     1     -10.445  12.494  68.935  1.00  0.00    -0.109 C  
HETATM    8  H   UNL     1     -12.061  10.792  68.396  1.00  0.00     0.000 HD 
HETATM    9  C   UNL     1     -11.006  13.384  67.832  1.00  0.00    -0.276 C  
HETATM   10  C   UNL     1     -10.007  14.447  67.291  1.00  0.00    -0.247 C  
HETATM   11  C   UNL     1      -8.983  14.872  68.298  1.00  0.00    -0.177 C  
HETATM   12  C   UNL     1      -8.434  16.091  68.404  1.00  0.00    -0.180 C  
HETATM   13  C   UNL     1      -7.440  16.318  69.516  1.00  0.00    -0.039 C  
HETATM   14  C   UNL     1      -8.727  17.100  67.408  1.00  0.00    -0.211 C  
HETATM   15  C   UNL     1      -7.961  18.205  67.335  1.00  0.00    -0.229 C  
HETATM   16  C   UNL     1      -8.273  19.187  66.305  1.00  0.00    -0.300 C  
HETATM   17  O   UNL     1      -7.389  19.846  65.764  1.00  0.00    -0.309 OA 
HETATM   18  C   UNL     1      -9.750  19.417  66.084  1.00  0.00    -0.423 C  
HETATM   19  C   UNL     1     -10.504  18.104  65.836  1.00  0.00    -0.292 C  
HETATM   20  C   UNL     1      -9.813  16.804  66.342  1.00  0.00    -0.312 C  
HETATM   21  C   UNL     1     -10.806  15.649  66.764  1.00  0.00    -0.277 C  
HETATM   22  C   UNL     1     -11.741  15.047  65.689  1.00  0.00    -0.123 C  
HETATM   23  C   UNL     1     -12.503  13.745  66.192  1.00  0.00    -0.466 C  
HETATM   24  C   UNL     1     -11.679  12.411  66.631  1.00  0.00    -0.438 C  
HETATM   25  C   UNL     1     -11.342  12.169  65.086  1.00  0.00    -0.379 C  
ENDBRANCH   2   4
TORSDOF 1
ENDMDL
MODEL       30
REMARK 921   NORMALIZED FREE ENERGY PREDICTED BY IDOCK:   -6.26 KCAL/MOL
REMARK 922        TOTAL FREE ENERGY PREDICTED BY IDOCK:   -6.20 KCAL/MOL
REMARK 923 INTER-LIGAND FREE ENERGY PREDICTED BY IDOCK:   -6.32 KCAL/MOL
REMARK 924 INTRA-LIGAND FREE ENERGY PREDICTED BY IDOCK:    0.11 KCAL/MOL
REMARK 927      BINDING AFFINITY PREDICTED BY RF-SCORE:    0.00 PKD
ROOT
HETATM    1  C   UNL     1     -10.078  19.993  66.378  1.00  0.00    -0.609 C  
HETATM    2  C   UNL     1     -10.160  18.488  66.502  1.00  0.00    -0.400 C  
HETATM    3  O   UNL     1     -10.643  17.824  65.574  1.00  0.00    -0.632 OA 
ENDROOT
BRANCH   2   4
HETATM    4  C   UNL     1      -9.662  17.810  67.845  1.00  0.00    -0.294 C  
HETATM    5  O   UNL     1      -9.515  18.895  68.798  1.00  0.00    -0.354 OA 
HETATM    6  C   UNL     1     -10.910  17.024  68.267  1.00  0.00    -0.341 C  
HETATM    7  C   UNL     1     -10.372  16.378  69.487  1.00  0.00    -0.278 C  
HETATM    8  H   UNL     1      -9.217  18.488  69.604  1.00  0.00     0.000 HD 
HETATM    9  C   UNL     1      -9.137  15.730  68.870  1.00  0.00    -0.225 C  
HETATM   10  C   UNL     1      -9.430  14.453  68.031  1.00  0.00    -0.209 C  
HETATM   11  C   UNL     1     -10.654  13.713  68.477  1.00  0.00    -0.259 C  
HETATM   12  C   UNL     1     -10.838  12.386  68.433  1.00  0.00    -0.263 C  
HETATM   13  C   UNL     1     -12.140  11.841  68.964  1.00  0.00    -0.276 C  
HETATM   14  C   UNL     1      -9.847  11.545  67.796  1.00  0.00    -0.186 C  
HETATM   15  C   UNL     1     -10.158  10.272  67.482  1.00  0.00    -0.239 C  
HETATM   16  C   UNL     1      -9.142   9.463  66.822  1.00  0.00    -0.140 C  
HETATM   17  O   UNL     1      -9.447   8.606  65.997  1.00  0.00    -0.225 OA 
HETATM   18  C   UNL     1      -7.739   9.669  67.344  1.00  0.00    -0.095 C  
HETATM   19  C   UNL     1      -7.340  11.150  67.350  1.00  0.00    -0.108 C  
HETATM   20  C   UNL     1      -8.509  12.180  67.341  1.00  0.00    -0.173 C  
HETATM   21  C   UNL     1      -8.188  13.549  68.063  1.00  0.00    -0.163 C  
HETATM   22  C   UNL     1      -7.053  14.436  67.498  1.00  0.00    -0.197 C  
HETATM   23  C   UNL     1      -7.005  15.877  68.169  1.00  0.00    -0.124 C  
HETATM   24  C   UNL     1      -8.261  16.904  68.035  1.00  0.00    -0.203 C  
HETATM   25  C   UNL     1      -7.870  17.107  66.498  1.00  0.00    -0.325 C  
ENDBRANCH   2   4
TORSDOF 1
ENDMDL
MODEL       31
REMARK 921   NORMALIZED FREE ENERGY PREDICTED BY IDOCK:   -6.25 KCAL/MOL
REMARK 922        TOTAL FREE ENERGY PREDICTED BY IDOCK:   -6.19 KCAL/MOL
REMARK 923 INTER-LIGAND FREE ENERGY PREDICTED BY IDOCK:   -6.24 KCAL/MOL
REMARK 924 INTRA-LIGAND FREE ENERGY PREDICTED BY IDOCK:    0.05 KCAL/MOL
REMARK 927      BINDING AFFINITY PREDICTED BY RF-SCORE:    0.00 PKD
ROOT
HETATM    1  C   UNL     1      -9.838   5.645  74.252  1.00  0.00    -0.214 C  
HETATM    2  C   UNL     1     -10.025   6.954  73.520  1.00  0.00    -0.262 C  
HETATM    3  O   UNL     1      -9.293   7.916  73.791  1.00  0.00    -0.280 OA 
ENDROOT
BRANCH   2   4
HETATM    4  C   UNL     1     -11.192   7.066  72.454  1.00  0.00    -0.268 C  
HETATM    5  O   UNL     1     -12.172   6.068  72.842  1.00  0.00    -0.483 OA 
HETATM    6  C   UNL     1     -11.796   8.431  72.809  1.00  0.00    -0.234 C  
HETATM    7  C   UNL     1     -12.837   8.501  71.757  1.00  0.00    -0.380 C  
HETATM    8  H   UNL     1     -12.872   6.135  72.203  1.00  0.00     0.000 HD 
HETATM    9  C   UNL     1     -11.944   8.265  70.544  1.00  0.00     0.070 C  
HETATM   10  C   UNL     1     -11.092   9.496  70.121  1.00  0.00    -0.294 C  
HETATM   11  C   UNL     1     -11.718  10.809  70.483  1.00  0.00    -0.449 C  
HETATM   12  C   UNL     1     -11.617  11.952  69.791  1.00  0.00    -0.359 C  
HETATM   13  C   UNL     1     -12.356  13.157  70.317  1.00  0.00    -0.319 C  
HETATM   14  C   UNL     1     -10.740  12.021  68.641  1.00  0.00    -0.266 C  
HETATM   15  C   UNL     1     -10.404  13.222  68.132  1.00  0.00    -0.246 C  
HETATM   16  C   UNL     1      -9.501  13.252  66.989  1.00  0.00    -0.243 C  
HETATM   17  O   UNL     1      -8.695  14.166  66.838  1.00  0.00    -0.215 OA 
HETATM   18  C   UNL     1      -9.749  12.169  65.965  1.00  0.00    -0.258 C  
HETATM   19  C   UNL     1      -9.781  10.773  66.601  1.00  0.00    -0.227 C  
HETATM   20  C   UNL     1     -10.075  10.718  68.129  1.00  0.00    -0.183 C  
HETATM   21  C   UNL     1     -10.814   9.407  68.612  1.00  0.00    -0.149 C  
HETATM   22  C   UNL     1     -10.100   8.046  68.434  1.00  0.00    -0.221 C  
HETATM   23  C   UNL     1     -10.848   6.855  69.177  1.00  0.00    -0.262 C  
HETATM   24  C   UNL     1     -11.038   6.866  70.794  1.00  0.00    -0.317 C  
HETATM   25  C   UNL     1      -9.472   6.573  70.932  1.00  0.00    -0.179 C  
ENDBRANCH   2   4
TORSDOF 1
ENDMDL
MODEL       32
REMARK 921   NORMALIZED FREE ENERGY PREDICTED BY IDOCK:   -6.22 KCAL/MOL
REMARK 922        TOTAL FREE ENERGY PREDICTED BY IDOCK:   -6.16 KCAL/MOL
REMARK 923 INTER-LIGAND FREE ENERGY PREDICTED BY IDOCK:   -6.33 KCAL/MOL
REMARK 924 INTRA-LIGAND FREE ENERGY PREDICTED BY IDOCK:    0.17 KCAL/MOL
REMARK 927      BINDING AFFINITY PREDICTED BY RF-SCORE:    0.00 PKD
ROOT
HETATM    1  C   UNL     1      -9.643   4.189  71.031  1.00  0.00    -0.253 C  
HETATM    2  C   UNL     1      -9.941   5.346  70.105  1.00  0.00    -0.232 C  
HETATM    3  O   UNL     1     -10.846   5.241  69.265  1.00  0.00    -0.151 OA 
ENDROOT
BRANCH   2   4
HETATM    4  C   UNL     1      -9.047   6.650  70.210  1.00  0.00    -0.156 C  
HETATM    5  O   UNL     1      -7.966   6.311  71.118  1.00  0.00    -0.112 OA 
HETATM    6  C   UNL     1      -8.434   6.711  68.805  1.00  0.00    -0.123 C  
HETATM    7  C   UNL     1      -7.659   7.966  68.948  1.00  0.00    -0.100 C  
HETATM    8  H   UNL     1      -7.430   7.092  71.181  1.00  0.00     0.000 HD 
HETATM    9  C   UNL     1      -8.790   8.876  69.414  1.00  0.00    -0.143 C  
HETATM   10  C   UNL     1      -9.763   9.323  68.286  1.00  0.00    -0.167 C  
HETATM   11  C   UNL     1      -9.126   9.372  66.931  1.00  0.00    -0.160 C  
HETATM   12  C   UNL     1      -9.424  10.231  65.946  1.00  0.00    -0.241 C  
HETATM   13  C   UNL     1      -8.635  10.128  64.664  1.00  0.00    -0.193 C  
HETATM   14  C   UNL     1     -10.538  11.142  66.100  1.00  0.00    -0.305 C  
HETATM   15  C   UNL     1     -11.027  11.784  65.021  1.00  0.00    -0.357 C  
HETATM   16  C   UNL     1     -12.162  12.675  65.212  1.00  0.00    -0.475 C  
HETATM   17  O   UNL     1     -13.018  12.813  64.342  1.00  0.00    -0.723 OA 
HETATM   18  C   UNL     1     -12.107  13.501  66.476  1.00  0.00    -0.460 C  
HETATM   19  C   UNL     1     -11.878  12.632  67.720  1.00  0.00    -0.381 C  
HETATM   20  C   UNL     1     -11.248  11.229  67.475  1.00  0.00    -0.357 C  
HETATM   21  C   UNL     1     -10.368  10.683  68.669  1.00  0.00    -0.202 C  
HETATM   22  C   UNL     1     -11.048  10.429  70.035  1.00  0.00    -0.379 C  
HETATM   23  C   UNL     1     -10.106   9.661  71.060  1.00  0.00    -0.200 C  
HETATM   24  C   UNL     1      -9.560   8.162  70.732  1.00  0.00    -0.185 C  
HETATM   25  C   UNL     1     -11.043   7.618  70.985  1.00  0.00    -0.273 C  
ENDBRANCH   2   4
TORSDOF 1
ENDMDL
MODEL       33
REMARK 921   NORMALIZED FREE ENERGY PREDICTED BY IDOCK:   -6.09 KCAL/MOL
REMARK 922        TOTAL FREE ENERGY PREDICTED BY IDOCK:   -6.02 KCAL/MOL
REMARK 923 INTER-LIGAND FREE ENERGY PREDICTED BY IDOCK:   -6.07 KCAL/MOL
REMARK 924 INTRA-LIGAND FREE ENERGY PREDICTED BY IDOCK:    0.05 KCAL/MOL
REMARK 927      BINDING AFFINITY PREDICTED BY RF-SCORE:    0.00 PKD
ROOT
HETATM    1  C   UNL     1     -11.281  15.172  67.692  1.00  0.00    -0.329 C  
HETATM    2  C   UNL     1     -10.515  13.935  68.103  1.00  0.00    -0.245 C  
HETATM    3  O   UNL     1      -9.364  14.048  68.548  1.00  0.00    -0.206 OA 
ENDROOT
BRANCH   2   4
HETATM    4  C   UNL     1     -11.200  12.520  67.906  1.00  0.00    -0.264 C  
HETATM    5  O   UNL     1     -12.123  12.684  66.799  1.00  0.00    -0.504 OA 
HETATM    6  C   UNL     1     -10.026  11.687  67.375  1.00  0.00    -0.200 C  
HETATM    7  C   UNL     1     -10.708  10.377  67.261  1.00  0.00    -0.331 C  
HETATM    8  H   UNL     1     -12.534  11.835  66.681  1.00  0.00     0.000 HD 
HETATM    9  C   UNL     1     -11.236  10.275  68.688  1.00  0.00    -0.263 C  
HETATM   10  C   UNL     1     -10.161   9.895  69.747  1.00  0.00    -0.278 C  
HETATM   11  C   UNL     1      -9.034   9.080  69.189  1.00  0.00    -0.140 C  
HETATM   12  C   UNL     1      -8.348   8.129  69.838  1.00  0.00    -0.123 C  
HETATM   13  C   UNL     1      -7.266   7.403  69.077  1.00  0.00    -0.085 C  
HETATM   14  C   UNL     1      -8.590   7.902  71.247  1.00  0.00    -0.138 C  
HETATM   15  C   UNL     1      -7.712   7.175  71.965  1.00  0.00    -0.091 C  
HETATM   16  C   UNL     1      -7.978   6.988  73.385  1.00  0.00    -0.096 C  
HETATM   17  O   UNL     1      -7.063   6.911  74.199  1.00  0.00    -0.089 OA 
HETATM   18  C   UNL     1      -9.431   6.754  73.725  1.00  0.00    -0.215 C  
HETATM   19  C   UNL     1     -10.341   7.840  73.136  1.00  0.00    -0.403 C  
HETATM   20  C   UNL     1      -9.768   8.642  71.931  1.00  0.00    -0.383 C  
HETATM   21  C   UNL     1     -10.854   9.168  70.911  1.00  0.00    -0.345 C  
HETATM   22  C   UNL     1     -11.916  10.174  71.413  1.00  0.00    -0.447 C  
HETATM   23  C   UNL     1     -12.785  10.795  70.234  1.00  0.00    -0.286 C  
HETATM   24  C   UNL     1     -12.087  11.682  69.059  1.00  0.00    -0.288 C  
HETATM   25  C   UNL     1     -11.878  12.850  70.132  1.00  0.00    -0.319 C  
ENDBRANCH   2   4
TORSDOF 1
ENDMDL
MODEL       34
REMARK 921   NORMALIZED FREE ENERGY PREDICTED BY IDOCK:   -6.08 KCAL/MOL
REMARK 922        TOTAL FREE ENERGY PREDICTED BY IDOCK:   -6.01 KCAL/MOL
REMARK 923 INTER-LIGAND FREE ENERGY PREDICTED BY IDOCK:   -6.16 KCAL/MOL
REMARK 924 INTRA-LIGAND FREE ENERGY PREDICTED BY IDOCK:    0.15 KCAL/MOL
REMARK 927      BINDING AFFINITY PREDICTED BY RF-SCORE:    0.00 PKD
ROOT
HETATM    1  C   UNL     1     -10.654  16.201  68.727  1.00  0.00    -0.279 C  
HETATM    2  C   UNL     1     -10.303  15.306  67.561  1.00  0.00    -0.244 C  
HETATM    3  O   UNL     1      -9.211  15.442  66.992  1.00  0.00    -0.206 OA 
ENDROOT
BRANCH   2   4
HETATM    4  C   UNL     1     -11.373  14.244  67.073  1.00  0.00    -0.341 C  
HETATM    5  O   UNL     1     -12.649  14.936  67.095  1.00  0.00    -0.250 OA 
HETATM    6  C   UNL     1     -10.989  14.085  65.596  1.00  0.00    -0.300 C  
HETATM    7  C   UNL     1     -11.980  13.053  65.212  1.00  0.00    -0.446 C  
HETATM    8  H   UNL     1     -13.290  14.299  66.803  1.00  0.00     0.000 HD 
HETATM    9  C   UNL     1     -11.653  12.018  66.283  1.00  0.00    -0.378 C  
HETATM   10  C   UNL     1     -10.350  11.209  66.021  1.00  0.00    -0.308 C  
HETATM   11  C   UNL     1     -10.012  11.075  64.568  1.00  0.00    -0.366 C  
HETATM   12  C   UNL     1      -9.408  10.027  63.988  1.00  0.00    -0.324 C  
HETATM   13  C   UNL     1      -9.189  10.082  62.497  1.00  0.00    -0.319 C  
HETATM   14  C   UNL     1      -8.904   8.946  64.808  1.00  0.00    -0.130 C  
HETATM   15  C   UNL     1      -8.044   8.055  64.276  1.00  0.00    -0.117 C  
HETATM   16  C   UNL     1      -7.540   6.994  65.138  1.00  0.00    -0.102 C  
HETATM   17  O   UNL     1      -6.404   6.549  65.003  1.00  0.00    -0.039 OA 
HETATM   18  C   UNL     1      -8.567   6.409  66.080  1.00  0.00    -0.149 C  
HETATM   19  C   UNL     1      -9.274   7.494  66.903  1.00  0.00    -0.181 C  
HETATM   20  C   UNL     1      -9.235   8.938  66.321  1.00  0.00    -0.261 C  
HETATM   21  C   UNL     1     -10.482   9.834  66.694  1.00  0.00    -0.233 C  
HETATM   22  C   UNL     1     -10.742  10.159  68.184  1.00  0.00    -0.285 C  
HETATM   23  C   UNL     1     -11.876  11.256  68.387  1.00  0.00    -0.331 C  
HETATM   24  C   UNL     1     -11.697  12.763  67.795  1.00  0.00    -0.412 C  
HETATM   25  C   UNL     1     -10.601  13.028  68.930  1.00  0.00    -0.157 C  
ENDBRANCH   2   4
TORSDOF 1
ENDMDL
MODEL       35
REMARK 921   NORMALIZED FREE ENERGY PREDICTED BY IDOCK:   -6.06 KCAL/MOL
REMARK 922        TOTAL FREE ENERGY PREDICTED BY IDOCK:   -6.00 KCAL/MOL
REMARK 923 INTER-LIGAND FREE ENERGY PREDICTED BY IDOCK:   -6.05 KCAL/MOL
REMARK 924 INTRA-LIGAND FREE ENERGY PREDICTED BY IDOCK:    0.06 KCAL/MOL
REMARK 927      BINDING AFFINITY PREDICTED BY RF-SCORE:    0.00 PKD
ROOT
HETATM    1  C   UNL     1      -9.297   2.912  67.527  1.00  0.00    -0.218 C  
HETATM    2  C   UNL     1      -9.407   4.216  66.770  1.00  0.00    -0.176 C  
HETATM    3  O   UNL     1     -10.218   4.317  65.839  1.00  0.00    -0.227 OA 
ENDROOT
BRANCH   2   4
HETATM    4  C   UNL     1      -8.440   5.407  67.168  1.00  0.00    -0.106 C  
HETATM    5  O   UNL     1      -7.223   4.778  67.648  1.00  0.00    -0.068 OA 
HETATM    6  C   UNL     1      -8.110   6.002  65.793  1.00  0.00    -0.123 C  
HETATM    7  C   UNL     1      -7.255   7.129  66.230  1.00  0.00    -0.075 C  
HETATM    8  H   UNL     1      -6.644   5.492  67.887  1.00  0.00     0.000 HD 
HETATM    9  C   UNL     1      -8.223   7.774  67.217  1.00  0.00    -0.119 C  
HETATM   10  C   UNL     1      -9.371   8.588  66.554  1.00  0.00    -0.260 C  
HETATM   11  C   UNL     1      -9.008   9.153  65.215  1.00  0.00    -0.246 C  
HETATM   12  C   UNL     1      -9.446  10.310  64.698  1.00  0.00    -0.351 C  
HETATM   13  C   UNL     1      -8.929  10.710  63.339  1.00  0.00    -0.226 C  
HETATM   14  C   UNL     1     -10.458  11.072  65.399  1.00  0.00    -0.306 C  
HETATM   15  C   UNL     1     -11.112  12.059  64.755  1.00  0.00    -0.369 C  
HETATM   16  C   UNL     1     -12.138  12.789  65.486  1.00  0.00    -0.465 C  
HETATM   17  O   UNL     1     -13.138  13.221  64.920  1.00  0.00    -0.737 OA 
HETATM   18  C   UNL     1     -11.793  13.084  66.927  1.00  0.00    -0.442 C  
HETATM   19  C   UNL     1     -11.373  11.820  67.688  1.00  0.00    -0.370 C  
HETATM   20  C   UNL     1     -10.880  10.624  66.821  1.00  0.00    -0.233 C  
HETATM   21  C   UNL     1      -9.815   9.693  67.526  1.00  0.00    -0.213 C  
HETATM   22  C   UNL     1     -10.229   8.932  68.808  1.00  0.00    -0.224 C  
HETATM   23  C   UNL     1      -9.148   7.858  69.265  1.00  0.00    -0.148 C  
HETATM   24  C   UNL     1      -8.759   6.603  68.304  1.00  0.00    -0.118 C  
HETATM   25  C   UNL     1     -10.191   5.971  68.630  1.00  0.00    -0.233 C  
ENDBRANCH   2   4
TORSDOF 1
ENDMDL
MODEL       36
REMARK 921   NORMALIZED FREE ENERGY PREDICTED BY IDOCK:   -6.02 KCAL/MOL
REMARK 922        TOTAL FREE ENERGY PREDICTED BY IDOCK:   -5.95 KCAL/MOL
REMARK 923 INTER-LIGAND FREE ENERGY PREDICTED BY IDOCK:   -6.01 KCAL/MOL
REMARK 924 INTRA-LIGAND FREE ENERGY PREDICTED BY IDOCK:    0.06 KCAL/MOL
REMARK 927      BINDING AFFINITY PREDICTED BY RF-SCORE:    0.00 PKD
ROOT
HETATM    1  C   UNL     1      -7.682  15.399  69.230  1.00  0.00    -0.221 C  
HETATM    2  C   UNL     1      -8.679  15.523  68.100  1.00  0.00    -0.164 C  
HETATM    3  O   UNL     1      -9.197  16.622  67.860  1.00  0.00    -0.215 OA 
ENDROOT
BRANCH   2   4
HETATM    4  C   UNL     1      -9.065  14.221  67.284  1.00  0.00    -0.215 C  
HETATM    5  O   UNL     1      -8.972  14.596  65.885  1.00  0.00    -0.472 OA 
HETATM    6  C   UNL     1      -7.860  13.315  67.573  1.00  0.00    -0.173 C  
HETATM    7  C   UNL     1      -8.299  12.108  66.833  1.00  0.00    -0.151 C  
HETATM    8  H   UNL     1      -9.203  13.816  65.395  1.00  0.00     0.000 HD 
HETATM    9  C   UNL     1      -9.665  11.929  67.488  1.00  0.00    -0.185 C  
HETATM   10  C   UNL     1      -9.617  11.327  68.922  1.00  0.00    -0.119 C  
HETATM   11  C   UNL     1      -8.429  10.448  69.162  1.00  0.00    -0.168 C  
HETATM   12  C   UNL     1      -8.391   9.365  69.953  1.00  0.00    -0.174 C  
HETATM   13  C   UNL     1      -7.094   8.599  70.029  1.00  0.00    -0.047 C  
HETATM   14  C   UNL     1      -9.539   9.032  70.769  1.00  0.00    -0.308 C  
HETATM   15  C   UNL     1      -9.405   8.143  71.773  1.00  0.00    -0.241 C  
HETATM   16  C   UNL     1     -10.577   7.851  72.587  1.00  0.00    -0.329 C  
HETATM   17  O   UNL     1     -10.473   7.590  73.783  1.00  0.00    -0.317 OA 
HETATM   18  C   UNL     1     -11.871   7.752  71.813  1.00  0.00    -0.328 C  
HETATM   19  C   UNL     1     -12.110   8.987  70.934  1.00  0.00    -0.247 C  
HETATM   20  C   UNL     1     -10.852   9.832  70.575  1.00  0.00    -0.387 C  
HETATM   21  C   UNL     1     -10.932  10.575  69.182  1.00  0.00    -0.286 C  
HETATM   22  C   UNL     1     -12.032  11.642  68.974  1.00  0.00    -0.368 C  
HETATM   23  C   UNL     1     -11.843  12.470  67.629  1.00  0.00    -0.381 C  
HETATM   24  C   UNL     1     -10.515  13.381  67.388  1.00  0.00    -0.243 C  
HETATM   25  C   UNL     1     -11.081  14.408  68.476  1.00  0.00    -0.270 C  
ENDBRANCH   2   4
TORSDOF 1
ENDMDL
MODEL       37
REMARK 921   NORMALIZED FREE ENERGY PREDICTED BY IDOCK:   -5.92 KCAL/MOL
REMARK 922        TOTAL FREE ENERGY PREDICTED BY IDOCK:   -5.84 KCAL/MOL
REMARK 923 INTER-LIGAND FREE ENERGY PREDICTED BY IDOCK:   -5.99 KCAL/MOL
REMARK 924 INTRA-LIGAND FREE ENERGY PREDICTED BY IDOCK:    0.15 KCAL/MOL
REMARK 927      BINDING AFFINITY PREDICTED BY RF-SCORE:    0.00 PKD
ROOT
HETATM    1  C   UNL     1      -9.939  11.411  64.821  1.00  0.00    -0.313 C  
HETATM    2  C   UNL     1      -9.847  10.589  66.086  1.00  0.00    -0.217 C  
HETATM    3  O   UNL     1     -10.121   9.381  66.052  1.00  0.00    -0.300 OA 
ENDROOT
BRANCH   2   4
HETATM    4  C   UNL     1      -9.442  11.316  67.435  1.00  0.00    -0.165 C  
HETATM    5  O   UNL     1      -9.134  10.253  68.374  1.00  0.00    -0.129 OA 
HETATM    6  C   UNL     1      -8.102  11.954  67.044  1.00  0.00    -0.167 C  
HETATM    7  C   UNL     1      -7.803  12.654  68.315  1.00  0.00    -0.144 C  
HETATM    8  H   UNL     1      -8.891  10.689  69.182  1.00  0.00     0.000 HD 
HETATM    9  C   UNL     1      -9.103  13.439  68.448  1.00  0.00    -0.142 C  
HETATM   10  C   UNL     1      -9.207  14.677  67.511  1.00  0.00    -0.192 C  
HETATM   11  C   UNL     1      -7.879  15.271  67.156  1.00  0.00    -0.249 C  
HETATM   12  C   UNL     1      -7.625  16.569  66.935  1.00  0.00    -0.272 C  
HETATM   13  C   UNL     1      -6.203  16.961  66.620  1.00  0.00    -0.206 C  
HETATM   14  C   UNL     1      -8.716  17.520  66.906  1.00  0.00    -0.269 C  
HETATM   15  C   UNL     1      -8.514  18.749  66.394  1.00  0.00    -0.296 C  
HETATM   16  C   UNL     1      -9.642  19.670  66.361  1.00  0.00    -0.401 C  
HETATM   17  O   UNL     1      -9.769  20.490  65.455  1.00  0.00    -0.035 OA 
HETATM   18  C   UNL     1     -10.526  19.625  67.585  1.00  0.00    -0.579 C  
HETATM   19  C   UNL     1     -10.993  18.198  67.903  1.00  0.00    -0.084 C  
HETATM   20  C   UNL     1     -10.134  17.042  67.310  1.00  0.00    -0.295 C  
HETATM   21  C   UNL     1     -10.127  15.717  68.171  1.00  0.00    -0.220 C  
HETATM   22  C   UNL     1     -11.462  14.966  68.388  1.00  0.00    -0.338 C  
HETATM   23  C   UNL     1     -11.265  13.538  69.060  1.00  0.00    -0.314 C  
HETATM   24  C   UNL     1     -10.403  12.375  68.315  1.00  0.00    -0.232 C  
HETATM   25  C   UNL     1     -11.604  12.222  67.269  1.00  0.00    -0.427 C  
ENDBRANCH   2   4
TORSDOF 1
ENDMDL
MODEL       38
REMARK 921   NORMALIZED FREE ENERGY PREDICTED BY IDOCK:   -5.81 KCAL/MOL
REMARK 922        TOTAL FREE ENERGY PREDICTED BY IDOCK:   -5.72 KCAL/MOL
REMARK 923 INTER-LIGAND FREE ENERGY PREDICTED BY IDOCK:   -5.75 KCAL/MOL
REMARK 924 INTRA-LIGAND FREE ENERGY PREDICTED BY IDOCK:    0.03 KCAL/MOL
REMARK 927      BINDING AFFINITY PREDICTED BY RF-SCORE:    0.00 PKD
ROOT
HETATM    1  C   UNL     1     -11.202  14.896  68.953  1.00  0.00    -0.282 C  
HETATM    2  C   UNL     1     -10.547  15.417  67.695  1.00  0.00    -0.280 C  
HETATM    3  O   UNL     1     -10.872  16.528  67.251  1.00  0.00    -0.280 OA 
ENDROOT
BRANCH   2   4
HETATM    4  C   UNL     1      -9.491  14.497  66.954  1.00  0.00    -0.252 C  
HETATM    5  O   UNL     1      -8.679  15.399  66.157  1.00  0.00    -0.425 OA 
HETATM    6  C   UNL     1      -8.613  14.041  68.126  1.00  0.00    -0.181 C  
HETATM    7  C   UNL     1      -7.686  13.153  67.386  1.00  0.00    -0.151 C  
HETATM    8  H   UNL     1      -8.046  14.848  65.713  1.00  0.00     0.000 HD 
HETATM    9  C   UNL     1      -8.723  12.261  66.712  1.00  0.00    -0.175 C  
HETATM   10  C   UNL     1      -9.369  11.202  67.651  1.00  0.00    -0.169 C  
HETATM   11  C   UNL     1      -8.479  10.782  68.781  1.00  0.00    -0.148 C  
HETATM   12  C   UNL     1      -8.435   9.566  69.343  1.00  0.00    -0.146 C  
HETATM   13  C   UNL     1      -7.437   9.343  70.453  1.00  0.00    -0.141 C  
HETATM   14  C   UNL     1      -9.393   8.555  68.948  1.00  0.00    -0.146 C  
HETATM   15  C   UNL     1      -9.549   7.454  69.707  1.00  0.00    -0.163 C  
HETATM   16  C   UNL     1     -10.539   6.470  69.290  1.00  0.00    -0.247 C  
HETATM   17  O   UNL     1     -11.173   5.815  70.112  1.00  0.00    -0.319 OA 
HETATM   18  C   UNL     1     -10.599   6.234  67.799  1.00  0.00    -0.329 C  
HETATM   19  C   UNL     1     -10.763   7.543  67.015  1.00  0.00    -0.367 C  
HETATM   20  C   UNL     1     -10.335   8.846  67.752  1.00  0.00    -0.301 C  
HETATM   21  C   UNL     1      -9.807   9.996  66.805  1.00  0.00    -0.251 C  
HETATM   22  C   UNL     1     -10.774  10.594  65.756  1.00  0.00    -0.097 C  
HETATM   23  C   UNL     1     -10.190  11.893  65.048  1.00  0.00    -0.316 C  
HETATM   24  C   UNL     1      -9.843  13.231  65.909  1.00  0.00    -0.241 C  
HETATM   25  C   UNL     1     -11.415  13.474  66.075  1.00  0.00    -0.345 C  
ENDBRANCH   2   4
TORSDOF 1
ENDMDL
MODEL       39
REMARK 921   NORMALIZED FREE ENERGY PREDICTED BY IDOCK:   -5.78 KCAL/MOL
REMARK 922        TOTAL FREE ENERGY PREDICTED BY IDOCK:   -5.69 KCAL/MOL
REMARK 923 INTER-LIGAND FREE ENERGY PREDICTED BY IDOCK:   -5.67 KCAL/MOL
REMARK 924 INTRA-LIGAND FREE ENERGY PREDICTED BY IDOCK:   -0.02 KCAL/MOL
REMARK 927      BINDING AFFINITY PREDICTED BY RF-SCORE:    0.00 PKD
ROOT
HETATM    1  C   UNL     1     -11.367   9.186  70.698  1.00  0.00    -0.323 C  
HETATM    2  C   UNL     1     -10.243   8.276  70.258  1.00  0.00    -0.196 C  
HETATM    3  O   UNL     1      -9.816   7.411  71.036  1.00  0.00    -0.180 OA 
ENDROOT
BRANCH   2   4
HETATM    4  C   UNL     1      -9.613   8.490  68.820  1.00  0.00    -0.149 C  
HETATM    5  O   UNL     1      -9.186   7.174  68.380  1.00  0.00    -0.135 OA 
HETATM    6  C   UNL     1     -10.857   8.844  67.994  1.00  0.00    -0.079 C  
HETATM    7  C   UNL     1     -10.203   9.081  66.686  1.00  0.00    -0.333 C  
HETATM    8  H   UNL     1      -8.808   7.303  67.518  1.00  0.00     0.000 HD 
HETATM    9  C   UNL     1      -9.170  10.109  67.136  1.00  0.00    -0.157 C  
HETATM   10  C   UNL     1      -9.743  11.535  67.379  1.00  0.00    -0.191 C  
HETATM   11  C   UNL     1     -10.955  11.841  66.553  1.00  0.00    -0.342 C  
HETATM   12  C   UNL     1     -11.296  13.041  66.062  1.00  0.00    -0.343 C  
HETATM   13  C   UNL     1     -12.547  13.125  65.223  1.00  0.00    -0.531 C  
HETATM   14  C   UNL     1     -10.527  14.212  66.428  1.00  0.00    -0.283 C  
HETATM   15  C   UNL     1     -11.031  15.439  66.191  1.00  0.00    -0.279 C  
HETATM   16  C   UNL     1     -10.239  16.593  66.594  1.00  0.00    -0.303 C  
HETATM   17  O   UNL     1     -10.772  17.627  66.986  1.00  0.00    -0.291 OA 
HETATM   18  C   UNL     1      -8.754  16.452  66.348  1.00  0.00    -0.355 C  
HETATM   19  C   UNL     1      -8.191  15.161  66.956  1.00  0.00    -0.262 C  
HETATM   20  C   UNL     1      -9.218  14.024  67.235  1.00  0.00    -0.231 C  
HETATM   21  C   UNL     1      -8.626  12.562  67.137  1.00  0.00    -0.200 C  
HETATM   22  C   UNL     1      -7.505  12.148  68.119  1.00  0.00    -0.114 C  
HETATM   23  C   UNL     1      -7.180  10.592  68.065  1.00  0.00    -0.087 C  
HETATM   24  C   UNL     1      -8.314   9.487  68.448  1.00  0.00    -0.118 C  
HETATM   25  C   UNL     1      -8.160   9.930  69.978  1.00  0.00    -0.193 C  
ENDBRANCH   2   4
TORSDOF 1
ENDMDL
MODEL       40
REMARK 921   NORMALIZED FREE ENERGY PREDICTED BY IDOCK:   -5.72 KCAL/MOL
REMARK 922        TOTAL FREE ENERGY PREDICTED BY IDOCK:   -5.63 KCAL/MOL
REMARK 923 INTER-LIGAND FREE ENERGY PREDICTED BY IDOCK:   -5.64 KCAL/MOL
REMARK 924 INTRA-LIGAND FREE ENERGY PREDICTED BY IDOCK:    0.01 KCAL/MOL
REMARK 927      BINDING AFFINITY PREDICTED BY RF-SCORE:    0.00 PKD
ROOT
HETATM    1  C   UNL     1     -11.037  15.760  69.427  1.00  0.00    -0.314 C  
HETATM    2  C   UNL     1     -10.589  16.360  68.114  1.00  0.00    -0.318 C  
HETATM    3  O   UNL     1     -11.030  17.464  67.764  1.00  0.00    -0.317 OA 
ENDROOT
BRANCH   2   4
HETATM    4  C   UNL     1      -9.594  15.529  67.202  1.00  0.00    -0.222 C  
HETATM    5  O   UNL     1      -8.900  16.510  66.388  1.00  0.00    -0.257 OA 
HETATM    6  C   UNL     1      -8.581  15.027  68.239  1.00  0.00    -0.156 C  
HETATM    7  C   UNL     1      -7.717  14.224  67.343  1.00  0.00    -0.194 C  
HETATM    8  H   UNL     1      -8.304  16.012  65.841  1.00  0.00     0.000 HD 
HETATM    9  C   UNL     1      -8.796  13.342  66.724  1.00  0.00    -0.140 C  
HETATM   10  C   UNL     1      -9.306  12.201  67.650  1.00  0.00    -0.187 C  
HETATM   11  C   UNL     1      -8.287  11.738  68.645  1.00  0.00    -0.079 C  
HETATM   12  C   UNL     1      -8.147  10.489  69.113  1.00  0.00    -0.152 C  
HETATM   13  C   UNL     1      -7.029  10.229  70.092  1.00  0.00    -0.159 C  
HETATM   14  C   UNL     1      -9.115   9.475  68.753  1.00  0.00    -0.133 C  
HETATM   15  C   UNL     1      -9.157   8.320  69.445  1.00  0.00    -0.154 C  
HETATM   16  C   UNL     1     -10.159   7.332  69.068  1.00  0.00    -0.186 C  
HETATM   17  O   UNL     1     -10.681   6.602  69.906  1.00  0.00    -0.216 OA 
HETATM   18  C   UNL     1     -10.374   7.194  67.579  1.00  0.00    -0.303 C  
HETATM   19  C   UNL     1     -10.659   8.546  66.912  1.00  0.00    -0.279 C  
HETATM   20  C   UNL     1     -10.189   9.811  67.688  1.00  0.00    -0.261 C  
HETATM   21  C   UNL     1      -9.800  11.040  66.773  1.00  0.00    -0.229 C  
HETATM   22  C   UNL     1     -10.892  11.672  65.878  1.00  0.00    -0.339 C  
HETATM   23  C   UNL     1     -10.425  13.035  65.204  1.00  0.00    -0.335 C  
HETATM   24  C   UNL     1     -10.023  14.324  66.115  1.00  0.00    -0.330 C  
HETATM   25  C   UNL     1     -11.574  14.500  66.465  1.00  0.00    -0.379 C  
ENDBRANCH   2   4
TORSDOF 1
ENDMDL
MODEL       41
REMARK 921   NORMALIZED FREE ENERGY PREDICTED BY IDOCK:   -5.67 KCAL/MOL
REMARK 922        TOTAL FREE ENERGY PREDICTED BY IDOCK:   -5.58 KCAL/MOL
REMARK 923 INTER-LIGAND FREE ENERGY PREDICTED BY IDOCK:   -5.62 KCAL/MOL
REMARK 924 INTRA-LIGAND FREE ENERGY PREDICTED BY IDOCK:    0.04 KCAL/MOL
REMARK 927      BINDING AFFINITY PREDICTED BY RF-SCORE:    0.00 PKD
ROOT
HETATM    1  C   UNL     1     -11.458  10.269  70.023  1.00  0.00    -0.367 C  
HETATM    2  C   UNL     1     -10.615   9.140  69.474  1.00  0.00    -0.223 C  
HETATM    3  O   UNL     1     -10.540   8.073  70.101  1.00  0.00    -0.228 OA 
ENDROOT
BRANCH   2   4
HETATM    4  C   UNL     1      -9.815   9.377  68.128  1.00  0.00    -0.160 C  
HETATM    5  O   UNL     1      -9.547   8.054  67.595  1.00  0.00    -0.145 OA 
HETATM    6  C   UNL     1     -10.900   9.995  67.236  1.00  0.00    -0.284 C  
HETATM    7  C   UNL     1     -10.086  10.239  66.022  1.00  0.00    -0.311 C  
HETATM    8  H   UNL     1      -9.067   8.195  66.788  1.00  0.00     0.000 HD 
HETATM    9  C   UNL     1      -8.963  11.046  66.665  1.00  0.00    -0.176 C  
HETATM   10  C   UNL     1      -9.338  12.517  67.001  1.00  0.00    -0.210 C  
HETATM   11  C   UNL     1     -10.398  13.084  66.107  1.00  0.00    -0.285 C  
HETATM   12  C   UNL     1     -10.502  14.361  65.713  1.00  0.00    -0.329 C  
HETATM   13  C   UNL     1     -11.633  14.716  64.780  1.00  0.00    -0.418 C  
HETATM   14  C   UNL     1      -9.609  15.358  66.264  1.00  0.00    -0.342 C  
HETATM   15  C   UNL     1      -9.896  16.666  66.111  1.00  0.00    -0.340 C  
HETATM   16  C   UNL     1      -8.986  17.639  66.699  1.00  0.00    -0.265 C  
HETATM   17  O   UNL     1      -9.396  18.707  67.145  1.00  0.00    -0.282 OA 
HETATM   18  C   UNL     1      -7.522  17.286  66.571  1.00  0.00    -0.315 C  
HETATM   19  C   UNL     1      -7.225  15.874  67.092  1.00  0.00    -0.254 C  
HETATM   20  C   UNL     1      -8.433  14.894  67.160  1.00  0.00    -0.244 C  
HETATM   21  C   UNL     1      -8.060  13.371  66.965  1.00  0.00    -0.018 C  
HETATM   22  C   UNL     1      -7.122  12.700  67.995  1.00  0.00    -0.103 C  
HETATM   23  C   UNL     1      -7.030  11.123  67.812  1.00  0.00    -0.078 C  
HETATM   24  C   UNL     1      -8.350  10.183  67.977  1.00  0.00    -0.117 C  
HETATM   25  C   UNL     1      -8.291  10.460  69.551  1.00  0.00    -0.126 C  
ENDBRANCH   2   4
TORSDOF 1
ENDMDL
MODEL       42
REMARK 921   NORMALIZED FREE ENERGY PREDICTED BY IDOCK:   -5.65 KCAL/MOL
REMARK 922        TOTAL FREE ENERGY PREDICTED BY IDOCK:   -5.55 KCAL/MOL
REMARK 923 INTER-LIGAND FREE ENERGY PREDICTED BY IDOCK:   -5.84 KCAL/MOL
REMARK 924 INTRA-LIGAND FREE ENERGY PREDICTED BY IDOCK:    0.29 KCAL/MOL
REMARK 927      BINDING AFFINITY PREDICTED BY RF-SCORE:    0.00 PKD
ROOT
HETATM    1  C   UNL     1     -11.217  16.529  64.881  1.00  0.00    -0.138 C  
HETATM    2  C   UNL     1     -10.603  15.235  65.363  1.00  0.00    -0.394 C  
HETATM    3  O   UNL     1      -9.402  15.205  65.670  1.00  0.00    -0.268 OA 
ENDROOT
BRANCH   2   4
HETATM    4  C   UNL     1     -11.512  13.939  65.419  1.00  0.00    -0.312 C  
HETATM    5  O   UNL     1     -12.816  14.356  64.938  1.00  0.00    -0.645 OA 
HETATM    6  C   UNL     1     -10.890  13.085  64.306  1.00  0.00    -0.430 C  
HETATM    7  C   UNL     1     -11.740  11.879  64.440  1.00  0.00    -0.357 C  
HETATM    8  H   UNL     1     -13.362  13.579  64.972  1.00  0.00     0.000 HD 
HETATM    9  C   UNL     1     -11.521  11.616  65.926  1.00  0.00    -0.189 C  
HETATM   10  C   UNL     1     -10.145  10.978  66.271  1.00  0.00    -0.282 C  
HETATM   11  C   UNL     1      -9.574  10.151  65.161  1.00  0.00    -0.354 C  
HETATM   12  C   UNL     1      -8.821   9.051  65.299  1.00  0.00    -0.234 C  
HETATM   13  C   UNL     1      -8.372   8.346  64.043  1.00  0.00    -0.068 C  
HETATM   14  C   UNL     1      -8.384   8.640  66.617  1.00  0.00    -0.108 C  
HETATM   15  C   UNL     1      -7.397   7.732  66.737  1.00  0.00    -0.089 C  
HETATM   16  C   UNL     1      -6.969   7.360  68.079  1.00  0.00    -0.075 C  
HETATM   17  O   UNL     1      -5.800   7.072  68.319  1.00  0.00    -0.020 OA 
HETATM   18  C   UNL     1      -8.093   7.220  69.079  1.00  0.00    -0.124 C  
HETATM   19  C   UNL     1      -8.989   8.465  69.115  1.00  0.00    -0.147 C  
HETATM   20  C   UNL     1      -8.950   9.380  67.856  1.00  0.00    -0.126 C  
HETATM   21  C   UNL     1     -10.295  10.156  67.561  1.00  0.00    -0.279 C  
HETATM   22  C   UNL     1     -10.807  11.173  68.608  1.00  0.00    -0.251 C  
HETATM   23  C   UNL     1     -12.026  12.046  68.075  1.00  0.00    -0.214 C  
HETATM   24  C   UNL     1     -11.852  13.027  66.787  1.00  0.00    -0.451 C  
HETATM   25  C   UNL     1     -10.968  13.995  67.704  1.00  0.00    -0.281 C  
ENDBRANCH   2   4
TORSDOF 1
ENDMDL
MODEL       43
REMARK 921   NORMALIZED FREE ENERGY PREDICTED BY IDOCK:   -5.64 KCAL/MOL
REMARK 922        TOTAL FREE ENERGY PREDICTED BY IDOCK:   -5.55 KCAL/MOL
REMARK 923 INTER-LIGAND FREE ENERGY PREDICTED BY IDOCK:   -5.57 KCAL/MOL
REMARK 924 INTRA-LIGAND FREE ENERGY PREDICTED BY IDOCK:    0.03 KCAL/MOL
REMARK 927      BINDING AFFINITY PREDICTED BY RF-SCORE:    0.00 PKD
ROOT
HETATM    1  C   UNL     1     -13.159  13.399  65.541  1.00  0.00     0.014 C  
HETATM    2  C   UNL     1     -12.089  13.756  64.535  1.00  0.00    -0.428 C  
HETATM    3  O   UNL     1     -12.413  14.255  63.448  1.00  0.00    -0.761 OA 
ENDROOT
BRANCH   2   4
HETATM    4  C   UNL     1     -10.578  13.435  64.890  1.00  0.00    -0.385 C  
HETATM    5  O   UNL     1      -9.827  14.616  64.504  1.00  0.00    -0.508 OA 
HETATM    6  C   UNL     1     -10.623  13.428  66.424  1.00  0.00    -0.285 C  
HETATM    7  C   UNL     1      -9.210  13.075  66.692  1.00  0.00    -0.222 C  
HETATM    8  H   UNL     1      -8.922  14.423  64.717  1.00  0.00     0.000 HD 
HETATM    9  C   UNL     1      -9.131  11.809  65.846  1.00  0.00    -0.128 C  
HETATM   10  C   UNL     1      -9.814  10.565  66.484  1.00  0.00    -0.255 C  
HETATM   11  C   UNL     1      -9.835  10.596  67.981  1.00  0.00    -0.177 C  
HETATM   12  C   UNL     1      -9.756   9.535  68.796  1.00  0.00    -0.164 C  
HETATM   13  C   UNL     1      -9.763   9.791  70.283  1.00  0.00    -0.279 C  
HETATM   14  C   UNL     1      -9.770   8.198  68.240  1.00  0.00    -0.175 C  
HETATM   15  C   UNL     1      -9.995   7.144  69.048  1.00  0.00    -0.174 C  
HETATM   16  C   UNL     1     -10.025   5.817  68.447  1.00  0.00    -0.153 C  
HETATM   17  O   UNL     1     -10.763   4.937  68.883  1.00  0.00     0.093 OA 
HETATM   18  C   UNL     1      -8.987   5.591  67.373  1.00  0.00    -0.107 C  
HETATM   19  C   UNL     1      -9.029   6.681  66.294  1.00  0.00    -0.168 C  
HETATM   20  C   UNL     1      -9.693   8.029  66.701  1.00  0.00    -0.313 C  
HETATM   21  C   UNL     1      -9.116   9.299  65.960  1.00  0.00    -0.235 C  
HETATM   22  C   UNL     1      -9.262   9.390  64.422  1.00  0.00    -0.114 C  
HETATM   23  C   UNL     1      -8.858  10.816  63.847  1.00  0.00    -0.122 C  
HETATM   24  C   UNL     1      -9.671  12.157  64.288  1.00  0.00    -0.076 C  
HETATM   25  C   UNL     1     -10.901  11.644  63.403  1.00  0.00    -0.453 C  
ENDBRANCH   2   4
TORSDOF 1
ENDMDL
MODEL       44
REMARK 921   NORMALIZED FREE ENERGY PREDICTED BY IDOCK:   -5.59 KCAL/MOL
REMARK 922        TOTAL FREE ENERGY PREDICTED BY IDOCK:   -5.49 KCAL/MOL
REMARK 923 INTER-LIGAND FREE ENERGY PREDICTED BY IDOCK:   -5.57 KCAL/MOL
REMARK 924 INTRA-LIGAND FREE ENERGY PREDICTED BY IDOCK:    0.08 KCAL/MOL
REMARK 927      BINDING AFFINITY PREDICTED BY RF-SCORE:    0.00 PKD
ROOT
HETATM    1  C   UNL     1      -7.672  16.076  68.946  1.00  0.00    -0.196 C  
HETATM    2  C   UNL     1      -8.910  16.837  68.528  1.00  0.00    -0.248 C  
HETATM    3  O   UNL     1      -8.996  18.048  68.774  1.00  0.00    -0.289 OA 
ENDROOT
BRANCH   2   4
HETATM    4  C   UNL     1     -10.085  16.041  67.824  1.00  0.00    -0.243 C  
HETATM    5  O   UNL     1     -10.902  17.049  67.172  1.00  0.00    -0.224 OA 
HETATM    6  C   UNL     1      -9.328  15.306  66.710  1.00  0.00    -0.265 C  
HETATM    7  C   UNL     1     -10.459  14.548  66.126  1.00  0.00    -0.303 C  
HETATM    8  H   UNL     1     -11.607  16.572  66.749  1.00  0.00     0.000 HD 
HETATM    9  C   UNL     1     -10.954  13.870  67.399  1.00  0.00    -0.299 C  
HETATM   10  C   UNL     1     -10.081  12.671  67.871  1.00  0.00    -0.222 C  
HETATM   11  C   UNL     1      -9.361  11.979  66.754  1.00  0.00    -0.206 C  
HETATM   12  C   UNL     1      -9.074  10.672  66.687  1.00  0.00    -0.176 C  
HETATM   13  C   UNL     1      -8.366  10.172  65.452  1.00  0.00    -0.159 C  
HETATM   14  C   UNL     1      -9.352   9.816  67.821  1.00  0.00    -0.148 C  
HETATM   15  C   UNL     1      -8.800   8.588  67.879  1.00  0.00    -0.137 C  
HETATM   16  C   UNL     1      -9.085   7.765  69.046  1.00  0.00    -0.144 C  
HETATM   17  O   UNL     1      -8.250   6.985  69.495  1.00  0.00    -0.128 OA 
HETATM   18  C   UNL     1     -10.510   7.850  69.541  1.00  0.00    -0.226 C  
HETATM   19  C   UNL     1     -10.953   9.300  69.773  1.00  0.00    -0.213 C  
HETATM   20  C   UNL     1     -10.144  10.397  69.020  1.00  0.00    -0.227 C  
HETATM   21  C   UNL     1     -10.972  11.693  68.653  1.00  0.00    -0.266 C  
HETATM   22  C   UNL     1     -11.561  12.545  69.802  1.00  0.00    -0.291 C  
HETATM   23  C   UNL     1     -12.154  13.933  69.300  1.00  0.00    -0.383 C  
HETATM   24  C   UNL     1     -11.199  15.041  68.586  1.00  0.00    -0.289 C  
HETATM   25  C   UNL     1     -10.537  15.322  70.015  1.00  0.00    -0.288 C  
ENDBRANCH   2   4
TORSDOF 1
ENDMDL
MODEL       45
REMARK 921   NORMALIZED FREE ENERGY PREDICTED BY IDOCK:   -5.53 KCAL/MOL
REMARK 922        TOTAL FREE ENERGY PREDICTED BY IDOCK:   -5.43 KCAL/MOL
REMARK 923 INTER-LIGAND FREE ENERGY PREDICTED BY IDOCK:   -5.53 KCAL/MOL
REMARK 924 INTRA-LIGAND FREE ENERGY PREDICTED BY IDOCK:    0.11 KCAL/MOL
REMARK 927      BINDING AFFINITY PREDICTED BY RF-SCORE:    0.00 PKD
ROOT
HETATM    1  C   UNL     1     -13.986   7.221  71.352  1.00  0.00    -0.429 C  
HETATM    2  C   UNL     1     -13.083   8.100  72.188  1.00  0.00    -0.243 C  
HETATM    3  O   UNL     1     -13.526   9.155  72.664  1.00  0.00    -0.463 OA 
ENDROOT
BRANCH   2   4
HETATM    4  C   UNL     1     -11.575   7.659  72.391  1.00  0.00    -0.336 C  
HETATM    5  O   UNL     1     -11.343   7.712  73.822  1.00  0.00    -0.374 OA 
HETATM    6  C   UNL     1     -11.640   6.174  72.014  1.00  0.00    -0.364 C  
HETATM    7  C   UNL     1     -10.207   5.834  72.172  1.00  0.00    -0.240 C  
HETATM    8  H   UNL     1     -10.438   7.448  73.944  1.00  0.00     0.000 HD 
HETATM    9  C   UNL     1      -9.621   6.910  71.262  1.00  0.00    -0.165 C  
HETATM   10  C   UNL     1      -9.770   6.618  69.741  1.00  0.00    -0.168 C  
HETATM   11  C   UNL     1      -9.828   5.157  69.415  1.00  0.00    -0.269 C  
HETATM   12  C   UNL     1      -9.352   4.574  68.306  1.00  0.00    -0.190 C  
HETATM   13  C   UNL     1      -9.485   3.076  68.190  1.00  0.00    -0.219 C  
HETATM   14  C   UNL     1      -8.830   5.392  67.232  1.00  0.00    -0.105 C  
HETATM   15  C   UNL     1      -8.635   4.847  66.015  1.00  0.00    -0.119 C  
HETATM   16  C   UNL     1      -8.130   5.707  64.953  1.00  0.00    -0.127 C  
HETATM   17  O   UNL     1      -8.469   5.543  63.785  1.00  0.00    -0.118 OA 
HETATM   18  C   UNL     1      -7.068   6.687  65.392  1.00  0.00    -0.064 C  
HETATM   19  C   UNL     1      -7.517   7.517  66.602  1.00  0.00    -0.092 C  
HETATM   20  C   UNL     1      -8.666   6.915  67.464  1.00  0.00    -0.120 C  
HETATM   21  C   UNL     1      -8.622   7.314  68.993  1.00  0.00    -0.129 C  
HETATM   22  C   UNL     1      -8.765   8.806  69.374  1.00  0.00    -0.142 C  
HETATM   23  C   UNL     1      -8.945   9.030  70.938  1.00  0.00    -0.300 C  
HETATM   24  C   UNL     1     -10.227   8.412  71.729  1.00  0.00    -0.323 C  
HETATM   25  C   UNL     1     -11.141   9.508  71.007  1.00  0.00    -0.433 C  
ENDBRANCH   2   4
TORSDOF 1
ENDMDL
MODEL       46
REMARK 921   NORMALIZED FREE ENERGY PREDICTED BY IDOCK:   -5.51 KCAL/MOL
REMARK 922        TOTAL FREE ENERGY PREDICTED BY IDOCK:   -5.41 KCAL/MOL
REMARK 923 INTER-LIGAND FREE ENERGY PREDICTED BY IDOCK:   -5.50 KCAL/MOL
REMARK 924 INTRA-LIGAND FREE ENERGY PREDICTED BY IDOCK:    0.09 KCAL/MOL
REMARK 927      BINDING AFFINITY PREDICTED BY RF-SCORE:    0.00 PKD
ROOT
HETATM    1  C   UNL     1     -10.350   5.237  69.834  1.00  0.00    -0.374 C  
HETATM    2  C   UNL     1     -10.577   6.668  69.402  1.00  0.00    -0.240 C  
HETATM    3  O   UNL     1     -11.477   7.332  69.935  1.00  0.00    -0.175 OA 
ENDROOT
BRANCH   2   4
HETATM    4  C   UNL     1      -9.679   7.260  68.239  1.00  0.00    -0.147 C  
HETATM    5  O   UNL     1      -9.064   6.112  67.598  1.00  0.00    -0.113 OA 
HETATM    6  C   UNL     1     -10.746   7.782  67.268  1.00  0.00    -0.326 C  
HETATM    7  C   UNL     1      -9.853   8.363  66.238  1.00  0.00    -0.257 C  
HETATM    8  H   UNL     1      -8.525   6.467  66.901  1.00  0.00     0.000 HD 
HETATM    9  C   UNL     1      -9.025   9.267  67.145  1.00  0.00    -0.141 C  
HETATM   10  C   UNL     1      -9.751  10.567  67.595  1.00  0.00    -0.187 C  
HETATM   11  C   UNL     1     -10.782  11.045  66.619  1.00  0.00    -0.305 C  
HETATM   12  C   UNL     1     -11.108  12.322  66.373  1.00  0.00    -0.345 C  
HETATM   13  C   UNL     1     -12.157  12.586  65.322  1.00  0.00    -0.500 C  
HETATM   14  C   UNL     1     -10.531  13.378  67.177  1.00  0.00    -0.249 C  
HETATM   15  C   UNL     1     -11.072  14.612  67.141  1.00  0.00    -0.328 C  
HETATM   16  C   UNL     1     -10.479  15.643  67.981  1.00  0.00    -0.263 C  
HETATM   17  O   UNL     1     -11.165  16.529  68.483  1.00  0.00    -0.360 OA 
HETATM   18  C   UNL     1      -8.969  15.608  68.046  1.00  0.00    -0.178 C  
HETATM   19  C   UNL     1      -8.444  14.219  68.431  1.00  0.00    -0.166 C  
HETATM   20  C   UNL     1      -9.410  13.023  68.186  1.00  0.00    -0.217 C  
HETATM   21  C   UNL     1      -8.694  11.650  67.868  1.00  0.00    -0.154 C  
HETATM   22  C   UNL     1      -7.775  11.027  68.944  1.00  0.00    -0.140 C  
HETATM   23  C   UNL     1      -7.321   9.545  68.586  1.00  0.00    -0.075 C  
HETATM   24  C   UNL     1      -8.416   8.351  68.423  1.00  0.00    -0.135 C  
HETATM   25  C   UNL     1      -8.624   8.390  70.008  1.00  0.00    -0.131 C  
ENDBRANCH   2   4
TORSDOF 1
ENDMDL
MODEL       47
REMARK 921   NORMALIZED FREE ENERGY PREDICTED BY IDOCK:   -5.51 KCAL/MOL
REMARK 922        TOTAL FREE ENERGY PREDICTED BY IDOCK:   -5.40 KCAL/MOL
REMARK 923 INTER-LIGAND FREE ENERGY PREDICTED BY IDOCK:   -5.47 KCAL/MOL
REMARK 924 INTRA-LIGAND FREE ENERGY PREDICTED BY IDOCK:    0.06 KCAL/MOL
REMARK 927      BINDING AFFINITY PREDICTED BY RF-SCORE:    0.00 PKD
ROOT
HETATM    1  C   UNL     1     -11.655  10.637  69.391  1.00  0.00    -0.352 C  
HETATM    2  C   UNL     1     -10.713   9.628  68.773  1.00  0.00    -0.206 C  
HETATM    3  O   UNL     1     -10.566   8.521  69.310  1.00  0.00    -0.220 OA 
ENDROOT
BRANCH   2   4
HETATM    4  C   UNL     1      -9.906  10.042  67.475  1.00  0.00    -0.175 C  
HETATM    5  O   UNL     1      -9.473   8.795  66.870  1.00  0.00    -0.155 OA 
HETATM    6  C   UNL     1     -11.027  10.593  66.584  1.00  0.00    -0.144 C  
HETATM    7  C   UNL     1     -10.211  11.007  65.419  1.00  0.00    -0.333 C  
HETATM    8  H   UNL     1      -8.989   9.044  66.091  1.00  0.00     0.000 HD 
HETATM    9  C   UNL     1      -9.207  11.889  66.152  1.00  0.00    -0.204 C  
HETATM   10  C   UNL     1      -9.757  13.284  66.566  1.00  0.00    -0.273 C  
HETATM   11  C   UNL     1     -10.847  13.787  65.670  1.00  0.00    -0.287 C  
HETATM   12  C   UNL     1     -11.085  15.068  65.354  1.00  0.00    -0.377 C  
HETATM   13  C   UNL     1     -12.221  15.356  64.404  1.00  0.00    -0.161 C  
HETATM   14  C   UNL     1     -10.328  16.120  65.999  1.00  0.00    -0.372 C  
HETATM   15  C   UNL     1     -10.757  17.394  65.918  1.00  0.00    -0.123 C  
HETATM   16  C   UNL     1      -9.982  18.422  66.599  1.00  0.00    -0.368 C  
HETATM   17  O   UNL     1     -10.524  19.405  67.096  1.00  0.00    -0.405 OA 
HETATM   18  C   UNL     1      -8.484  18.244  66.504  1.00  0.00    -0.287 C  
HETATM   19  C   UNL     1      -8.043  16.842  66.945  1.00  0.00    -0.251 C  
HETATM   20  C   UNL     1      -9.134  15.732  66.907  1.00  0.00    -0.259 C  
HETATM   21  C   UNL     1      -8.584  14.276  66.631  1.00  0.00    -0.017 C  
HETATM   22  C   UNL     1      -7.606  13.647  67.651  1.00  0.00    -0.186 C  
HETATM   23  C   UNL     1      -7.330  12.106  67.372  1.00  0.00    -0.151 C  
HETATM   24  C   UNL     1      -8.538  11.016  67.429  1.00  0.00    -0.132 C  
HETATM   25  C   UNL     1      -8.558  11.192  69.019  1.00  0.00    -0.033 C  
ENDBRANCH   2   4
TORSDOF 1
ENDMDL
MODEL       48
REMARK 921   NORMALIZED FREE ENERGY PREDICTED BY IDOCK:   -5.50 KCAL/MOL
REMARK 922        TOTAL FREE ENERGY PREDICTED BY IDOCK:   -5.39 KCAL/MOL
REMARK 923 INTER-LIGAND FREE ENERGY PREDICTED BY IDOCK:   -5.45 KCAL/MOL
REMARK 924 INTRA-LIGAND FREE ENERGY PREDICTED BY IDOCK:    0.06 KCAL/MOL
REMARK 927      BINDING AFFINITY PREDICTED BY RF-SCORE:    0.00 PKD
ROOT
HETATM    1  C   UNL     1     -10.711  19.262  67.292  1.00  0.00    -0.594 C  
HETATM    2  C   UNL     1     -10.320  17.879  67.759  1.00  0.00    -0.387 C  
HETATM    3  O   UNL     1     -10.649  17.500  68.892  1.00  0.00    -0.316 OA 
ENDROOT
BRANCH   2   4
HETATM    4  C   UNL     1      -9.456  16.968  66.792  1.00  0.00    -0.258 C  
HETATM    5  O   UNL     1      -8.819  17.882  65.862  1.00  0.00    -0.506 OA 
HETATM    6  C   UNL     1      -8.356  16.476  67.742  1.00  0.00    -0.176 C  
HETATM    7  C   UNL     1      -7.619  15.599  66.804  1.00  0.00    -0.125 C  
HETATM    8  H   UNL     1      -8.300  17.336  65.282  1.00  0.00     0.000 HD 
HETATM    9  C   UNL     1      -8.786  14.732  66.345  1.00  0.00    -0.152 C  
HETATM   10  C   UNL     1      -9.235  13.656  67.376  1.00  0.00    -0.222 C  
HETATM   11  C   UNL     1      -8.132  13.201  68.282  1.00  0.00    -0.152 C  
HETATM   12  C   UNL     1      -7.987  11.971  68.795  1.00  0.00    -0.014 C  
HETATM   13  C   UNL     1      -6.781  11.713  69.665  1.00  0.00    -0.059 C  
HETATM   14  C   UNL     1      -9.021  10.979  68.589  1.00  0.00    -0.167 C  
HETATM   15  C   UNL     1      -9.028   9.860  69.340  1.00  0.00    -0.204 C  
HETATM   16  C   UNL     1     -10.097   8.896  69.119  1.00  0.00    -0.197 C  
HETATM   17  O   UNL     1     -10.552   8.227  70.043  1.00  0.00    -0.228 OA 
HETATM   18  C   UNL     1     -10.473   8.696  67.670  1.00  0.00    -0.311 C  
HETATM   19  C   UNL     1     -10.781  10.025  66.968  1.00  0.00    -0.248 C  
HETATM   20  C   UNL     1     -10.189  11.307  67.626  1.00  0.00    -0.206 C  
HETATM   21  C   UNL     1      -9.857  12.475  66.614  1.00  0.00    -0.245 C  
HETATM   22  C   UNL     1     -11.016  13.107  65.807  1.00  0.00    -0.295 C  
HETATM   23  C   UNL     1     -10.576  14.417  65.020  1.00  0.00    -0.452 C  
HETATM   24  C   UNL     1     -10.037  15.731  65.817  1.00  0.00    -0.399 C  
HETATM   25  C   UNL     1     -11.536  15.983  66.317  1.00  0.00     0.459 C  
ENDBRANCH   2   4
TORSDOF 1
ENDMDL
MODEL       49
REMARK 921   NORMALIZED FREE ENERGY PREDICTED BY IDOCK:   -5.44 KCAL/MOL
REMARK 922        TOTAL FREE ENERGY PREDICTED BY IDOCK:   -5.33 KCAL/MOL
REMARK 923 INTER-LIGAND FREE ENERGY PREDICTED BY IDOCK:   -5.36 KCAL/MOL
REMARK 924 INTRA-LIGAND FREE ENERGY PREDICTED BY IDOCK:    0.03 KCAL/MOL
REMARK 927      BINDING AFFINITY PREDICTED BY RF-SCORE:    0.00 PKD
ROOT
HETATM    1  C   UNL     1     -12.114  13.030  65.930  1.00  0.00    -0.503 C  
HETATM    2  C   UNL     1     -11.759  13.688  67.244  1.00  0.00    -0.380 C  
HETATM    3  O   UNL     1     -12.023  14.886  67.420  1.00  0.00    -0.309 OA 
ENDROOT
BRANCH   2   4
HETATM    4  C   UNL     1     -11.015  12.827  68.346  1.00  0.00    -0.254 C  
HETATM    5  O   UNL     1     -11.284  13.491  69.609  1.00  0.00    -0.422 OA 
HETATM    6  C   UNL     1     -11.852  11.541  68.342  1.00  0.00    -0.353 C  
HETATM    7  C   UNL     1     -11.085  10.765  69.343  1.00  0.00    -0.324 C  
HETATM    8  H   UNL     1     -10.838  12.974  70.269  1.00  0.00     0.000 HD 
HETATM    9  C   UNL     1      -9.706  10.874  68.701  1.00  0.00    -0.188 C  
HETATM   10  C   UNL     1      -9.495   9.950  67.468  1.00  0.00    -0.173 C  
HETATM   11  C   UNL     1     -10.328   8.705  67.503  1.00  0.00    -0.336 C  
HETATM   12  C   UNL     1      -9.983   7.507  67.012  1.00  0.00    -0.304 C  
HETATM   13  C   UNL     1     -10.962   6.372  67.182  1.00  0.00    -0.476 C  
HETATM   14  C   UNL     1      -8.754   7.365  66.261  1.00  0.00    -0.163 C  
HETATM   15  C   UNL     1      -8.552   6.259  65.519  1.00  0.00    -0.124 C  
HETATM   16  C   UNL     1      -7.313   6.162  64.759  1.00  0.00    -0.075 C  
HETATM   17  O   UNL     1      -7.275   5.591  63.672  1.00  0.00    -0.046 OA 
HETATM   18  C   UNL     1      -6.091   6.680  65.481  1.00  0.00    -0.038 C  
HETATM   19  C   UNL     1      -6.299   8.105  66.012  1.00  0.00    -0.046 C  
HETATM   20  C   UNL     1      -7.775   8.564  66.196  1.00  0.00    -0.093 C  
HETATM   21  C   UNL     1      -7.998   9.618  67.353  1.00  0.00    -0.106 C  
HETATM   22  C   UNL     1      -7.307  10.997  67.243  1.00  0.00    -0.106 C  
HETATM   23  C   UNL     1      -7.810  12.030  68.343  1.00  0.00    -0.147 C  
HETATM   24  C   UNL     1      -9.369  12.498  68.399  1.00  0.00    -0.149 C  
HETATM   25  C   UNL     1      -9.113  13.345  67.067  1.00  0.00    -0.245 C  
ENDBRANCH   2   4
TORSDOF 1
ENDMDL
MODEL       50
REMARK 921   NORMALIZED FREE ENERGY PREDICTED BY IDOCK:   -5.43 KCAL/MOL
REMARK 922        TOTAL FREE ENERGY PREDICTED BY IDOCK:   -5.32 KCAL/MOL
REMARK 923 INTER-LIGAND FREE ENERGY PREDICTED BY IDOCK:   -5.38 KCAL/MOL
REMARK 924 INTRA-LIGAND FREE ENERGY PREDICTED BY IDOCK:    0.06 KCAL/MOL
REMARK 927      BINDING AFFINITY PREDICTED BY RF-SCORE:    0.00 PKD
ROOT
HETATM    1  C   UNL     1      -9.197  11.372  68.583  1.00  0.00    -0.149 C  
HETATM    2  C   UNL     1      -9.058   9.909  68.938  1.00  0.00    -0.156 C  
HETATM    3  O   UNL     1      -7.946   9.459  69.250  1.00  0.00    -0.085 OA 
ENDROOT
BRANCH   2   4
HETATM    4  C   UNL     1     -10.341   8.984  68.856  1.00  0.00    -0.215 C  
HETATM    5  O   UNL     1     -11.256   9.665  67.959  1.00  0.00    -0.513 OA 
HETATM    6  C   UNL     1      -9.794   7.775  68.087  1.00  0.00    -0.190 C  
HETATM    7  C   UNL     1     -11.012   6.933  68.087  1.00  0.00    -0.220 C  
HETATM    8  H   UNL     1     -12.026   9.110  67.909  1.00  0.00     0.000 HD 
HETATM    9  C   UNL     1     -11.278   6.925  69.589  1.00  0.00    -0.289 C  
HETATM   10  C   UNL     1     -10.340   5.990  70.405  1.00  0.00    -0.282 C  
HETATM   11  C   UNL     1      -9.830   4.822  69.619  1.00  0.00    -0.292 C  
HETATM   12  C   UNL     1      -9.563   3.599  70.100  1.00  0.00    -0.242 C  
HETATM   13  C   UNL     1      -9.085   2.552  69.125  1.00  0.00    -0.188 C  
HETATM   14  C   UNL     1      -9.641   3.355  71.525  1.00  0.00    -0.233 C  
HETATM   15  C   UNL     1      -9.091   2.238  72.039  1.00  0.00    -0.134 C  
HETATM   16  C   UNL     1      -9.170   2.038  73.480  1.00  0.00    -0.075 C  
HETATM   17  O   UNL     1      -8.272   1.469  74.094  1.00  0.00    -0.044 OA 
HETATM   18  C   UNL     1     -10.486   2.447  74.099  1.00  0.00    -0.204 C  
HETATM   19  C   UNL     1     -10.875   3.883  73.723  1.00  0.00    -0.326 C  
HETATM   20  C   UNL     1     -10.208   4.467  72.443  1.00  0.00    -0.255 C  
HETATM   21  C   UNL     1     -11.083   5.532  71.670  1.00  0.00    -0.192 C  
HETATM   22  C   UNL     1     -11.458   6.847  72.392  1.00  0.00    -0.297 C  
HETATM   23  C   UNL     1     -12.126   7.916  71.422  1.00  0.00    -0.333 C  
HETATM   24  C   UNL     1     -11.307   8.515  70.148  1.00  0.00    -0.072 C  
HETATM   25  C   UNL     1     -10.404   9.341  71.178  1.00  0.00    -0.392 C  
ENDBRANCH   2   4
TORSDOF 1
ENDMDL
MODEL       51
REMARK 921   NORMALIZED FREE ENERGY PREDICTED BY IDOCK:   -5.40 KCAL/MOL
REMARK 922        TOTAL FREE ENERGY PREDICTED BY IDOCK:   -5.29 KCAL/MOL
REMARK 923 INTER-LIGAND FREE ENERGY PREDICTED BY IDOCK:   -5.32 KCAL/MOL
REMARK 924 INTRA-LIGAND FREE ENERGY PREDICTED BY IDOCK:    0.02 KCAL/MOL
REMARK 927      BINDING AFFINITY PREDICTED BY RF-SCORE:    0.00 PKD
ROOT
HETATM    1  C   UNL     1     -11.851  13.822  68.613  1.00  0.00    -0.409 C  
HETATM    2  C   UNL     1     -11.150  14.251  67.344  1.00  0.00    -0.304 C  
HETATM    3  O   UNL     1     -11.600  15.200  66.687  1.00  0.00    -0.263 OA 
ENDROOT
BRANCH   2   4
HETATM    4  C   UNL     1      -9.876  13.435  66.870  1.00  0.00    -0.256 C  
HETATM    5  O   UNL     1      -9.121  14.346  66.029  1.00  0.00    -0.502 OA 
HETATM    6  C   UNL     1      -9.095  13.304  68.184  1.00  0.00    -0.207 C  
HETATM    7  C   UNL     1      -7.954  12.497  67.691  1.00  0.00    -0.170 C  
HETATM    8  H   UNL     1      -8.357  13.857  65.745  1.00  0.00     0.000 HD 
HETATM    9  C   UNL     1      -8.744  11.354  67.063  1.00  0.00    -0.160 C  
HETATM   10  C   UNL     1      -9.332  10.339  68.084  1.00  0.00    -0.144 C  
HETATM   11  C   UNL     1      -8.539  10.238  69.351  1.00  0.00    -0.167 C  
HETATM   12  C   UNL     1      -8.377   9.138  70.099  1.00  0.00    -0.174 C  
HETATM   13  C   UNL     1      -7.508   9.247  71.327  1.00  0.00     0.012 C  
HETATM   14  C   UNL     1      -9.107   7.932  69.770  1.00  0.00    -0.146 C  
HETATM   15  C   UNL     1      -9.185   6.935  70.673  1.00  0.00    -0.158 C  
HETATM   16  C   UNL     1      -9.948   5.746  70.315  1.00  0.00    -0.198 C  
HETATM   17  O   UNL     1     -10.572   5.111  71.160  1.00  0.00    -0.205 OA 
HETATM   18  C   UNL     1      -9.778   5.300  68.881  1.00  0.00    -0.207 C  
HETATM   19  C   UNL     1     -10.043   6.441  67.889  1.00  0.00    -0.170 C  
HETATM   20  C   UNL     1      -9.922   7.887  68.453  1.00  0.00    -0.198 C  
HETATM   21  C   UNL     1      -9.464   8.970  67.397  1.00  0.00    -0.179 C  
HETATM   22  C   UNL     1     -10.370   9.242  66.173  1.00  0.00    -0.118 C  
HETATM   23  C   UNL     1      -9.910  10.512  65.334  1.00  0.00    -0.335 C  
HETATM   24  C   UNL     1      -9.889  11.996  66.006  1.00  0.00    -0.258 C  
HETATM   25  C   UNL     1     -11.489  11.983  65.968  1.00  0.00    -0.399 C  
ENDBRANCH   2   4
TORSDOF 1
ENDMDL
MODEL       52
REMARK 921   NORMALIZED FREE ENERGY PREDICTED BY IDOCK:   -5.33 KCAL/MOL
REMARK 922        TOTAL FREE ENERGY PREDICTED BY IDOCK:   -5.22 KCAL/MOL
REMARK 923 INTER-LIGAND FREE ENERGY PREDICTED BY IDOCK:   -5.29 KCAL/MOL
REMARK 924 INTRA-LIGAND FREE ENERGY PREDICTED BY IDOCK:    0.08 KCAL/MOL
REMARK 927      BINDING AFFINITY PREDICTED BY RF-SCORE:    0.00 PKD
ROOT
HETATM    1  C   UNL     1     -11.946  13.210  69.795  1.00  0.00    -0.382 C  
HETATM    2  C   UNL     1     -11.870  14.657  69.362  1.00  0.00    -0.329 C  
HETATM    3  O   UNL     1     -12.652  15.484  69.852  1.00  0.00    -0.300 OA 
ENDROOT
BRANCH   2   4
HETATM    4  C   UNL     1     -10.814  15.061  68.252  1.00  0.00    -0.259 C  
HETATM    5  O   UNL     1     -10.667  16.501  68.360  1.00  0.00    -0.305 OA 
HETATM    6  C   UNL     1      -9.528  14.448  68.821  1.00  0.00    -0.161 C  
HETATM    7  C   UNL     1      -8.598  14.810  67.727  1.00  0.00    -0.169 C  
HETATM    8  H   UNL     1     -10.034  16.744  67.695  1.00  0.00     0.000 HD 
HETATM    9  C   UNL     1      -9.376  14.206  66.563  1.00  0.00    -0.285 C  
HETATM   10  C   UNL     1      -9.278  12.657  66.457  1.00  0.00    -0.200 C  
HETATM   11  C   UNL     1      -8.007  12.099  67.021  1.00  0.00    -0.138 C  
HETATM   12  C   UNL     1      -7.351  11.017  66.576  1.00  0.00    -0.144 C  
HETATM   13  C   UNL     1      -6.066  10.643  67.271  1.00  0.00    -0.055 C  
HETATM   14  C   UNL     1      -7.936  10.201  65.533  1.00  0.00    -0.146 C  
HETATM   15  C   UNL     1      -7.442   8.970  65.297  1.00  0.00    -0.093 C  
HETATM   16  C   UNL     1      -8.071   8.169  64.256  1.00  0.00    -0.127 C  
HETATM   17  O   UNL     1      -8.146   6.947  64.349  1.00  0.00    -0.120 OA 
HETATM   18  C   UNL     1      -8.471   8.946  63.023  1.00  0.00    -0.170 C  
HETATM   19  C   UNL     1      -9.331  10.169  63.368  1.00  0.00    -0.334 C  
HETATM   20  C   UNL     1      -9.223  10.698  64.828  1.00  0.00    -0.255 C  
HETATM   21  C   UNL     1      -9.462  12.253  64.986  1.00  0.00     0.132 C  
HETATM   22  C   UNL     1     -10.843  12.832  64.599  1.00  0.00    -0.361 C  
HETATM   23  C   UNL     1     -11.018  14.352  65.033  1.00  0.00    -0.398 C  
HETATM   24  C   UNL     1     -10.958  14.786  66.602  1.00  0.00    -0.326 C  
HETATM   25  C   UNL     1     -12.386  14.091  66.799  1.00  0.00    -0.368 C  
ENDBRANCH   2   4
TORSDOF 1
ENDMDL
MODEL       53
REMARK 921   NORMALIZED FREE ENERGY PREDICTED BY IDOCK:   -5.32 KCAL/MOL
REMARK 922        TOTAL FREE ENERGY PREDICTED BY IDOCK:   -5.20 KCAL/MOL
REMARK 923 INTER-LIGAND FREE ENERGY PREDICTED BY IDOCK:   -5.27 KCAL/MOL
REMARK 924 INTRA-LIGAND FREE ENERGY PREDICTED BY IDOCK:    0.07 KCAL/MOL
REMARK 927      BINDING AFFINITY PREDICTED BY RF-SCORE:    0.00 PKD
ROOT
HETATM    1  C   UNL     1      -9.033   7.430  74.564  1.00  0.00    -0.122 C  
HETATM    2  C   UNL     1      -9.076   8.038  73.181  1.00  0.00    -0.275 C  
HETATM    3  O   UNL     1      -8.172   8.806  72.823  1.00  0.00    -0.407 OA 
ENDROOT
BRANCH   2   4
HETATM    4  C   UNL     1     -10.310   7.705  72.245  1.00  0.00    -0.224 C  
HETATM    5  O   UNL     1     -11.446   7.555  73.135  1.00  0.00    -0.601 OA 
HETATM    6  C   UNL     1     -10.503   9.039  71.512  1.00  0.00    -0.410 C  
HETATM    7  C   UNL     1     -11.624   8.653  70.624  1.00  0.00    -0.225 C  
HETATM    8  H   UNL     1     -12.186   7.355  72.574  1.00  0.00     0.000 HD 
HETATM    9  C   UNL     1     -10.988   7.424  69.983  1.00  0.00    -0.264 C  
HETATM   10  C   UNL     1      -9.921   7.744  68.897  1.00  0.00    -0.185 C  
HETATM   11  C   UNL     1     -10.147   9.053  68.204  1.00  0.00    -0.229 C  
HETATM   12  C   UNL     1      -9.858   9.332  66.925  1.00  0.00    -0.276 C  
HETATM   13  C   UNL     1     -10.197  10.711  66.416  1.00  0.00    -0.291 C  
HETATM   14  C   UNL     1      -9.153   8.359  66.119  1.00  0.00    -0.238 C  
HETATM   15  C   UNL     1      -8.600   8.739  64.950  1.00  0.00    -0.177 C  
HETATM   16  C   UNL     1      -7.879   7.737  64.177  1.00  0.00    -0.133 C  
HETATM   17  O   UNL     1      -6.899   8.037  63.502  1.00  0.00    -0.073 OA 
HETATM   18  C   UNL     1      -8.522   6.370  64.167  1.00  0.00     0.204 C  
HETATM   19  C   UNL     1      -8.815   5.862  65.584  1.00  0.00    -0.126 C  
HETATM   20  C   UNL     1      -8.907   6.944  66.700  1.00  0.00    -0.140 C  
HETATM   21  C   UNL     1      -9.877   6.580  67.894  1.00  0.00    -0.134 C  
HETATM   22  C   UNL     1      -9.555   5.339  68.759  1.00  0.00    -0.187 C  
HETATM   23  C   UNL     1     -10.469   5.237  70.056  1.00  0.00    -0.351 C  
HETATM   24  C   UNL     1     -10.433   6.397  71.199  1.00  0.00    -0.265 C  
HETATM   25  C   UNL     1      -8.985   5.867  71.623  1.00  0.00    -0.142 C  
ENDBRANCH   2   4
TORSDOF 1
ENDMDL
MODEL       54
REMARK 921   NORMALIZED FREE ENERGY PREDICTED BY IDOCK:   -5.29 KCAL/MOL
REMARK 922        TOTAL FREE ENERGY PREDICTED BY IDOCK:   -5.17 KCAL/MOL
REMARK 923 INTER-LIGAND FREE ENERGY PREDICTED BY IDOCK:   -5.23 KCAL/MOL
REMARK 924 INTRA-LIGAND FREE ENERGY PREDICTED BY IDOCK:    0.05 KCAL/MOL
REMARK 927      BINDING AFFINITY PREDICTED BY RF-SCORE:    0.00 PKD
ROOT
HETATM    1  C   UNL     1      -9.994  19.133  68.061  1.00  0.00    -0.458 C  
HETATM    2  C   UNL     1      -9.374  17.758  67.971  1.00  0.00    -0.276 C  
HETATM    3  O   UNL     1      -8.290  17.537  68.531  1.00  0.00    -0.263 OA 
ENDROOT
BRANCH   2   4
HETATM    4  C   UNL     1     -10.115  16.647  67.117  1.00  0.00    -0.276 C  
HETATM    5  O   UNL     1     -10.833  17.365  66.081  1.00  0.00    -0.152 OA 
HETATM    6  C   UNL     1      -8.931  15.955  66.429  1.00  0.00    -0.361 C  
HETATM    7  C   UNL     1      -9.675  14.905  65.695  1.00  0.00    -0.326 C  
HETATM    8  H   UNL     1     -11.277  16.699  65.569  1.00  0.00     0.000 HD 
HETATM    9  C   UNL     1     -10.433  14.303  66.873  1.00  0.00    -0.272 C  
HETATM   10  C   UNL     1      -9.574  13.389  67.793  1.00  0.00    -0.213 C  
HETATM   11  C   UNL     1      -8.431  12.731  67.082  1.00  0.00    -0.181 C  
HETATM   12  C   UNL     1      -7.927  11.517  67.347  1.00  0.00    -0.143 C  
HETATM   13  C   UNL     1      -6.790  11.028  66.486  1.00  0.00    -0.132 C  
HETATM   14  C   UNL     1      -8.410  10.773  68.491  1.00  0.00    -0.138 C  
HETATM   15  C   UNL     1      -7.713   9.709  68.935  1.00  0.00    -0.077 C  
HETATM   16  C   UNL     1      -8.218   8.999  70.102  1.00  0.00    -0.136 C  
HETATM   17  O   UNL     1      -7.455   8.478  70.911  1.00  0.00    -0.059 OA 
HETATM   18  C   UNL     1      -9.720   8.839  70.138  1.00  0.00    -0.188 C  
HETATM   19  C   UNL     1     -10.445  10.179  69.956  1.00  0.00    -0.325 C  
HETATM   20  C   UNL     1      -9.628  11.319  69.278  1.00  0.00     0.144 C  
HETATM   21  C   UNL     1     -10.496  12.350  68.452  1.00  0.00    -0.245 C  
HETATM   22  C   UNL     1     -11.553  13.196  69.201  1.00  0.00    -0.368 C  
HETATM   23  C   UNL     1     -12.173  14.350  68.298  1.00  0.00    -0.160 C  
HETATM   24  C   UNL     1     -11.234  15.537  67.697  1.00  0.00    -0.291 C  
HETATM   25  C   UNL     1     -11.121  16.132  69.178  1.00  0.00    -0.329 C  
ENDBRANCH   2   4
TORSDOF 1
ENDMDL
MODEL       55
REMARK 921   NORMALIZED FREE ENERGY PREDICTED BY IDOCK:   -5.28 KCAL/MOL
REMARK 922        TOTAL FREE ENERGY PREDICTED BY IDOCK:   -5.17 KCAL/MOL
REMARK 923 INTER-LIGAND FREE ENERGY PREDICTED BY IDOCK:   -5.28 KCAL/MOL
REMARK 924 INTRA-LIGAND FREE ENERGY PREDICTED BY IDOCK:    0.11 KCAL/MOL
REMARK 927      BINDING AFFINITY PREDICTED BY RF-SCORE:    0.00 PKD
ROOT
HETATM    1  C   UNL     1      -9.063   8.017  65.568  1.00  0.00     0.010 C  
HETATM    2  C   UNL     1      -8.432   9.356  65.260  1.00  0.00    -0.149 C  
HETATM    3  O   UNL     1      -7.940   9.558  64.141  1.00  0.00    -0.122 OA 
ENDROOT
BRANCH   2   4
HETATM    4  C   UNL     1      -8.382  10.450  66.405  1.00  0.00    -0.139 C  
HETATM    5  O   UNL     1      -8.083  11.703  65.735  1.00  0.00    -0.357 OA 
HETATM    6  C   UNL     1      -9.857  10.520  66.822  1.00  0.00    -0.237 C  
HETATM    7  C   UNL     1      -9.739  11.510  67.917  1.00  0.00    -0.187 C  
HETATM    8  H   UNL     1      -8.053  12.359  66.421  1.00  0.00     0.000 HD 
HETATM    9  C   UNL     1      -8.663  10.807  68.739  1.00  0.00    -0.163 C  
HETATM   10  C   UNL     1      -9.176   9.594  69.567  1.00  0.00    -0.214 C  
HETATM   11  C   UNL     1     -10.618   9.702  69.955  1.00  0.00    -0.300 C  
HETATM   12  C   UNL     1     -11.172   9.233  71.083  1.00  0.00    -0.413 C  
HETATM   13  C   UNL     1     -12.646   9.477  71.294  1.00  0.00    -0.425 C  
HETATM   14  C   UNL     1     -10.380   8.434  71.994  1.00  0.00    -0.374 C  
HETATM   15  C   UNL     1     -10.994   7.718  72.956  1.00  0.00    -0.442 C  
HETATM   16  C   UNL     1     -10.165   6.909  73.839  1.00  0.00    -0.367 C  
HETATM   17  O   UNL     1     -10.568   5.839  74.288  1.00  0.00    -0.253 OA 
HETATM   18  C   UNL     1      -8.869   7.563  74.257  1.00  0.00    -0.247 C  
HETATM   19  C   UNL     1      -8.061   8.059  73.051  1.00  0.00    -0.222 C  
HETATM   20  C   UNL     1      -8.859   8.292  71.735  1.00  0.00    -0.230 C  
HETATM   21  C   UNL     1      -8.275   9.426  70.801  1.00  0.00    -0.173 C  
HETATM   22  C   UNL     1      -6.854   9.245  70.217  1.00  0.00    -0.071 C  
HETATM   23  C   UNL     1      -6.497  10.335  69.114  1.00  0.00    -0.050 C  
HETATM   24  C   UNL     1      -7.358  10.443  67.736  1.00  0.00    -0.087 C  
HETATM   25  C   UNL     1      -6.678   9.076  67.259  1.00  0.00    -0.069 C  
ENDBRANCH   2   4
TORSDOF 1
ENDMDL
MODEL       56
REMARK 921   NORMALIZED FREE ENERGY PREDICTED BY IDOCK:   -5.25 KCAL/MOL
REMARK 922        TOTAL FREE ENERGY PREDICTED BY IDOCK:   -5.13 KCAL/MOL
REMARK 923 INTER-LIGAND FREE ENERGY PREDICTED BY IDOCK:   -5.21 KCAL/MOL
REMARK 924 INTRA-LIGAND FREE ENERGY PREDICTED BY IDOCK:    0.08 KCAL/MOL
REMARK 927      BINDING AFFINITY PREDICTED BY RF-SCORE:    0.00 PKD
ROOT
HETATM    1  C   UNL     1      -7.812  19.797  66.874  1.00  0.00    -0.313 C  
HETATM    2  C   UNL     1      -8.140  18.341  66.630  1.00  0.00    -0.260 C  
HETATM    3  O   UNL     1      -7.867  17.828  65.535  1.00  0.00    -0.451 OA 
ENDROOT
BRANCH   2   4
HETATM    4  C   UNL     1      -8.869  17.526  67.777  1.00  0.00    -0.241 C  
HETATM    5  O   UNL     1      -9.418  18.524  68.676  1.00  0.00    -0.333 OA 
HETATM    6  C   UNL     1     -10.057  16.927  67.013  1.00  0.00    -0.289 C  
HETATM    7  C   UNL     1     -10.665  16.143  68.114  1.00  0.00    -0.315 C  
HETATM    8  H   UNL     1      -9.855  18.036  69.364  1.00  0.00     0.000 HD 
HETATM    9  C   UNL     1      -9.434  15.340  68.522  1.00  0.00    -0.200 C  
HETATM   10  C   UNL     1      -9.081  14.169  67.560  1.00  0.00    -0.195 C  
HETATM   11  C   UNL     1     -10.268  13.611  66.837  1.00  0.00    -0.261 C  
HETATM   12  C   UNL     1     -10.443  12.333  66.470  1.00  0.00    -0.254 C  
HETATM   13  C   UNL     1     -11.733  11.975  65.775  1.00  0.00    -0.313 C  
HETATM   14  C   UNL     1      -9.371  11.379  66.656  1.00  0.00    -0.198 C  
HETATM   15  C   UNL     1      -9.423  10.189  66.027  1.00  0.00    -0.248 C  
HETATM   16  C   UNL     1      -8.315   9.264  66.220  1.00  0.00    -0.122 C  
HETATM   17  O   UNL     1      -7.951   8.508  65.323  1.00  0.00    -0.106 OA 
HETATM   18  C   UNL     1      -7.774   9.219  67.630  1.00  0.00    -0.092 C  
HETATM   19  C   UNL     1      -7.418  10.616  68.154  1.00  0.00    -0.090 C  
HETATM   20  C   UNL     1      -8.109  11.817  67.442  1.00  0.00    -0.161 C  
HETATM   21  C   UNL     1      -8.350  13.079  68.361  1.00  0.00    -0.118 C  
HETATM   22  C   UNL     1      -7.123  13.803  68.963  1.00  0.00    -0.088 C  
HETATM   23  C   UNL     1      -7.500  15.183  69.658  1.00  0.00    -0.181 C  
HETATM   24  C   UNL     1      -8.154  16.402  68.799  1.00  0.00    -0.234 C  
HETATM   25  C   UNL     1      -6.727  16.618  68.108  1.00  0.00    -0.148 C  
ENDBRANCH   2   4
TORSDOF 1
ENDMDL
MODEL       57
REMARK 921   NORMALIZED FREE ENERGY PREDICTED BY IDOCK:   -5.24 KCAL/MOL
REMARK 922        TOTAL FREE ENERGY PREDICTED BY IDOCK:   -5.13 KCAL/MOL
REMARK 923 INTER-LIGAND FREE ENERGY PREDICTED BY IDOCK:   -6.12 KCAL/MOL
REMARK 924 INTRA-LIGAND FREE ENERGY PREDICTED BY IDOCK:    0.99 KCAL/MOL
REMARK 927      BINDING AFFINITY PREDICTED BY RF-SCORE:    0.00 PKD
ROOT
HETATM    1  C   UNL     1     -10.766  19.267  65.603  1.00  0.00    -0.335 C  
HETATM    2  C   UNL     1     -10.569  17.775  65.746  1.00  0.00    -0.175 C  
HETATM    3  O   UNL     1     -11.197  17.002  65.009  1.00  0.00    -0.435 OA 
ENDROOT
BRANCH   2   4
HETATM    4  C   UNL     1      -9.590  17.245  66.874  1.00  0.00    -0.268 C  
HETATM    5  O   UNL     1      -8.463  18.159  66.874  1.00  0.00    -0.239 OA 
HETATM    6  C   UNL     1     -10.398  17.549  68.142  1.00  0.00    -0.375 C  
HETATM    7  C   UNL     1      -9.464  16.989  69.147  1.00  0.00    -0.108 C  
HETATM    8  H   UNL     1      -7.876  17.842  67.550  1.00  0.00     0.000 HD 
HETATM    9  C   UNL     1      -9.314  15.591  68.558  1.00  0.00    -0.197 C  
HETATM   10  C   UNL     1     -10.528  14.651  68.811  1.00  0.00    -0.246 C  
HETATM   11  C   UNL     1     -11.288  14.979  70.059  1.00  0.00    -0.305 C  
HETATM   12  C   UNL     1     -11.917  14.104  70.857  1.00  0.00    -0.371 C  
HETATM   13  C   UNL     1     -12.599  14.644  72.089  1.00  0.00    -0.404 C  
HETATM   14  C   UNL     1     -12.007  12.713  70.467  1.00  0.00    -0.279 C  
HETATM   15  C   UNL     1     -12.879  11.901  71.096  1.00  0.00    -0.346 C  
HETATM   16  C   UNL     1     -12.958  10.513  70.660  1.00  0.00    -0.285 C  
HETATM   17  O   UNL     1     -14.018   9.895  70.689  1.00  0.00     0.082 OA 
HETATM   18  C   UNL     1     -11.625   9.884  70.325  1.00  0.00    -0.319 C  
HETATM   19  C   UNL     1     -10.827  10.729  69.323  1.00  0.00    -0.287 C  
HETATM   20  C   UNL     1     -11.217  12.233  69.223  1.00  0.00    -0.275 C  
HETATM   21  C   UNL     1     -10.030  13.197  68.824  1.00  0.00    -0.038 C  
HETATM   22  C   UNL     1      -9.355  13.010  67.446  1.00  0.00    -0.209 C  
HETATM   23  C   UNL     1      -8.352  14.191  67.084  1.00  0.00    -0.189 C  
HETATM   24  C   UNL     1      -8.883  15.723  66.934  1.00  0.00    -0.273 C  
HETATM   25  C   UNL     1      -9.589  15.293  65.565  1.00  0.00    -0.243 C  
ENDBRANCH   2   4
TORSDOF 1
ENDMDL
MODEL       58
REMARK 921   NORMALIZED FREE ENERGY PREDICTED BY IDOCK:   -5.23 KCAL/MOL
REMARK 922        TOTAL FREE ENERGY PREDICTED BY IDOCK:   -5.11 KCAL/MOL
REMARK 923 INTER-LIGAND FREE ENERGY PREDICTED BY IDOCK:   -5.12 KCAL/MOL
REMARK 924 INTRA-LIGAND FREE ENERGY PREDICTED BY IDOCK:    0.00 KCAL/MOL
REMARK 927      BINDING AFFINITY PREDICTED BY RF-SCORE:    0.00 PKD
ROOT
HETATM    1  C   UNL     1     -10.313   7.511  66.889  1.00  0.00    -0.379 C  
HETATM    2  C   UNL     1      -8.874   7.545  66.427  1.00  0.00    -0.156 C  
HETATM    3  O   UNL     1      -8.131   6.583  66.666  1.00  0.00    -0.107 OA 
ENDROOT
BRANCH   2   4
HETATM    4  C   UNL     1      -8.349   8.842  65.683  1.00  0.00    -0.139 C  
HETATM    5  O   UNL     1      -7.515   8.359  64.598  1.00  0.00    -0.089 OA 
HETATM    6  C   UNL     1      -9.640   9.367  65.042  1.00  0.00    -0.126 C  
HETATM    7  C   UNL     1      -9.099  10.595  64.412  1.00  0.00    -0.240 C  
HETATM    8  H   UNL     1      -7.200   9.137  64.152  1.00  0.00     0.000 HD 
HETATM    9  C   UNL     1      -8.459  11.217  65.648  1.00  0.00    -0.043 C  
HETATM   10  C   UNL     1      -9.467  11.877  66.632  1.00  0.00    -0.217 C  
HETATM   11  C   UNL     1     -10.712  12.378  65.967  1.00  0.00    -0.294 C  
HETATM   12  C   UNL     1     -11.427  13.453  66.329  1.00  0.00    -0.354 C  
HETATM   13  C   UNL     1     -12.636  13.803  65.498  1.00  0.00    -0.551 C  
HETATM   14  C   UNL     1     -11.083  14.169  67.540  1.00  0.00    -0.304 C  
HETATM   15  C   UNL     1     -11.960  15.046  68.065  1.00  0.00    -0.167 C  
HETATM   16  C   UNL     1     -11.589  15.730  69.296  1.00  0.00    -0.373 C  
HETATM   17  O   UNL     1     -12.432  16.031  70.137  1.00  0.00    -0.243 OA 
HETATM   18  C   UNL     1     -10.140  16.154  69.366  1.00  0.00    -0.256 C  
HETATM   19  C   UNL     1      -9.186  14.988  69.078  1.00  0.00    -0.205 C  
HETATM   20  C   UNL     1      -9.784  13.784  68.293  1.00  0.00    -0.231 C  
HETATM   21  C   UNL     1      -8.747  13.002  67.392  1.00  0.00    -0.205 C  
HETATM   22  C   UNL     1      -7.553  12.299  68.079  1.00  0.00    -0.126 C  
HETATM   23  C   UNL     1      -6.737  11.360  67.087  1.00  0.00    -0.121 C  
HETATM   24  C   UNL     1      -7.447  10.080  66.373  1.00  0.00    -0.104 C  
HETATM   25  C   UNL     1      -7.447   9.347  67.794  1.00  0.00    -0.087 C  
ENDBRANCH   2   4
TORSDOF 1
ENDMDL
MODEL       59
REMARK 921   NORMALIZED FREE ENERGY PREDICTED BY IDOCK:   -5.21 KCAL/MOL
REMARK 922        TOTAL FREE ENERGY PREDICTED BY IDOCK:   -5.09 KCAL/MOL
REMARK 923 INTER-LIGAND FREE ENERGY PREDICTED BY IDOCK:   -5.27 KCAL/MOL
REMARK 924 INTRA-LIGAND FREE ENERGY PREDICTED BY IDOCK:    0.18 KCAL/MOL
REMARK 927      BINDING AFFINITY PREDICTED BY RF-SCORE:    0.00 PKD
ROOT
HETATM    1  C   UNL     1      -9.706  11.187  64.795  1.00  0.00    -0.303 C  
HETATM    2  C   UNL     1     -10.011  10.297  65.978  1.00  0.00    -0.245 C  
HETATM    3  O   UNL     1     -10.274   9.100  65.791  1.00  0.00    -0.139 OA 
ENDROOT
BRANCH   2   4
HETATM    4  C   UNL     1     -10.030  10.940  67.426  1.00  0.00    -0.186 C  
HETATM    5  O   UNL     1      -9.901  12.371  67.219  1.00  0.00    -0.203 OA 
HETATM    6  C   UNL     1     -11.483  10.690  67.849  1.00  0.00    -0.261 C  
HETATM    7  C   UNL     1     -11.425  11.261  69.215  1.00  0.00    -0.369 C  
HETATM    8  H   UNL     1      -9.912  12.756  68.087  1.00  0.00     0.000 HD 
HETATM    9  C   UNL     1     -10.243  10.455  69.743  1.00  0.00    -0.228 C  
HETATM   10  C   UNL     1     -10.582   8.982  70.113  1.00  0.00    -0.250 C  
HETATM   11  C   UNL     1     -12.009   8.781  70.523  1.00  0.00     0.025 C  
HETATM   12  C   UNL     1     -12.456   7.898  71.427  1.00  0.00    -0.330 C  
HETATM   13  C   UNL     1     -13.937   7.881  71.716  1.00  0.00    -0.483 C  
HETATM   14  C   UNL     1     -11.541   6.939  72.009  1.00  0.00    -0.322 C  
HETATM   15  C   UNL     1     -12.028   5.873  72.673  1.00  0.00    -0.123 C  
HETATM   16  C   UNL     1     -11.077   4.919  73.226  1.00  0.00    -0.337 C  
HETATM   17  O   UNL     1     -11.339   3.721  73.287  1.00  0.00    -0.177 OA 
HETATM   18  C   UNL     1      -9.843   5.543  73.834  1.00  0.00    -0.180 C  
HETATM   19  C   UNL     1      -9.149   6.508  72.864  1.00  0.00    -0.135 C  
HETATM   20  C   UNL     1     -10.027   7.074  71.709  1.00  0.00    -0.187 C  
HETATM   21  C   UNL     1      -9.613   8.516  71.212  1.00  0.00    -0.264 C  
HETATM   22  C   UNL     1      -8.209   8.713  70.594  1.00  0.00    -0.147 C  
HETATM   23  C   UNL     1      -8.023  10.144  69.925  1.00  0.00    -0.149 C  
HETATM   24  C   UNL     1      -8.952  10.607  68.670  1.00  0.00    -0.170 C  
HETATM   25  C   UNL     1      -8.148   9.571  67.754  1.00  0.00    -0.106 C  
ENDBRANCH   2   4
TORSDOF 1
ENDMDL
MODEL       60
REMARK 921   NORMALIZED FREE ENERGY PREDICTED BY IDOCK:   -5.18 KCAL/MOL
REMARK 922        TOTAL FREE ENERGY PREDICTED BY IDOCK:   -5.06 KCAL/MOL
REMARK 923 INTER-LIGAND FREE ENERGY PREDICTED BY IDOCK:   -5.21 KCAL/MOL
REMARK 924 INTRA-LIGAND FREE ENERGY PREDICTED BY IDOCK:    0.14 KCAL/MOL
REMARK 927      BINDING AFFINITY PREDICTED BY RF-SCORE:    0.00 PKD
ROOT
HETATM    1  C   UNL     1      -8.472  19.107  68.192  1.00  0.00    -0.355 C  
HETATM    2  C   UNL     1      -8.715  17.806  67.461  1.00  0.00    -0.239 C  
HETATM    3  O   UNL     1      -8.429  17.718  66.258  1.00  0.00    -0.373 OA 
ENDROOT
BRANCH   2   4
HETATM    4  C   UNL     1      -9.377  16.604  68.253  1.00  0.00    -0.224 C  
HETATM    5  O   UNL     1      -9.826  17.167  69.513  1.00  0.00    -0.056 OA 
HETATM    6  C   UNL     1     -10.636  16.346  67.416  1.00  0.00    -0.306 C  
HETATM    7  C   UNL     1     -11.179  15.191  68.168  1.00  0.00    -0.326 C  
HETATM    8  H   UNL     1     -10.223  16.446  69.988  1.00  0.00     0.000 HD 
HETATM    9  C   UNL     1      -9.943  14.298  68.128  1.00  0.00    -0.230 C  
HETATM   10  C   UNL     1      -9.698  13.599  66.760  1.00  0.00    -0.275 C  
HETATM   11  C   UNL     1     -10.952  13.364  65.975  1.00  0.00    -0.281 C  
HETATM   12  C   UNL     1     -11.191  12.331  65.154  1.00  0.00    -0.369 C  
HETATM   13  C   UNL     1     -12.540  12.268  64.482  1.00  0.00    -0.416 C  
HETATM   14  C   UNL     1     -10.135  11.385  64.864  1.00  0.00    -0.323 C  
HETATM   15  C   UNL     1     -10.269  10.537  63.826  1.00  0.00    -0.155 C  
HETATM   16  C   UNL     1      -9.175   9.615  63.551  1.00  0.00    -0.098 C  
HETATM   17  O   UNL     1      -8.903   9.273  62.403  1.00  0.00    -0.231 OA 
HETATM   18  C   UNL     1      -8.529   9.023  64.782  1.00  0.00    -0.197 C  
HETATM   19  C   UNL     1      -8.095  10.105  65.779  1.00  0.00    -0.142 C  
HETATM   20  C   UNL     1      -8.804  11.486  65.652  1.00  0.00    -0.016 C  
HETATM   21  C   UNL     1      -8.939  12.286  67.008  1.00  0.00    -0.204 C  
HETATM   22  C   UNL     1      -7.649  12.722  67.742  1.00  0.00    -0.141 C  
HETATM   23  C   UNL     1      -7.932  13.717  68.950  1.00  0.00     0.061 C  
HETATM   24  C   UNL     1      -8.617  15.172  68.692  1.00  0.00    -0.172 C  
HETATM   25  C   UNL     1      -7.242  15.647  68.027  1.00  0.00    -0.140 C  
ENDBRANCH   2   4
TORSDOF 1
ENDMDL
MODEL       61
REMARK 921   NORMALIZED FREE ENERGY PREDICTED BY IDOCK:   -5.11 KCAL/MOL
REMARK 922        TOTAL FREE ENERGY PREDICTED BY IDOCK:   -4.99 KCAL/MOL
REMARK 923 INTER-LIGAND FREE ENERGY PREDICTED BY IDOCK:   -4.98 KCAL/MOL
REMARK 924 INTRA-LIGAND FREE ENERGY PREDICTED BY IDOCK:   -0.01 KCAL/MOL
REMARK 927      BINDING AFFINITY PREDICTED BY RF-SCORE:    0.00 PKD
ROOT
HETATM    1  C   UNL     1      -6.566   8.819  66.213  1.00  0.00    -0.066 C  
HETATM    2  C   UNL     1      -7.685   9.758  65.821  1.00  0.00    -0.110 C  
HETATM    3  O   UNL     1      -7.417  10.817  65.236  1.00  0.00    -0.050 OA 
ENDROOT
BRANCH   2   4
HETATM    4  C   UNL     1      -9.170   9.372  66.215  1.00  0.00    -0.180 C  
HETATM    5  O   UNL     1      -9.992   9.788  65.093  1.00  0.00    -0.379 OA 
HETATM    6  C   UNL     1      -9.108   7.840  66.165  1.00  0.00    -0.199 C  
HETATM    7  C   UNL     1     -10.496   7.541  66.588  1.00  0.00    -0.201 C  
HETATM    8  H   UNL     1     -10.882   9.557  65.329  1.00  0.00     0.000 HD 
HETATM    9  C   UNL     1     -10.512   8.342  67.885  1.00  0.00    -0.255 C  
HETATM   10  C   UNL     1      -9.752   7.672  69.066  1.00  0.00    -0.160 C  
HETATM   11  C   UNL     1      -9.716   6.176  68.981  1.00  0.00    -0.157 C  
HETATM   12  C   UNL     1      -9.725   5.324  70.016  1.00  0.00    -0.263 C  
HETATM   13  C   UNL     1      -9.717   3.848  69.708  1.00  0.00    -0.227 C  
HETATM   14  C   UNL     1      -9.640   5.835  71.368  1.00  0.00    -0.188 C  
HETATM   15  C   UNL     1      -9.347   4.994  72.379  1.00  0.00    -0.157 C  
HETATM   16  C   UNL     1      -9.248   5.549  73.723  1.00  0.00    -0.126 C  
HETATM   17  O   UNL     1      -8.456   5.094  74.543  1.00  0.00    -0.109 OA 
HETATM   18  C   UNL     1     -10.283   6.601  74.045  1.00  0.00    -0.395 C  
HETATM   19  C   UNL     1     -10.315   7.717  72.993  1.00  0.00    -0.410 C  
HETATM   20  C   UNL     1      -9.724   7.366  71.596  1.00  0.00    -0.169 C  
HETATM   21  C   UNL     1     -10.382   8.143  70.387  1.00  0.00    -0.208 C  
HETATM   22  C   UNL     1     -10.258   9.684  70.342  1.00  0.00    -0.348 C  
HETATM   23  C   UNL     1     -10.750  10.303  68.961  1.00  0.00    -0.257 C  
HETATM   24  C   UNL     1     -10.010   9.919  67.562  1.00  0.00    -0.229 C  
HETATM   25  C   UNL     1      -8.762  10.801  68.035  1.00  0.00    -0.132 C  
ENDBRANCH   2   4
TORSDOF 1
ENDMDL
MODEL       62
REMARK 921   NORMALIZED FREE ENERGY PREDICTED BY IDOCK:   -5.08 KCAL/MOL
REMARK 922        TOTAL FREE ENERGY PREDICTED BY IDOCK:   -4.96 KCAL/MOL
REMARK 923 INTER-LIGAND FREE ENERGY PREDICTED BY IDOCK:   -5.02 KCAL/MOL
REMARK 924 INTRA-LIGAND FREE ENERGY PREDICTED BY IDOCK:    0.06 KCAL/MOL
REMARK 927      BINDING AFFINITY PREDICTED BY RF-SCORE:    0.00 PKD
ROOT
HETATM    1  C   UNL     1      -5.947   9.146  64.189  1.00  0.00    -0.071 C  
HETATM    2  C   UNL     1      -6.508   8.472  65.421  1.00  0.00    -0.056 C  
HETATM    3  O   UNL     1      -5.761   8.233  66.380  1.00  0.00    -0.038 OA 
ENDROOT
BRANCH   2   4
HETATM    4  C   UNL     1      -8.035   8.051  65.426  1.00  0.00    -0.121 C  
HETATM    5  O   UNL     1      -8.425   7.979  64.029  1.00  0.00    -0.380 OA 
HETATM    6  C   UNL     1      -7.949   6.605  65.930  1.00  0.00    -0.112 C  
HETATM    7  C   UNL     1      -9.396   6.287  65.962  1.00  0.00    -0.068 C  
HETATM    8  H   UNL     1      -9.340   7.727  64.032  1.00  0.00     0.000 HD 
HETATM    9  C   UNL     1      -9.862   7.454  66.826  1.00  0.00    -0.290 C  
HETATM   10  C   UNL     1      -9.549   7.299  68.342  1.00  0.00    -0.139 C  
HETATM   11  C   UNL     1      -9.475   5.873  68.794  1.00  0.00    -0.143 C  
HETATM   12  C   UNL     1      -9.833   5.404  69.998  1.00  0.00    -0.274 C  
HETATM   13  C   UNL     1      -9.709   3.920  70.238  1.00  0.00    -0.245 C  
HETATM   14  C   UNL     1     -10.221   6.329  71.043  1.00  0.00    -0.234 C  
HETATM   15  C   UNL     1     -10.287   5.902  72.318  1.00  0.00    -0.236 C  
HETATM   16  C   UNL     1     -10.659   6.866  73.344  1.00  0.00    -0.344 C  
HETATM   17  O   UNL     1     -10.195   6.801  74.479  1.00  0.00    -0.321 OA 
HETATM   18  C   UNL     1     -11.750   7.828  72.935  1.00  0.00    -0.231 C  
HETATM   19  C   UNL     1     -11.426   8.534  71.611  1.00  0.00    -0.365 C  
HETATM   20  C   UNL     1     -10.389   7.828  70.688  1.00  0.00    -0.202 C  
HETATM   21  C   UNL     1     -10.597   8.087  69.143  1.00  0.00    -0.181 C  
HETATM   22  C   UNL     1     -10.477   9.535  68.612  1.00  0.00    -0.237 C  
HETATM   23  C   UNL     1     -10.469   9.611  67.023  1.00  0.00    -0.302 C  
HETATM   24  C   UNL     1      -9.291   8.893  66.158  1.00  0.00    -0.301 C  
HETATM   25  C   UNL     1      -8.288  10.028  66.671  1.00  0.00    -0.125 C  
ENDBRANCH   2   4
TORSDOF 1
ENDMDL
MODEL       63
REMARK 921   NORMALIZED FREE ENERGY PREDICTED BY IDOCK:   -5.08 KCAL/MOL
REMARK 922        TOTAL FREE ENERGY PREDICTED BY IDOCK:   -4.95 KCAL/MOL
REMARK 923 INTER-LIGAND FREE ENERGY PREDICTED BY IDOCK:   -5.05 KCAL/MOL
REMARK 924 INTRA-LIGAND FREE ENERGY PREDICTED BY IDOCK:    0.10 KCAL/MOL
REMARK 927      BINDING AFFINITY PREDICTED BY RF-SCORE:    0.00 PKD
ROOT
HETATM    1  C   UNL     1      -9.050   3.743  67.306  1.00  0.00    -0.181 C  
HETATM    2  C   UNL     1      -9.203   5.247  67.328  1.00  0.00    -0.113 C  
HETATM    3  O   UNL     1      -9.730   5.822  66.365  1.00  0.00    -0.155 OA 
ENDROOT
BRANCH   2   4
HETATM    4  C   UNL     1      -8.638   6.048  68.573  1.00  0.00    -0.111 C  
HETATM    5  O   UNL     1      -7.760   5.124  69.266  1.00  0.00    -0.074 OA 
HETATM    6  C   UNL     1      -7.732   7.077  67.884  1.00  0.00    -0.113 C  
HETATM    7  C   UNL     1      -7.279   7.821  69.082  1.00  0.00    -0.082 C  
HETATM    8  H   UNL     1      -7.422   5.605  70.012  1.00  0.00     0.000 HD 
HETATM    9  C   UNL     1      -8.647   8.160  69.665  1.00  0.00    -0.131 C  
HETATM   10  C   UNL     1      -9.392   9.314  68.934  1.00  0.00    -0.150 C  
HETATM   11  C   UNL     1      -8.472  10.297  68.278  1.00  0.00    -0.121 C  
HETATM   12  C   UNL     1      -8.692  11.612  68.133  1.00  0.00    -0.159 C  
HETATM   13  C   UNL     1      -7.615  12.433  67.467  1.00  0.00    -0.155 C  
HETATM   14  C   UNL     1      -9.969  12.174  68.518  1.00  0.00    -0.180 C  
HETATM   15  C   UNL     1     -10.303  13.411  68.103  1.00  0.00    -0.249 C  
HETATM   16  C   UNL     1     -11.606  13.934  68.492  1.00  0.00    -0.332 C  
HETATM   17  O   UNL     1     -12.239  14.683  67.753  1.00  0.00    -0.254 OA 
HETATM   18  C   UNL     1     -12.019  13.600  69.907  1.00  0.00    -0.415 C  
HETATM   19  C   UNL     1     -11.926  12.095  70.192  1.00  0.00    -0.394 C  
HETATM   20  C   UNL     1     -10.989  11.273  69.259  1.00  0.00    -0.297 C  
HETATM   21  C   UNL     1     -10.329  10.006  69.937  1.00  0.00    -0.315 C  
HETATM   22  C   UNL     1     -11.251   8.873  70.445  1.00  0.00    -0.259 C  
HETATM   23  C   UNL     1     -10.447   7.571  70.878  1.00  0.00    -0.218 C  
HETATM   24  C   UNL     1      -9.552   6.744  69.798  1.00  0.00    -0.153 C  
HETATM   25  C   UNL     1     -10.913   6.235  69.130  1.00  0.00    -0.442 C  
ENDBRANCH   2   4
TORSDOF 1
ENDMDL
MODEL       64
REMARK 921   NORMALIZED FREE ENERGY PREDICTED BY IDOCK:   -5.06 KCAL/MOL
REMARK 922        TOTAL FREE ENERGY PREDICTED BY IDOCK:   -4.93 KCAL/MOL
REMARK 923 INTER-LIGAND FREE ENERGY PREDICTED BY IDOCK:   -4.98 KCAL/MOL
REMARK 924 INTRA-LIGAND FREE ENERGY PREDICTED BY IDOCK:    0.06 KCAL/MOL
REMARK 927      BINDING AFFINITY PREDICTED BY RF-SCORE:    0.00 PKD
ROOT
HETATM    1  C   UNL     1      -9.005   6.447  66.220  1.00  0.00    -0.166 C  
HETATM    2  C   UNL     1      -8.545   7.883  66.328  1.00  0.00    -0.149 C  
HETATM    3  O   UNL     1      -8.077   8.452  65.331  1.00  0.00    -0.116 OA 
ENDROOT
BRANCH   2   4
HETATM    4  C   UNL     1      -8.636   8.604  67.736  1.00  0.00    -0.136 C  
HETATM    5  O   UNL     1      -8.465   7.555  68.723  1.00  0.00    -0.128 OA 
HETATM    6  C   UNL     1      -7.339   9.424  67.740  1.00  0.00    -0.083 C  
HETATM    7  C   UNL     1      -7.505  10.108  69.044  1.00  0.00    -0.091 C  
HETATM    8  H   UNL     1      -8.519   7.987  69.568  1.00  0.00     0.000 HD 
HETATM    9  C   UNL     1      -8.884  10.713  68.804  1.00  0.00    -0.161 C  
HETATM   10  C   UNL     1      -8.886  11.962  67.876  1.00  0.00    -0.172 C  
HETATM   11  C   UNL     1      -7.604  12.736  67.911  1.00  0.00    -0.138 C  
HETATM   12  C   UNL     1      -7.475  14.063  67.772  1.00  0.00    -0.169 C  
HETATM   13  C   UNL     1      -6.088  14.647  67.872  1.00  0.00    -0.162 C  
HETATM   14  C   UNL     1      -8.632  14.865  67.434  1.00  0.00    -0.208 C  
HETATM   15  C   UNL     1      -8.461  16.129  67.001  1.00  0.00    -0.238 C  
HETATM   16  C   UNL     1      -9.647  16.898  66.650  1.00  0.00    -0.267 C  
HETATM   17  O   UNL     1      -9.624  17.728  65.745  1.00  0.00    -0.519 OA 
HETATM   18  C   UNL     1     -10.825  16.692  67.574  1.00  0.00    -0.221 C  
HETATM   19  C   UNL     1     -11.166  15.206  67.746  1.00  0.00    -0.327 C  
HETATM   20  C   UNL     1     -10.029  14.194  67.421  1.00  0.00    -0.240 C  
HETATM   21  C   UNL     1     -10.085  12.849  68.249  1.00  0.00    -0.242 C  
HETATM   22  C   UNL     1     -11.314  11.925  68.078  1.00  0.00    -0.352 C  
HETATM   23  C   UNL     1     -11.124  10.510  68.778  1.00  0.00    -0.315 C  
HETATM   24  C   UNL     1      -9.939   9.496  68.307  1.00  0.00    -0.184 C  
HETATM   25  C   UNL     1     -10.766   9.229  66.965  1.00  0.00    -0.199 C  
ENDBRANCH   2   4
TORSDOF 1
ENDMDL
MODEL       65
REMARK 921   NORMALIZED FREE ENERGY PREDICTED BY IDOCK:   -4.96 KCAL/MOL
REMARK 922        TOTAL FREE ENERGY PREDICTED BY IDOCK:   -4.83 KCAL/MOL
REMARK 923 INTER-LIGAND FREE ENERGY PREDICTED BY IDOCK:   -5.27 KCAL/MOL
REMARK 924 INTRA-LIGAND FREE ENERGY PREDICTED BY IDOCK:    0.44 KCAL/MOL
REMARK 927      BINDING AFFINITY PREDICTED BY RF-SCORE:    0.00 PKD
ROOT
HETATM    1  C   UNL     1     -11.346  14.924  65.045  1.00  0.00    -0.398 C  
HETATM    2  C   UNL     1     -10.744  14.037  66.110  1.00  0.00    -0.289 C  
HETATM    3  O   UNL     1      -9.870  14.492  66.862  1.00  0.00    -0.249 OA 
ENDROOT
BRANCH   2   4
HETATM    4  C   UNL     1     -11.223  12.530  66.202  1.00  0.00    -0.321 C  
HETATM    5  O   UNL     1     -12.341  12.419  65.282  1.00  0.00    -0.563 OA 
HETATM    6  C   UNL     1     -10.045  11.798  65.546  1.00  0.00    -0.285 C  
HETATM    7  C   UNL     1     -10.523  10.405  65.707  1.00  0.00    -0.187 C  
HETATM    8  H   UNL     1     -12.628  11.515  65.336  1.00  0.00     0.000 HD 
HETATM    9  C   UNL     1     -10.771  10.425  67.211  1.00  0.00    -0.331 C  
HETATM   10  C   UNL     1      -9.482  10.337  68.077  1.00  0.00    -0.156 C  
HETATM   11  C   UNL     1      -8.357   9.613  67.403  1.00  0.00    -0.114 C  
HETATM   12  C   UNL     1      -7.427   8.857  68.005  1.00  0.00    -0.092 C  
HETATM   13  C   UNL     1      -6.396   8.187  67.132  1.00  0.00    -0.056 C  
HETATM   14  C   UNL     1      -7.381   8.791  69.451  1.00  0.00    -0.072 C  
HETATM   15  C   UNL     1      -6.288   8.291  70.059  1.00  0.00    -0.035 C  
HETATM   16  C   UNL     1      -6.269   8.261  71.515  1.00  0.00    -0.041 C  
HETATM   17  O   UNL     1      -5.225   8.416  72.142  1.00  0.00    -0.035 OA 
HETATM   18  C   UNL     1      -7.586   7.883  72.152  1.00  0.00    -0.103 C  
HETATM   19  C   UNL     1      -8.743   8.749  71.637  1.00  0.00    -0.255 C  
HETATM   20  C   UNL     1      -8.521   9.452  70.266  1.00  0.00    -0.237 C  
HETATM   21  C   UNL     1      -9.838   9.687  69.424  1.00  0.00    -0.203 C  
HETATM   22  C   UNL     1     -10.940  10.600  70.011  1.00  0.00    -0.325 C  
HETATM   23  C   UNL     1     -12.087  10.936  68.962  1.00  0.00    -0.240 C  
HETATM   24  C   UNL     1     -11.753  11.742  67.587  1.00  0.00    -0.320 C  
HETATM   25  C   UNL     1     -11.545  13.061  68.468  1.00  0.00    -0.363 C  
ENDBRANCH   2   4
TORSDOF 1
ENDMDL
MODEL       66
REMARK 921   NORMALIZED FREE ENERGY PREDICTED BY IDOCK:   -4.92 KCAL/MOL
REMARK 922        TOTAL FREE ENERGY PREDICTED BY IDOCK:   -4.79 KCAL/MOL
REMARK 923 INTER-LIGAND FREE ENERGY PREDICTED BY IDOCK:   -4.84 KCAL/MOL
REMARK 924 INTRA-LIGAND FREE ENERGY PREDICTED BY IDOCK:    0.05 KCAL/MOL
REMARK 927      BINDING AFFINITY PREDICTED BY RF-SCORE:    0.00 PKD
ROOT
HETATM    1  C   UNL     1      -9.244   2.525  64.134  1.00  0.00    -0.122 C  
HETATM    2  C   UNL     1      -9.617   3.784  64.885  1.00  0.00    -0.177 C  
HETATM    3  O   UNL     1     -10.757   4.253  64.762  1.00  0.00    -0.236 OA 
ENDROOT
BRANCH   2   4
HETATM    4  C   UNL     1      -8.513   4.490  65.775  1.00  0.00    -0.115 C  
HETATM    5  O   UNL     1      -7.245   4.185  65.140  1.00  0.00    -0.068 OA 
HETATM    6  C   UNL     1      -8.798   5.971  65.492  1.00  0.00    -0.083 C  
HETATM    7  C   UNL     1      -7.780   6.575  66.382  1.00  0.00    -0.099 C  
HETATM    8  H   UNL     1      -6.583   4.609  65.673  1.00  0.00     0.000 HD 
HETATM    9  C   UNL     1      -8.174   5.874  67.678  1.00  0.00    -0.105 C  
HETATM   10  C   UNL     1      -9.453   6.444  68.356  1.00  0.00    -0.119 C  
HETATM   11  C   UNL     1      -9.694   7.892  68.056  1.00  0.00    -0.182 C  
HETATM   12  C   UNL     1     -10.254   8.789  68.881  1.00  0.00    -0.221 C  
HETATM   13  C   UNL     1     -10.375  10.210  68.391  1.00  0.00    -0.210 C  
HETATM   14  C   UNL     1     -10.808   8.354  70.146  1.00  0.00    -0.238 C  
HETATM   15  C   UNL     1     -11.627   9.176  70.830  1.00  0.00    -0.350 C  
HETATM   16  C   UNL     1     -12.182   8.695  72.088  1.00  0.00    -0.386 C  
HETATM   17  O   UNL     1     -13.305   9.027  72.457  1.00  0.00    -0.453 OA 
HETATM   18  C   UNL     1     -11.217   7.901  72.937  1.00  0.00    -0.429 C  
HETATM   19  C   UNL     1     -10.570   6.754  72.150  1.00  0.00    -0.237 C  
HETATM   20  C   UNL     1     -10.577   6.891  70.599  1.00  0.00    -0.248 C  
HETATM   21  C   UNL     1      -9.360   6.194  69.870  1.00  0.00    -0.161 C  
HETATM   22  C   UNL     1      -9.200   4.660  69.996  1.00  0.00    -0.186 C  
HETATM   23  C   UNL     1      -8.087   4.074  69.023  1.00  0.00    -0.075 C  
HETATM   24  C   UNL     1      -8.232   4.211  67.407  1.00  0.00    -0.099 C  
HETATM   25  C   UNL     1      -9.401   3.121  67.467  1.00  0.00    -0.241 C  
ENDBRANCH   2   4
TORSDOF 1
ENDMDL
MODEL       67
REMARK 921   NORMALIZED FREE ENERGY PREDICTED BY IDOCK:   -4.85 KCAL/MOL
REMARK 922        TOTAL FREE ENERGY PREDICTED BY IDOCK:   -4.70 KCAL/MOL
REMARK 923 INTER-LIGAND FREE ENERGY PREDICTED BY IDOCK:   -4.82 KCAL/MOL
REMARK 924 INTRA-LIGAND FREE ENERGY PREDICTED BY IDOCK:    0.11 KCAL/MOL
REMARK 927      BINDING AFFINITY PREDICTED BY RF-SCORE:    0.00 PKD
ROOT
HETATM    1  C   UNL     1      -8.719   4.946  74.041  1.00  0.00    -0.111 C  
HETATM    2  C   UNL     1      -9.080   6.027  73.048  1.00  0.00    -0.130 C  
HETATM    3  O   UNL     1      -8.564   7.149  73.151  1.00  0.00    -0.118 OA 
ENDROOT
BRANCH   2   4
HETATM    4  C   UNL     1     -10.150   5.699  71.927  1.00  0.00    -0.189 C  
HETATM    5  O   UNL     1     -11.157   4.880  72.576  1.00  0.00    -0.184 OA 
HETATM    6  C   UNL     1     -10.786   7.077  71.703  1.00  0.00    -0.244 C  
HETATM    7  C   UNL     1     -11.731   6.720  70.619  1.00  0.00    -0.440 C  
HETATM    8  H   UNL     1     -11.799   4.684  71.903  1.00  0.00     0.000 HD 
HETATM    9  C   UNL     1     -10.735   6.084  69.655  1.00  0.00    -0.405 C  
HETATM   10  C   UNL     1      -9.852   7.102  68.877  1.00  0.00    -0.156 C  
HETATM   11  C   UNL     1     -10.510   8.434  68.677  1.00  0.00    -0.197 C  
HETATM   12  C   UNL     1     -10.352   9.245  67.621  1.00  0.00    -0.311 C  
HETATM   13  C   UNL     1     -11.136  10.533  67.604  1.00  0.00    -0.375 C  
HETATM   14  C   UNL     1      -9.378   8.916  66.602  1.00  0.00    -0.237 C  
HETATM   15  C   UNL     1      -9.002   9.856  65.714  1.00  0.00    -0.189 C  
HETATM   16  C   UNL     1      -8.003   9.495  64.717  1.00  0.00    -0.123 C  
HETATM   17  O   UNL     1      -7.188  10.315  64.304  1.00  0.00    -0.133 OA 
HETATM   18  C   UNL     1      -8.158   8.103  64.149  1.00  0.00    -0.128 C  
HETATM   19  C   UNL     1      -8.242   7.039  65.252  1.00  0.00    -0.128 C  
HETATM   20  C   UNL     1      -8.668   7.539  66.663  1.00  0.00    -0.146 C  
HETATM   21  C   UNL     1      -9.443   6.474  67.535  1.00  0.00    -0.131 C  
HETATM   22  C   UNL     1      -8.714   5.168  67.930  1.00  0.00    -0.102 C  
HETATM   23  C   UNL     1      -9.521   4.309  68.998  1.00  0.00    -0.242 C  
HETATM   24  C   UNL     1      -9.851   4.907  70.476  1.00  0.00    -0.297 C  
HETATM   25  C   UNL     1      -8.302   4.739  70.838  1.00  0.00    -0.101 C  
ENDBRANCH   2   4
TORSDOF 1
ENDMDL
MODEL       68
REMARK 921   NORMALIZED FREE ENERGY PREDICTED BY IDOCK:   -4.84 KCAL/MOL
REMARK 922        TOTAL FREE ENERGY PREDICTED BY IDOCK:   -4.70 KCAL/MOL
REMARK 923 INTER-LIGAND FREE ENERGY PREDICTED BY IDOCK:   -4.70 KCAL/MOL
REMARK 924 INTRA-LIGAND FREE ENERGY PREDICTED BY IDOCK:   -0.01 KCAL/MOL
REMARK 927      BINDING AFFINITY PREDICTED BY RF-SCORE:    0.00 PKD
ROOT
HETATM    1  C   UNL     1     -13.033   7.371  71.391  1.00  0.00    -0.403 C  
HETATM    2  C   UNL     1     -12.001   8.368  71.864  1.00  0.00    -0.338 C  
HETATM    3  O   UNL     1     -12.370   9.457  72.329  1.00  0.00    -0.324 OA 
ENDROOT
BRANCH   2   4
HETATM    4  C   UNL     1     -10.467   8.003  71.708  1.00  0.00    -0.229 C  
HETATM    5  O   UNL     1      -9.824   8.493  72.914  1.00  0.00    -0.225 OA 
HETATM    6  C   UNL     1     -10.506   6.474  71.826  1.00  0.00    -0.239 C  
HETATM    7  C   UNL     1      -9.067   6.191  71.622  1.00  0.00    -0.147 C  
HETATM    8  H   UNL     1      -8.905   8.274  72.820  1.00  0.00     0.000 HD 
HETATM    9  C   UNL     1      -8.879   6.930  70.302  1.00  0.00    -0.148 C  
HETATM   10  C   UNL     1      -9.447   6.185  69.060  1.00  0.00    -0.138 C  
HETATM   11  C   UNL     1      -9.466   4.695  69.213  1.00  0.00    -0.231 C  
HETATM   12  C   UNL     1      -9.291   3.796  68.235  1.00  0.00    -0.225 C  
HETATM   13  C   UNL     1      -9.317   2.336  68.613  1.00  0.00    -0.238 C  
HETATM   14  C   UNL     1      -9.189   4.240  66.861  1.00  0.00    -0.160 C  
HETATM   15  C   UNL     1      -9.318   3.345  65.862  1.00  0.00    -0.145 C  
HETATM   16  C   UNL     1      -9.232   3.833  64.492  1.00  0.00    -0.144 C  
HETATM   17  O   UNL     1      -9.887   3.319  63.590  1.00  0.00    -0.128 OA 
HETATM   18  C   UNL     1      -8.181   4.895  64.269  1.00  0.00    -0.121 C  
HETATM   19  C   UNL     1      -8.322   6.060  65.257  1.00  0.00    -0.148 C  
HETATM   20  C   UNL     1      -9.102   5.760  66.571  1.00  0.00    -0.144 C  
HETATM   21  C   UNL     1      -8.642   6.610  67.821  1.00  0.00    -0.121 C  
HETATM   22  C   UNL     1      -8.799   8.148  67.770  1.00  0.00    -0.130 C  
HETATM   23  C   UNL     1      -8.524   8.844  69.173  1.00  0.00    -0.132 C  
HETATM   24  C   UNL     1      -9.451   8.507  70.469  1.00  0.00    -0.193 C  
HETATM   25  C   UNL     1     -10.634   9.333  69.778  1.00  0.00    -0.244 C  
ENDBRANCH   2   4
TORSDOF 1
ENDMDL
MODEL       69
REMARK 921   NORMALIZED FREE ENERGY PREDICTED BY IDOCK:   -4.83 KCAL/MOL
REMARK 922        TOTAL FREE ENERGY PREDICTED BY IDOCK:   -4.68 KCAL/MOL
REMARK 923 INTER-LIGAND FREE ENERGY PREDICTED BY IDOCK:   -4.73 KCAL/MOL
REMARK 924 INTRA-LIGAND FREE ENERGY PREDICTED BY IDOCK:    0.05 KCAL/MOL
REMARK 927      BINDING AFFINITY PREDICTED BY RF-SCORE:    0.00 PKD
ROOT
HETATM    1  C   UNL     1     -10.630  18.308  66.450  1.00  0.00    -0.318 C  
HETATM    2  C   UNL     1     -10.471  16.812  66.302  1.00  0.00    -0.261 C  
HETATM    3  O   UNL     1     -10.618  16.289  65.188  1.00  0.00    -0.576 OA 
ENDROOT
BRANCH   2   4
HETATM    4  C   UNL     1     -10.163  15.951  67.596  1.00  0.00    -0.263 C  
HETATM    5  O   UNL     1     -10.675  16.726  68.711  1.00  0.00    -0.316 OA 
HETATM    6  C   UNL     1     -11.123  14.770  67.409  1.00  0.00    -0.327 C  
HETATM    7  C   UNL     1     -10.755  13.983  68.609  1.00  0.00    -0.269 C  
HETATM    8  H   UNL     1     -10.490  16.210  69.487  1.00  0.00     0.000 HD 
HETATM    9  C   UNL     1      -9.252  13.895  68.366  1.00  0.00    -0.194 C  
HETATM   10  C   UNL     1      -8.836  12.870  67.272  1.00  0.00    -0.206 C  
HETATM   11  C   UNL     1      -9.798  11.731  67.122  1.00  0.00    -0.207 C  
HETATM   12  C   UNL     1      -9.487  10.470  66.789  1.00  0.00    -0.190 C  
HETATM   13  C   UNL     1     -10.610   9.466  66.724  1.00  0.00    -0.210 C  
HETATM   14  C   UNL     1      -8.129  10.142  66.408  1.00  0.00    -0.122 C  
HETATM   15  C   UNL     1      -7.877   8.972  65.791  1.00  0.00    -0.098 C  
HETATM   16  C   UNL     1      -6.502   8.686  65.403  1.00  0.00    -0.063 C  
HETATM   17  O   UNL     1      -6.246   8.041  64.390  1.00  0.00    -0.055 OA 
HETATM   18  C   UNL     1      -5.463   9.114  66.413  1.00  0.00    -0.045 C  
HETATM   19  C   UNL     1      -5.625  10.586  66.815  1.00  0.00    -0.051 C  
HETATM   20  C   UNL     1      -7.027  11.218  66.571  1.00  0.00    -0.100 C  
HETATM   21  C   UNL     1      -7.418  12.367  67.584  1.00  0.00    -0.138 C  
HETATM   22  C   UNL     1      -6.555  13.650  67.618  1.00  0.00    -0.176 C  
HETATM   23  C   UNL     1      -7.200  14.806  68.500  1.00  0.00    -0.115 C  
HETATM   24  C   UNL     1      -8.646  15.446  68.110  1.00  0.00    -0.152 C  
HETATM   25  C   UNL     1      -7.938  16.166  66.869  1.00  0.00    -0.279 C  
ENDBRANCH   2   4
TORSDOF 1
ENDMDL
MODEL       70
REMARK 921   NORMALIZED FREE ENERGY PREDICTED BY IDOCK:   -4.78 KCAL/MOL
REMARK 922        TOTAL FREE ENERGY PREDICTED BY IDOCK:   -4.64 KCAL/MOL
REMARK 923 INTER-LIGAND FREE ENERGY PREDICTED BY IDOCK:   -4.74 KCAL/MOL
REMARK 924 INTRA-LIGAND FREE ENERGY PREDICTED BY IDOCK:    0.10 KCAL/MOL
REMARK 927      BINDING AFFINITY PREDICTED BY RF-SCORE:    0.00 PKD
ROOT
HETATM    1  C   UNL     1     -13.224  15.682  71.257  1.00  0.00    -0.515 C  
HETATM    2  C   UNL     1     -11.833  15.280  70.821  1.00  0.00    -0.338 C  
HETATM    3  O   UNL     1     -10.915  15.256  71.652  1.00  0.00    -0.296 OA 
ENDROOT
BRANCH   2   4
HETATM    4  C   UNL     1     -11.587  14.944  69.292  1.00  0.00    -0.306 C  
HETATM    5  O   UNL     1     -12.403  15.885  68.549  1.00  0.00    -0.371 OA 
HETATM    6  C   UNL     1     -10.131  15.394  69.115  1.00  0.00    -0.235 C  
HETATM    7  C   UNL     1      -9.944  15.010  67.696  1.00  0.00    -0.225 C  
HETATM    8  H   UNL     1     -12.255  15.683  67.632  1.00  0.00     0.000 HD 
HETATM    9  C   UNL     1     -10.367  13.549  67.803  1.00  0.00    -0.241 C  
HETATM   10  C   UNL     1      -9.301  12.616  68.446  1.00  0.00    -0.148 C  
HETATM   11  C   UNL     1      -7.894  13.089  68.248  1.00  0.00    -0.143 C  
HETATM   12  C   UNL     1      -6.810  12.313  68.104  1.00  0.00    -0.078 C  
HETATM   13  C   UNL     1      -5.483  12.997  67.882  1.00  0.00    -0.116 C  
HETATM   14  C   UNL     1      -6.926  10.879  68.264  1.00  0.00    -0.069 C  
HETATM   15  C   UNL     1      -5.814  10.135  68.420  1.00  0.00    -0.041 C  
HETATM   16  C   UNL     1      -5.973   8.699  68.601  1.00  0.00    -0.045 C  
HETATM   17  O   UNL     1      -5.202   8.057  69.310  1.00  0.00    -0.025 OA 
HETATM   18  C   UNL     1      -7.046   8.072  67.742  1.00  0.00    -0.086 C  
HETATM   19  C   UNL     1      -8.392   8.794  67.887  1.00  0.00    -0.118 C  
HETATM   20  C   UNL     1      -8.337  10.257  68.419  1.00  0.00    -0.119 C  
HETATM   21  C   UNL     1      -9.496  11.194  67.894  1.00  0.00    -0.178 C  
HETATM   22  C   UNL     1     -10.957  10.839  68.256  1.00  0.00    -0.307 C  
HETATM   23  C   UNL     1     -11.986  11.990  67.871  1.00  0.00    -0.204 C  
HETATM   24  C   UNL     1     -11.878  13.468  68.545  1.00  0.00    -0.398 C  
HETATM   25  C   UNL     1     -12.404  12.830  69.914  1.00  0.00    -0.138 C  
ENDBRANCH   2   4
TORSDOF 1
ENDMDL
MODEL       71
REMARK 921   NORMALIZED FREE ENERGY PREDICTED BY IDOCK:   -4.77 KCAL/MOL
REMARK 922        TOTAL FREE ENERGY PREDICTED BY IDOCK:   -4.63 KCAL/MOL
REMARK 923 INTER-LIGAND FREE ENERGY PREDICTED BY IDOCK:   -4.76 KCAL/MOL
REMARK 924 INTRA-LIGAND FREE ENERGY PREDICTED BY IDOCK:    0.13 KCAL/MOL
REMARK 927      BINDING AFFINITY PREDICTED BY RF-SCORE:    0.00 PKD
ROOT
HETATM    1  C   UNL     1     -11.030  16.635  65.025  1.00  0.00    -0.172 C  
HETATM    2  C   UNL     1     -11.037  15.134  65.206  1.00  0.00    -0.383 C  
HETATM    3  O   UNL     1     -11.073  14.398  64.209  1.00  0.00    -0.247 OA 
ENDROOT
BRANCH   2   4
HETATM    4  C   UNL     1     -11.041  14.547  66.678  1.00  0.00    -0.333 C  
HETATM    5  O   UNL     1     -11.946  15.395  67.432  1.00  0.00    -0.191 OA 
HETATM    6  C   UNL     1     -11.767  13.212  66.468  1.00  0.00    -0.433 C  
HETATM    7  C   UNL     1     -11.695  12.693  67.854  1.00  0.00    -0.412 C  
HETATM    8  H   UNL     1     -11.949  15.043  68.315  1.00  0.00     0.000 HD 
HETATM    9  C   UNL     1     -10.188  12.811  68.059  1.00  0.00    -0.228 C  
HETATM   10  C   UNL     1      -9.353  11.708  67.346  1.00  0.00    -0.168 C  
HETATM   11  C   UNL     1     -10.096  10.420  67.164  1.00  0.00    -0.254 C  
HETATM   12  C   UNL     1      -9.564   9.189  67.184  1.00  0.00    -0.215 C  
HETATM   13  C   UNL     1     -10.500   8.019  67.011  1.00  0.00    -0.410 C  
HETATM   14  C   UNL     1      -8.128   9.029  67.267  1.00  0.00    -0.103 C  
HETATM   15  C   UNL     1      -7.575   7.832  66.986  1.00  0.00    -0.100 C  
HETATM   16  C   UNL     1      -6.125   7.715  67.058  1.00  0.00    -0.051 C  
HETATM   17  O   UNL     1      -5.508   6.969  66.303  1.00  0.00    -0.022 OA 
HETATM   18  C   UNL     1      -5.492   8.458  68.212  1.00  0.00    -0.034 C  
HETATM   19  C   UNL     1      -5.925   9.929  68.255  1.00  0.00    -0.042 C  
HETATM   20  C   UNL     1      -7.249  10.281  67.513  1.00  0.00    -0.088 C  
HETATM   21  C   UNL     1      -8.049  11.496  68.131  1.00  0.00    -0.146 C  
HETATM   22  C   UNL     1      -7.380  12.890  68.149  1.00  0.00    -0.119 C  
HETATM   23  C   UNL     1      -8.383  14.050  68.573  1.00  0.00    -0.143 C  
HETATM   24  C   UNL     1      -9.704  14.380  67.680  1.00  0.00    -0.219 C  
HETATM   25  C   UNL     1      -8.738  15.001  66.566  1.00  0.00    -0.244 C  
ENDBRANCH   2   4
TORSDOF 1
ENDMDL
MODEL       72
REMARK 921   NORMALIZED FREE ENERGY PREDICTED BY IDOCK:   -4.76 KCAL/MOL
REMARK 922        TOTAL FREE ENERGY PREDICTED BY IDOCK:   -4.61 KCAL/MOL
REMARK 923 INTER-LIGAND FREE ENERGY PREDICTED BY IDOCK:   -4.61 KCAL/MOL
REMARK 924 INTRA-LIGAND FREE ENERGY PREDICTED BY IDOCK:   -0.00 KCAL/MOL
REMARK 927      BINDING AFFINITY PREDICTED BY RF-SCORE:    0.00 PKD
ROOT
HETATM    1  C   UNL     1     -12.513   7.539  71.576  1.00  0.00    -0.375 C  
HETATM    2  C   UNL     1     -11.575   6.359  71.694  1.00  0.00    -0.310 C  
HETATM    3  O   UNL     1     -11.710   5.562  72.633  1.00  0.00    -0.293 OA 
ENDROOT
BRANCH   2   4
HETATM    4  C   UNL     1     -10.412   6.207  70.628  1.00  0.00    -0.236 C  
HETATM    5  O   UNL     1     -10.124   4.786  70.566  1.00  0.00    -0.229 OA 
HETATM    6  C   UNL     1     -11.145   6.561  69.328  1.00  0.00    -0.393 C  
HETATM    7  C   UNL     1     -10.006   6.452  68.387  1.00  0.00    -0.151 C  
HETATM    8  H   UNL     1      -9.427   4.694  69.927  1.00  0.00     0.000 HD 
HETATM    9  C   UNL     1      -9.041   7.397  69.094  1.00  0.00    -0.134 C  
HETATM   10  C   UNL     1      -9.364   8.908  68.906  1.00  0.00    -0.140 C  
HETATM   11  C   UNL     1     -10.077   9.211  67.624  1.00  0.00    -0.273 C  
HETATM   12  C   UNL     1      -9.954  10.330  66.895  1.00  0.00    -0.259 C  
HETATM   13  C   UNL     1     -10.743  10.420  65.612  1.00  0.00     0.005 C  
HETATM   14  C   UNL     1      -9.166  11.434  67.400  1.00  0.00    -0.164 C  
HETATM   15  C   UNL     1      -9.283  12.649  66.831  1.00  0.00    -0.216 C  
HETATM   16  C   UNL     1      -8.491  13.741  67.382  1.00  0.00    -0.202 C  
HETATM   17  O   UNL     1      -8.913  14.893  67.391  1.00  0.00    -0.175 OA 
HETATM   18  C   UNL     1      -7.087  13.355  67.786  1.00  0.00    -0.158 C  
HETATM   19  C   UNL     1      -7.073  12.141  68.724  1.00  0.00    -0.110 C  
HETATM   20  C   UNL     1      -8.334  11.228  68.691  1.00  0.00    -0.146 C  
HETATM   21  C   UNL     1      -8.057   9.708  69.022  1.00  0.00    -0.103 C  
HETATM   22  C   UNL     1      -7.507   9.343  70.421  1.00  0.00    -0.141 C  
HETATM   23  C   UNL     1      -7.507   7.776  70.694  1.00  0.00    -0.070 C  
HETATM   24  C   UNL     1      -8.898   6.929  70.707  1.00  0.00    -0.150 C  
HETATM   25  C   UNL     1      -9.257   7.631  72.098  1.00  0.00    -0.182 C  
ENDBRANCH   2   4
TORSDOF 1
ENDMDL
MODEL       73
REMARK 921   NORMALIZED FREE ENERGY PREDICTED BY IDOCK:   -4.75 KCAL/MOL
REMARK 922        TOTAL FREE ENERGY PREDICTED BY IDOCK:   -4.61 KCAL/MOL
REMARK 923 INTER-LIGAND FREE ENERGY PREDICTED BY IDOCK:   -4.67 KCAL/MOL
REMARK 924 INTRA-LIGAND FREE ENERGY PREDICTED BY IDOCK:    0.06 KCAL/MOL
REMARK 927      BINDING AFFINITY PREDICTED BY RF-SCORE:    0.00 PKD
ROOT
HETATM    1  C   UNL     1     -10.198  13.507  66.113  1.00  0.00    -0.303 C  
HETATM    2  C   UNL     1      -9.672  12.724  67.294  1.00  0.00    -0.206 C  
HETATM    3  O   UNL     1      -9.864  13.147  68.443  1.00  0.00    -0.228 OA 
ENDROOT
BRANCH   2   4
HETATM    4  C   UNL     1      -8.845  11.401  67.018  1.00  0.00    -0.168 C  
HETATM    5  O   UNL     1      -8.138  11.635  65.772  1.00  0.00    -0.357 OA 
HETATM    6  C   UNL     1      -7.794  11.463  68.134  1.00  0.00    -0.130 C  
HETATM    7  C   UNL     1      -7.092  10.188  67.858  1.00  0.00    -0.085 C  
HETATM    8  H   UNL     1      -7.642  10.842  65.606  1.00  0.00     0.000 HD 
HETATM    9  C   UNL     1      -8.299   9.257  67.888  1.00  0.00    -0.116 C  
HETATM   10  C   UNL     1      -8.828   8.935  69.315  1.00  0.00    -0.139 C  
HETATM   11  C   UNL     1      -7.771   9.004  70.375  1.00  0.00    -0.110 C  
HETATM   12  C   UNL     1      -7.707   8.247  71.480  1.00  0.00    -0.114 C  
HETATM   13  C   UNL     1      -6.535   8.457  72.405  1.00  0.00    -0.087 C  
HETATM   14  C   UNL     1      -8.793   7.344  71.797  1.00  0.00    -0.127 C  
HETATM   15  C   UNL     1      -8.880   6.816  73.033  1.00  0.00    -0.141 C  
HETATM   16  C   UNL     1      -9.999   5.930  73.321  1.00  0.00    -0.181 C  
HETATM   17  O   UNL     1     -10.510   5.890  74.437  1.00  0.00    -0.265 OA 
HETATM   18  C   UNL     1     -10.359   4.988  72.196  1.00  0.00    -0.276 C  
HETATM   19  C   UNL     1     -10.576   5.731  70.871  1.00  0.00    -0.329 C  
HETATM   20  C   UNL     1      -9.923   7.140  70.755  1.00  0.00    -0.194 C  
HETATM   21  C   UNL     1      -9.505   7.555  69.289  1.00  0.00    -0.154 C  
HETATM   22  C   UNL     1     -10.609   7.690  68.214  1.00  0.00    -0.175 C  
HETATM   23  C   UNL     1     -10.080   8.342  66.863  1.00  0.00    -0.364 C  
HETATM   24  C   UNL     1      -9.480   9.856  66.845  1.00  0.00    -0.202 C  
HETATM   25  C   UNL     1     -10.970  10.398  67.056  1.00  0.00    -0.222 C  
ENDBRANCH   2   4
TORSDOF 1
ENDMDL
MODEL       74
REMARK 921   NORMALIZED FREE ENERGY PREDICTED BY IDOCK:   -4.73 KCAL/MOL
REMARK 922        TOTAL FREE ENERGY PREDICTED BY IDOCK:   -4.58 KCAL/MOL
REMARK 923 INTER-LIGAND FREE ENERGY PREDICTED BY IDOCK:   -5.18 KCAL/MOL
REMARK 924 INTRA-LIGAND FREE ENERGY PREDICTED BY IDOCK:    0.59 KCAL/MOL
REMARK 927      BINDING AFFINITY PREDICTED BY RF-SCORE:    0.00 PKD
ROOT
HETATM    1  C   UNL     1     -12.760  11.993  64.283  1.00  0.00    -0.293 C  
HETATM    2  C   UNL     1     -12.392  13.031  65.319  1.00  0.00    -0.486 C  
HETATM    3  O   UNL     1     -12.996  14.113  65.343  1.00  0.00    -0.706 OA 
ENDROOT
BRANCH   2   4
HETATM    4  C   UNL     1     -11.205  12.714  66.320  1.00  0.00    -0.311 C  
HETATM    5  O   UNL     1     -10.996  13.935  67.076  1.00  0.00    -0.289 OA 
HETATM    6  C   UNL     1     -11.874  11.718  67.277  1.00  0.00    -0.186 C  
HETATM    7  C   UNL     1     -10.712  11.422  68.148  1.00  0.00    -0.241 C  
HETATM    8  H   UNL     1     -10.284  13.745  67.676  1.00  0.00     0.000 HD 
HETATM    9  C   UNL     1      -9.719  11.014  67.065  1.00  0.00    -0.208 C  
HETATM   10  C   UNL     1      -9.950   9.590  66.483  1.00  0.00    -0.329 C  
HETATM   11  C   UNL     1     -10.602   8.648  67.448  1.00  0.00    -0.298 C  
HETATM   12  C   UNL     1     -10.392   7.326  67.529  1.00  0.00    -0.310 C  
HETATM   13  C   UNL     1     -11.131   6.564  68.600  1.00  0.00    -0.348 C  
HETATM   14  C   UNL     1      -9.560   6.669  66.543  1.00  0.00    -0.187 C  
HETATM   15  C   UNL     1      -9.589   5.326  66.438  1.00  0.00    -0.171 C  
HETATM   16  C   UNL     1      -8.755   4.703  65.419  1.00  0.00    -0.134 C  
HETATM   17  O   UNL     1      -9.112   3.679  64.842  1.00  0.00    -0.124 OA 
HETATM   18  C   UNL     1      -7.389   5.328  65.256  1.00  0.00    -0.068 C  
HETATM   19  C   UNL     1      -7.475   6.845  65.041  1.00  0.00    -0.096 C  
HETATM   20  C   UNL     1      -8.784   7.538  65.522  1.00  0.00    -0.062 C  
HETATM   21  C   UNL     1      -8.604   9.038  65.985  1.00  0.00    -0.158 C  
HETATM   22  C   UNL     1      -8.122  10.081  64.949  1.00  0.00    -0.154 C  
HETATM   23  C   UNL     1      -8.220  11.575  65.485  1.00  0.00     0.422 C  
HETATM   24  C   UNL     1      -9.656  12.225  65.894  1.00  0.00    -0.207 C  
HETATM   25  C   UNL     1     -10.021  12.278  64.338  1.00  0.00    -0.231 C  
ENDBRANCH   2   4
TORSDOF 1
ENDMDL
MODEL       75
REMARK 921   NORMALIZED FREE ENERGY PREDICTED BY IDOCK:   -4.73 KCAL/MOL
REMARK 922        TOTAL FREE ENERGY PREDICTED BY IDOCK:   -4.58 KCAL/MOL
REMARK 923 INTER-LIGAND FREE ENERGY PREDICTED BY IDOCK:   -4.64 KCAL/MOL
REMARK 924 INTRA-LIGAND FREE ENERGY PREDICTED BY IDOCK:    0.06 KCAL/MOL
REMARK 927      BINDING AFFINITY PREDICTED BY RF-SCORE:    0.00 PKD
ROOT
HETATM    1  C   UNL     1     -10.547   6.669  66.770  1.00  0.00    -0.315 C  
HETATM    2  C   UNL     1      -9.699   7.897  67.014  1.00  0.00    -0.206 C  
HETATM    3  O   UNL     1      -8.667   8.069  66.350  1.00  0.00    -0.135 OA 
ENDROOT
BRANCH   2   4
HETATM    4  C   UNL     1     -10.140   8.909  68.151  1.00  0.00    -0.189 C  
HETATM    5  O   UNL     1     -11.022   8.155  69.023  1.00  0.00    -0.426 OA 
HETATM    6  C   UNL     1      -8.824   9.095  68.917  1.00  0.00    -0.139 C  
HETATM    7  C   UNL     1      -9.283  10.079  69.924  1.00  0.00    -0.195 C  
HETATM    8  H   UNL     1     -11.286   8.762  69.705  1.00  0.00     0.000 HD 
HETATM    9  C   UNL     1      -9.858  11.122  68.971  1.00  0.00    -0.132 C  
HETATM   10  C   UNL     1      -8.790  11.995  68.251  1.00  0.00    -0.182 C  
HETATM   11  C   UNL     1      -7.522  12.154  69.033  1.00  0.00     0.039 C  
HETATM   12  C   UNL     1      -6.726  13.233  69.040  1.00  0.00    -0.107 C  
HETATM   13  C   UNL     1      -5.506  13.198  69.927  1.00  0.00    -0.102 C  
HETATM   14  C   UNL     1      -6.999  14.333  68.139  1.00  0.00    -0.130 C  
HETATM   15  C   UNL     1      -6.052  15.268  67.926  1.00  0.00    -0.169 C  
HETATM   16  C   UNL     1      -6.355  16.347  66.996  1.00  0.00    -0.141 C  
HETATM   17  O   UNL     1      -5.481  16.848  66.294  1.00  0.00    -0.349 OA 
HETATM   18  C   UNL     1      -7.768  16.875  67.086  1.00  0.00    -0.210 C  
HETATM   19  C   UNL     1      -8.809  15.753  66.980  1.00  0.00    -0.241 C  
HETATM   20  C   UNL     1      -8.311  14.316  67.315  1.00  0.00    -0.222 C  
HETATM   21  C   UNL     1      -9.415  13.359  67.916  1.00  0.00    -0.216 C  
HETATM   22  C   UNL     1     -10.647  13.012  67.047  1.00  0.00    -0.262 C  
HETATM   23  C   UNL     1     -11.544  11.860  67.679  1.00  0.00    -0.382 C  
HETATM   24  C   UNL     1     -10.939  10.368  67.921  1.00  0.00    -0.354 C  
HETATM   25  C   UNL     1     -10.972  10.150  66.337  1.00  0.00     0.123 C  
ENDBRANCH   2   4
TORSDOF 1
ENDMDL
MODEL       76
REMARK 921   NORMALIZED FREE ENERGY PREDICTED BY IDOCK:   -4.71 KCAL/MOL
REMARK 922        TOTAL FREE ENERGY PREDICTED BY IDOCK:   -4.56 KCAL/MOL
REMARK 923 INTER-LIGAND FREE ENERGY PREDICTED BY IDOCK:   -4.55 KCAL/MOL
REMARK 924 INTRA-LIGAND FREE ENERGY PREDICTED BY IDOCK:   -0.01 KCAL/MOL
REMARK 927      BINDING AFFINITY PREDICTED BY RF-SCORE:    0.00 PKD
ROOT
HETATM    1  C   UNL     1      -8.641   5.320  64.772  1.00  0.00    -0.136 C  
HETATM    2  C   UNL     1      -8.015   4.142  65.483  1.00  0.00    -0.097 C  
HETATM    3  O   UNL     1      -8.003   3.032  64.932  1.00  0.00    -0.081 OA 
ENDROOT
BRANCH   2   4
HETATM    4  C   UNL     1      -7.429   4.359  66.939  1.00  0.00    -0.081 C  
HETATM    5  O   UNL     1      -6.221   3.558  66.997  1.00  0.00    -0.033 OA 
HETATM    6  C   UNL     1      -6.979   5.824  66.869  1.00  0.00    -0.065 C  
HETATM    7  C   UNL     1      -6.494   5.981  68.260  1.00  0.00    -0.046 C  
HETATM    8  H   UNL     1      -5.870   3.688  67.870  1.00  0.00     0.000 HD 
HETATM    9  C   UNL     1      -7.752   5.520  68.988  1.00  0.00    -0.087 C  
HETATM   10  C   UNL     1      -8.901   6.569  69.015  1.00  0.00    -0.130 C  
HETATM   11  C   UNL     1      -8.419   7.986  68.947  1.00  0.00    -0.131 C  
HETATM   12  C   UNL     1      -8.992   9.047  69.534  1.00  0.00    -0.147 C  
HETATM   13  C   UNL     1      -8.323  10.388  69.364  1.00  0.00    -0.152 C  
HETATM   14  C   UNL     1     -10.262   8.894  70.211  1.00  0.00    -0.230 C  
HETATM   15  C   UNL     1     -10.980   9.987  70.533  1.00  0.00    -0.392 C  
HETATM   16  C   UNL     1     -12.264   9.793  71.193  1.00  0.00    -0.362 C  
HETATM   17  O   UNL     1     -13.205  10.555  70.993  1.00  0.00    -0.363 OA 
HETATM   18  C   UNL     1     -12.277   8.691  72.227  1.00  0.00    -0.447 C  
HETATM   19  C   UNL     1     -11.745   7.367  71.663  1.00  0.00    -0.311 C  
HETATM   20  C   UNL     1     -10.842   7.469  70.398  1.00  0.00    -0.255 C  
HETATM   21  C   UNL     1      -9.756   6.329  70.269  1.00  0.00    -0.189 C  
HETATM   22  C   UNL     1     -10.232   4.863  70.133  1.00  0.00    -0.310 C  
HETATM   23  C   UNL     1      -9.051   3.861  69.772  1.00  0.00    -0.188 C  
HETATM   24  C   UNL     1      -8.217   4.018  68.382  1.00  0.00    -0.088 C  
HETATM   25  C   UNL     1      -9.511   3.493  67.602  1.00  0.00    -0.233 C  
ENDBRANCH   2   4
TORSDOF 1
ENDMDL
MODEL       77
REMARK 921   NORMALIZED FREE ENERGY PREDICTED BY IDOCK:   -4.69 KCAL/MOL
REMARK 922        TOTAL FREE ENERGY PREDICTED BY IDOCK:   -4.54 KCAL/MOL
REMARK 923 INTER-LIGAND FREE ENERGY PREDICTED BY IDOCK:   -5.09 KCAL/MOL
REMARK 924 INTRA-LIGAND FREE ENERGY PREDICTED BY IDOCK:    0.55 KCAL/MOL
REMARK 927      BINDING AFFINITY PREDICTED BY RF-SCORE:    0.00 PKD
ROOT
HETATM    1  C   UNL     1     -12.834  15.643  71.164  1.00  0.00    -0.540 C  
HETATM    2  C   UNL     1     -11.377  15.489  70.791  1.00  0.00    -0.355 C  
HETATM    3  O   UNL     1     -10.547  15.212  71.669  1.00  0.00     0.119 OA 
ENDROOT
BRANCH   2   4
HETATM    4  C   UNL     1     -10.950  15.735  69.285  1.00  0.00    -0.281 C  
HETATM    5  O   UNL     1     -11.278  17.121  69.008  1.00  0.00    -0.211 OA 
HETATM    6  C   UNL     1      -9.421  15.660  69.388  1.00  0.00    -0.279 C  
HETATM    7  C   UNL     1      -9.086  15.843  67.957  1.00  0.00    -0.184 C  
HETATM    8  H   UNL     1     -11.022  17.268  68.105  1.00  0.00     0.000 HD 
HETATM    9  C   UNL     1      -9.948  14.724  67.381  1.00  0.00    -0.223 C  
HETATM   10  C   UNL     1      -9.366  13.295  67.582  1.00  0.00    -0.212 C  
HETATM   11  C   UNL     1      -7.872  13.265  67.675  1.00  0.00    -0.168 C  
HETATM   12  C   UNL     1      -7.071  12.280  67.244  1.00  0.00    -0.138 C  
HETATM   13  C   UNL     1      -5.583  12.465  67.407  1.00  0.00    -0.126 C  
HETATM   14  C   UNL     1      -7.649  11.052  66.741  1.00  0.00    -0.139 C  
HETATM   15  C   UNL     1      -6.871   9.962  66.594  1.00  0.00    -0.084 C  
HETATM   16  C   UNL     1      -7.494   8.739  66.107  1.00  0.00    -0.090 C  
HETATM   17  O   UNL     1      -7.111   7.635  66.485  1.00  0.00    -0.071 OA 
HETATM   18  C   UNL     1      -8.517   8.947  65.015  1.00  0.00    -0.194 C  
HETATM   19  C   UNL     1      -9.578   9.981  65.412  1.00  0.00    -0.342 C  
HETATM   20  C   UNL     1      -9.184  10.975  66.543  1.00  0.00    -0.187 C  
HETATM   21  C   UNL     1      -9.875  12.394  66.445  1.00  0.00    -0.249 C  
HETATM   22  C   UNL     1     -11.416  12.476  66.550  1.00  0.00    -0.418 C  
HETATM   23  C   UNL     1     -11.947  13.970  66.678  1.00  0.00    -0.473 C  
HETATM   24  C   UNL     1     -11.526  14.902  67.946  1.00  0.00    -0.357 C  
HETATM   25  C   UNL     1     -12.480  14.002  68.862  1.00  0.00     0.106 C  
ENDBRANCH   2   4
TORSDOF 1
ENDMDL
MODEL       78
REMARK 921   NORMALIZED FREE ENERGY PREDICTED BY IDOCK:   -4.68 KCAL/MOL
REMARK 922        TOTAL FREE ENERGY PREDICTED BY IDOCK:   -4.53 KCAL/MOL
REMARK 923 INTER-LIGAND FREE ENERGY PREDICTED BY IDOCK:   -4.59 KCAL/MOL
REMARK 924 INTRA-LIGAND FREE ENERGY PREDICTED BY IDOCK:    0.06 KCAL/MOL
REMARK 927      BINDING AFFINITY PREDICTED BY RF-SCORE:    0.00 PKD
ROOT
HETATM    1  C   UNL     1      -8.417   8.670  70.676  1.00  0.00    -0.174 C  
HETATM    2  C   UNL     1      -9.053   9.768  69.853  1.00  0.00    -0.229 C  
HETATM    3  O   UNL     1     -10.091  10.312  70.257  1.00  0.00    -0.169 OA 
ENDROOT
BRANCH   2   4
HETATM    4  C   UNL     1      -8.388  10.159  68.469  1.00  0.00    -0.116 C  
HETATM    5  O   UNL     1      -7.783   8.938  67.968  1.00  0.00    -0.098 OA 
HETATM    6  C   UNL     1      -9.626  10.419  67.602  1.00  0.00    -0.168 C  
HETATM    7  C   UNL     1      -8.947  10.826  66.350  1.00  0.00    -0.179 C  
HETATM    8  H   UNL     1      -7.384   9.172  67.139  1.00  0.00     0.000 HD 
HETATM    9  C   UNL     1      -8.070  11.935  66.921  1.00  0.00    -0.146 C  
HETATM   10  C   UNL     1      -8.825  13.261  67.226  1.00  0.00    -0.216 C  
HETATM   11  C   UNL     1     -10.026  13.479  66.357  1.00  0.00    -0.296 C  
HETATM   12  C   UNL     1     -10.488  14.661  65.927  1.00  0.00    -0.325 C  
HETATM   13  C   UNL     1     -11.700  14.655  65.029  1.00  0.00    -0.385 C  
HETATM   14  C   UNL     1      -9.887  15.886  66.410  1.00  0.00    -0.302 C  
HETATM   15  C   UNL     1     -10.527  17.058  66.227  1.00  0.00    -0.258 C  
HETATM   16  C   UNL     1      -9.902  18.266  66.748  1.00  0.00    -0.341 C  
HETATM   17  O   UNL     1     -10.576  19.199  67.176  1.00  0.00    -0.422 OA 
HETATM   18  C   UNL     1      -8.402  18.322  66.574  1.00  0.00    -0.287 C  
HETATM   19  C   UNL     1      -7.713  17.067  67.126  1.00  0.00    -0.205 C  
HETATM   20  C   UNL     1      -8.603  15.799  67.274  1.00  0.00    -0.209 C  
HETATM   21  C   UNL     1      -7.832  14.429  67.112  1.00  0.00    -0.111 C  
HETATM   22  C   UNL     1      -6.716  14.083  68.125  1.00  0.00    -0.125 C  
HETATM   23  C   UNL     1      -6.200  12.585  67.988  1.00  0.00    -0.088 C  
HETATM   24  C   UNL     1      -7.206  11.328  68.235  1.00  0.00    -0.080 C  
HETATM   25  C   UNL     1      -7.178  11.675  69.796  1.00  0.00     0.341 C  
ENDBRANCH   2   4
TORSDOF 1
ENDMDL
MODEL       79
REMARK 921   NORMALIZED FREE ENERGY PREDICTED BY IDOCK:   -4.66 KCAL/MOL
REMARK 922        TOTAL FREE ENERGY PREDICTED BY IDOCK:   -4.51 KCAL/MOL
REMARK 923 INTER-LIGAND FREE ENERGY PREDICTED BY IDOCK:   -4.60 KCAL/MOL
REMARK 924 INTRA-LIGAND FREE ENERGY PREDICTED BY IDOCK:    0.10 KCAL/MOL
REMARK 927      BINDING AFFINITY PREDICTED BY RF-SCORE:    0.00 PKD
ROOT
HETATM    1  C   UNL     1     -10.096  12.197  63.952  1.00  0.00    -0.387 C  
HETATM    2  C   UNL     1     -10.035  11.183  65.071  1.00  0.00    -0.273 C  
HETATM    3  O   UNL     1      -9.853   9.986  64.803  1.00  0.00    -0.322 OA 
ENDROOT
BRANCH   2   4
HETATM    4  C   UNL     1     -10.254  11.682  66.559  1.00  0.00    -0.214 C  
HETATM    5  O   UNL     1     -10.830  13.009  66.445  1.00  0.00    -0.275 OA 
HETATM    6  C   UNL     1     -11.385  10.755  67.026  1.00  0.00    -0.046 C  
HETATM    7  C   UNL     1     -11.507  11.230  68.424  1.00  0.00    -0.377 C  
HETATM    8  H   UNL     1     -10.961  13.308  67.337  1.00  0.00     0.000 HD 
HETATM    9  C   UNL     1     -10.052  11.062  68.845  1.00  0.00    -0.212 C  
HETATM   10  C   UNL     1      -9.629   9.591  69.128  1.00  0.00    -0.170 C  
HETATM   11  C   UNL     1     -10.760   8.721  69.584  1.00  0.00    -0.212 C  
HETATM   12  C   UNL     1     -10.674   7.696  70.444  1.00  0.00    -0.241 C  
HETATM   13  C   UNL     1     -11.947   6.967  70.794  1.00  0.00    -0.424 C  
HETATM   14  C   UNL     1      -9.376   7.265  70.920  1.00  0.00    -0.159 C  
HETATM   15  C   UNL     1      -9.256   6.070  71.530  1.00  0.00    -0.151 C  
HETATM   16  C   UNL     1      -7.931   5.660  71.975  1.00  0.00    -0.107 C  
HETATM   17  O   UNL     1      -7.592   4.480  71.966  1.00  0.00    -0.082 OA 
HETATM   18  C   UNL     1      -7.098   6.770  72.572  1.00  0.00    -0.075 C  
HETATM   19  C   UNL     1      -7.011   7.987  71.641  1.00  0.00    -0.066 C  
HETATM   20  C   UNL     1      -8.130   8.114  70.565  1.00  0.00    -0.104 C  
HETATM   21  C   UNL     1      -8.481   9.598  70.151  1.00  0.00    -0.231 C  
HETATM   22  C   UNL     1      -7.382  10.462  69.488  1.00  0.00    -0.144 C  
HETATM   23  C   UNL     1      -7.941  11.835  68.911  1.00  0.00     0.009 C  
HETATM   24  C   UNL     1      -9.063  11.851  67.731  1.00  0.00    -0.180 C  
HETATM   25  C   UNL     1      -7.932  11.358  66.713  1.00  0.00    -0.160 C  
ENDBRANCH   2   4
TORSDOF 1
ENDMDL
MODEL       80
REMARK 921   NORMALIZED FREE ENERGY PREDICTED BY IDOCK:   -4.63 KCAL/MOL
REMARK 922        TOTAL FREE ENERGY PREDICTED BY IDOCK:   -4.48 KCAL/MOL
REMARK 923 INTER-LIGAND FREE ENERGY PREDICTED BY IDOCK:   -4.48 KCAL/MOL
REMARK 924 INTRA-LIGAND FREE ENERGY PREDICTED BY IDOCK:   -0.00 KCAL/MOL
REMARK 927      BINDING AFFINITY PREDICTED BY RF-SCORE:    0.00 PKD
ROOT
HETATM    1  C   UNL     1      -8.190   8.237  64.948  1.00  0.00    -0.154 C  
HETATM    2  C   UNL     1      -8.295   9.740  64.823  1.00  0.00    -0.155 C  
HETATM    3  O   UNL     1      -7.796  10.309  63.841  1.00  0.00    -0.155 OA 
ENDROOT
BRANCH   2   4
HETATM    4  C   UNL     1      -9.008  10.549  65.984  1.00  0.00    -0.167 C  
HETATM    5  O   UNL     1      -9.521  11.755  65.362  1.00  0.00    -0.312 OA 
HETATM    6  C   UNL     1     -10.223   9.657  66.272  1.00  0.00    -0.286 C  
HETATM    7  C   UNL     1     -10.815  10.430  67.389  1.00  0.00    -0.344 C  
HETATM    8  H   UNL     1      -9.948  12.240  66.058  1.00  0.00     0.000 HD 
HETATM    9  C   UNL     1      -9.586  10.497  68.290  1.00  0.00    -0.164 C  
HETATM   10  C   UNL     1      -9.273   9.177  69.051  1.00  0.00    -0.143 C  
HETATM   11  C   UNL     1     -10.485   8.337  69.315  1.00  0.00    -0.218 C  
HETATM   12  C   UNL     1     -10.688   7.552  70.383  1.00  0.00    -0.248 C  
HETATM   13  C   UNL     1     -11.999   6.811  70.469  1.00  0.00    -0.385 C  
HETATM   14  C   UNL     1      -9.625   7.362  71.347  1.00  0.00    -0.167 C  
HETATM   15  C   UNL     1      -9.710   6.358  72.241  1.00  0.00    -0.158 C  
HETATM   16  C   UNL     1      -8.610   6.184  73.181  1.00  0.00    -0.117 C  
HETATM   17  O   UNL     1      -8.280   5.070  73.576  1.00  0.00    -0.106 OA 
HETATM   18  C   UNL     1      -8.036   7.474  73.720  1.00  0.00    -0.184 C  
HETATM   19  C   UNL     1      -7.649   8.444  72.596  1.00  0.00    -0.130 C  
HETATM   20  C   UNL     1      -8.338   8.216  71.219  1.00  0.00    -0.140 C  
HETATM   21  C   UNL     1      -8.540   9.525  70.356  1.00  0.00    -0.246 C  
HETATM   22  C   UNL     1      -7.288  10.308  69.895  1.00  0.00    -0.166 C  
HETATM   23  C   UNL     1      -7.628  11.453  68.845  1.00  0.00    -0.114 C  
HETATM   24  C   UNL     1      -8.285  11.093  67.399  1.00  0.00    -0.132 C  
HETATM   25  C   UNL     1      -6.873  10.482  66.962  1.00  0.00    -0.087 C  
ENDBRANCH   2   4
TORSDOF 1
ENDMDL
MODEL       81
REMARK 921   NORMALIZED FREE ENERGY PREDICTED BY IDOCK:   -4.62 KCAL/MOL
REMARK 922        TOTAL FREE ENERGY PREDICTED BY IDOCK:   -4.46 KCAL/MOL
REMARK 923 INTER-LIGAND FREE ENERGY PREDICTED BY IDOCK:   -4.51 KCAL/MOL
REMARK 924 INTRA-LIGAND FREE ENERGY PREDICTED BY IDOCK:    0.05 KCAL/MOL
REMARK 927      BINDING AFFINITY PREDICTED BY RF-SCORE:    0.00 PKD
ROOT
HETATM    1  C   UNL     1      -7.393  12.899  67.421  1.00  0.00    -0.132 C  
HETATM    2  C   UNL     1      -7.743  11.441  67.230  1.00  0.00    -0.145 C  
HETATM    3  O   UNL     1      -6.920  10.678  66.705  1.00  0.00    -0.096 OA 
ENDROOT
BRANCH   2   4
HETATM    4  C   UNL     1      -9.182  10.944  67.671  1.00  0.00    -0.152 C  
HETATM    5  O   UNL     1     -10.053  12.096  67.532  1.00  0.00    -0.194 OA 
HETATM    6  C   UNL     1      -9.536   9.989  66.523  1.00  0.00    -0.237 C  
HETATM    7  C   UNL     1     -10.854   9.521  67.013  1.00  0.00    -0.125 C  
HETATM    8  H   UNL     1     -10.915  11.798  67.796  1.00  0.00     0.000 HD 
HETATM    9  C   UNL     1     -10.423   9.051  68.398  1.00  0.00    -0.234 C  
HETATM   10  C   UNL     1      -9.667   7.691  68.411  1.00  0.00    -0.164 C  
HETATM   11  C   UNL     1     -10.043   6.788  67.277  1.00  0.00    -0.237 C  
HETATM   12  C   UNL     1     -10.089   5.448  67.313  1.00  0.00    -0.229 C  
HETATM   13  C   UNL     1     -10.527   4.728  66.061  1.00  0.00    -0.332 C  
HETATM   14  C   UNL     1      -9.630   4.745  68.492  1.00  0.00    -0.218 C  
HETATM   15  C   UNL     1      -9.391   3.421  68.426  1.00  0.00    -0.238 C  
HETATM   16  C   UNL     1      -8.908   2.752  69.626  1.00  0.00    -0.088 C  
HETATM   17  O   UNL     1      -8.131   1.805  69.559  1.00  0.00    -0.045 OA 
HETATM   18  C   UNL     1      -9.554   3.223  70.909  1.00  0.00    -0.234 C  
HETATM   19  C   UNL     1      -9.480   4.748  71.064  1.00  0.00    -0.227 C  
HETATM   20  C   UNL     1      -9.265   5.564  69.756  1.00  0.00    -0.168 C  
HETATM   21  C   UNL     1      -9.901   7.011  69.769  1.00  0.00    -0.171 C  
HETATM   22  C   UNL     1      -9.386   8.037  70.806  1.00  0.00    -0.167 C  
HETATM   23  C   UNL     1      -9.937   9.507  70.546  1.00  0.00    -0.335 C  
HETATM   24  C   UNL     1      -9.590  10.299  69.167  1.00  0.00    -0.229 C  
HETATM   25  C   UNL     1      -8.089  10.465  69.696  1.00  0.00    -0.116 C  
ENDBRANCH   2   4
TORSDOF 1
ENDMDL
MODEL       82
REMARK 921   NORMALIZED FREE ENERGY PREDICTED BY IDOCK:   -4.54 KCAL/MOL
REMARK 922        TOTAL FREE ENERGY PREDICTED BY IDOCK:   -4.38 KCAL/MOL
REMARK 923 INTER-LIGAND FREE ENERGY PREDICTED BY IDOCK:   -4.50 KCAL/MOL
REMARK 924 INTRA-LIGAND FREE ENERGY PREDICTED BY IDOCK:    0.12 KCAL/MOL
REMARK 927      BINDING AFFINITY PREDICTED BY RF-SCORE:    0.00 PKD
ROOT
HETATM    1  C   UNL     1      -6.503   8.536  74.537  1.00  0.00    -0.165 C  
HETATM    2  C   UNL     1      -7.211   8.341  73.215  1.00  0.00    -0.107 C  
HETATM    3  O   UNL     1      -6.738   8.846  72.187  1.00  0.00    -0.228 OA 
ENDROOT
BRANCH   2   4
HETATM    4  C   UNL     1      -8.571   7.527  73.197  1.00  0.00    -0.150 C  
HETATM    5  O   UNL     1      -9.284   7.932  74.395  1.00  0.00    -0.355 OA 
HETATM    6  C   UNL     1      -9.299   8.181  72.015  1.00  0.00    -0.266 C  
HETATM    7  C   UNL     1     -10.527   7.353  72.016  1.00  0.00    -0.230 C  
HETATM    8  H   UNL     1     -10.099   7.444  74.384  1.00  0.00     0.000 HD 
HETATM    9  C   UNL     1      -9.869   5.979  71.945  1.00  0.00    -0.183 C  
HETATM   10  C   UNL     1      -9.324   5.598  70.538  1.00  0.00    -0.194 C  
HETATM   11  C   UNL     1     -10.062   6.254  69.412  1.00  0.00    -0.215 C  
HETATM   12  C   UNL     1     -10.284   5.731  68.198  1.00  0.00    -0.235 C  
HETATM   13  C   UNL     1     -11.082   6.552  67.216  1.00  0.00    -0.429 C  
HETATM   14  C   UNL     1      -9.677   4.467  67.839  1.00  0.00    -0.186 C  
HETATM   15  C   UNL     1      -9.643   4.088  66.547  1.00  0.00    -0.223 C  
HETATM   16  C   UNL     1      -9.004   2.821  66.222  1.00  0.00    -0.143 C  
HETATM   17  O   UNL     1      -8.398   2.665  65.165  1.00  0.00    -0.090 OA 
HETATM   18  C   UNL     1      -9.278   1.709  67.207  1.00  0.00    -0.101 C  
HETATM   19  C   UNL     1      -8.962   2.128  68.649  1.00  0.00    -0.172 C  
HETATM   20  C   UNL     1      -8.932   3.659  68.932  1.00  0.00    -0.182 C  
HETATM   21  C   UNL     1      -9.343   4.067  70.402  1.00  0.00    -0.230 C  
HETATM   22  C   UNL     1      -8.475   3.566  71.580  1.00  0.00    -0.095 C  
HETATM   23  C   UNL     1      -8.862   4.246  72.965  1.00  0.00    -0.109 C  
HETATM   24  C   UNL     1      -8.723   5.855  73.174  1.00  0.00    -0.122 C  
HETATM   25  C   UNL     1      -7.134   5.668  73.190  1.00  0.00    -0.086 C  
ENDBRANCH   2   4
TORSDOF 1
ENDMDL
MODEL       83
REMARK 921   NORMALIZED FREE ENERGY PREDICTED BY IDOCK:   -4.52 KCAL/MOL
REMARK 922        TOTAL FREE ENERGY PREDICTED BY IDOCK:   -4.36 KCAL/MOL
REMARK 923 INTER-LIGAND FREE ENERGY PREDICTED BY IDOCK:   -4.84 KCAL/MOL
REMARK 924 INTRA-LIGAND FREE ENERGY PREDICTED BY IDOCK:    0.48 KCAL/MOL
REMARK 927      BINDING AFFINITY PREDICTED BY RF-SCORE:    0.00 PKD
ROOT
HETATM    1  C   UNL     1     -11.289  16.599  71.352  1.00  0.00     0.139 C  
HETATM    2  C   UNL     1     -10.753  15.537  70.420  1.00  0.00    -0.320 C  
HETATM    3  O   UNL     1      -9.536  15.478  70.193  1.00  0.00    -0.140 OA 
ENDROOT
BRANCH   2   4
HETATM    4  C   UNL     1     -11.781  14.552  69.723  1.00  0.00    -0.303 C  
HETATM    5  O   UNL     1     -12.675  15.401  68.956  1.00  0.00    -0.406 OA 
HETATM    6  C   UNL     1     -10.877  13.841  68.708  1.00  0.00    -0.281 C  
HETATM    7  C   UNL     1     -11.873  12.908  68.130  1.00  0.00    -0.380 C  
HETATM    8  H   UNL     1     -13.291  14.811  68.538  1.00  0.00     0.000 HD 
HETATM    9  C   UNL     1     -12.354  12.264  69.426  1.00  0.00     0.036 C  
HETATM   10  C   UNL     1     -11.371  11.221  70.031  1.00  0.00    -0.292 C  
HETATM   11  C   UNL     1     -10.509  10.548  69.008  1.00  0.00    -0.238 C  
HETATM   12  C   UNL     1     -10.062   9.285  69.056  1.00  0.00    -0.207 C  
HETATM   13  C   UNL     1      -9.229   8.792  67.899  1.00  0.00    -0.149 C  
HETATM   14  C   UNL     1     -10.299   8.483  70.238  1.00  0.00    -0.218 C  
HETATM   15  C   UNL     1      -9.607   7.342  70.418  1.00  0.00    -0.165 C  
HETATM   16  C   UNL     1      -9.856   6.574  71.630  1.00  0.00    -0.167 C  
HETATM   17  O   UNL     1      -8.960   5.938  72.178  1.00  0.00    -0.142 OA 
HETATM   18  C   UNL     1     -11.307   6.514  72.047  1.00  0.00    -0.326 C  
HETATM   19  C   UNL     1     -11.935   7.911  72.144  1.00  0.00    -0.379 C  
HETATM   20  C   UNL     1     -11.224   9.045  71.348  1.00  0.00    -0.394 C  
HETATM   21  C   UNL     1     -12.180  10.197  70.843  1.00  0.00    -0.455 C  
HETATM   22  C   UNL     1     -12.933  11.048  71.893  1.00  0.00    -0.485 C  
HETATM   23  C   UNL     1     -13.660  12.311  71.256  1.00  0.00     0.590 C  
HETATM   24  C   UNL     1     -12.807  13.477  70.505  1.00  0.00    -0.131 C  
HETATM   25  C   UNL     1     -12.268  13.940  71.939  1.00  0.00    -0.028 C  
ENDBRANCH   2   4
TORSDOF 1
ENDMDL
MODEL       84
REMARK 921   NORMALIZED FREE ENERGY PREDICTED BY IDOCK:   -4.50 KCAL/MOL
REMARK 922        TOTAL FREE ENERGY PREDICTED BY IDOCK:   -4.34 KCAL/MOL
REMARK 923 INTER-LIGAND FREE ENERGY PREDICTED BY IDOCK:   -4.41 KCAL/MOL
REMARK 924 INTRA-LIGAND FREE ENERGY PREDICTED BY IDOCK:    0.07 KCAL/MOL
REMARK 927      BINDING AFFINITY PREDICTED BY RF-SCORE:    0.00 PKD
ROOT
HETATM    1  C   UNL     1     -11.892   5.928  72.398  1.00  0.00    -0.263 C  
HETATM    2  C   UNL     1     -10.681   5.582  73.234  1.00  0.00    -0.274 C  
HETATM    3  O   UNL     1     -10.830   5.256  74.421  1.00  0.00    -0.294 OA 
ENDROOT
BRANCH   2   4
HETATM    4  C   UNL     1      -9.246   5.692  72.572  1.00  0.00    -0.142 C  
HETATM    5  O   UNL     1      -8.366   4.902  73.413  1.00  0.00    -0.106 OA 
HETATM    6  C   UNL     1      -9.448   4.891  71.279  1.00  0.00    -0.214 C  
HETATM    7  C   UNL     1      -8.103   5.073  70.685  1.00  0.00    -0.094 C  
HETATM    8  H   UNL     1      -7.506   4.968  73.016  1.00  0.00     0.000 HD 
HETATM    9  C   UNL     1      -8.041   6.596  70.732  1.00  0.00    -0.119 C  
HETATM   10  C   UNL     1      -8.884   7.309  69.636  1.00  0.00    -0.141 C  
HETATM   11  C   UNL     1      -9.055   6.495  68.390  1.00  0.00    -0.123 C  
HETATM   12  C   UNL     1      -9.147   6.971  67.140  1.00  0.00    -0.137 C  
HETATM   13  C   UNL     1      -9.285   5.972  66.018  1.00  0.00    -0.129 C  
HETATM   14  C   UNL     1      -9.213   8.400  66.918  1.00  0.00    -0.196 C  
HETATM   15  C   UNL     1      -9.604   8.870  65.718  1.00  0.00    -0.245 C  
HETATM   16  C   UNL     1      -9.681  10.313  65.540  1.00  0.00    -0.265 C  
HETATM   17  O   UNL     1     -10.528  10.822  64.811  1.00  0.00    -0.326 OA 
HETATM   18  C   UNL     1      -8.560  11.086  66.195  1.00  0.00    -0.175 C  
HETATM   19  C   UNL     1      -8.403  10.725  67.678  1.00  0.00    -0.119 C  
HETATM   20  C   UNL     1      -8.993   9.354  68.120  1.00  0.00    -0.128 C  
HETATM   21  C   UNL     1      -8.242   8.671  69.331  1.00  0.00    -0.113 C  
HETATM   22  C   UNL     1      -8.222   9.400  70.696  1.00  0.00    -0.207 C  
HETATM   23  C   UNL     1      -7.646   8.495  71.871  1.00  0.00    -0.139 C  
HETATM   24  C   UNL     1      -8.389   7.110  72.299  1.00  0.00    -0.117 C  
HETATM   25  C   UNL     1      -9.560   7.992  72.939  1.00  0.00    -0.348 C  
ENDBRANCH   2   4
TORSDOF 1
ENDMDL
MODEL       85
REMARK 921   NORMALIZED FREE ENERGY PREDICTED BY IDOCK:   -4.49 KCAL/MOL
REMARK 922        TOTAL FREE ENERGY PREDICTED BY IDOCK:   -4.33 KCAL/MOL
REMARK 923 INTER-LIGAND FREE ENERGY PREDICTED BY IDOCK:   -4.38 KCAL/MOL
REMARK 924 INTRA-LIGAND FREE ENERGY PREDICTED BY IDOCK:    0.05 KCAL/MOL
REMARK 927      BINDING AFFINITY PREDICTED BY RF-SCORE:    0.00 PKD
ROOT
HETATM    1  C   UNL     1      -6.202   6.649  66.542  1.00  0.00    -0.041 C  
HETATM    2  C   UNL     1      -6.272   8.110  66.924  1.00  0.00    -0.055 C  
HETATM    3  O   UNL     1      -5.357   8.875  66.587  1.00  0.00    -0.037 OA 
ENDROOT
BRANCH   2   4
HETATM    4  C   UNL     1      -7.503   8.609  67.789  1.00  0.00    -0.097 C  
HETATM    5  O   UNL     1      -7.924   7.460  68.567  1.00  0.00    -0.119 OA 
HETATM    6  C   UNL     1      -6.815   9.570  68.767  1.00  0.00    -0.052 C  
HETATM    7  C   UNL     1      -8.010  10.039  69.506  1.00  0.00    -0.161 C  
HETATM    8  H   UNL     1      -8.662   7.759  69.086  1.00  0.00     0.000 HD 
HETATM    9  C   UNL     1      -8.842  10.502  68.315  1.00  0.00    -0.139 C  
HETATM   10  C   UNL     1      -8.391  11.859  67.704  1.00  0.00    -0.152 C  
HETATM   11  C   UNL     1      -7.727  12.769  68.691  1.00  0.00    -0.064 C  
HETATM   12  C   UNL     1      -7.787  14.108  68.699  1.00  0.00    -0.137 C  
HETATM   13  C   UNL     1      -7.067  14.835  69.808  1.00  0.00    -0.132 C  
HETATM   14  C   UNL     1      -8.439  14.805  67.611  1.00  0.00    -0.185 C  
HETATM   15  C   UNL     1      -8.243  16.129  67.456  1.00  0.00    -0.167 C  
HETATM   16  C   UNL     1      -8.898  16.791  66.336  1.00  0.00    -0.296 C  
HETATM   17  O   UNL     1      -8.371  17.737  65.758  1.00  0.00    -0.529 OA 
HETATM   18  C   UNL     1     -10.306  16.316  66.063  1.00  0.00    -0.363 C  
HETATM   19  C   UNL     1     -10.380  14.791  65.917  1.00  0.00    -0.335 C  
HETATM   20  C   UNL     1      -9.213  13.979  66.552  1.00  0.00    -0.240 C  
HETATM   21  C   UNL     1      -9.610  12.534  67.053  1.00  0.00    -0.216 C  
HETATM   22  C   UNL     1     -10.111  11.502  66.016  1.00  0.00    -0.270 C  
HETATM   23  C   UNL     1     -10.241  10.035  66.617  1.00  0.00    -0.288 C  
HETATM   24  C   UNL     1      -8.936   9.248  67.192  1.00  0.00    -0.141 C  
HETATM   25  C   UNL     1      -8.435   9.076  65.683  1.00  0.00    -0.163 C  
ENDBRANCH   2   4
TORSDOF 1
ENDMDL
MODEL       86
REMARK 921   NORMALIZED FREE ENERGY PREDICTED BY IDOCK:   -4.46 KCAL/MOL
REMARK 922        TOTAL FREE ENERGY PREDICTED BY IDOCK:   -4.30 KCAL/MOL
REMARK 923 INTER-LIGAND FREE ENERGY PREDICTED BY IDOCK:   -4.35 KCAL/MOL
REMARK 924 INTRA-LIGAND FREE ENERGY PREDICTED BY IDOCK:    0.05 KCAL/MOL
REMARK 927      BINDING AFFINITY PREDICTED BY RF-SCORE:    0.00 PKD
ROOT
HETATM    1  C   UNL     1      -9.572   1.916  63.661  1.00  0.00    -0.115 C  
HETATM    2  C   UNL     1      -9.793   3.353  64.073  1.00  0.00    -0.170 C  
HETATM    3  O   UNL     1     -10.872   3.905  63.811  1.00  0.00    -0.254 OA 
ENDROOT
BRANCH   2   4
HETATM    4  C   UNL     1      -8.612   4.126  64.791  1.00  0.00    -0.119 C  
HETATM    5  O   UNL     1      -7.397   3.437  64.396  1.00  0.00    -0.067 OA 
HETATM    6  C   UNL     1      -8.620   5.462  64.036  1.00  0.00    -0.018 C  
HETATM    7  C   UNL     1      -7.541   6.152  64.780  1.00  0.00    -0.092 C  
HETATM    8  H   UNL     1      -6.689   3.900  64.827  1.00  0.00     0.000 HD 
HETATM    9  C   UNL     1      -8.094   5.978  66.190  1.00  0.00    -0.110 C  
HETATM   10  C   UNL     1      -9.274   6.930  66.541  1.00  0.00    -0.195 C  
HETATM   11  C   UNL     1      -9.244   8.223  65.785  1.00  0.00    -0.142 C  
HETATM   12  C   UNL     1      -9.663   9.414  66.235  1.00  0.00    -0.330 C  
HETATM   13  C   UNL     1      -9.514  10.602  65.318  1.00  0.00    -0.270 C  
HETATM   14  C   UNL     1     -10.326   9.503  67.519  1.00  0.00    -0.306 C  
HETATM   15  C   UNL     1     -11.009  10.620  67.838  1.00  0.00    -0.351 C  
HETATM   16  C   UNL     1     -11.681  10.665  69.130  1.00  0.00    -0.253 C  
HETATM   17  O   UNL     1     -12.739  11.270  69.277  1.00  0.00    -0.202 OA 
HETATM   18  C   UNL     1     -10.901  10.045  70.265  1.00  0.00    -0.370 C  
HETATM   19  C   UNL     1     -10.442   8.618  69.936  1.00  0.00    -0.221 C  
HETATM   20  C   UNL     1     -10.373   8.247  68.425  1.00  0.00    -0.237 C  
HETATM   21  C   UNL     1      -9.276   7.170  68.059  1.00  0.00    -0.130 C  
HETATM   22  C   UNL     1      -9.395   5.754  68.671  1.00  0.00    -0.136 C  
HETATM   23  C   UNL     1      -8.372   4.717  68.032  1.00  0.00    -0.102 C  
HETATM   24  C   UNL     1      -8.437   4.348  66.447  1.00  0.00    -0.112 C  
HETATM   25  C   UNL     1      -9.783   3.534  66.741  1.00  0.00    -0.045 C  
ENDBRANCH   2   4
TORSDOF 1
ENDMDL
MODEL       87
REMARK 921   NORMALIZED FREE ENERGY PREDICTED BY IDOCK:   -4.38 KCAL/MOL
REMARK 922        TOTAL FREE ENERGY PREDICTED BY IDOCK:   -4.21 KCAL/MOL
REMARK 923 INTER-LIGAND FREE ENERGY PREDICTED BY IDOCK:   -4.39 KCAL/MOL
REMARK 924 INTRA-LIGAND FREE ENERGY PREDICTED BY IDOCK:    0.19 KCAL/MOL
REMARK 927      BINDING AFFINITY PREDICTED BY RF-SCORE:    0.00 PKD
ROOT
HETATM    1  C   UNL     1      -6.139   2.628  74.308  1.00  0.00    -0.004 C  
HETATM    2  C   UNL     1      -7.095   3.787  74.135  1.00  0.00    -0.052 C  
HETATM    3  O   UNL     1      -6.778   4.909  74.555  1.00  0.00    -0.067 OA 
ENDROOT
BRANCH   2   4
HETATM    4  C   UNL     1      -8.501   3.515  73.457  1.00  0.00    -0.083 C  
HETATM    5  O   UNL     1      -9.003   2.300  74.074  1.00  0.00    -0.072 OA 
HETATM    6  C   UNL     1      -9.338   4.669  74.024  1.00  0.00    -0.121 C  
HETATM    7  C   UNL     1     -10.613   4.393  73.321  1.00  0.00    -0.281 C  
HETATM    8  H   UNL     1      -9.846   2.137  73.667  1.00  0.00     0.000 HD 
HETATM    9  C   UNL     1     -10.078   4.362  71.893  1.00  0.00    -0.245 C  
HETATM   10  C   UNL     1      -9.770   5.762  71.289  1.00  0.00    -0.210 C  
HETATM   11  C   UNL     1     -10.609   6.860  71.867  1.00  0.00    -0.236 C  
HETATM   12  C   UNL     1     -11.041   7.951  71.218  1.00  0.00    -0.278 C  
HETATM   13  C   UNL     1     -11.907   8.923  71.981  1.00  0.00    -0.438 C  
HETATM   14  C   UNL     1     -10.589   8.211  69.868  1.00  0.00    -0.239 C  
HETATM   15  C   UNL     1     -10.769   9.432  69.329  1.00  0.00    -0.228 C  
HETATM   16  C   UNL     1     -10.280   9.662  67.976  1.00  0.00    -0.194 C  
HETATM   17  O   UNL     1      -9.845  10.757  67.633  1.00  0.00    -0.167 OA 
HETATM   18  C   UNL     1     -10.495   8.506  67.027  1.00  0.00    -0.362 C  
HETATM   19  C   UNL     1      -9.945   7.189  67.592  1.00  0.00    -0.201 C  
HETATM   20  C   UNL     1      -9.759   7.125  69.136  1.00  0.00    -0.158 C  
HETATM   21  C   UNL     1      -9.924   5.683  69.762  1.00  0.00    -0.264 C  
HETATM   22  C   UNL     1      -8.937   4.572  69.333  1.00  0.00    -0.142 C  
HETATM   23  C   UNL     1      -9.070   3.255  70.215  1.00  0.00    -0.196 C  
HETATM   24  C   UNL     1      -8.781   3.288  71.817  1.00  0.00    -0.119 C  
HETATM   25  C   UNL     1      -7.225   3.456  71.485  1.00  0.00    -0.036 C  
ENDBRANCH   2   4
TORSDOF 1
ENDMDL
MODEL       88
REMARK 921   NORMALIZED FREE ENERGY PREDICTED BY IDOCK:   -4.34 KCAL/MOL
REMARK 922        TOTAL FREE ENERGY PREDICTED BY IDOCK:   -4.17 KCAL/MOL
REMARK 923 INTER-LIGAND FREE ENERGY PREDICTED BY IDOCK:   -4.43 KCAL/MOL
REMARK 924 INTRA-LIGAND FREE ENERGY PREDICTED BY IDOCK:    0.26 KCAL/MOL
REMARK 927      BINDING AFFINITY PREDICTED BY RF-SCORE:    0.00 PKD
ROOT
HETATM    1  C   UNL     1      -7.437   7.929  72.278  1.00  0.00    -0.104 C  
HETATM    2  C   UNL     1      -8.469   8.650  71.441  1.00  0.00    -0.188 C  
HETATM    3  O   UNL     1      -9.479   9.118  71.985  1.00  0.00    -0.323 OA 
ENDROOT
BRANCH   2   4
HETATM    4  C   UNL     1      -8.243   8.744  69.875  1.00  0.00    -0.118 C  
HETATM    5  O   UNL     1      -7.932   7.394  69.444  1.00  0.00    -0.119 OA 
HETATM    6  C   UNL     1      -9.665   9.043  69.382  1.00  0.00    -0.169 C  
HETATM    7  C   UNL     1      -9.383   9.170  67.933  1.00  0.00    -0.151 C  
HETATM    8  H   UNL     1      -7.797   7.451  68.505  1.00  0.00     0.000 HD 
HETATM    9  C   UNL     1      -8.280  10.221  68.012  1.00  0.00    -0.113 C  
HETATM   10  C   UNL     1      -8.786  11.666  68.285  1.00  0.00    -0.167 C  
HETATM   11  C   UNL     1     -10.176  11.918  67.787  1.00  0.00    -0.211 C  
HETATM   12  C   UNL     1     -10.649  13.078  67.310  1.00  0.00    -0.247 C  
HETATM   13  C   UNL     1     -12.078  13.107  66.827  1.00  0.00    -0.389 C  
HETATM   14  C   UNL     1      -9.825  14.267  67.367  1.00  0.00    -0.235 C  
HETATM   15  C   UNL     1     -10.389  15.476  67.176  1.00  0.00    -0.272 C  
HETATM   16  C   UNL     1      -9.532  16.651  67.263  1.00  0.00    -0.232 C  
HETATM   17  O   UNL     1      -9.956  17.718  67.699  1.00  0.00    -0.298 OA 
HETATM   18  C   UNL     1      -8.164  16.477  66.645  1.00  0.00    -0.306 C  
HETATM   19  C   UNL     1      -7.444  15.233  67.183  1.00  0.00    -0.202 C  
HETATM   20  C   UNL     1      -8.347  14.132  67.812  1.00  0.00    -0.175 C  
HETATM   21  C   UNL     1      -7.785  12.661  67.676  1.00  0.00    -0.155 C  
HETATM   22  C   UNL     1      -6.440  12.316  68.357  1.00  0.00    -0.057 C  
HETATM   23  C   UNL     1      -6.122  10.758  68.342  1.00  0.00    -0.046 C  
HETATM   24  C   UNL     1      -7.101   9.697  69.096  1.00  0.00    -0.062 C  
HETATM   25  C   UNL     1      -6.554  10.258  70.491  1.00  0.00    -0.094 C  
ENDBRANCH   2   4
TORSDOF 1
ENDMDL
MODEL       89
REMARK 921   NORMALIZED FREE ENERGY PREDICTED BY IDOCK:   -4.31 KCAL/MOL
REMARK 922        TOTAL FREE ENERGY PREDICTED BY IDOCK:   -4.14 KCAL/MOL
REMARK 923 INTER-LIGAND FREE ENERGY PREDICTED BY IDOCK:   -4.23 KCAL/MOL
REMARK 924 INTRA-LIGAND FREE ENERGY PREDICTED BY IDOCK:    0.09 KCAL/MOL
REMARK 927      BINDING AFFINITY PREDICTED BY RF-SCORE:    0.00 PKD
ROOT
HETATM    1  C   UNL     1     -11.568   7.109  71.992  1.00  0.00    -0.317 C  
HETATM    2  C   UNL     1     -11.136   8.361  71.264  1.00  0.00    -0.255 C  
HETATM    3  O   UNL     1     -11.526   9.467  71.665  1.00  0.00    -0.381 OA 
ENDROOT
BRANCH   2   4
HETATM    4  C   UNL     1     -10.227   8.213  69.975  1.00  0.00    -0.202 C  
HETATM    5  O   UNL     1     -10.338   6.822  69.576  1.00  0.00    -0.187 OA 
HETATM    6  C   UNL     1     -11.024   9.026  68.947  1.00  0.00     0.019 C  
HETATM    7  C   UNL     1     -10.108   8.895  67.790  1.00  0.00    -0.263 C  
HETATM    8  H   UNL     1      -9.793   6.733  68.804  1.00  0.00     0.000 HD 
HETATM    9  C   UNL     1      -8.833   9.399  68.457  1.00  0.00    -0.128 C  
HETATM   10  C   UNL     1      -8.768  10.942  68.640  1.00  0.00    -0.154 C  
HETATM   11  C   UNL     1      -9.557  11.699  67.616  1.00  0.00    -0.184 C  
HETATM   12  C   UNL     1      -9.251  12.903  67.111  1.00  0.00    -0.225 C  
HETATM   13  C   UNL     1     -10.169  13.476  66.060  1.00  0.00    -0.308 C  
HETATM   14  C   UNL     1      -8.133  13.646  67.653  1.00  0.00    -0.179 C  
HETATM   15  C   UNL     1      -8.006  14.957  67.369  1.00  0.00    -0.223 C  
HETATM   16  C   UNL     1      -6.880  15.676  67.950  1.00  0.00    -0.143 C  
HETATM   17  O   UNL     1      -6.976  16.857  68.272  1.00  0.00    -0.160 OA 
HETATM   18  C   UNL     1      -5.585  14.898  67.976  1.00  0.00    -0.142 C  
HETATM   19  C   UNL     1      -5.754  13.522  68.634  1.00  0.00    -0.085 C  
HETATM   20  C   UNL     1      -7.202  12.953  68.680  1.00  0.00    -0.098 C  
HETATM   21  C   UNL     1      -7.293  11.376  68.642  1.00  0.00    -0.104 C  
HETATM   22  C   UNL     1      -6.658  10.569  69.799  1.00  0.00    -0.112 C  
HETATM   23  C   UNL     1      -7.033   9.024  69.753  1.00  0.00    -0.054 C  
HETATM   24  C   UNL     1      -8.581   8.535  69.883  1.00  0.00    -0.131 C  
HETATM   25  C   UNL     1      -8.531   8.943  71.429  1.00  0.00    -0.216 C  
ENDBRANCH   2   4
TORSDOF 1
ENDMDL
MODEL       90
REMARK 921   NORMALIZED FREE ENERGY PREDICTED BY IDOCK:   -4.28 KCAL/MOL
REMARK 922        TOTAL FREE ENERGY PREDICTED BY IDOCK:   -4.10 KCAL/MOL
REMARK 923 INTER-LIGAND FREE ENERGY PREDICTED BY IDOCK:   -4.15 KCAL/MOL
REMARK 924 INTRA-LIGAND FREE ENERGY PREDICTED BY IDOCK:    0.05 KCAL/MOL
REMARK 927      BINDING AFFINITY PREDICTED BY RF-SCORE:    0.00 PKD
ROOT
HETATM    1  C   UNL     1      -7.939   3.101  73.565  1.00  0.00    -0.069 C  
HETATM    2  C   UNL     1      -7.711   4.341  72.732  1.00  0.00    -0.081 C  
HETATM    3  O   UNL     1      -6.728   4.401  71.979  1.00  0.00    -0.028 OA 
ENDROOT
BRANCH   2   4
HETATM    4  C   UNL     1      -8.721   5.553  72.885  1.00  0.00    -0.118 C  
HETATM    5  O   UNL     1      -9.247   5.455  74.235  1.00  0.00    -0.120 OA 
HETATM    6  C   UNL     1      -7.761   6.750  72.877  1.00  0.00    -0.094 C  
HETATM    7  C   UNL     1      -8.758   7.842  72.970  1.00  0.00    -0.260 C  
HETATM    8  H   UNL     1      -9.852   6.181  74.327  1.00  0.00     0.000 HD 
HETATM    9  C   UNL     1      -9.628   7.452  71.780  1.00  0.00    -0.168 C  
HETATM   10  C   UNL     1      -9.017   7.802  70.393  1.00  0.00    -0.147 C  
HETATM   11  C   UNL     1      -8.089   8.977  70.427  1.00  0.00    -0.152 C  
HETATM   12  C   UNL     1      -7.907   9.871  69.445  1.00  0.00    -0.127 C  
HETATM   13  C   UNL     1      -6.942  11.003  69.699  1.00  0.00    -0.110 C  
HETATM   14  C   UNL     1      -8.548   9.671  68.163  1.00  0.00    -0.119 C  
HETATM   15  C   UNL     1      -8.138  10.384  67.096  1.00  0.00    -0.115 C  
HETATM   16  C   UNL     1      -8.791  10.139  65.818  1.00  0.00    -0.158 C  
HETATM   17  O   UNL     1      -8.175  10.228  64.759  1.00  0.00    -0.160 OA 
HETATM   18  C   UNL     1     -10.284   9.923  65.907  1.00  0.00    -0.264 C  
HETATM   19  C   UNL     1     -10.647   8.834  66.926  1.00  0.00    -0.263 C  
HETATM   20  C   UNL     1      -9.577   8.522  68.013  1.00  0.00    -0.168 C  
HETATM   21  C   UNL     1     -10.164   8.024  69.393  1.00  0.00    -0.210 C  
HETATM   22  C   UNL     1     -10.961   6.699  69.424  1.00  0.00    -0.361 C  
HETATM   23  C   UNL     1     -11.280   6.203  70.901  1.00  0.00    -0.365 C  
HETATM   24  C   UNL     1     -10.078   5.835  71.937  1.00  0.00    -0.228 C  
HETATM   25  C   UNL     1      -9.798   4.521  71.069  1.00  0.00    -0.266 C  
ENDBRANCH   2   4
TORSDOF 1
ENDMDL
MODEL       91
REMARK 921   NORMALIZED FREE ENERGY PREDICTED BY IDOCK:   -4.05 KCAL/MOL
REMARK 922        TOTAL FREE ENERGY PREDICTED BY IDOCK:   -3.86 KCAL/MOL
REMARK 923 INTER-LIGAND FREE ENERGY PREDICTED BY IDOCK:   -3.94 KCAL/MOL
REMARK 924 INTRA-LIGAND FREE ENERGY PREDICTED BY IDOCK:    0.09 KCAL/MOL
REMARK 927      BINDING AFFINITY PREDICTED BY RF-SCORE:    0.00 PKD
ROOT
HETATM    1  C   UNL     1     -11.040   3.500  72.968  1.00  0.00    -0.096 C  
HETATM    2  C   UNL     1      -9.581   3.535  73.363  1.00  0.00    -0.108 C  
HETATM    3  O   UNL     1      -9.261   3.318  74.541  1.00  0.00    -0.087 OA 
ENDROOT
BRANCH   2   4
HETATM    4  C   UNL     1      -8.504   3.894  72.258  1.00  0.00    -0.094 C  
HETATM    5  O   UNL     1      -7.484   2.867  72.358  1.00  0.00    -0.049 OA 
HETATM    6  C   UNL     1      -9.287   3.607  70.969  1.00  0.00    -0.211 C  
HETATM    7  C   UNL     1      -8.257   4.006  69.982  1.00  0.00    -0.069 C  
HETATM    8  H   UNL     1      -6.838   3.082  71.695  1.00  0.00     0.000 HD 
HETATM    9  C   UNL     1      -7.981   5.412  70.505  1.00  0.00    -0.101 C  
HETATM   10  C   UNL     1      -9.074   6.459  70.147  1.00  0.00    -0.154 C  
HETATM   11  C   UNL     1      -9.813   6.144  68.882  1.00  0.00    -0.167 C  
HETATM   12  C   UNL     1     -10.309   7.034  68.011  1.00  0.00    -0.234 C  
HETATM   13  C   UNL     1     -10.993   6.501  66.777  1.00  0.00    -0.309 C  
HETATM   14  C   UNL     1     -10.264   8.447  68.325  1.00  0.00    -0.244 C  
HETATM   15  C   UNL     1     -11.016   9.310  67.614  1.00  0.00    -0.071 C  
HETATM   16  C   UNL     1     -10.962  10.720  67.974  1.00  0.00    -0.283 C  
HETATM   17  O   UNL     1     -11.947  11.445  67.862  1.00  0.00    -0.626 OA 
HETATM   18  C   UNL     1      -9.585  11.222  68.339  1.00  0.00    -0.195 C  
HETATM   19  C   UNL     1      -8.925  10.356  69.420  1.00  0.00    -0.168 C  
HETATM   20  C   UNL     1      -9.480   8.910  69.579  1.00  0.00    -0.159 C  
HETATM   21  C   UNL     1      -8.422   7.849  70.082  1.00  0.00    -0.129 C  
HETATM   22  C   UNL     1      -7.788   8.041  71.480  1.00  0.00    -0.109 C  
HETATM   23  C   UNL     1      -6.935   6.783  71.949  1.00  0.00    -0.070 C  
HETATM   24  C   UNL     1      -7.635   5.327  72.152  1.00  0.00    -0.099 C  
HETATM   25  C   UNL     1      -8.347   5.905  73.463  1.00  0.00    -0.113 C  
ENDBRANCH   2   4
TORSDOF 1
ENDMDL
MODEL       92
REMARK 921   NORMALIZED FREE ENERGY PREDICTED BY IDOCK:   -4.02 KCAL/MOL
REMARK 922        TOTAL FREE ENERGY PREDICTED BY IDOCK:   -3.83 KCAL/MOL
REMARK 923 INTER-LIGAND FREE ENERGY PREDICTED BY IDOCK:   -3.91 KCAL/MOL
REMARK 924 INTRA-LIGAND FREE ENERGY PREDICTED BY IDOCK:    0.08 KCAL/MOL
REMARK 927      BINDING AFFINITY PREDICTED BY RF-SCORE:    0.00 PKD
ROOT
HETATM    1  C   UNL     1      -8.393   2.048  64.734  1.00  0.00    -0.085 C  
HETATM    2  C   UNL     1      -8.457   3.559  64.767  1.00  0.00    -0.100 C  
HETATM    3  O   UNL     1      -8.853   4.176  63.768  1.00  0.00    -0.112 OA 
ENDROOT
BRANCH   2   4
HETATM    4  C   UNL     1      -7.968   4.309  66.074  1.00  0.00    -0.098 C  
HETATM    5  O   UNL     1      -7.180   3.339  66.810  1.00  0.00    -0.061 OA 
HETATM    6  C   UNL     1      -6.977   5.323  65.487  1.00  0.00    -0.065 C  
HETATM    7  C   UNL     1      -6.597   6.021  66.738  1.00  0.00    -0.056 C  
HETATM    8  H   UNL     1      -6.886   3.789  67.593  1.00  0.00     0.000 HD 
HETATM    9  C   UNL     1      -7.996   6.393  67.219  1.00  0.00    -0.112 C  
HETATM   10  C   UNL     1      -8.641   7.589  66.463  1.00  0.00    -0.134 C  
HETATM   11  C   UNL     1      -7.640   8.556  65.908  1.00  0.00    -0.085 C  
HETATM   12  C   UNL     1      -7.803   9.880  65.782  1.00  0.00    -0.121 C  
HETATM   13  C   UNL     1      -6.651  10.679  65.225  1.00  0.00     0.006 C  
HETATM   14  C   UNL     1      -9.088  10.477  66.079  1.00  0.00    -0.191 C  
HETATM   15  C   UNL     1      -9.348  11.735  65.672  1.00  0.00    -0.165 C  
HETATM   16  C   UNL     1     -10.659  12.293  65.970  1.00  0.00    -0.254 C  
HETATM   17  O   UNL     1     -11.206  13.081  65.204  1.00  0.00    -0.287 OA 
HETATM   18  C   UNL     1     -11.196  11.940  67.338  1.00  0.00    -0.366 C  
HETATM   19  C   UNL     1     -11.175  10.426  67.590  1.00  0.00    -0.287 C  
HETATM   20  C   UNL     1     -10.193   9.594  66.712  1.00  0.00    -0.308 C  
HETATM   21  C   UNL     1      -9.632   8.290  67.405  1.00  0.00    -0.205 C  
HETATM   22  C   UNL     1     -10.629   7.178  67.809  1.00  0.00    -0.293 C  
HETATM   23  C   UNL     1      -9.906   5.838  68.268  1.00  0.00    -0.170 C  
HETATM   24  C   UNL     1      -8.954   5.006  67.241  1.00  0.00    -0.113 C  
HETATM   25  C   UNL     1     -10.274   4.562  66.454  1.00  0.00    -0.249 C  
ENDBRANCH   2   4
TORSDOF 1
ENDMDL
MODEL       93
REMARK 921   NORMALIZED FREE ENERGY PREDICTED BY IDOCK:   -4.00 KCAL/MOL
REMARK 922        TOTAL FREE ENERGY PREDICTED BY IDOCK:   -3.81 KCAL/MOL
REMARK 923 INTER-LIGAND FREE ENERGY PREDICTED BY IDOCK:   -3.86 KCAL/MOL
REMARK 924 INTRA-LIGAND FREE ENERGY PREDICTED BY IDOCK:    0.05 KCAL/MOL
REMARK 927      BINDING AFFINITY PREDICTED BY RF-SCORE:    0.00 PKD
ROOT
HETATM    1  C   UNL     1     -10.651  13.476  66.340  1.00  0.00    -0.283 C  
HETATM    2  C   UNL     1     -10.578  12.012  66.711  1.00  0.00    -0.227 C  
HETATM    3  O   UNL     1     -10.895  11.153  65.876  1.00  0.00    -0.240 OA 
ENDROOT
BRANCH   2   4
HETATM    4  C   UNL     1     -10.136  11.624  68.183  1.00  0.00    -0.196 C  
HETATM    5  O   UNL     1     -10.536  12.742  69.018  1.00  0.00    -0.401 OA 
HETATM    6  C   UNL     1     -11.104  10.476  68.497  1.00  0.00    -0.329 C  
HETATM    7  C   UNL     1     -10.612  10.126  69.850  1.00  0.00    -0.331 C  
HETATM    8  H   UNL     1     -10.272  12.510  69.900  1.00  0.00     0.000 HD 
HETATM    9  C   UNL     1      -9.141   9.918  69.506  1.00  0.00    -0.237 C  
HETATM   10  C   UNL     1      -8.832   8.575  68.784  1.00  0.00    -0.139 C  
HETATM   11  C   UNL     1      -9.798   7.480  69.119  1.00  0.00    -0.170 C  
HETATM   12  C   UNL     1      -9.516   6.172  69.199  1.00  0.00    -0.144 C  
HETATM   13  C   UNL     1     -10.634   5.236  69.584  1.00  0.00    -0.261 C  
HETATM   14  C   UNL     1      -8.202   5.696  68.821  1.00  0.00    -0.103 C  
HETATM   15  C   UNL     1      -8.007   4.380  68.610  1.00  0.00    -0.077 C  
HETATM   16  C   UNL     1      -6.677   3.941  68.209  1.00  0.00    -0.046 C  
HETATM   17  O   UNL     1      -6.521   2.988  67.451  1.00  0.00    -0.035 OA 
HETATM   18  C   UNL     1      -5.544   4.652  68.912  1.00  0.00    -0.012 C  
HETATM   19  C   UNL     1      -5.671   6.178  68.810  1.00  0.00    -0.015 C  
HETATM   20  C   UNL     1      -7.094   6.732  68.505  1.00  0.00    -0.083 C  
HETATM   21  C   UNL     1      -7.387   8.164  69.107  1.00  0.00    -0.082 C  
HETATM   22  C   UNL     1      -6.532   9.359  68.625  1.00  0.00    -0.052 C  
HETATM   23  C   UNL     1      -7.091  10.761  69.126  1.00  0.00    -0.101 C  
HETATM   24  C   UNL     1      -8.572  11.277  68.686  1.00  0.00    -0.139 C  
HETATM   25  C   UNL     1      -7.998  11.519  67.213  1.00  0.00    -0.153 C  
ENDBRANCH   2   4
TORSDOF 1
ENDMDL
MODEL       94
REMARK 921   NORMALIZED FREE ENERGY PREDICTED BY IDOCK:   -3.93 KCAL/MOL
REMARK 922        TOTAL FREE ENERGY PREDICTED BY IDOCK:   -3.73 KCAL/MOL
REMARK 923 INTER-LIGAND FREE ENERGY PREDICTED BY IDOCK:   -4.19 KCAL/MOL
REMARK 924 INTRA-LIGAND FREE ENERGY PREDICTED BY IDOCK:    0.45 KCAL/MOL
REMARK 927      BINDING AFFINITY PREDICTED BY RF-SCORE:    0.00 PKD
ROOT
HETATM    1  C   UNL     1     -12.193  13.670  69.296  1.00  0.00    -0.283 C  
HETATM    2  C   UNL     1     -11.608  12.631  68.366  1.00  0.00    -0.328 C  
HETATM    3  O   UNL     1     -12.099  11.494  68.334  1.00  0.00    -0.556 OA 
ENDROOT
BRANCH   2   4
HETATM    4  C   UNL     1     -10.348  13.023  67.490  1.00  0.00    -0.224 C  
HETATM    5  O   UNL     1     -10.176  14.453  67.671  1.00  0.00    -0.228 OA 
HETATM    6  C   UNL     1      -9.214  12.345  68.271  1.00  0.00    -0.189 C  
HETATM    7  C   UNL     1      -8.082  12.700  67.385  1.00  0.00    -0.182 C  
HETATM    8  H   UNL     1      -9.420  14.688  67.146  1.00  0.00     0.000 HD 
HETATM    9  C   UNL     1      -8.645  12.157  66.076  1.00  0.00     0.265 C  
HETATM   10  C   UNL     1      -8.580  10.609  65.939  1.00  0.00    -0.177 C  
HETATM   11  C   UNL     1      -7.459   9.987  66.714  1.00  0.00    -0.096 C  
HETATM   12  C   UNL     1      -6.767   8.893  66.366  1.00  0.00    -0.074 C  
HETATM   13  C   UNL     1      -5.650   8.450  67.278  1.00  0.00    -0.038 C  
HETATM   14  C   UNL     1      -7.169   8.127  65.205  1.00  0.00    -0.068 C  
HETATM   15  C   UNL     1      -6.681   6.884  65.026  1.00  0.00    -0.050 C  
HETATM   16  C   UNL     1      -7.127   6.136  63.859  1.00  0.00    -0.056 C  
HETATM   17  O   UNL     1      -7.259   4.916  63.896  1.00  0.00    -0.048 OA 
HETATM   18  C   UNL     1      -7.259   6.960  62.599  1.00  0.00    -0.062 C  
HETATM   19  C   UNL     1      -8.128   8.205  62.815  1.00  0.00    -0.151 C  
HETATM   20  C   UNL     1      -8.282   8.692  64.286  1.00  0.00    -0.160 C  
HETATM   21  C   UNL     1      -8.495  10.250  64.447  1.00  0.00    -0.182 C  
HETATM   22  C   UNL     1      -9.757  10.893  63.826  1.00  0.00    -0.354 C  
HETATM   23  C   UNL     1      -9.961  12.407  64.269  1.00  0.00    -0.232 C  
HETATM   24  C   UNL     1     -10.185  12.797  65.834  1.00  0.00    -0.300 C  
HETATM   25  C   UNL     1     -11.646  12.153  65.735  1.00  0.00    -0.414 C  
ENDBRANCH   2   4
TORSDOF 1
ENDMDL
MODEL       95
REMARK 921   NORMALIZED FREE ENERGY PREDICTED BY IDOCK:   -3.89 KCAL/MOL
REMARK 922        TOTAL FREE ENERGY PREDICTED BY IDOCK:   -3.69 KCAL/MOL
REMARK 923 INTER-LIGAND FREE ENERGY PREDICTED BY IDOCK:   -3.78 KCAL/MOL
REMARK 924 INTRA-LIGAND FREE ENERGY PREDICTED BY IDOCK:    0.09 KCAL/MOL
REMARK 927      BINDING AFFINITY PREDICTED BY RF-SCORE:    0.00 PKD
ROOT
HETATM    1  C   UNL     1     -10.762   8.917  69.638  1.00  0.00    -0.222 C  
HETATM    2  C   UNL     1      -9.673   8.034  69.073  1.00  0.00    -0.159 C  
HETATM    3  O   UNL     1      -9.349   7.000  69.676  1.00  0.00    -0.149 OA 
ENDROOT
BRANCH   2   4
HETATM    4  C   UNL     1      -8.946   8.487  67.740  1.00  0.00    -0.136 C  
HETATM    5  O   UNL     1      -8.975   7.328  66.867  1.00  0.00    -0.125 OA 
HETATM    6  C   UNL     1      -9.958   9.489  67.169  1.00  0.00    -0.261 C  
HETATM    7  C   UNL     1      -9.206   9.911  65.964  1.00  0.00    -0.215 C  
HETATM    8  H   UNL     1      -8.539   7.599  66.068  1.00  0.00     0.000 HD 
HETATM    9  C   UNL     1      -7.905  10.322  66.646  1.00  0.00    -0.116 C  
HETATM   10  C   UNL     1      -7.968  11.692  67.381  1.00  0.00    -0.147 C  
HETATM   11  C   UNL     1      -8.966  12.642  66.791  1.00  0.00    -0.197 C  
HETATM   12  C   UNL     1      -8.855  13.977  66.743  1.00  0.00    -0.178 C  
HETATM   13  C   UNL     1      -9.965  14.748  66.073  1.00  0.00    -0.336 C  
HETATM   14  C   UNL     1      -7.750  14.631  67.412  1.00  0.00    -0.226 C  
HETATM   15  C   UNL     1      -7.795  15.961  67.625  1.00  0.00    -0.164 C  
HETATM   16  C   UNL     1      -6.675  16.580  68.321  1.00  0.00    -0.137 C  
HETATM   17  O   UNL     1      -6.841  17.542  69.065  1.00  0.00    -0.229 OA 
HETATM   18  C   UNL     1      -5.319  16.039  67.932  1.00  0.00    -0.140 C  
HETATM   19  C   UNL     1      -5.256  14.510  68.045  1.00  0.00    -0.105 C  
HETATM   20  C   UNL     1      -6.620  13.759  68.014  1.00  0.00    -0.142 C  
HETATM   21  C   UNL     1      -6.558  12.304  67.403  1.00  0.00    -0.154 C  
HETATM   22  C   UNL     1      -5.689  11.238  68.111  1.00  0.00    -0.045 C  
HETATM   23  C   UNL     1      -5.912   9.774  67.531  1.00  0.00    -0.051 C  
HETATM   24  C   UNL     1      -7.370   9.053  67.617  1.00  0.00    -0.084 C  
HETATM   25  C   UNL     1      -7.141   8.887  69.192  1.00  0.00    -0.063 C  
ENDBRANCH   2   4
TORSDOF 1
ENDMDL
MODEL       96
REMARK 921   NORMALIZED FREE ENERGY PREDICTED BY IDOCK:   -3.88 KCAL/MOL
REMARK 922        TOTAL FREE ENERGY PREDICTED BY IDOCK:   -3.68 KCAL/MOL
REMARK 923 INTER-LIGAND FREE ENERGY PREDICTED BY IDOCK:   -4.96 KCAL/MOL
REMARK 924 INTRA-LIGAND FREE ENERGY PREDICTED BY IDOCK:    1.28 KCAL/MOL
REMARK 927      BINDING AFFINITY PREDICTED BY RF-SCORE:    0.00 PKD
ROOT
HETATM    1  C   UNL     1      -8.538  19.738  70.058  1.00  0.00     1.013 C  
HETATM    2  C   UNL     1      -7.197  19.962  69.396  1.00  0.00    -0.170 C  
HETATM    3  O   UNL     1      -6.325  20.613  69.988  1.00  0.00    -0.348 OA 
ENDROOT
BRANCH   2   4
HETATM    4  C   UNL     1      -6.967  19.388  67.937  1.00  0.00    -0.246 C  
HETATM    5  O   UNL     1      -6.022  20.292  67.308  1.00  0.00    -0.175 OA 
HETATM    6  C   UNL     1      -6.200  18.094  68.238  1.00  0.00    -0.184 C  
HETATM    7  C   UNL     1      -6.061  17.584  66.854  1.00  0.00    -0.204 C  
HETATM    8  H   UNL     1      -5.883  19.948  66.433  1.00  0.00     0.000 HD 
HETATM    9  C   UNL     1      -7.533  17.618  66.455  1.00  0.00    -0.324 C  
HETATM   10  C   UNL     1      -8.389  16.464  67.051  1.00  0.00    -0.230 C  
HETATM   11  C   UNL     1      -7.604  15.218  67.328  1.00  0.00    -0.244 C  
HETATM   12  C   UNL     1      -8.057  13.960  67.237  1.00  0.00    -0.162 C  
HETATM   13  C   UNL     1      -7.087  12.843  67.531  1.00  0.00    -0.153 C  
HETATM   14  C   UNL     1      -9.459  13.719  66.968  1.00  0.00    -0.255 C  
HETATM   15  C   UNL     1      -9.974  12.491  67.173  1.00  0.00    -0.217 C  
HETATM   16  C   UNL     1     -11.393  12.292  66.912  1.00  0.00    -0.333 C  
HETATM   17  O   UNL     1     -12.060  11.507  67.580  1.00  0.00    -0.614 OA 
HETATM   18  C   UNL     1     -11.912  13.007  65.686  1.00  0.00    -0.479 C  
HETATM   19  C   UNL     1     -11.561  14.501  65.701  1.00  0.00    -0.344 C  
HETATM   20  C   UNL     1     -10.369  14.921  66.609  1.00  0.00    -0.283 C  
HETATM   21  C   UNL     1      -9.566  16.184  66.102  1.00  0.00    -0.359 C  
HETATM   22  C   UNL     1     -10.304  17.539  65.998  1.00  0.00    -0.309 C  
HETATM   23  C   UNL     1      -9.323  18.757  65.710  1.00  0.00     0.376 C  
HETATM   24  C   UNL     1      -8.150  19.154  66.768  1.00  0.00    -0.285 C  
HETATM   25  C   UNL     1      -9.287  19.710  67.747  1.00  0.00    -0.427 C  
ENDBRANCH   2   4
TORSDOF 1
ENDMDL
MODEL       97
REMARK 921   NORMALIZED FREE ENERGY PREDICTED BY IDOCK:   -3.77 KCAL/MOL
REMARK 922        TOTAL FREE ENERGY PREDICTED BY IDOCK:   -3.56 KCAL/MOL
REMARK 923 INTER-LIGAND FREE ENERGY PREDICTED BY IDOCK:   -3.61 KCAL/MOL
REMARK 924 INTRA-LIGAND FREE ENERGY PREDICTED BY IDOCK:    0.05 KCAL/MOL
REMARK 927      BINDING AFFINITY PREDICTED BY RF-SCORE:    0.00 PKD
ROOT
HETATM    1  C   UNL     1      -9.002   2.422  71.112  1.00  0.00    -0.148 C  
HETATM    2  C   UNL     1      -8.412   3.727  70.627  1.00  0.00    -0.069 C  
HETATM    3  O   UNL     1      -7.217   3.776  70.305  1.00  0.00    -0.041 OA 
ENDROOT
BRANCH   2   4
HETATM    4  C   UNL     1      -9.341   5.010  70.590  1.00  0.00    -0.160 C  
HETATM    5  O   UNL     1     -10.314   4.819  71.649  1.00  0.00    -0.196 OA 
HETATM    6  C   UNL     1      -8.374   6.098  71.077  1.00  0.00    -0.124 C  
HETATM    7  C   UNL     1      -9.275   7.269  70.972  1.00  0.00    -0.154 C  
HETATM    8  H   UNL     1     -10.871   5.588  71.627  1.00  0.00     0.000 HD 
HETATM    9  C   UNL     1      -9.690   7.102  69.514  1.00  0.00    -0.157 C  
HETATM   10  C   UNL     1      -8.609   7.537  68.483  1.00  0.00    -0.129 C  
HETATM   11  C   UNL     1      -7.688   8.601  68.996  1.00  0.00    -0.095 C  
HETATM   12  C   UNL     1      -7.120   9.575  68.270  1.00  0.00    -0.075 C  
HETATM   13  C   UNL     1      -6.245  10.569  68.993  1.00  0.00    -0.044 C  
HETATM   14  C   UNL     1      -7.277   9.583  66.831  1.00  0.00    -0.087 C  
HETATM   15  C   UNL     1      -6.476  10.363  66.079  1.00  0.00    -0.119 C  
HETATM   16  C   UNL     1      -6.648  10.327  64.633  1.00  0.00    -0.092 C  
HETATM   17  O   UNL     1      -5.694  10.468  63.874  1.00  0.00    -0.144 OA 
HETATM   18  C   UNL     1      -8.086  10.254  64.174  1.00  0.00    -0.138 C  
HETATM   19  C   UNL     1      -8.846   9.103  64.845  1.00  0.00    -0.215 C  
HETATM   20  C   UNL     1      -8.249   8.567  66.180  1.00  0.00    -0.115 C  
HETATM   21  C   UNL     1      -9.314   7.983  67.191  1.00  0.00    -0.186 C  
HETATM   22  C   UNL     1     -10.144   6.750  66.763  1.00  0.00    -0.250 C  
HETATM   23  C   UNL     1     -10.991   6.131  67.958  1.00  0.00    -0.399 C  
HETATM   24  C   UNL     1     -10.256   5.531  69.282  1.00  0.00    -0.315 C  
HETATM   25  C   UNL     1      -9.762   4.298  68.391  1.00  0.00    -0.165 C  
ENDBRANCH   2   4
TORSDOF 1
ENDMDL
MODEL       98
REMARK 921   NORMALIZED FREE ENERGY PREDICTED BY IDOCK:   -3.69 KCAL/MOL
REMARK 922        TOTAL FREE ENERGY PREDICTED BY IDOCK:   -3.48 KCAL/MOL
REMARK 923 INTER-LIGAND FREE ENERGY PREDICTED BY IDOCK:   -4.10 KCAL/MOL
REMARK 924 INTRA-LIGAND FREE ENERGY PREDICTED BY IDOCK:    0.62 KCAL/MOL
REMARK 927      BINDING AFFINITY PREDICTED BY RF-SCORE:    0.00 PKD
ROOT
HETATM    1  C   UNL     1      -7.319   3.116  71.929  1.00  0.00    -0.047 C  
HETATM    2  C   UNL     1      -7.652   4.452  71.303  1.00  0.00    -0.064 C  
HETATM    3  O   UNL     1      -6.950   5.440  71.560  1.00  0.00    -0.061 OA 
ENDROOT
BRANCH   2   4
HETATM    4  C   UNL     1      -8.926   4.552  70.366  1.00  0.00    -0.094 C  
HETATM    5  O   UNL     1      -9.254   3.186  70.004  1.00  0.00    -0.121 OA 
HETATM    6  C   UNL     1      -9.999   5.008  71.364  1.00  0.00    -0.259 C  
HETATM    7  C   UNL     1     -11.142   5.133  70.429  1.00  0.00     0.499 C  
HETATM    8  H   UNL     1     -10.017   3.246  69.443  1.00  0.00     0.000 HD 
HETATM    9  C   UNL     1     -10.494   6.061  69.407  1.00  0.00    -0.331 C  
HETATM   10  C   UNL     1     -10.390   7.546  69.859  1.00  0.00    -0.224 C  
HETATM   11  C   UNL     1     -11.457   7.951  70.830  1.00  0.00    -0.294 C  
HETATM   12  C   UNL     1     -12.020   9.164  70.927  1.00  0.00    -0.299 C  
HETATM   13  C   UNL     1     -13.105   9.351  71.959  1.00  0.00    -0.516 C  
HETATM   14  C   UNL     1     -11.511  10.259  70.129  1.00  0.00    -0.383 C  
HETATM   15  C   UNL     1     -11.860  11.523  70.435  1.00  0.00    -0.413 C  
HETATM   16  C   UNL     1     -11.310  12.600  69.623  1.00  0.00    -0.104 C  
HETATM   17  O   UNL     1     -11.050  13.696  70.110  1.00  0.00     0.083 OA 
HETATM   18  C   UNL     1     -11.236  12.296  68.145  1.00  0.00    -0.320 C  
HETATM   19  C   UNL     1     -10.510  10.974  67.865  1.00  0.00    -0.223 C  
HETATM   20  C   UNL     1     -10.444   9.960  69.046  1.00  0.00    -0.227 C  
HETATM   21  C   UNL     1     -10.401   8.442  68.610  1.00  0.00    -0.222 C  
HETATM   22  C   UNL     1      -9.200   7.945  67.771  1.00  0.00    -0.144 C  
HETATM   23  C   UNL     1      -9.169   6.362  67.615  1.00  0.00    -0.116 C  
HETATM   24  C   UNL     1      -9.025   5.395  68.917  1.00  0.00    -0.130 C  
HETATM   25  C   UNL     1      -7.501   5.868  69.039  1.00  0.00    -0.085 C  
ENDBRANCH   2   4
TORSDOF 1
ENDMDL
MODEL       99
REMARK 921   NORMALIZED FREE ENERGY PREDICTED BY IDOCK:   -3.44 KCAL/MOL
REMARK 922        TOTAL FREE ENERGY PREDICTED BY IDOCK:   -3.22 KCAL/MOL
REMARK 923 INTER-LIGAND FREE ENERGY PREDICTED BY IDOCK:   -3.88 KCAL/MOL
REMARK 924 INTRA-LIGAND FREE ENERGY PREDICTED BY IDOCK:    0.66 KCAL/MOL
REMARK 927      BINDING AFFINITY PREDICTED BY RF-SCORE:    0.00 PKD
ROOT
HETATM    1  C   UNL     1      -7.919   6.622  74.184  1.00  0.00    -0.116 C  
HETATM    2  C   UNL     1      -8.219   5.196  73.783  1.00  0.00    -0.109 C  
HETATM    3  O   UNL     1      -7.441   4.290  74.116  1.00  0.00    -0.070 OA 
ENDROOT
BRANCH   2   4
HETATM    4  C   UNL     1      -9.507   4.911  72.905  1.00  0.00    -0.134 C  
HETATM    5  O   UNL     1     -10.519   4.446  73.836  1.00  0.00    -0.184 OA 
HETATM    6  C   UNL     1      -9.913   6.332  72.493  1.00  0.00    -0.184 C  
HETATM    7  C   UNL     1     -11.078   5.999  71.641  1.00  0.00    -0.333 C  
HETATM    8  H   UNL     1     -11.291   4.275  73.309  1.00  0.00     0.000 HD 
HETATM    9  C   UNL     1     -10.393   5.012  70.701  1.00  0.00    -0.278 C  
HETATM   10  C   UNL     1      -9.488   5.673  69.622  1.00  0.00    -0.180 C  
HETATM   11  C   UNL     1      -9.920   7.058  69.246  1.00  0.00    -0.163 C  
HETATM   12  C   UNL     1      -9.801   7.623  68.036  1.00  0.00    -0.188 C  
HETATM   13  C   UNL     1     -10.332   9.024  67.863  1.00  0.00    -0.290 C  
HETATM   14  C   UNL     1      -9.092   6.927  66.984  1.00  0.00    -0.146 C  
HETATM   15  C   UNL     1      -8.710   7.600  65.881  1.00  0.00    -0.176 C  
HETATM   16  C   UNL     1      -7.979   6.870  64.854  1.00  0.00    -0.124 C  
HETATM   17  O   UNL     1      -7.113   7.419  64.178  1.00  0.00    -0.063 OA 
HETATM   18  C   UNL     1      -8.477   5.466  64.606  1.00  0.00    -0.126 C  
HETATM   19  C   UNL     1      -8.561   4.649  65.903  1.00  0.00    -0.117 C  
HETATM   20  C   UNL     1      -8.642   5.464  67.227  1.00  0.00    -0.108 C  
HETATM   21  C   UNL     1      -9.435   4.751  68.393  1.00  0.00    -0.196 C  
HETATM   22  C   UNL     1      -8.896   3.409  68.944  1.00  0.00    -0.164 C  
HETATM   23  C   UNL     1      -9.650   2.936  70.262  1.00  0.00    -0.141 C  
HETATM   24  C   UNL     1      -9.609   3.836  71.619  1.00  0.00    -0.227 C  
HETATM   25  C   UNL     1      -8.076   3.412  71.796  1.00  0.00    -0.062 C  
ENDBRANCH   2   4
TORSDOF 1
ENDMDL
MODEL      100
REMARK 921   NORMALIZED FREE ENERGY PREDICTED BY IDOCK:   -3.35 KCAL/MOL
REMARK 922        TOTAL FREE ENERGY PREDICTED BY IDOCK:   -3.12 KCAL/MOL
REMARK 923 INTER-LIGAND FREE ENERGY PREDICTED BY IDOCK:   -3.17 KCAL/MOL
REMARK 924 INTRA-LIGAND FREE ENERGY PREDICTED BY IDOCK:    0.05 KCAL/MOL
REMARK 927      BINDING AFFINITY PREDICTED BY RF-SCORE:    0.00 PKD
ROOT
HETATM    1  C   UNL     1      -9.135   5.373  73.095  1.00  0.00    -0.126 C  
HETATM    2  C   UNL     1      -8.700   6.126  71.859  1.00  0.00    -0.137 C  
HETATM    3  O   UNL     1      -7.501   6.392  71.694  1.00  0.00    -0.090 OA 
ENDROOT
BRANCH   2   4
HETATM    4  C   UNL     1      -9.810   6.595  70.828  1.00  0.00    -0.183 C  
HETATM    5  O   UNL     1     -11.023   6.756  71.608  1.00  0.00    -0.227 OA 
HETATM    6  C   UNL     1      -9.323   8.008  70.482  1.00  0.00    -0.155 C  
HETATM    7  C   UNL     1     -10.360   8.370  69.488  1.00  0.00    -0.219 C  
HETATM    8  H   UNL     1     -11.688   7.037  70.990  1.00  0.00     0.000 HD 
HETATM    9  C   UNL     1     -10.203   7.173  68.556  1.00  0.00    -0.189 C  
HETATM   10  C   UNL     1      -8.953   7.235  67.632  1.00  0.00    -0.126 C  
HETATM   11  C   UNL     1      -8.511   8.631  67.316  1.00  0.00    -0.115 C  
HETATM   12  C   UNL     1      -7.949   9.044  66.171  1.00  0.00    -0.103 C  
HETATM   13  C   UNL     1      -7.608  10.508  66.047  1.00  0.00    -0.140 C  
HETATM   14  C   UNL     1      -7.600   8.077  65.152  1.00  0.00    -0.098 C  
HETATM   15  C   UNL     1      -6.775   8.435  64.150  1.00  0.00    -0.071 C  
HETATM   16  C   UNL     1      -6.428   7.428  63.156  1.00  0.00    -0.054 C  
HETATM   17  O   UNL     1      -5.324   7.416  62.619  1.00  0.00    -0.039 OA 
HETATM   18  C   UNL     1      -7.571   6.526  62.753  1.00  0.00    -0.083 C  
HETATM   19  C   UNL     1      -8.252   5.884  63.968  1.00  0.00    -0.066 C  
HETATM   20  C   UNL     1      -8.051   6.605  65.333  1.00  0.00    -0.129 C  
HETATM   21  C   UNL     1      -9.248   6.438  66.351  1.00  0.00    -0.176 C  
HETATM   22  C   UNL     1      -9.599   5.018  66.855  1.00  0.00    -0.162 C  
HETATM   23  C   UNL     1     -10.654   5.029  68.046  1.00  0.00     0.074 C  
HETATM   24  C   UNL     1     -10.308   5.755  69.462  1.00  0.00    -0.333 C  
HETATM   25  C   UNL     1      -9.289   4.562  69.771  1.00  0.00    -0.223 C  
ENDBRANCH   2   4
TORSDOF 1
ENDMDL
MODEL      101
REMARK 921   NORMALIZED FREE ENERGY PREDICTED BY IDOCK:   -3.33 KCAL/MOL
REMARK 922        TOTAL FREE ENERGY PREDICTED BY IDOCK:   -3.10 KCAL/MOL
REMARK 923 INTER-LIGAND FREE ENERGY PREDICTED BY IDOCK:   -3.15 KCAL/MOL
REMARK 924 INTRA-LIGAND FREE ENERGY PREDICTED BY IDOCK:    0.05 KCAL/MOL
REMARK 927      BINDING AFFINITY PREDICTED BY RF-SCORE:    0.00 PKD
ROOT
HETATM    1  C   UNL     1      -8.612  13.242  68.217  1.00  0.00    -0.169 C  
HETATM    2  C   UNL     1      -8.113  11.870  67.825  1.00  0.00    -0.146 C  
HETATM    3  O   UNL     1      -7.044  11.452  68.291  1.00  0.00    -0.071 OA 
ENDROOT
BRANCH   2   4
HETATM    4  C   UNL     1      -8.961  11.023  66.789  1.00  0.00    -0.157 C  
HETATM    5  O   UNL     1      -9.721  11.993  66.021  1.00  0.00    -0.232 OA 
HETATM    6  C   UNL     1      -7.862  10.495  65.858  1.00  0.00    -0.151 C  
HETATM    7  C   UNL     1      -8.702   9.678  64.952  1.00  0.00    -0.207 C  
HETATM    8  H   UNL     1     -10.229  11.486  65.399  1.00  0.00     0.000 HD 
HETATM    9  C   UNL     1      -9.398   8.822  66.004  1.00  0.00    -0.296 C  
HETATM   10  C   UNL     1      -8.515   7.688  66.599  1.00  0.00    -0.130 C  
HETATM   11  C   UNL     1      -7.456   7.199  65.659  1.00  0.00    -0.082 C  
HETATM   12  C   UNL     1      -6.988   5.945  65.576  1.00  0.00    -0.064 C  
HETATM   13  C   UNL     1      -5.938   5.657  64.532  1.00  0.00    -0.025 C  
HETATM   14  C   UNL     1      -7.419   4.953  66.538  1.00  0.00    -0.087 C  
HETATM   15  C   UNL     1      -6.738   3.796  66.650  1.00  0.00    -0.046 C  
HETATM   16  C   UNL     1      -7.187   2.831  67.644  1.00  0.00    -0.053 C  
HETATM   17  O   UNL     1      -6.391   2.108  68.236  1.00  0.00    -0.028 OA 
HETATM   18  C   UNL     1      -8.689   2.704  67.761  1.00  0.00    -0.138 C  
HETATM   19  C   UNL     1      -9.365   4.064  67.972  1.00  0.00    -0.220 C  
HETATM   20  C   UNL     1      -8.552   5.316  67.530  1.00  0.00    -0.104 C  
HETATM   21  C   UNL     1      -9.431   6.541  67.056  1.00  0.00    -0.161 C  
HETATM   22  C   UNL     1     -10.393   7.200  68.072  1.00  0.00    -0.238 C  
HETATM   23  C   UNL     1     -11.026   8.556  67.533  1.00  0.00     0.095 C  
HETATM   24  C   UNL     1     -10.083   9.832  67.167  1.00  0.00    -0.267 C  
HETATM   25  C   UNL     1      -9.837  10.038  68.734  1.00  0.00    -0.173 C  
ENDBRANCH   2   4
TORSDOF 1
ENDMDL
MODEL      102
REMARK 921   NORMALIZED FREE ENERGY PREDICTED BY IDOCK:   -3.32 KCAL/MOL
REMARK 922        TOTAL FREE ENERGY PREDICTED BY IDOCK:   -3.08 KCAL/MOL
REMARK 923 INTER-LIGAND FREE ENERGY PREDICTED BY IDOCK:   -3.07 KCAL/MOL
REMARK 924 INTRA-LIGAND FREE ENERGY PREDICTED BY IDOCK:   -0.02 KCAL/MOL
REMARK 927      BINDING AFFINITY PREDICTED BY RF-SCORE:    0.00 PKD
ROOT
HETATM    1  C   UNL     1     -10.346   7.336  72.649  1.00  0.00    -0.264 C  
HETATM    2  C   UNL     1      -8.938   7.737  73.025  1.00  0.00    -0.199 C  
HETATM    3  O   UNL     1      -8.760   8.685  73.804  1.00  0.00    -0.238 OA 
ENDROOT
BRANCH   2   4
HETATM    4  C   UNL     1      -7.726   6.954  72.371  1.00  0.00    -0.095 C  
HETATM    5  O   UNL     1      -6.661   6.989  73.357  1.00  0.00    -0.066 OA 
HETATM    6  C   UNL     1      -8.264   5.518  72.360  1.00  0.00    -0.114 C  
HETATM    7  C   UNL     1      -7.121   4.849  71.697  1.00  0.00    -0.057 C  
HETATM    8  H   UNL     1      -5.935   6.519  72.964  1.00  0.00     0.000 HD 
HETATM    9  C   UNL     1      -7.039   5.728  70.454  1.00  0.00    -0.070 C  
HETATM   10  C   UNL     1      -8.136   5.439  69.388  1.00  0.00    -0.093 C  
HETATM   11  C   UNL     1      -8.633   4.026  69.409  1.00  0.00    -0.112 C  
HETATM   12  C   UNL     1      -9.046   3.316  68.350  1.00  0.00    -0.210 C  
HETATM   13  C   UNL     1      -9.479   1.891  68.587  1.00  0.00    -0.213 C  
HETATM   14  C   UNL     1      -9.159   3.955  67.056  1.00  0.00    -0.168 C  
HETATM   15  C   UNL     1      -9.848   3.347  66.071  1.00  0.00     0.111 C  
HETATM   16  C   UNL     1      -9.959   4.031  64.790  1.00  0.00    -0.205 C  
HETATM   17  O   UNL     1     -10.964   3.922  64.094  1.00  0.00    -0.288 OA 
HETATM   18  C   UNL     1      -8.700   4.741  64.347  1.00  0.00    -0.149 C  
HETATM   19  C   UNL     1      -8.163   5.687  65.429  1.00  0.00    -0.132 C  
HETATM   20  C   UNL     1      -8.625   5.401  66.888  1.00  0.00    -0.109 C  
HETATM   21  C   UNL     1      -7.587   5.819  68.003  1.00  0.00    -0.085 C  
HETATM   22  C   UNL     1      -7.206   7.312  68.138  1.00  0.00    -0.091 C  
HETATM   23  C   UNL     1      -6.348   7.615  69.443  1.00  0.00    -0.035 C  
HETATM   24  C   UNL     1      -6.961   7.344  70.928  1.00  0.00    -0.059 C  
HETATM   25  C   UNL     1      -7.918   8.607  70.711  1.00  0.00    -0.127 C  
ENDBRANCH   2   4
TORSDOF 1
ENDMDL
MODEL      103
REMARK 921   NORMALIZED FREE ENERGY PREDICTED BY IDOCK:   -3.28 KCAL/MOL
REMARK 922        TOTAL FREE ENERGY PREDICTED BY IDOCK:   -3.05 KCAL/MOL
REMARK 923 INTER-LIGAND FREE ENERGY PREDICTED BY IDOCK:   -3.34 KCAL/MOL
REMARK 924 INTRA-LIGAND FREE ENERGY PREDICTED BY IDOCK:    0.29 KCAL/MOL
REMARK 927      BINDING AFFINITY PREDICTED BY RF-SCORE:    0.00 PKD
ROOT
HETATM    1  C   UNL     1      -6.404  10.343  62.473  1.00  0.00    -0.143 C  
HETATM    2  C   UNL     1      -6.619   9.863  63.890  1.00  0.00    -0.126 C  
HETATM    3  O   UNL     1      -5.801  10.168  64.770  1.00  0.00    -0.101 OA 
ENDROOT
BRANCH   2   4
HETATM    4  C   UNL     1      -7.870   8.940  64.196  1.00  0.00    -0.135 C  
HETATM    5  O   UNL     1      -8.549   8.770  62.925  1.00  0.00    -0.331 OA 
HETATM    6  C   UNL     1      -7.189   7.601  64.508  1.00  0.00    -0.076 C  
HETATM    7  C   UNL     1      -8.393   6.802  64.833  1.00  0.00    -0.025 C  
HETATM    8  H   UNL     1      -9.299   8.216  63.108  1.00  0.00     0.000 HD 
HETATM    9  C   UNL     1      -8.986   7.715  65.901  1.00  0.00    -0.144 C  
HETATM   10  C   UNL     1      -8.271   7.642  67.280  1.00  0.00    -0.119 C  
HETATM   11  C   UNL     1      -7.622   6.319  67.548  1.00  0.00    -0.097 C  
HETATM   12  C   UNL     1      -7.492   5.727  68.744  1.00  0.00    -0.085 C  
HETATM   13  C   UNL     1      -6.830   4.372  68.788  1.00  0.00    -0.050 C  
HETATM   14  C   UNL     1      -7.889   6.436  69.943  1.00  0.00    -0.114 C  
HETATM   15  C   UNL     1      -7.489   5.982  71.146  1.00  0.00    -0.085 C  
HETATM   16  C   UNL     1      -7.890   6.734  72.328  1.00  0.00    -0.095 C  
HETATM   17  O   UNL     1      -7.162   6.807  73.314  1.00  0.00    -0.076 OA 
HETATM   18  C   UNL     1      -9.302   7.269  72.282  1.00  0.00    -0.162 C  
HETATM   19  C   UNL     1      -9.571   8.074  71.004  1.00  0.00    -0.184 C  
HETATM   20  C   UNL     1      -8.625   7.792  69.800  1.00  0.00    -0.134 C  
HETATM   21  C   UNL     1      -9.285   8.000  68.379  1.00  0.00    -0.135 C  
HETATM   22  C   UNL     1      -9.785   9.412  67.994  1.00  0.00    -0.167 C  
HETATM   23  C   UNL     1     -10.200   9.523  66.462  1.00  0.00    -0.307 C  
HETATM   24  C   UNL     1      -9.107   9.278  65.280  1.00  0.00    -0.271 C  
HETATM   25  C   UNL     1      -8.440  10.677  65.671  1.00  0.00    -0.180 C  
ENDBRANCH   2   4
TORSDOF 1
ENDMDL
MODEL      104
REMARK 921   NORMALIZED FREE ENERGY PREDICTED BY IDOCK:   -3.12 KCAL/MOL
REMARK 922        TOTAL FREE ENERGY PREDICTED BY IDOCK:   -2.87 KCAL/MOL
REMARK 923 INTER-LIGAND FREE ENERGY PREDICTED BY IDOCK:   -3.30 KCAL/MOL
REMARK 924 INTRA-LIGAND FREE ENERGY PREDICTED BY IDOCK:    0.42 KCAL/MOL
REMARK 927      BINDING AFFINITY PREDICTED BY RF-SCORE:    0.00 PKD
ROOT
HETATM    1  C   UNL     1      -5.978   4.571  64.765  1.00  0.00    -0.025 C  
HETATM    2  C   UNL     1      -7.270   3.888  65.152  1.00  0.00    -0.067 C  
HETATM    3  O   UNL     1      -7.903   3.250  64.299  1.00  0.00    -0.079 OA 
ENDROOT
BRANCH   2   4
HETATM    4  C   UNL     1      -7.798   4.050  66.637  1.00  0.00    -0.093 C  
HETATM    5  O   UNL     1      -7.667   2.738  67.243  1.00  0.00    -0.068 OA 
HETATM    6  C   UNL     1      -6.701   4.927  67.254  1.00  0.00    -0.055 C  
HETATM    7  C   UNL     1      -7.271   5.085  68.612  1.00  0.00    -0.062 C  
HETATM    8  H   UNL     1      -7.984   2.835  68.133  1.00  0.00     0.000 HD 
HETATM    9  C   UNL     1      -8.647   5.611  68.216  1.00  0.00    -0.107 C  
HETATM   10  C   UNL     1      -8.664   7.102  67.774  1.00  0.00    -0.125 C  
HETATM   11  C   UNL     1      -7.580   7.924  68.401  1.00  0.00    -0.108 C  
HETATM   12  C   UNL     1      -7.661   9.220  68.735  1.00  0.00    -0.079 C  
HETATM   13  C   UNL     1      -6.456   9.852  69.388  1.00  0.00    -0.046 C  
HETATM   14  C   UNL     1      -8.837   9.983  68.374  1.00  0.00    -0.117 C  
HETATM   15  C   UNL     1      -8.800  11.328  68.432  1.00  0.00    -0.159 C  
HETATM   16  C   UNL     1      -9.996  12.062  68.040  1.00  0.00    -0.197 C  
HETATM   17  O   UNL     1      -9.919  13.158  67.492  1.00  0.00    -0.217 OA 
HETATM   18  C   UNL     1     -11.294  11.437  68.495  1.00  0.00    -0.333 C  
HETATM   19  C   UNL     1     -11.396   9.962  68.082  1.00  0.00    -0.027 C  
HETATM   20  C   UNL     1     -10.054   9.238  67.769  1.00  0.00    -0.253 C  
HETATM   21  C   UNL     1     -10.054   7.688  68.074  1.00  0.00    -0.226 C  
HETATM   22  C   UNL     1     -11.030   6.779  67.291  1.00  0.00    -0.433 C  
HETATM   23  C   UNL     1     -10.752   5.230  67.523  1.00  0.00    -0.063 C  
HETATM   24  C   UNL     1      -9.332   4.560  67.090  1.00  0.00    -0.163 C  
HETATM   25  C   UNL     1      -9.780   4.716  65.563  1.00  0.00    -0.192 C  
ENDBRANCH   2   4
TORSDOF 1
ENDMDL
MODEL      105
REMARK 921   NORMALIZED FREE ENERGY PREDICTED BY IDOCK:   -3.09 KCAL/MOL
REMARK 922        TOTAL FREE ENERGY PREDICTED BY IDOCK:   -2.84 KCAL/MOL
REMARK 923 INTER-LIGAND FREE ENERGY PREDICTED BY IDOCK:   -3.72 KCAL/MOL
REMARK 924 INTRA-LIGAND FREE ENERGY PREDICTED BY IDOCK:    0.88 KCAL/MOL
REMARK 927      BINDING AFFINITY PREDICTED BY RF-SCORE:    0.00 PKD
ROOT
HETATM    1  C   UNL     1      -7.288   4.611  67.072  1.00  0.00    -0.081 C  
HETATM    2  C   UNL     1      -6.603   5.821  67.666  1.00  0.00    -0.053 C  
HETATM    3  O   UNL     1      -5.511   6.190  67.210  1.00  0.00    -0.005 OA 
ENDROOT
BRANCH   2   4
HETATM    4  C   UNL     1      -7.290   6.557  68.890  1.00  0.00    -0.093 C  
HETATM    5  O   UNL     1      -7.078   5.690  70.034  1.00  0.00    -0.062 OA 
HETATM    6  C   UNL     1      -6.360   7.763  69.078  1.00  0.00    -0.036 C  
HETATM    7  C   UNL     1      -7.075   8.431  70.190  1.00  0.00    -0.043 C  
HETATM    8  H   UNL     1      -7.489   6.131  70.768  1.00  0.00     0.000 HD 
HETATM    9  C   UNL     1      -8.454   8.523  69.545  1.00  0.00    -0.127 C  
HETATM   10  C   UNL     1      -8.589   9.638  68.468  1.00  0.00    -0.119 C  
HETATM   11  C   UNL     1      -7.667  10.797  68.689  1.00  0.00    -0.114 C  
HETATM   12  C   UNL     1      -7.920  12.079  68.389  1.00  0.00    -0.152 C  
HETATM   13  C   UNL     1      -6.862  13.100  68.725  1.00  0.00    -0.102 C  
HETATM   14  C   UNL     1      -9.131  12.424  67.674  1.00  0.00    -0.186 C  
HETATM   15  C   UNL     1      -9.247  13.642  67.111  1.00  0.00    -0.244 C  
HETATM   16  C   UNL     1     -10.470  13.944  66.380  1.00  0.00    -0.284 C  
HETATM   17  O   UNL     1     -10.459  14.676  65.394  1.00  0.00    -0.327 OA 
HETATM   18  C   UNL     1     -11.731  13.413  67.021  1.00  0.00    -0.426 C  
HETATM   19  C   UNL     1     -11.632  11.913  67.327  1.00  0.00    -0.364 C  
HETATM   20  C   UNL     1     -10.195  11.323  67.432  1.00  0.00    -0.217 C  
HETATM   21  C   UNL     1     -10.056  10.092  68.413  1.00  0.00    -0.184 C  
HETATM   22  C   UNL     1     -10.846   8.801  68.097  1.00  0.00    -0.038 C  
HETATM   23  C   UNL     1     -10.427   7.578  69.024  1.00  0.00    -0.216 C  
HETATM   24  C   UNL     1      -8.907   6.993  69.000  1.00  0.00    -0.134 C  
HETATM   25  C   UNL     1      -9.216   6.381  67.555  1.00  0.00    -0.112 C  
ENDBRANCH   2   4
TORSDOF 1
ENDMDL
MODEL      106
REMARK 921   NORMALIZED FREE ENERGY PREDICTED BY IDOCK:   -2.91 KCAL/MOL
REMARK 922        TOTAL FREE ENERGY PREDICTED BY IDOCK:   -2.66 KCAL/MOL
REMARK 923 INTER-LIGAND FREE ENERGY PREDICTED BY IDOCK:   -2.71 KCAL/MOL
REMARK 924 INTRA-LIGAND FREE ENERGY PREDICTED BY IDOCK:    0.05 KCAL/MOL
REMARK 927      BINDING AFFINITY PREDICTED BY RF-SCORE:    0.00 PKD
ROOT
HETATM    1  C   UNL     1      -5.991  11.288  70.519  1.00  0.00    -0.112 C  
HETATM    2  C   UNL     1      -6.230  10.579  69.206  1.00  0.00    -0.048 C  
HETATM    3  O   UNL     1      -5.265  10.150  68.557  1.00  0.00    -0.036 OA 
ENDROOT
BRANCH   2   4
HETATM    4  C   UNL     1      -7.718  10.446  68.676  1.00  0.00    -0.101 C  
HETATM    5  O   UNL     1      -8.437  11.571  69.245  1.00  0.00    -0.366 OA 
HETATM    6  C   UNL     1      -7.537  10.754  67.184  1.00  0.00    -0.105 C  
HETATM    7  C   UNL     1      -8.937  10.565  66.740  1.00  0.00    -0.149 C  
HETATM    8  H   UNL     1      -9.328  11.492  68.928  1.00  0.00     0.000 HD 
HETATM    9  C   UNL     1      -9.158   9.160  67.289  1.00  0.00    -0.143 C  
HETATM   10  C   UNL     1      -8.489   8.030  66.457  1.00  0.00    -0.137 C  
HETATM   11  C   UNL     1      -8.332   8.368  65.006  1.00  0.00    -0.169 C  
HETATM   12  C   UNL     1      -8.394   7.507  63.980  1.00  0.00     0.139 C  
HETATM   13  C   UNL     1      -8.241   8.064  62.587  1.00  0.00    -0.129 C  
HETATM   14  C   UNL     1      -8.501   6.087  64.240  1.00  0.00     0.074 C  
HETATM   15  C   UNL     1      -8.261   5.209  63.247  1.00  0.00    -0.113 C  
HETATM   16  C   UNL     1      -8.356   3.788  63.552  1.00  0.00    -0.091 C  
HETATM   17  O   UNL     1      -7.630   2.967  62.998  1.00  0.00    -0.059 OA 
HETATM   18  C   UNL     1      -9.496   3.418  64.471  1.00  0.00    -0.149 C  
HETATM   19  C   UNL     1      -9.493   4.256  65.757  1.00  0.00    -0.176 C  
HETATM   20  C   UNL     1      -8.724   5.608  65.697  1.00  0.00    -0.151 C  
HETATM   21  C   UNL     1      -9.297   6.736  66.645  1.00  0.00    -0.197 C  
HETATM   22  C   UNL     1      -9.284   6.495  68.173  1.00  0.00    -0.112 C  
HETATM   23  C   UNL     1      -9.662   7.797  69.006  1.00  0.00    -0.157 C  
HETATM   24  C   UNL     1      -8.743   9.139  68.923  1.00  0.00    -0.132 C  
HETATM   25  C   UNL     1      -7.625   8.368  69.769  1.00  0.00    -0.087 C  
ENDBRANCH   2   4
TORSDOF 1
ENDMDL
MODEL      107
REMARK 921   NORMALIZED FREE ENERGY PREDICTED BY IDOCK:   -2.77 KCAL/MOL
REMARK 922        TOTAL FREE ENERGY PREDICTED BY IDOCK:   -2.50 KCAL/MOL
REMARK 923 INTER-LIGAND FREE ENERGY PREDICTED BY IDOCK:   -3.02 KCAL/MOL
REMARK 924 INTRA-LIGAND FREE ENERGY PREDICTED BY IDOCK:    0.52 KCAL/MOL
REMARK 927      BINDING AFFINITY PREDICTED BY RF-SCORE:    0.00 PKD
ROOT
HETATM    1  C   UNL     1      -6.166  16.404  70.060  1.00  0.00    -0.102 C  
HETATM    2  C   UNL     1      -7.231  16.747  69.044  1.00  0.00    -0.225 C  
HETATM    3  O   UNL     1      -7.830  17.829  69.128  1.00  0.00    -0.146 OA 
ENDROOT
BRANCH   2   4
HETATM    4  C   UNL     1      -7.579  15.684  67.922  1.00  0.00    -0.131 C  
HETATM    5  O   UNL     1      -7.005  16.208  66.696  1.00  0.00    -0.211 OA 
HETATM    6  C   UNL     1      -6.699  14.500  68.345  1.00  0.00    -0.105 C  
HETATM    7  C   UNL     1      -7.103  13.531  67.299  1.00  0.00     0.028 C  
HETATM    8  H   UNL     1      -7.213  15.570  66.024  1.00  0.00     0.000 HD 
HETATM    9  C   UNL     1      -8.611  13.581  67.519  1.00  0.00    -0.193 C  
HETATM   10  C   UNL     1      -9.106  12.802  68.772  1.00  0.00     0.168 C  
HETATM   11  C   UNL     1      -8.221  11.653  69.150  1.00  0.00     0.217 C  
HETATM   12  C   UNL     1      -8.617  10.497  69.701  1.00  0.00     0.022 C  
HETATM   13  C   UNL     1      -7.562   9.454  69.974  1.00  0.00    -0.113 C  
HETATM   14  C   UNL     1      -9.998  10.328  70.103  1.00  0.00    -0.050 C  
HETATM   15  C   UNL     1     -10.333   9.309  70.917  1.00  0.00    -0.367 C  
HETATM   16  C   UNL     1     -11.727   9.184  71.318  1.00  0.00    -0.326 C  
HETATM   17  O   UNL     1     -12.036   8.753  72.426  1.00  0.00    -0.361 OA 
HETATM   18  C   UNL     1     -12.724   9.482  70.223  1.00  0.00     0.380 C  
HETATM   19  C   UNL     1     -12.463  10.843  69.563  1.00  0.00    -0.126 C  
HETATM   20  C   UNL     1     -11.027  11.421  69.720  1.00  0.00    -0.118 C  
HETATM   21  C   UNL     1     -10.550  12.338  68.524  1.00  0.00    -0.254 C  
HETATM   22  C   UNL     1     -11.328  13.644  68.236  1.00  0.00    -0.322 C  
HETATM   23  C   UNL     1     -10.598  14.576  67.174  1.00  0.00    -0.274 C  
HETATM   24  C   UNL     1      -9.119  15.187  67.474  1.00  0.00    -0.187 C  
HETATM   25  C   UNL     1      -9.793  16.165  68.546  1.00  0.00    -0.226 C  
ENDBRANCH   2   4
TORSDOF 1
ENDMDL
MODEL      108
REMARK 921   NORMALIZED FREE ENERGY PREDICTED BY IDOCK:   -2.76 KCAL/MOL
REMARK 922        TOTAL FREE ENERGY PREDICTED BY IDOCK:   -2.50 KCAL/MOL
REMARK 923 INTER-LIGAND FREE ENERGY PREDICTED BY IDOCK:   -3.03 KCAL/MOL
REMARK 924 INTRA-LIGAND FREE ENERGY PREDICTED BY IDOCK:    0.53 KCAL/MOL
REMARK 927      BINDING AFFINITY PREDICTED BY RF-SCORE:    0.00 PKD
ROOT
HETATM    1  C   UNL     1      -7.986  10.187  69.757  1.00  0.00    -0.172 C  
HETATM    2  C   UNL     1      -8.868   9.449  68.775  1.00  0.00    -0.132 C  
HETATM    3  O   UNL     1      -9.154   9.979  67.692  1.00  0.00    -0.134 OA 
ENDROOT
BRANCH   2   4
HETATM    4  C   UNL     1      -9.440   8.030  69.188  1.00  0.00    -0.155 C  
HETATM    5  O   UNL     1     -10.259   8.267  70.363  1.00  0.00    -0.196 OA 
HETATM    6  C   UNL     1     -10.408   7.746  68.032  1.00  0.00    -0.263 C  
HETATM    7  C   UNL     1     -10.866   6.399  68.444  1.00  0.00    -0.383 C  
HETATM    8  H   UNL     1     -10.602   7.416  70.611  1.00  0.00     0.000 HD 
HETATM    9  C   UNL     1      -9.502   5.732  68.585  1.00  0.00    -0.144 C  
HETATM   10  C   UNL     1      -8.828   5.353  67.235  1.00  0.00    -0.105 C  
HETATM   11  C   UNL     1      -9.806   5.081  66.133  1.00  0.00    -0.214 C  
HETATM   12  C   UNL     1      -9.650   4.199  65.135  1.00  0.00    -0.185 C  
HETATM   13  C   UNL     1     -10.777   4.057  64.143  1.00  0.00    -0.185 C  
HETATM   14  C   UNL     1      -8.391   3.501  64.984  1.00  0.00    -0.097 C  
HETATM   15  C   UNL     1      -8.123   2.856  63.832  1.00  0.00    -0.082 C  
HETATM   16  C   UNL     1      -6.836   2.184  63.708  1.00  0.00    -0.035 C  
HETATM   17  O   UNL     1      -6.256   2.113  62.629  1.00  0.00    -0.009 OA 
HETATM   18  C   UNL     1      -6.376   1.475  64.961  1.00  0.00    -0.018 C  
HETATM   19  C   UNL     1      -6.394   2.401  66.184  1.00  0.00    -0.024 C  
HETATM   20  C   UNL     1      -7.314   3.654  66.088  1.00  0.00    -0.072 C  
HETATM   21  C   UNL     1      -7.900   4.150  67.469  1.00  0.00    -0.091 C  
HETATM   22  C   UNL     1      -6.916   4.632  68.561  1.00  0.00    -0.052 C  
HETATM   23  C   UNL     1      -7.649   5.322  69.792  1.00  0.00    -0.069 C  
HETATM   24  C   UNL     1      -8.531   6.676  69.588  1.00  0.00    -0.132 C  
HETATM   25  C   UNL     1      -7.163   7.477  69.369  1.00  0.00    -0.082 C  
ENDBRANCH   2   4
TORSDOF 1
ENDMDL
MODEL      109
REMARK 921   NORMALIZED FREE ENERGY PREDICTED BY IDOCK:   -2.76 KCAL/MOL
REMARK 922        TOTAL FREE ENERGY PREDICTED BY IDOCK:   -2.50 KCAL/MOL
REMARK 923 INTER-LIGAND FREE ENERGY PREDICTED BY IDOCK:   -2.48 KCAL/MOL
REMARK 924 INTRA-LIGAND FREE ENERGY PREDICTED BY IDOCK:   -0.01 KCAL/MOL
REMARK 927      BINDING AFFINITY PREDICTED BY RF-SCORE:    0.00 PKD
ROOT
HETATM    1  C   UNL     1      -8.924   9.352  70.160  1.00  0.00    -0.256 C  
HETATM    2  C   UNL     1      -7.439   9.636  70.144  1.00  0.00    -0.153 C  
HETATM    3  O   UNL     1      -7.031  10.776  70.410  1.00  0.00    -0.252 OA 
ENDROOT
BRANCH   2   4
HETATM    4  C   UNL     1      -6.448   8.467  69.740  1.00  0.00    -0.035 C  
HETATM    5  O   UNL     1      -5.290   8.623  70.600  1.00  0.00    -0.027 OA 
HETATM    6  C   UNL     1      -7.209   7.237  70.252  1.00  0.00    -0.067 C  
HETATM    7  C   UNL     1      -6.268   6.184  69.804  1.00  0.00    -0.027 C  
HETATM    8  H   UNL     1      -4.696   7.922  70.358  1.00  0.00     0.000 HD 
HETATM    9  C   UNL     1      -6.184   6.571  68.331  1.00  0.00    -0.033 C  
HETATM   10  C   UNL     1      -7.424   6.160  67.486  1.00  0.00    -0.082 C  
HETATM   11  C   UNL     1      -8.136   4.953  68.016  1.00  0.00    -0.093 C  
HETATM   12  C   UNL     1      -8.773   4.025  67.288  1.00  0.00    -0.120 C  
HETATM   13  C   UNL     1      -9.400   2.867  68.023  1.00  0.00    -0.258 C  
HETATM   14  C   UNL     1      -8.924   4.211  65.860  1.00  0.00    -0.126 C  
HETATM   15  C   UNL     1      -9.806   3.454  65.180  1.00  0.00    -0.041 C  
HETATM   16  C   UNL     1      -9.947   3.686  63.749  1.00  0.00    -0.182 C  
HETATM   17  O   UNL     1     -11.027   3.544  63.184  1.00  0.00    -0.182 OA 
HETATM   18  C   UNL     1      -8.648   3.958  63.027  1.00  0.00    -0.094 C  
HETATM   19  C   UNL     1      -7.849   5.088  63.689  1.00  0.00    -0.088 C  
HETATM   20  C   UNL     1      -8.187   5.392  65.179  1.00  0.00    -0.138 C  
HETATM   21  C   UNL     1      -6.978   5.951  66.029  1.00  0.00    -0.062 C  
HETATM   22  C   UNL     1      -6.349   7.304  65.623  1.00  0.00    -0.041 C  
HETATM   23  C   UNL     1      -5.315   7.853  66.700  1.00  0.00    -0.028 C  
HETATM   24  C   UNL     1      -5.795   8.207  68.215  1.00  0.00    -0.037 C  
HETATM   25  C   UNL     1      -6.554   9.485  67.625  1.00  0.00    -0.063 C  
ENDBRANCH   2   4
TORSDOF 1
ENDMDL
MODEL      110
REMARK 921   NORMALIZED FREE ENERGY PREDICTED BY IDOCK:   -2.62 KCAL/MOL
REMARK 922        TOTAL FREE ENERGY PREDICTED BY IDOCK:   -2.35 KCAL/MOL
REMARK 923 INTER-LIGAND FREE ENERGY PREDICTED BY IDOCK:   -3.91 KCAL/MOL
REMARK 924 INTRA-LIGAND FREE ENERGY PREDICTED BY IDOCK:    1.57 KCAL/MOL
REMARK 927      BINDING AFFINITY PREDICTED BY RF-SCORE:    0.00 PKD
ROOT
HETATM    1  C   UNL     1      -8.756  15.051  69.264  1.00  0.00    -0.161 C  
HETATM    2  C   UNL     1      -7.303  14.827  68.913  1.00  0.00    -0.130 C  
HETATM    3  O   UNL     1      -6.472  15.715  69.152  1.00  0.00    -0.117 OA 
ENDROOT
BRANCH   2   4
HETATM    4  C   UNL     1      -6.895  13.470  68.204  1.00  0.00    -0.119 C  
HETATM    5  O   UNL     1      -5.966  13.842  67.153  1.00  0.00    -0.338 OA 
HETATM    6  C   UNL     1      -6.064  12.794  69.302  1.00  0.00    -0.099 C  
HETATM    7  C   UNL     1      -5.758  11.522  68.606  1.00  0.00    -0.042 C  
HETATM    8  H   UNL     1      -5.721  13.029  66.728  1.00  0.00     0.000 HD 
HETATM    9  C   UNL     1      -7.184  11.111  68.256  1.00  0.00    -0.083 C  
HETATM   10  C   UNL     1      -8.002  10.540  69.450  1.00  0.00    -0.146 C  
HETATM   11  C   UNL     1      -7.154   9.887  70.497  1.00  0.00    -0.110 C  
HETATM   12  C   UNL     1      -7.501   8.835  71.254  1.00  0.00    -0.127 C  
HETATM   13  C   UNL     1      -6.480   8.310  72.233  1.00  0.00    -0.074 C  
HETATM   14  C   UNL     1      -8.849   8.313  71.184  1.00  0.00    -0.182 C  
HETATM   15  C   UNL     1      -9.286   7.471  72.141  1.00  0.00    -0.176 C  
HETATM   16  C   UNL     1     -10.656   6.984  72.049  1.00  0.00    -0.211 C  
HETATM   17  O   UNL     1     -11.320   6.757  73.056  1.00  0.00    -0.200 OA 
HETATM   18  C   UNL     1     -11.111   6.651  70.647  1.00  0.00    -0.349 C  
HETATM   19  C   UNL     1     -10.877   7.816  69.676  1.00  0.00    -0.185 C  
HETATM   20  C   UNL     1      -9.810   8.866  70.102  1.00  0.00    -0.199 C  
HETATM   21  C   UNL     1      -9.061   9.570  68.901  1.00  0.00    -0.141 C  
HETATM   22  C   UNL     1      -9.887  10.425  67.911  1.00  0.00    -0.176 C  
HETATM   23  C   UNL     1      -8.979  11.260  66.908  1.00  0.00    -0.163 C  
HETATM   24  C   UNL     1      -7.943  12.389  67.461  1.00  0.00    -0.173 C  
HETATM   25  C   UNL     1      -9.205  13.310  67.803  1.00  0.00    -0.209 C  
ENDBRANCH   2   4
TORSDOF 1
ENDMDL
MODEL      111
REMARK 921   NORMALIZED FREE ENERGY PREDICTED BY IDOCK:   -2.56 KCAL/MOL
REMARK 922        TOTAL FREE ENERGY PREDICTED BY IDOCK:   -2.29 KCAL/MOL
REMARK 923 INTER-LIGAND FREE ENERGY PREDICTED BY IDOCK:   -2.86 KCAL/MOL
REMARK 924 INTRA-LIGAND FREE ENERGY PREDICTED BY IDOCK:    0.58 KCAL/MOL
REMARK 927      BINDING AFFINITY PREDICTED BY RF-SCORE:    0.00 PKD
ROOT
HETATM    1  C   UNL     1     -12.021  16.371  72.310  1.00  0.00    -0.521 C  
HETATM    2  C   UNL     1     -11.483  16.092  70.925  1.00  0.00    -0.416 C  
HETATM    3  O   UNL     1     -10.415  16.609  70.568  1.00  0.00     0.202 OA 
ENDROOT
BRANCH   2   4
HETATM    4  C   UNL     1     -12.333  15.175  69.952  1.00  0.00    -0.276 C  
HETATM    5  O   UNL     1     -13.575  15.891  69.727  1.00  0.00     0.092 OA 
HETATM    6  C   UNL     1     -11.526  15.283  68.652  1.00  0.00    -0.350 C  
HETATM    7  C   UNL     1     -12.332  14.374  67.805  1.00  0.00    -0.022 C  
HETATM    8  H   UNL     1     -14.085  15.341  69.144  1.00  0.00     0.000 HD 
HETATM    9  C   UNL     1     -12.310  13.147  68.711  1.00  0.00     0.096 C  
HETATM   10  C   UNL     1     -10.968  12.360  68.697  1.00  0.00    -0.283 C  
HETATM   11  C   UNL     1     -10.212  12.490  67.410  1.00  0.00    -0.217 C  
HETATM   12  C   UNL     1      -9.438  11.551  66.848  1.00  0.00    -0.194 C  
HETATM   13  C   UNL     1      -8.789  11.877  65.526  1.00  0.00     0.268 C  
HETATM   14  C   UNL     1      -9.171  10.319  67.560  1.00  0.00    -0.153 C  
HETATM   15  C   UNL     1      -8.170   9.517  67.149  1.00  0.00    -0.113 C  
HETATM   16  C   UNL     1      -7.917   8.297  67.904  1.00  0.00    -0.123 C  
HETATM   17  O   UNL     1      -6.780   7.850  68.029  1.00  0.00    -0.063 OA 
HETATM   18  C   UNL     1      -9.161   7.580  68.373  1.00  0.00    -0.133 C  
HETATM   19  C   UNL     1     -10.107   8.513  69.140  1.00  0.00    -0.207 C  
HETATM   20  C   UNL     1      -9.934  10.038  68.879  1.00  0.00    -0.198 C  
HETATM   21  C   UNL     1     -11.258  10.888  69.029  1.00  0.00    -0.327 C  
HETATM   22  C   UNL     1     -11.955  10.936  70.409  1.00  0.00    -0.453 C  
HETATM   23  C   UNL     1     -13.126  12.011  70.473  1.00  0.00     0.397 C  
HETATM   24  C   UNL     1     -12.819  13.596  70.254  1.00  0.00    -0.053 C  
HETATM   25  C   UNL     1     -12.114  13.608  71.690  1.00  0.00     0.182 C  
ENDBRANCH   2   4
TORSDOF 1
ENDMDL
MODEL      112
REMARK 921   NORMALIZED FREE ENERGY PREDICTED BY IDOCK:   -2.55 KCAL/MOL
REMARK 922        TOTAL FREE ENERGY PREDICTED BY IDOCK:   -2.28 KCAL/MOL
REMARK 923 INTER-LIGAND FREE ENERGY PREDICTED BY IDOCK:   -3.28 KCAL/MOL
REMARK 924 INTRA-LIGAND FREE ENERGY PREDICTED BY IDOCK:    1.01 KCAL/MOL
REMARK 927      BINDING AFFINITY PREDICTED BY RF-SCORE:    0.00 PKD
ROOT
HETATM    1  C   UNL     1     -12.173  12.066  64.008  1.00  0.00    -0.505 C  
HETATM    2  C   UNL     1     -11.911  12.068  65.497  1.00  0.00    -0.181 C  
HETATM    3  O   UNL     1     -12.865  12.120  66.286  1.00  0.00     0.752 OA 
ENDROOT
BRANCH   2   4
HETATM    4  C   UNL     1     -10.409  12.050  66.002  1.00  0.00    -0.238 C  
HETATM    5  O   UNL     1      -9.934  13.414  65.866  1.00  0.00    -0.289 OA 
HETATM    6  C   UNL     1     -10.598  11.801  67.504  1.00  0.00    -0.247 C  
HETATM    7  C   UNL     1      -9.174  11.743  67.907  1.00  0.00    -0.181 C  
HETATM    8  H   UNL     1      -9.034  13.403  66.168  1.00  0.00     0.000 HD 
HETATM    9  C   UNL     1      -8.708  10.670  66.928  1.00  0.00    -0.133 C  
HETATM   10  C   UNL     1      -9.126   9.222  67.313  1.00  0.00    -0.143 C  
HETATM   11  C   UNL     1      -9.297   9.021  68.787  1.00  0.00    -0.140 C  
HETATM   12  C   UNL     1      -9.042   7.894  69.468  1.00  0.00    -0.149 C  
HETATM   13  C   UNL     1      -9.253   7.915  70.961  1.00  0.00    -0.164 C  
HETATM   14  C   UNL     1      -8.677   6.690  68.753  1.00  0.00    -0.128 C  
HETATM   15  C   UNL     1      -8.715   5.502  69.388  1.00  0.00    -0.107 C  
HETATM   16  C   UNL     1      -8.363   4.310  68.629  1.00  0.00    -0.083 C  
HETATM   17  O   UNL     1      -8.903   3.230  68.853  1.00  0.00    -0.092 OA 
HETATM   18  C   UNL     1      -7.203   4.490  67.678  1.00  0.00    -0.065 C  
HETATM   19  C   UNL     1      -7.405   5.692  66.747  1.00  0.00    -0.083 C  
HETATM   20  C   UNL     1      -8.414   6.777  67.228  1.00  0.00    -0.120 C  
HETATM   21  C   UNL     1      -8.094   8.242  66.730  1.00  0.00    -0.103 C  
HETATM   22  C   UNL     1      -8.109   8.528  65.210  1.00  0.00    -0.138 C  
HETATM   23  C   UNL     1      -8.011  10.080  64.873  1.00  0.00    -0.140 C  
HETATM   24  C   UNL     1      -9.164  11.118  65.368  1.00  0.00    -0.225 C  
HETATM   25  C   UNL     1     -10.142  10.477  64.276  1.00  0.00    -0.380 C  
ENDBRANCH   2   4
TORSDOF 1
ENDMDL
MODEL      113
REMARK 921   NORMALIZED FREE ENERGY PREDICTED BY IDOCK:   -1.72 KCAL/MOL
REMARK 922        TOTAL FREE ENERGY PREDICTED BY IDOCK:   -1.39 KCAL/MOL
REMARK 923 INTER-LIGAND FREE ENERGY PREDICTED BY IDOCK:   -1.93 KCAL/MOL
REMARK 924 INTRA-LIGAND FREE ENERGY PREDICTED BY IDOCK:    0.54 KCAL/MOL
REMARK 927      BINDING AFFINITY PREDICTED BY RF-SCORE:    0.00 PKD
ROOT
HETATM    1  C   UNL     1     -12.260  13.359  69.993  1.00  0.00    -0.367 C  
HETATM    2  C   UNL     1     -11.648  12.167  69.295  1.00  0.00    -0.318 C  
HETATM    3  O   UNL     1     -12.233  11.074  69.324  1.00  0.00    -0.369 OA 
ENDROOT
BRANCH   2   4
HETATM    4  C   UNL     1     -10.245  12.345  68.581  1.00  0.00    -0.157 C  
HETATM    5  O   UNL     1     -10.016  13.777  68.520  1.00  0.00    -0.230 OA 
HETATM    6  C   UNL     1      -9.290  11.795  69.649  1.00  0.00     1.379 C  
HETATM    7  C   UNL     1      -8.014  11.939  68.910  1.00  0.00     0.040 C  
HETATM    8  H   UNL     1      -9.175  13.884  68.092  1.00  0.00     0.000 HD 
HETATM    9  C   UNL     1      -8.398  11.172  67.649  1.00  0.00    -0.122 C  
HETATM   10  C   UNL     1      -8.407   9.625  67.813  1.00  0.00    -0.121 C  
HETATM   11  C   UNL     1      -7.460   9.130  68.863  1.00  0.00    -0.075 C  
HETATM   12  C   UNL     1      -6.791   7.969  68.841  1.00  0.00    -0.061 C  
HETATM   13  C   UNL     1      -5.858   7.676  69.990  1.00  0.00    -0.023 C  
HETATM   14  C   UNL     1      -7.054   7.007  67.791  1.00  0.00    -0.085 C  
HETATM   15  C   UNL     1      -6.620   5.739  67.927  1.00  0.00    -0.053 C  
HETATM   16  C   UNL     1      -6.923   4.795  66.861  1.00  0.00    -0.060 C  
HETATM   17  O   UNL     1      -7.134   3.609  67.100  1.00  0.00    -0.057 OA 
HETATM   18  C   UNL     1      -6.808   5.365  65.466  1.00  0.00    -0.060 C  
HETATM   19  C   UNL     1      -7.622   6.655  65.303  1.00  0.00    -0.088 C  
HETATM   20  C   UNL     1      -7.973   7.419  66.614  1.00  0.00    -0.121 C  
HETATM   21  C   UNL     1      -8.113   8.985  66.447  1.00  0.00    -0.110 C  
HETATM   22  C   UNL     1      -9.222   9.534  65.519  1.00  0.00    -0.292 C  
HETATM   23  C   UNL     1      -9.400  11.111  65.636  1.00  0.00    -0.243 C  
HETATM   24  C   UNL     1      -9.841  11.800  67.044  1.00  0.00    -0.213 C  
HETATM   25  C   UNL     1     -11.305  11.194  66.827  1.00  0.00    -0.119 C  
ENDBRANCH   2   4
TORSDOF 1
ENDMDL
MODEL      114
REMARK 921   NORMALIZED FREE ENERGY PREDICTED BY IDOCK:   -1.25 KCAL/MOL
REMARK 922        TOTAL FREE ENERGY PREDICTED BY IDOCK:   -0.90 KCAL/MOL
REMARK 923 INTER-LIGAND FREE ENERGY PREDICTED BY IDOCK:   -1.29 KCAL/MOL
REMARK 924 INTRA-LIGAND FREE ENERGY PREDICTED BY IDOCK:    0.39 KCAL/MOL
REMARK 927      BINDING AFFINITY PREDICTED BY RF-SCORE:    0.00 PKD
ROOT
HETATM    1  C   UNL     1     -13.115  12.811  70.342  1.00  0.00     0.504 C  
HETATM    2  C   UNL     1     -12.273  11.672  70.871  1.00  0.00    -0.298 C  
HETATM    3  O   UNL     1     -11.808  11.737  72.017  1.00  0.00     1.501 OA 
ENDROOT
BRANCH   2   4
HETATM    4  C   UNL     1     -11.976  10.443  69.916  1.00  0.00    -0.215 C  
HETATM    5  O   UNL     1     -12.748  10.688  68.712  1.00  0.00    -0.530 OA 
HETATM    6  C   UNL     1     -10.507  10.693  69.550  1.00  0.00    -0.236 C  
HETATM    7  C   UNL     1     -10.274   9.497  68.708  1.00  0.00    -0.215 C  
HETATM    8  H   UNL     1     -12.570   9.951  68.140  1.00  0.00     0.000 HD 
HETATM    9  C   UNL     1     -10.725   8.432  69.703  1.00  0.00    -0.201 C  
HETATM   10  C   UNL     1      -9.700   8.132  70.834  1.00  0.00    -0.191 C  
HETATM   11  C   UNL     1      -8.279   8.386  70.436  1.00  0.00    -0.115 C  
HETATM   12  C   UNL     1      -7.203   7.707  70.860  1.00  0.00    -0.062 C  
HETATM   13  C   UNL     1      -5.858   8.108  70.308  1.00  0.00    -0.028 C  
HETATM   14  C   UNL     1      -7.350   6.701  71.891  1.00  0.00    -0.086 C  
HETATM   15  C   UNL     1      -6.257   6.238  72.529  1.00  0.00    -0.053 C  
HETATM   16  C   UNL     1      -6.447   5.243  73.575  1.00  0.00    -0.067 C  
HETATM   17  O   UNL     1      -5.714   5.207  74.560  1.00  0.00    -0.033 OA 
HETATM   18  C   UNL     1      -7.498   4.202  73.269  1.00  0.00    -0.076 C  
HETATM   19  C   UNL     1      -8.836   4.837  72.868  1.00  0.00    -0.118 C  
HETATM   20  C   UNL     1      -8.776   6.305  72.351  1.00  0.00    -0.121 C  
HETATM   21  C   UNL     1      -9.899   6.682  71.304  1.00  0.00    -0.190 C  
HETATM   22  C   UNL     1     -11.378   6.623  71.752  1.00  0.00    -0.320 C  
HETATM   23  C   UNL     1     -12.372   7.255  70.683  1.00  0.00    -0.145 C  
HETATM   24  C   UNL     1     -12.264   8.826  70.267  1.00  0.00     0.447 C  
HETATM   25  C   UNL     1     -12.852   9.198  71.707  1.00  0.00    -0.448 C  
ENDBRANCH   2   4
TORSDOF 1
ENDMDL
MODEL      115
REMARK 921   NORMALIZED FREE ENERGY PREDICTED BY IDOCK:   -1.18 KCAL/MOL
REMARK 922        TOTAL FREE ENERGY PREDICTED BY IDOCK:   -0.82 KCAL/MOL
REMARK 923 INTER-LIGAND FREE ENERGY PREDICTED BY IDOCK:   -0.87 KCAL/MOL
REMARK 924 INTRA-LIGAND FREE ENERGY PREDICTED BY IDOCK:    0.05 KCAL/MOL
REMARK 927      BINDING AFFINITY PREDICTED BY RF-SCORE:    0.00 PKD
ROOT
HETATM    1  C   UNL     1     -13.264  13.032  64.700  1.00  0.00     0.256 C  
HETATM    2  C   UNL     1     -12.209  12.751  65.747  1.00  0.00    -0.408 C  
HETATM    3  O   UNL     1     -12.548  12.588  66.928  1.00  0.00    -0.076 OA 
ENDROOT
BRANCH   2   4
HETATM    4  C   UNL     1     -10.689  12.720  65.302  1.00  0.00    -0.294 C  
HETATM    5  O   UNL     1     -10.606  13.579  64.135  1.00  0.00    -0.546 OA 
HETATM    6  C   UNL     1     -10.021  13.484  66.453  1.00  0.00    -0.296 C  
HETATM    7  C   UNL     1      -8.611  13.377  66.011  1.00  0.00     0.919 C  
HETATM    8  H   UNL     1      -9.695  13.560  63.868  1.00  0.00     0.000 HD 
HETATM    9  C   UNL     1      -8.541  11.862  65.852  1.00  0.00     0.210 C  
HETATM   10  C   UNL     1      -8.432  11.078  67.191  1.00  0.00    -0.137 C  
HETATM   11  C   UNL     1      -7.772  11.857  68.287  1.00  0.00    -0.127 C  
HETATM   12  C   UNL     1      -7.004  11.354  69.264  1.00  0.00    -0.115 C  
HETATM   13  C   UNL     1      -6.407  12.322  70.255  1.00  0.00     0.139 C  
HETATM   14  C   UNL     1      -6.857   9.920  69.397  1.00  0.00    -0.060 C  
HETATM   15  C   UNL     1      -6.347   9.406  70.533  1.00  0.00    -0.072 C  
HETATM   16  C   UNL     1      -6.235   7.957  70.638  1.00  0.00    -0.037 C  
HETATM   17  O   UNL     1      -6.377   7.384  71.714  1.00  0.00    -0.040 OA 
HETATM   18  C   UNL     1      -5.793   7.268  69.368  1.00  0.00    -0.026 C  
HETATM   19  C   UNL     1      -6.661   7.665  68.167  1.00  0.00    -0.054 C  
HETATM   20  C   UNL     1      -7.446   9.003  68.294  1.00  0.00    -0.083 C  
HETATM   21  C   UNL     1      -7.699   9.753  66.926  1.00  0.00    -0.098 C  
HETATM   22  C   UNL     1      -8.553   9.051  65.844  1.00  0.00    -0.172 C  
HETATM   23  C   UNL     1      -8.923  10.012  64.631  1.00  0.00    -0.249 C  
HETATM   24  C   UNL     1      -9.813  11.354  64.869  1.00  0.00    -0.301 C  
HETATM   25  C   UNL     1     -11.084  10.412  65.104  1.00  0.00     0.799 C  
ENDBRANCH   2   4
TORSDOF 1
ENDMDL
MODEL      116
REMARK 921   NORMALIZED FREE ENERGY PREDICTED BY IDOCK:   -1.02 KCAL/MOL
REMARK 922        TOTAL FREE ENERGY PREDICTED BY IDOCK:   -0.65 KCAL/MOL
REMARK 923 INTER-LIGAND FREE ENERGY PREDICTED BY IDOCK:   -2.34 KCAL/MOL
REMARK 924 INTRA-LIGAND FREE ENERGY PREDICTED BY IDOCK:    1.69 KCAL/MOL
REMARK 927      BINDING AFFINITY PREDICTED BY RF-SCORE:    0.00 PKD
ROOT
HETATM    1  C   UNL     1      -5.964  15.835  67.346  1.00  0.00    -0.089 C  
HETATM    2  C   UNL     1      -7.277  16.297  66.757  1.00  0.00    -0.186 C  
HETATM    3  O   UNL     1      -7.292  17.258  65.975  1.00  0.00    -0.298 OA 
ENDROOT
BRANCH   2   4
HETATM    4  C   UNL     1      -8.607  15.557  67.197  1.00  0.00    -0.215 C  
HETATM    5  O   UNL     1      -9.494  16.601  67.676  1.00  0.00    -0.223 OA 
HETATM    6  C   UNL     1      -9.162  15.101  65.841  1.00  0.00    -0.193 C  
HETATM    7  C   UNL     1     -10.365  14.379  66.318  1.00  0.00    -0.300 C  
HETATM    8  H   UNL     1     -10.292  16.158  67.940  1.00  0.00     0.000 HD 
HETATM    9  C   UNL     1      -9.684  13.440  67.309  1.00  0.00    -0.232 C  
HETATM   10  C   UNL     1      -8.932  12.246  66.653  1.00  0.00    -0.189 C  
HETATM   11  C   UNL     1      -9.507  11.830  65.333  1.00  0.00    -0.157 C  
HETATM   12  C   UNL     1      -9.539  10.584  64.842  1.00  0.00    -0.334 C  
HETATM   13  C   UNL     1     -10.196  10.377  63.499  1.00  0.00     0.102 C  
HETATM   14  C   UNL     1      -8.867   9.514  65.549  1.00  0.00    -0.201 C  
HETATM   15  C   UNL     1      -8.639   8.344  64.923  1.00  0.00    -0.108 C  
HETATM   16  C   UNL     1      -7.940   7.299  65.660  1.00  0.00    -0.123 C  
HETATM   17  O   UNL     1      -7.183   6.516  65.093  1.00  0.00    -0.065 OA 
HETATM   18  C   UNL     1      -8.340   7.181  67.112  1.00  0.00    -0.118 C  
HETATM   19  C   UNL     1      -8.246   8.525  67.846  1.00  0.00    -0.119 C  
HETATM   20  C   UNL     1      -8.280   9.802  66.954  1.00  0.00    -0.117 C  
HETATM   21  C   UNL     1      -8.909  11.075  67.648  1.00  0.00    -0.131 C  
HETATM   22  C   UNL     1      -8.216  11.652  68.904  1.00  0.00     0.017 C  
HETATM   23  C   UNL     1      -8.813  13.059  69.347  1.00  0.00     1.230 C  
HETATM   24  C   UNL     1      -8.730  14.350  68.359  1.00  0.00    -0.180 C  
HETATM   25  C   UNL     1      -7.158  14.413  68.651  1.00  0.00    -0.116 C  
ENDBRANCH   2   4
TORSDOF 1
ENDMDL
MODEL      117
REMARK 921   NORMALIZED FREE ENERGY PREDICTED BY IDOCK:   -0.46 KCAL/MOL
REMARK 922        TOTAL FREE ENERGY PREDICTED BY IDOCK:   -0.07 KCAL/MOL
REMARK 923 INTER-LIGAND FREE ENERGY PREDICTED BY IDOCK:   -1.15 KCAL/MOL
REMARK 924 INTRA-LIGAND FREE ENERGY PREDICTED BY IDOCK:    1.08 KCAL/MOL
REMARK 927      BINDING AFFINITY PREDICTED BY RF-SCORE:    0.00 PKD
ROOT
HETATM    1  C   UNL     1     -12.149  13.970  72.089  1.00  0.00     0.172 C  
HETATM    2  C   UNL     1     -12.725  14.722  70.911  1.00  0.00    -0.342 C  
HETATM    3  O   UNL     1     -13.615  15.565  71.098  1.00  0.00    -0.510 OA 
ENDROOT
BRANCH   2   4
HETATM    4  C   UNL     1     -12.199  14.372  69.458  1.00  0.00    -0.282 C  
HETATM    5  O   UNL     1     -12.931  13.186  69.052  1.00  0.00     0.773 OA 
HETATM    6  C   UNL     1     -12.769  15.538  68.640  1.00  0.00     0.961 C  
HETATM    7  C   UNL     1     -12.206  15.186  67.316  1.00  0.00     0.403 C  
HETATM    8  H   UNL     1     -12.616  12.976  68.181  1.00  0.00     0.000 HD 
HETATM    9  C   UNL     1     -10.739  15.078  67.719  1.00  0.00    -0.278 C  
HETATM   10  C   UNL     1     -10.026  16.444  67.927  1.00  0.00    -0.243 C  
HETATM   11  C   UNL     1     -10.611  17.555  67.109  1.00  0.00    -0.264 C  
HETATM   12  C   UNL     1      -9.941  18.592  66.587  1.00  0.00    -0.394 C  
HETATM   13  C   UNL     1     -10.720  19.587  65.764  1.00  0.00    -0.490 C  
HETATM   14  C   UNL     1      -8.541  18.776  66.906  1.00  0.00    -0.290 C  
HETATM   15  C   UNL     1      -7.948  19.956  66.639  1.00  0.00    -0.342 C  
HETATM   16  C   UNL     1      -6.544  20.112  66.995  1.00  0.00    -0.213 C  
HETATM   17  O   UNL     1      -6.096  21.195  67.362  1.00  0.00    -0.272 OA 
HETATM   18  C   UNL     1      -5.691  18.893  66.731  1.00  0.00    -0.166 C  
HETATM   19  C   UNL     1      -6.281  17.630  67.370  1.00  0.00    -0.166 C  
HETATM   20  C   UNL     1      -7.802  17.668  67.699  1.00  0.00    -0.212 C  
HETATM   21  C   UNL     1      -8.527  16.265  67.636  1.00  0.00    -0.178 C  
HETATM   22  C   UNL     1      -8.077  15.155  68.614  1.00  0.00    -0.154 C  
HETATM   23  C   UNL     1      -9.045  13.893  68.604  1.00  0.00    -0.085 C  
HETATM   24  C   UNL     1     -10.609  14.035  69.036  1.00  0.00    -0.205 C  
HETATM   25  C   UNL     1     -10.123  14.220  70.549  1.00  0.00     1.631 C  
ENDBRANCH   2   4
TORSDOF 1
ENDMDL
MODEL      118
REMARK 921   NORMALIZED FREE ENERGY PREDICTED BY IDOCK:    1.45 KCAL/MOL
REMARK 922        TOTAL FREE ENERGY PREDICTED BY IDOCK:    1.96 KCAL/MOL
REMARK 923 INTER-LIGAND FREE ENERGY PREDICTED BY IDOCK:    0.45 KCAL/MOL
REMARK 924 INTRA-LIGAND FREE ENERGY PREDICTED BY IDOCK:    1.51 KCAL/MOL
REMARK 927      BINDING AFFINITY PREDICTED BY RF-SCORE:    0.00 PKD
ROOT
HETATM    1  C   UNL     1      -8.308  15.025  69.158  1.00  0.00    -0.187 C  
HETATM    2  C   UNL     1      -6.935  14.932  68.533  1.00  0.00    -0.107 C  
HETATM    3  O   UNL     1      -6.027  15.671  68.940  1.00  0.00    -0.101 OA 
ENDROOT
BRANCH   2   4
HETATM    4  C   UNL     1      -6.713  13.916  67.338  1.00  0.00     0.029 C  
HETATM    5  O   UNL     1      -5.854  14.605  66.393  1.00  0.00     1.760 OA 
HETATM    6  C   UNL     1      -5.847  12.842  68.011  1.00  0.00    -0.107 C  
HETATM    7  C   UNL     1      -5.718  11.905  66.872  1.00  0.00    -0.114 C  
HETATM    8  H   UNL     1      -5.721  13.996  65.677  1.00  0.00     0.000 HD 
HETATM    9  C   UNL     1      -7.201  11.721  66.564  1.00  0.00     0.109 C  
HETATM   10  C   UNL     1      -7.954  10.789  67.557  1.00  0.00    -0.110 C  
HETATM   11  C   UNL     1      -7.074   9.755  68.190  1.00  0.00    -0.078 C  
HETATM   12  C   UNL     1      -7.441   8.516  68.549  1.00  0.00    -0.094 C  
HETATM   13  C   UNL     1      -6.385   7.618  69.145  1.00  0.00    -0.036 C  
HETATM   14  C   UNL     1      -8.830   8.122  68.452  1.00  0.00    -0.133 C  
HETATM   15  C   UNL     1      -9.251   7.008  69.083  1.00  0.00    -0.138 C  
HETATM   16  C   UNL     1     -10.660   6.655  68.981  1.00  0.00    -0.239 C  
HETATM   17  O   UNL     1     -11.248   6.104  69.907  1.00  0.00    -0.375 OA 
HETATM   18  C   UNL     1     -11.268   6.886  67.617  1.00  0.00    -0.153 C  
HETATM   19  C   UNL     1     -11.023   8.315  67.114  1.00  0.00     0.123 C  
HETATM   20  C   UNL     1      -9.833   9.081  67.764  1.00  0.00    -0.209 C  
HETATM   21  C   UNL     1      -9.138  10.143  66.821  1.00  0.00    -0.159 C  
HETATM   22  C   UNL     1      -9.974  11.341  66.312  1.00  0.00    -0.260 C  
HETATM   23  C   UNL     1      -9.090  12.443  65.581  1.00  0.00     0.250 C  
HETATM   24  C   UNL     1      -7.914  13.237  66.381  1.00  0.00     1.022 C  
HETATM   25  C   UNL     1      -9.055  14.026  67.178  1.00  0.00    -0.239 C  
ENDBRANCH   2   4
TORSDOF 1
ENDMDL
MODEL      119
REMARK 921   NORMALIZED FREE ENERGY PREDICTED BY IDOCK:    1.71 KCAL/MOL
REMARK 922        TOTAL FREE ENERGY PREDICTED BY IDOCK:    2.23 KCAL/MOL
REMARK 923 INTER-LIGAND FREE ENERGY PREDICTED BY IDOCK:    1.84 KCAL/MOL
REMARK 924 INTRA-LIGAND FREE ENERGY PREDICTED BY IDOCK:    0.38 KCAL/MOL
REMARK 927      BINDING AFFINITY PREDICTED BY RF-SCORE:    0.00 PKD
ROOT
HETATM    1  C   UNL     1     -13.691  12.834  64.369  1.00  0.00     1.798 C  
HETATM    2  C   UNL     1     -12.870  13.596  65.386  1.00  0.00    -0.389 C  
HETATM    3  O   UNL     1     -13.367  13.877  66.486  1.00  0.00     0.598 OA 
ENDROOT
BRANCH   2   4
HETATM    4  C   UNL     1     -11.406  14.051  64.989  1.00  0.00    -0.342 C  
HETATM    5  O   UNL     1     -11.554  14.820  63.767  1.00  0.00    -0.531 OA 
HETATM    6  C   UNL     1     -11.090  15.059  66.102  1.00  0.00    -0.329 C  
HETATM    7  C   UNL     1      -9.705  15.406  65.710  1.00  0.00    -0.385 C  
HETATM    8  H   UNL     1     -10.676  15.094  63.529  1.00  0.00     0.000 HD 
HETATM    9  C   UNL     1      -9.126  13.997  65.661  1.00  0.00     0.612 C  
HETATM   10  C   UNL     1      -8.831  13.372  67.055  1.00  0.00    -0.217 C  
HETATM   11  C   UNL     1      -8.525  14.388  68.112  1.00  0.00    -0.160 C  
HETATM   12  C   UNL     1      -7.684  14.228  69.145  1.00  0.00    -0.011 C  
HETATM   13  C   UNL     1      -7.496  15.395  70.082  1.00  0.00     0.275 C  
HETATM   14  C   UNL     1      -7.075  12.936  69.382  1.00  0.00     0.187 C  
HETATM   15  C   UNL     1      -6.482  12.689  70.566  1.00  0.00     0.642 C  
HETATM   16  C   UNL     1      -5.901  11.370  70.776  1.00  0.00    -0.031 C  
HETATM   17  O   UNL     1      -5.898  10.844  71.886  1.00  0.00    -0.119 OA 
HETATM   18  C   UNL     1      -5.189  10.799  69.572  1.00  0.00    -0.038 C  
HETATM   19  C   UNL     1      -6.077  10.812  68.321  1.00  0.00    -0.046 C  
HETATM   20  C   UNL     1      -7.268  11.815  68.330  1.00  0.00    -0.089 C  
HETATM   21  C   UNL     1      -7.686  12.357  66.906  1.00  0.00     0.016 C  
HETATM   22  C   UNL     1      -8.201  11.350  65.851  1.00  0.00     0.086 C  
HETATM   23  C   UNL     1      -8.806  12.060  64.563  1.00  0.00     0.929 C  
HETATM   24  C   UNL     1     -10.104  13.037  64.679  1.00  0.00    -0.253 C  
HETATM   25  C   UNL     1     -10.999  11.737  64.943  1.00  0.00    -0.358 C  
ENDBRANCH   2   4
TORSDOF 1
ENDMDL
MODEL      120
REMARK 921   NORMALIZED FREE ENERGY PREDICTED BY IDOCK:    2.43 KCAL/MOL
REMARK 922        TOTAL FREE ENERGY PREDICTED BY IDOCK:    2.99 KCAL/MOL
REMARK 923 INTER-LIGAND FREE ENERGY PREDICTED BY IDOCK:    1.82 KCAL/MOL
REMARK 924 INTRA-LIGAND FREE ENERGY PREDICTED BY IDOCK:    1.17 KCAL/MOL
REMARK 927      BINDING AFFINITY PREDICTED BY RF-SCORE:    0.00 PKD
ROOT
HETATM    1  C   UNL     1      -8.356  19.294  69.789  1.00  0.00     0.612 C  
HETATM    2  C   UNL     1      -7.152  18.605  70.390  1.00  0.00     1.329 C  
HETATM    3  O   UNL     1      -6.659  19.041  71.441  1.00  0.00     1.032 OA 
ENDROOT
BRANCH   2   4
HETATM    4  C   UNL     1      -6.528  17.366  69.626  1.00  0.00    -0.157 C  
HETATM    5  O   UNL     1      -5.132  17.326  70.021  1.00  0.00    -0.161 OA 
HETATM    6  C   UNL     1      -7.216  16.194  70.338  1.00  0.00     1.279 C  
HETATM    7  C   UNL     1      -6.637  15.078  69.553  1.00  0.00    -0.155 C  
HETATM    8  H   UNL     1      -4.757  16.583  69.563  1.00  0.00     0.000 HD 
HETATM    9  C   UNL     1      -7.024  15.562  68.159  1.00  0.00    -0.129 C  
HETATM   10  C   UNL     1      -8.524  15.356  67.799  1.00  0.00    -0.157 C  
HETATM   11  C   UNL     1      -9.157  14.201  68.513  1.00  0.00    -0.176 C  
HETATM   12  C   UNL     1     -10.124  13.407  68.032  1.00  0.00    -0.241 C  
HETATM   13  C   UNL     1     -10.601  12.275  68.907  1.00  0.00    -0.170 C  
HETATM   14  C   UNL     1     -10.739  13.714  66.758  1.00  0.00    -0.272 C  
HETATM   15  C   UNL     1     -11.894  13.113  66.415  1.00  0.00    -0.455 C  
HETATM   16  C   UNL     1     -12.495  13.464  65.135  1.00  0.00    -0.459 C  
HETATM   17  O   UNL     1     -13.713  13.488  64.988  1.00  0.00     0.225 OA 
HETATM   18  C   UNL     1     -11.506  13.642  64.006  1.00  0.00    -0.303 C  
HETATM   19  C   UNL     1     -10.385  14.623  64.373  1.00  0.00     0.412 C  
HETATM   20  C   UNL     1     -10.139  14.852  65.894  1.00  0.00    -0.348 C  
HETATM   21  C   UNL     1      -8.647  15.207  66.274  1.00  0.00    -0.020 C  
HETATM   22  C   UNL     1      -8.028  16.507  65.711  1.00  0.00     0.634 C  
HETATM   23  C   UNL     1      -6.620  16.855  66.365  1.00  0.00    -0.121 C  
HETATM   24  C   UNL     1      -6.489  17.148  67.961  1.00  0.00    -0.151 C  
HETATM   25  C   UNL     1      -7.232  18.543  67.718  1.00  0.00    -0.228 C  
ENDBRANCH   2   4
TORSDOF 1
ENDMDL
MODEL      121
REMARK 921   NORMALIZED FREE ENERGY PREDICTED BY IDOCK:    3.27 KCAL/MOL
REMARK 922        TOTAL FREE ENERGY PREDICTED BY IDOCK:    3.89 KCAL/MOL
REMARK 923 INTER-LIGAND FREE ENERGY PREDICTED BY IDOCK:    2.21 KCAL/MOL
REMARK 924 INTRA-LIGAND FREE ENERGY PREDICTED BY IDOCK:    1.68 KCAL/MOL
REMARK 927      BINDING AFFINITY PREDICTED BY RF-SCORE:    0.00 PKD
ROOT
HETATM    1  C   UNL     1      -6.157  16.486  68.892  1.00  0.00    -0.147 C  
HETATM    2  C   UNL     1      -6.851  17.676  68.271  1.00  0.00    -0.213 C  
HETATM    3  O   UNL     1      -6.180  18.542  67.691  1.00  0.00    -0.181 OA 
ENDROOT
BRANCH   2   4
HETATM    4  C   UNL     1      -8.423  17.801  68.425  1.00  0.00    -0.295 C  
HETATM    5  O   UNL     1      -8.641  18.940  69.297  1.00  0.00    -0.082 OA 
HETATM    6  C   UNL     1      -8.830  18.248  67.014  1.00  0.00    -0.267 C  
HETATM    7  C   UNL     1     -10.299  18.296  67.204  1.00  0.00    -0.402 C  
HETATM    8  H   UNL     1      -9.584  19.015  69.389  1.00  0.00     0.000 HD 
HETATM    9  C   UNL     1     -10.502  16.880  67.731  1.00  0.00    -0.340 C  
HETATM   10  C   UNL     1     -10.439  15.771  66.641  1.00  0.00    -0.302 C  
HETATM   11  C   UNL     1     -10.846  16.247  65.280  1.00  0.00    -0.310 C  
HETATM   12  C   UNL     1     -11.471  15.522  64.342  1.00  0.00    -0.264 C  
HETATM   13  C   UNL     1     -11.820  16.207  63.044  1.00  0.00     4.917 C  
HETATM   14  C   UNL     1     -11.695  14.108  64.558  1.00  0.00    -0.426 C  
HETATM   15  C   UNL     1     -12.040  13.323  63.518  1.00  0.00    -0.550 C  
HETATM   16  C   UNL     1     -12.235  11.902  63.770  1.00  0.00    -0.444 C  
HETATM   17  O   UNL     1     -11.954  11.060  62.922  1.00  0.00     0.658 OA 
HETATM   18  C   UNL     1     -12.935  11.585  65.071  1.00  0.00     2.492 C  
HETATM   19  C   UNL     1     -12.257  12.265  66.268  1.00  0.00     0.058 C  
HETATM   20  C   UNL     1     -11.369  13.503  65.947  1.00  0.00    -0.321 C  
HETATM   21  C   UNL     1     -11.299  14.582  67.099  1.00  0.00    -0.361 C  
HETATM   22  C   UNL     1     -10.693  14.173  68.462  1.00  0.00    -0.262 C  
HETATM   23  C   UNL     1     -10.467  15.411  69.434  1.00  0.00    -0.257 C  
HETATM   24  C   UNL     1      -9.455  16.621  69.026  1.00  0.00    -0.236 C  
HETATM   25  C   UNL     1      -8.233  15.619  69.277  1.00  0.00    -0.253 C  
ENDBRANCH   2   4
TORSDOF 1
ENDMDL
MODEL      122
REMARK 921   NORMALIZED FREE ENERGY PREDICTED BY IDOCK:    3.41 KCAL/MOL
REMARK 922        TOTAL FREE ENERGY PREDICTED BY IDOCK:    4.03 KCAL/MOL
REMARK 923 INTER-LIGAND FREE ENERGY PREDICTED BY IDOCK:    2.84 KCAL/MOL
REMARK 924 INTRA-LIGAND FREE ENERGY PREDICTED BY IDOCK:    1.19 KCAL/MOL
REMARK 927      BINDING AFFINITY PREDICTED BY RF-SCORE:    0.00 PKD
ROOT
HETATM    1  C   UNL     1      -7.192  10.432  70.690  1.00  0.00     0.475 C  
HETATM    2  C   UNL     1      -8.672  10.714  70.570  1.00  0.00     1.954 C  
HETATM    3  O   UNL     1      -9.053  11.820  70.162  1.00  0.00     2.340 OA 
ENDROOT
BRANCH   2   4
HETATM    4  C   UNL     1      -9.695   9.590  71.018  1.00  0.00    -0.126 C  
HETATM    5  O   UNL     1     -10.902  10.294  71.409  1.00  0.00    -0.028 OA 
HETATM    6  C   UNL     1     -10.003   8.910  69.677  1.00  0.00    -0.193 C  
HETATM    7  C   UNL     1     -10.914   7.847  70.163  1.00  0.00    -0.235 C  
HETATM    8  H   UNL     1     -11.516   9.621  71.677  1.00  0.00     0.000 HD 
HETATM    9  C   UNL     1     -10.004   7.242  71.226  1.00  0.00    -0.191 C  
HETATM   10  C   UNL     1      -8.866   6.342  70.663  1.00  0.00    -0.144 C  
HETATM   11  C   UNL     1      -9.206   5.695  69.356  1.00  0.00    -0.145 C  
HETATM   12  C   UNL     1      -8.796   4.489  68.938  1.00  0.00    -0.133 C  
HETATM   13  C   UNL     1      -9.283   4.010  67.594  1.00  0.00    -0.193 C  
HETATM   14  C   UNL     1      -7.837   3.744  69.726  1.00  0.00    -0.051 C  
HETATM   15  C   UNL     1      -7.200   2.691  69.178  1.00  0.00    -0.044 C  
HETATM   16  C   UNL     1      -6.226   1.980  69.994  1.00  0.00    -0.024 C  
HETATM   17  O   UNL     1      -5.226   1.473  69.495  1.00  0.00    -0.007 OA 
HETATM   18  C   UNL     1      -6.629   1.802  71.439  1.00  0.00    -0.019 C  
HETATM   19  C   UNL     1      -7.025   3.132  72.093  1.00  0.00    -0.030 C  
HETATM   20  C   UNL     1      -7.445   4.278  71.127  1.00  0.00    -0.051 C  
HETATM   21  C   UNL     1      -8.496   5.295  71.726  1.00  0.00    -0.126 C  
HETATM   22  C   UNL     1      -8.095   6.131  72.965  1.00  0.00    -0.112 C  
HETATM   23  C   UNL     1      -9.149   7.272  73.306  1.00  0.00    -0.201 C  
HETATM   24  C   UNL     1      -9.459   8.469  72.246  1.00  0.00    -0.365 C  
HETATM   25  C   UNL     1      -8.015   9.072  72.576  1.00  0.00     0.492 C  
ENDBRANCH   2   4
TORSDOF 1
ENDMDL
MODEL      123
REMARK 921   NORMALIZED FREE ENERGY PREDICTED BY IDOCK:    8.90 KCAL/MOL
REMARK 922        TOTAL FREE ENERGY PREDICTED BY IDOCK:    9.84 KCAL/MOL
REMARK 923 INTER-LIGAND FREE ENERGY PREDICTED BY IDOCK:    9.19 KCAL/MOL
REMARK 924 INTRA-LIGAND FREE ENERGY PREDICTED BY IDOCK:    0.65 KCAL/MOL
REMARK 927      BINDING AFFINITY PREDICTED BY RF-SCORE:    0.00 PKD
ROOT
HETATM    1  C   UNL     1     -13.120  13.243  65.162  1.00  0.00    -0.043 C  
HETATM    2  C   UNL     1     -12.185  14.193  64.448  1.00  0.00    -0.439 C  
HETATM    3  O   UNL     1     -11.701  13.868  63.355  1.00  0.00     0.001 OA 
ENDROOT
BRANCH   2   4
HETATM    4  C   UNL     1     -11.818  15.565  65.151  1.00  0.00     0.144 C  
HETATM    5  O   UNL     1     -12.665  16.563  64.523  1.00  0.00     1.056 OA 
HETATM    6  C   UNL     1     -12.380  15.342  66.561  1.00  0.00     0.991 C  
HETATM    7  C   UNL     1     -11.964  16.624  67.177  1.00  0.00     1.555 C  
HETATM    8  H   UNL     1     -12.445  17.386  64.944  1.00  0.00     0.000 HD 
HETATM    9  C   UNL     1     -10.478  16.562  66.842  1.00  0.00    -0.282 C  
HETATM   10  C   UNL     1      -9.656  15.589  67.736  1.00  0.00    -0.209 C  
HETATM   11  C   UNL     1     -10.236  15.402  69.105  1.00  0.00    -0.239 C  
HETATM   12  C   UNL     1      -9.546  15.185  70.234  1.00  0.00     0.406 C  
HETATM   13  C   UNL     1     -10.327  15.055  71.518  1.00  0.00     1.240 C  
HETATM   14  C   UNL     1      -8.113  14.985  70.174  1.00  0.00     0.530 C  
HETATM   15  C   UNL     1      -7.468  14.475  71.241  1.00  0.00     2.481 C  
HETATM   16  C   UNL     1      -6.030  14.267  71.134  1.00  0.00    -0.156 C  
HETATM   17  O   UNL     1      -5.477  13.333  71.708  1.00  0.00    -0.339 OA 
HETATM   18  C   UNL     1      -5.290  15.362  70.402  1.00  0.00    -0.137 C  
HETATM   19  C   UNL     1      -5.905  15.650  69.026  1.00  0.00    -0.105 C  
HETATM   20  C   UNL     1      -7.384  15.207  68.824  1.00  0.00    -0.131 C  
HETATM   21  C   UNL     1      -8.206  16.094  67.807  1.00  0.00    -0.162 C  
HETATM   22  C   UNL     1      -7.746  16.146  66.331  1.00  0.00    -0.129 C  
HETATM   23  C   UNL     1      -8.796  16.874  65.383  1.00  0.00     1.167 C  
HETATM   24  C   UNL     1     -10.300  16.281  65.190  1.00  0.00    -0.154 C  
HETATM   25  C   UNL     1      -9.668  15.087  64.333  1.00  0.00     2.142 C  
ENDBRANCH   2   4
TORSDOF 1
ENDMDL
MODEL      124
REMARK 921   NORMALIZED FREE ENERGY PREDICTED BY IDOCK:    9.01 KCAL/MOL
REMARK 922        TOTAL FREE ENERGY PREDICTED BY IDOCK:    9.96 KCAL/MOL
REMARK 923 INTER-LIGAND FREE ENERGY PREDICTED BY IDOCK:    8.45 KCAL/MOL
REMARK 924 INTRA-LIGAND FREE ENERGY PREDICTED BY IDOCK:    1.51 KCAL/MOL
REMARK 927      BINDING AFFINITY PREDICTED BY RF-SCORE:    0.00 PKD
ROOT
HETATM    1  C   UNL     1      -6.065  10.824  71.679  1.00  0.00     0.853 C  
HETATM    2  C   UNL     1      -6.195  11.567  70.369  1.00  0.00    -0.018 C  
HETATM    3  O   UNL     1      -5.176  11.966  69.789  1.00  0.00    -0.068 OA 
ENDROOT
BRANCH   2   4
HETATM    4  C   UNL     1      -7.647  11.851  69.800  1.00  0.00     0.937 C  
HETATM    5  O   UNL     1      -7.947  13.222  70.165  1.00  0.00     1.327 OA 
HETATM    6  C   UNL     1      -7.384  11.849  68.288  1.00  0.00    -0.093 C  
HETATM    7  C   UNL     1      -8.771  12.065  67.815  1.00  0.00    -0.161 C  
HETATM    8  H   UNL     1      -8.817  13.393  69.824  1.00  0.00     0.000 HD 
HETATM    9  C   UNL     1      -9.442  10.913  68.555  1.00  0.00    -0.185 C  
HETATM   10  C   UNL     1      -9.190   9.512  67.927  1.00  0.00    -0.134 C  
HETATM   11  C   UNL     1      -8.941   9.554  66.451  1.00  0.00    -0.182 C  
HETATM   12  C   UNL     1      -9.292   8.614  65.561  1.00  0.00    -0.105 C  
HETATM   13  C   UNL     1      -8.973   8.870  64.109  1.00  0.00     0.126 C  
HETATM   14  C   UNL     1      -9.861   7.365  66.022  1.00  0.00     0.246 C  
HETATM   15  C   UNL     1      -9.933   6.317  65.179  1.00  0.00     1.597 C  
HETATM   16  C   UNL     1     -10.491   5.070  65.686  1.00  0.00    -0.043 C  
HETATM   17  O   UNL     1     -10.082   3.982  65.290  1.00  0.00    -0.199 OA 
HETATM   18  C   UNL     1     -11.683   5.241  66.598  1.00  0.00     2.441 C  
HETATM   19  C   UNL     1     -11.393   6.217  67.745  1.00  0.00     0.004 C  
HETATM   20  C   UNL     1     -10.220   7.216  67.522  1.00  0.00    -0.272 C  
HETATM   21  C   UNL     1     -10.380   8.600  68.268  1.00  0.00    -0.252 C  
HETATM   22  C   UNL     1     -10.437   8.606  69.814  1.00  0.00    -0.220 C  
HETATM   23  C   UNL     1     -10.356  10.071  70.429  1.00  0.00    -0.268 C  
HETATM   24  C   UNL     1      -9.045  11.006  70.190  1.00  0.00     1.648 C  
HETATM   25  C   UNL     1      -8.240  10.050  71.189  1.00  0.00     1.475 C  
ENDBRANCH   2   4
TORSDOF 1
ENDMDL
MODEL      125
REMARK 921   NORMALIZED FREE ENERGY PREDICTED BY IDOCK:    9.61 KCAL/MOL
REMARK 922        TOTAL FREE ENERGY PREDICTED BY IDOCK:   10.59 KCAL/MOL
REMARK 923 INTER-LIGAND FREE ENERGY PREDICTED BY IDOCK:   10.07 KCAL/MOL
REMARK 924 INTRA-LIGAND FREE ENERGY PREDICTED BY IDOCK:    0.52 KCAL/MOL
REMARK 927      BINDING AFFINITY PREDICTED BY RF-SCORE:    0.00 PKD
ROOT
HETATM    1  C   UNL     1     -10.996  11.902  62.958  1.00  0.00    -0.103 C  
HETATM    2  C   UNL     1     -11.036  10.833  64.026  1.00  0.00     0.381 C  
HETATM    3  O   UNL     1     -11.988  10.041  64.064  1.00  0.00     5.052 OA 
ENDROOT
BRANCH   2   4
HETATM    4  C   UNL     1      -9.869  10.790  65.097  1.00  0.00    -0.277 C  
HETATM    5  O   UNL     1      -9.055   9.642  64.742  1.00  0.00    -0.211 OA 
HETATM    6  C   UNL     1      -9.059  12.034  64.713  1.00  0.00     0.488 C  
HETATM    7  C   UNL     1      -8.024  11.969  65.771  1.00  0.00     0.962 C  
HETATM    8  H   UNL     1      -8.356   9.616  65.384  1.00  0.00     0.000 HD 
HETATM    9  C   UNL     1      -8.947  11.906  66.983  1.00  0.00    -0.190 C  
HETATM   10  C   UNL     1      -9.598  13.265  67.369  1.00  0.00    -0.223 C  
HETATM   11  C   UNL     1      -8.775  14.455  66.979  1.00  0.00    -0.244 C  
HETATM   12  C   UNL     1      -8.699  15.617  67.642  1.00  0.00    -0.182 C  
HETATM   13  C   UNL     1      -7.780  16.679  67.092  1.00  0.00    -0.213 C  
HETATM   14  C   UNL     1      -9.559  15.851  68.783  1.00  0.00    -0.219 C  
HETATM   15  C   UNL     1      -9.705  17.102  69.260  1.00  0.00    -0.057 C  
HETATM   16  C   UNL     1     -10.596  17.301  70.395  1.00  0.00     0.885 C  
HETATM   17  O   UNL     1     -11.251  18.333  70.517  1.00  0.00     2.376 OA 
HETATM   18  C   UNL     1     -10.524  16.220  71.447  1.00  0.00     1.522 C  
HETATM   19  C   UNL     1     -10.707  14.820  70.846  1.00  0.00     0.286 C  
HETATM   20  C   UNL     1     -10.420  14.680  69.322  1.00  0.00    -0.218 C  
HETATM   21  C   UNL     1      -9.892  13.259  68.877  1.00  0.00     0.096 C  
HETATM   22  C   UNL     1     -10.809  12.030  69.084  1.00  0.00    -0.175 C  
HETATM   23  C   UNL     1     -10.253  10.719  68.377  1.00  0.00    -0.192 C  
HETATM   24  C   UNL     1     -10.059  10.658  66.761  1.00  0.00    -0.272 C  
HETATM   25  C   UNL     1     -11.651  10.609  66.619  1.00  0.00     0.800 C  
ENDBRANCH   2   4
TORSDOF 1
ENDMDL
MODEL      126
REMARK 921   NORMALIZED FREE ENERGY PREDICTED BY IDOCK:   11.17 KCAL/MOL
REMARK 922        TOTAL FREE ENERGY PREDICTED BY IDOCK:   12.24 KCAL/MOL
REMARK 923 INTER-LIGAND FREE ENERGY PREDICTED BY IDOCK:   12.19 KCAL/MOL
REMARK 924 INTRA-LIGAND FREE ENERGY PREDICTED BY IDOCK:    0.05 KCAL/MOL
REMARK 927      BINDING AFFINITY PREDICTED BY RF-SCORE:    0.00 PKD
ROOT
HETATM    1  C   UNL     1      -6.612  14.887  67.230  1.00  0.00     0.119 C  
HETATM    2  C   UNL     1      -7.527  15.721  66.363  1.00  0.00     0.490 C  
HETATM    3  O   UNL     1      -7.367  16.949  66.309  1.00  0.00    -0.274 OA 
ENDROOT
BRANCH   2   4
HETATM    4  C   UNL     1      -8.699  14.995  65.581  1.00  0.00     1.169 C  
HETATM    5  O   UNL     1      -9.074  15.902  64.512  1.00  0.00     1.839 OA 
HETATM    6  C   UNL     1      -7.947  13.832  64.922  1.00  0.00     8.232 C  
HETATM    7  C   UNL     1      -9.091  13.168  64.255  1.00  0.00     2.312 C  
HETATM    8  H   UNL     1      -9.776  15.467  64.042  1.00  0.00     0.000 HD 
HETATM    9  C   UNL     1      -9.995  13.006  65.472  1.00  0.00    -0.226 C  
HETATM   10  C   UNL     1      -9.580  11.856  66.434  1.00  0.00    -0.239 C  
HETATM   11  C   UNL     1      -8.851  10.739  65.752  1.00  0.00    -0.201 C  
HETATM   12  C   UNL     1      -8.905   9.440  66.080  1.00  0.00    -0.178 C  
HETATM   13  C   UNL     1      -8.114   8.471  65.238  1.00  0.00    -0.138 C  
HETATM   14  C   UNL     1      -9.623   9.029  67.268  1.00  0.00    -0.206 C  
HETATM   15  C   UNL     1      -9.432   7.792  67.765  1.00  0.00    -0.163 C  
HETATM   16  C   UNL     1     -10.155   7.422  68.975  1.00  0.00    -0.193 C  
HETATM   17  O   UNL     1      -9.662   6.664  69.805  1.00  0.00    -0.159 OA 
HETATM   18  C   UNL     1     -11.579   7.923  69.033  1.00  0.00     0.977 C  
HETATM   19  C   UNL     1     -11.667   9.434  68.783  1.00  0.00     0.831 C  
HETATM   20  C   UNL     1     -10.465  10.081  68.034  1.00  0.00    -0.260 C  
HETATM   21  C   UNL     1     -10.835  11.344  67.159  1.00  0.00    -0.316 C  
HETATM   22  C   UNL     1     -11.404  12.595  67.868  1.00  0.00    -0.337 C  
HETATM   23  C   UNL     1     -11.501  13.859  66.908  1.00  0.00    -0.370 C  
HETATM   24  C   UNL     1     -10.165  14.500  66.232  1.00  0.00    -0.306 C  
HETATM   25  C   UNL     1      -9.761  15.059  67.676  1.00  0.00    -0.215 C  
ENDBRANCH   2   4
TORSDOF 1
ENDMDL
MODEL      127
REMARK 921   NORMALIZED FREE ENERGY PREDICTED BY IDOCK:   11.75 KCAL/MOL
REMARK 922        TOTAL FREE ENERGY PREDICTED BY IDOCK:   12.86 KCAL/MOL
REMARK 923 INTER-LIGAND FREE ENERGY PREDICTED BY IDOCK:   11.81 KCAL/MOL
REMARK 924 INTRA-LIGAND FREE ENERGY PREDICTED BY IDOCK:    1.05 KCAL/MOL
REMARK 927      BINDING AFFINITY PREDICTED BY RF-SCORE:    0.00 PKD
ROOT
HETATM    1  C   UNL     1     -14.117  12.298  64.963  1.00  0.00     5.037 C  
HETATM    2  C   UNL     1     -13.255  11.540  63.979  1.00  0.00     0.902 C  
HETATM    3  O   UNL     1     -13.753  10.626  63.306  1.00  0.00     3.184 OA 
ENDROOT
BRANCH   2   4
HETATM    4  C   UNL     1     -11.718  11.912  63.875  1.00  0.00    -0.415 C  
HETATM    5  O   UNL     1     -11.670  13.174  63.160  1.00  0.00    -0.778 OA 
HETATM    6  C   UNL     1     -11.383  12.227  65.339  1.00  0.00    -0.389 C  
HETATM    7  C   UNL     1      -9.938  12.514  65.185  1.00  0.00    -0.212 C  
HETATM    8  H   UNL     1     -10.749  13.397  63.097  1.00  0.00     0.000 HD 
HETATM    9  C   UNL     1      -9.526  11.223  64.486  1.00  0.00    -0.211 C  
HETATM   10  C   UNL     1      -9.426   9.986  65.424  1.00  0.00    -0.310 C  
HETATM   11  C   UNL     1      -9.095  10.336  66.842  1.00  0.00    -0.159 C  
HETATM   12  C   UNL     1      -8.370   9.595  67.693  1.00  0.00    -0.121 C  
HETATM   13  C   UNL     1      -8.127  10.151  69.074  1.00  0.00    -0.125 C  
HETATM   14  C   UNL     1      -7.939   8.269  67.303  1.00  0.00    -0.105 C  
HETATM   15  C   UNL     1      -7.483   7.416  68.240  1.00  0.00    -0.109 C  
HETATM   16  C   UNL     1      -7.080   6.083  67.813  1.00  0.00    -0.074 C  
HETATM   17  O   UNL     1      -7.234   5.107  68.541  1.00  0.00    -0.060 OA 
HETATM   18  C   UNL     1      -6.340   6.043  66.496  1.00  0.00    -0.045 C  
HETATM   19  C   UNL     1      -7.110   6.766  65.382  1.00  0.00    -0.064 C  
HETATM   20  C   UNL     1      -8.172   7.808  65.842  1.00  0.00    -0.128 C  
HETATM   21  C   UNL     1      -8.400   9.005  64.835  1.00  0.00    -0.178 C  
HETATM   22  C   UNL     1      -8.937   8.691  63.420  1.00  0.00     0.439 C  
HETATM   23  C   UNL     1      -9.343   9.998  62.609  1.00  0.00    -0.296 C  
HETATM   24  C   UNL     1     -10.523  10.983  63.148  1.00  0.00    -0.176 C  
HETATM   25  C   UNL     1     -11.583   9.855  62.747  1.00  0.00     6.202 C  
ENDBRANCH   2   4
TORSDOF 1
ENDMDL
MODEL      128
REMARK 921   NORMALIZED FREE ENERGY PREDICTED BY IDOCK:   11.96 KCAL/MOL
REMARK 922        TOTAL FREE ENERGY PREDICTED BY IDOCK:   13.08 KCAL/MOL
REMARK 923 INTER-LIGAND FREE ENERGY PREDICTED BY IDOCK:   12.94 KCAL/MOL
REMARK 924 INTRA-LIGAND FREE ENERGY PREDICTED BY IDOCK:    0.14 KCAL/MOL
REMARK 927      BINDING AFFINITY PREDICTED BY RF-SCORE:    0.00 PKD
ROOT
HETATM    1  C   UNL     1      -8.877   6.663  72.076  1.00  0.00    -0.135 C  
HETATM    2  C   UNL     1      -8.805   7.640  70.924  1.00  0.00    -0.146 C  
HETATM    3  O   UNL     1      -7.814   7.637  70.181  1.00  0.00    -0.093 OA 
ENDROOT
BRANCH   2   4
HETATM    4  C   UNL     1      -9.990   8.674  70.733  1.00  0.00    -0.197 C  
HETATM    5  O   UNL     1     -10.789   8.580  71.941  1.00  0.00    -0.273 OA 
HETATM    6  C   UNL     1      -9.240  10.011  70.809  1.00  0.00     0.621 C  
HETATM    7  C   UNL     1     -10.381  10.927  70.574  1.00  0.00     1.135 C  
HETATM    8  H   UNL     1     -11.500   9.200  71.826  1.00  0.00     0.000 HD 
HETATM    9  C   UNL     1     -10.890  10.319  69.271  1.00  0.00    -0.275 C  
HETATM   10  C   UNL     1     -10.038  10.672  68.019  1.00  0.00    -0.181 C  
HETATM   11  C   UNL     1      -9.324  11.985  68.132  1.00  0.00    -0.199 C  
HETATM   12  C   UNL     1      -9.057  12.830  67.126  1.00  0.00    -0.219 C  
HETATM   13  C   UNL     1      -8.353  14.120  67.464  1.00  0.00    -0.194 C  
HETATM   14  C   UNL     1      -9.352  12.441  65.763  1.00  0.00    -0.018 C  
HETATM   15  C   UNL     1      -8.819  13.140  64.742  1.00  0.00     2.395 C  
HETATM   16  C   UNL     1      -9.120  12.705  63.385  1.00  0.00     2.276 C  
HETATM   17  O   UNL     1      -8.299  12.824  62.480  1.00  0.00     3.535 OA 
HETATM   18  C   UNL     1     -10.546  12.250  63.174  1.00  0.00    -0.136 C  
HETATM   19  C   UNL     1     -10.967  11.186  64.196  1.00  0.00    -0.276 C  
HETATM   20  C   UNL     1     -10.139  11.130  65.514  1.00  0.00    -0.309 C  
HETATM   21  C   UNL     1     -10.946  10.634  66.779  1.00  0.00    -0.182 C  
HETATM   22  C   UNL     1     -11.525   9.200  66.773  1.00  0.00     2.101 C  
HETATM   23  C   UNL     1     -12.096   8.758  68.190  1.00  0.00     3.904 C  
HETATM   24  C   UNL     1     -11.121   8.664  69.491  1.00  0.00     0.019 C  
HETATM   25  C   UNL     1     -10.460   7.359  68.843  1.00  0.00    -0.213 C  
ENDBRANCH   2   4
TORSDOF 1
ENDMDL
MODEL      129
REMARK 921   NORMALIZED FREE ENERGY PREDICTED BY IDOCK:   12.15 KCAL/MOL
REMARK 922        TOTAL FREE ENERGY PREDICTED BY IDOCK:   13.28 KCAL/MOL
REMARK 923 INTER-LIGAND FREE ENERGY PREDICTED BY IDOCK:   12.63 KCAL/MOL
REMARK 924 INTRA-LIGAND FREE ENERGY PREDICTED BY IDOCK:    0.66 KCAL/MOL
REMARK 927      BINDING AFFINITY PREDICTED BY RF-SCORE:    0.00 PKD
ROOT
HETATM    1  C   UNL     1     -11.892  14.653  63.735  1.00  0.00     0.253 C  
HETATM    2  C   UNL     1     -11.805  15.416  65.037  1.00  0.00    -0.019 C  
HETATM    3  O   UNL     1     -12.668  16.263  65.308  1.00  0.00     2.014 OA 
ENDROOT
BRANCH   2   4
HETATM    4  C   UNL     1     -10.578  15.135  66.000  1.00  0.00    -0.322 C  
HETATM    5  O   UNL     1      -9.406  15.606  65.285  1.00  0.00    -0.256 OA 
HETATM    6  C   UNL     1     -10.838  16.146  67.124  1.00  0.00    -0.216 C  
HETATM    7  C   UNL     1      -9.700  15.803  68.008  1.00  0.00    -0.212 C  
HETATM    8  H   UNL     1      -8.670  15.438  65.862  1.00  0.00     0.000 HD 
HETATM    9  C   UNL     1      -9.964  14.307  68.142  1.00  0.00    -0.230 C  
HETATM   10  C   UNL     1     -11.132  13.942  69.103  1.00  0.00    -0.284 C  
HETATM   11  C   UNL     1     -11.351  14.952  70.188  1.00  0.00    -0.299 C  
HETATM   12  C   UNL     1     -11.776  14.697  71.433  1.00  0.00    -0.298 C  
HETATM   13  C   UNL     1     -11.900  15.862  72.383  1.00  0.00    -0.618 C  
HETATM   14  C   UNL     1     -12.192  13.357  71.790  1.00  0.00     0.249 C  
HETATM   15  C   UNL     1     -12.894  13.158  72.923  1.00  0.00     0.637 C  
HETATM   16  C   UNL     1     -13.314  11.800  73.237  1.00  0.00     4.600 C  
HETATM   17  O   UNL     1     -14.373  11.579  73.819  1.00  0.00     4.441 OA 
HETATM   18  C   UNL     1     -12.287  10.737  72.926  1.00  0.00     3.793 C  
HETATM   19  C   UNL     1     -11.781  10.833  71.481  1.00  0.00     0.335 C  
HETATM   20  C   UNL     1     -11.965  12.209  70.775  1.00  0.00    -0.122 C  
HETATM   21  C   UNL     1     -10.870  12.544  69.686  1.00  0.00     0.263 C  
HETATM   22  C   UNL     1     -10.755  11.627  68.445  1.00  0.00    -0.248 C  
HETATM   23  C   UNL     1      -9.787  12.217  67.329  1.00  0.00    -0.208 C  
HETATM   24  C   UNL     1     -10.116  13.637  66.603  1.00  0.00    -0.277 C  
HETATM   25  C   UNL     1     -11.311  12.909  65.827  1.00  0.00    -0.349 C  
ENDBRANCH   2   4
TORSDOF 1
ENDMDL
MODEL      130
REMARK 921   NORMALIZED FREE ENERGY PREDICTED BY IDOCK:   12.26 KCAL/MOL
REMARK 922        TOTAL FREE ENERGY PREDICTED BY IDOCK:   13.40 KCAL/MOL
REMARK 923 INTER-LIGAND FREE ENERGY PREDICTED BY IDOCK:   13.12 KCAL/MOL
REMARK 924 INTRA-LIGAND FREE ENERGY PREDICTED BY IDOCK:    0.28 KCAL/MOL
REMARK 927      BINDING AFFINITY PREDICTED BY RF-SCORE:    0.00 PKD
ROOT
HETATM    1  C   UNL     1     -11.905  16.378  65.728  1.00  0.00     1.402 C  
HETATM    2  C   UNL     1     -11.146  15.242  66.375  1.00  0.00    -0.273 C  
HETATM    3  O   UNL     1     -10.269  14.647  65.732  1.00  0.00    -0.302 OA 
ENDROOT
BRANCH   2   4
HETATM    4  C   UNL     1     -11.531  14.818  67.852  1.00  0.00    -0.342 C  
HETATM    5  O   UNL     1     -12.625  15.691  68.236  1.00  0.00    -0.018 OA 
HETATM    6  C   UNL     1     -12.142  13.430  67.619  1.00  0.00    -0.311 C  
HETATM    7  C   UNL     1     -12.432  13.068  69.026  1.00  0.00     0.310 C  
HETATM    8  H   UNL     1     -12.857  15.437  69.122  1.00  0.00     0.000 HD 
HETATM    9  C   UNL     1     -11.039  13.289  69.605  1.00  0.00    -0.001 C  
HETATM   10  C   UNL     1     -10.018  12.163  69.274  1.00  0.00     0.444 C  
HETATM   11  C   UNL     1     -10.654  10.824  69.055  1.00  0.00    -0.250 C  
HETATM   12  C   UNL     1     -10.118   9.633  69.361  1.00  0.00    -0.213 C  
HETATM   13  C   UNL     1     -10.945   8.402  69.086  1.00  0.00     0.063 C  
HETATM   14  C   UNL     1      -8.753   9.561  69.837  1.00  0.00    -0.224 C  
HETATM   15  C   UNL     1      -8.118   8.373  69.856  1.00  0.00    -0.119 C  
HETATM   16  C   UNL     1      -6.738   8.343  70.321  1.00  0.00    -0.036 C  
HETATM   17  O   UNL     1      -5.923   7.555  69.849  1.00  0.00    -0.024 OA 
HETATM   18  C   UNL     1      -6.455   9.239  71.504  1.00  0.00    -0.007 C  
HETATM   19  C   UNL     1      -6.918  10.680  71.258  1.00  0.00     1.836 C  
HETATM   20  C   UNL     1      -8.002  10.878  70.157  1.00  0.00     1.011 C  
HETATM   21  C   UNL     1      -8.967  12.107  70.394  1.00  0.00     5.468 C  
HETATM   22  C   UNL     1      -8.361  13.530  70.423  1.00  0.00     3.852 C  
HETATM   23  C   UNL     1      -9.468  14.672  70.427  1.00  0.00     1.294 C  
HETATM   24  C   UNL     1     -10.509  14.832  69.184  1.00  0.00    -0.243 C  
HETATM   25  C   UNL     1      -9.294  15.381  68.300  1.00  0.00    -0.193 C  
ENDBRANCH   2   4
TORSDOF 1
ENDMDL
MODEL      131
REMARK 921   NORMALIZED FREE ENERGY PREDICTED BY IDOCK:   13.09 KCAL/MOL
REMARK 922        TOTAL FREE ENERGY PREDICTED BY IDOCK:   14.28 KCAL/MOL
REMARK 923 INTER-LIGAND FREE ENERGY PREDICTED BY IDOCK:   13.84 KCAL/MOL
REMARK 924 INTRA-LIGAND FREE ENERGY PREDICTED BY IDOCK:    0.45 KCAL/MOL
REMARK 927      BINDING AFFINITY PREDICTED BY RF-SCORE:    0.00 PKD
ROOT
HETATM    1  C   UNL     1      -9.345  13.279  67.995  1.00  0.00    -0.218 C  
HETATM    2  C   UNL     1      -9.289  13.100  69.495  1.00  0.00     1.462 C  
HETATM    3  O   UNL     1      -9.551  14.058  70.236  1.00  0.00     1.637 OA 
ENDROOT
BRANCH   2   4
HETATM    4  C   UNL     1      -8.850  11.692  70.074  1.00  0.00     2.590 C  
HETATM    5  O   UNL     1      -8.874  11.838  71.518  1.00  0.00     9.908 OA 
HETATM    6  C   UNL     1     -10.058  10.822  69.704  1.00  0.00    -0.053 C  
HETATM    7  C   UNL     1      -9.571   9.521  70.219  1.00  0.00    -0.314 C  
HETATM    8  H   UNL     1      -8.611  10.994  71.865  1.00  0.00     0.000 HD 
HETATM    9  C   UNL     1      -8.239   9.473  69.479  1.00  0.00    -0.134 C  
HETATM   10  C   UNL     1      -8.353   9.105  67.971  1.00  0.00    -0.120 C  
HETATM   11  C   UNL     1      -9.543   8.254  67.652  1.00  0.00    -0.187 C  
HETATM   12  C   UNL     1      -9.611   7.310  66.702  1.00  0.00    -0.236 C  
HETATM   13  C   UNL     1     -10.902   6.543  66.567  1.00  0.00    -0.049 C  
HETATM   14  C   UNL     1      -8.503   7.132  65.787  1.00  0.00    -0.151 C  
HETATM   15  C   UNL     1      -8.679   6.411  64.663  1.00  0.00     0.294 C  
HETATM   16  C   UNL     1      -7.547   6.272  63.756  1.00  0.00    -0.091 C  
HETATM   17  O   UNL     1      -7.709   6.203  62.541  1.00  0.00    -0.069 OA 
HETATM   18  C   UNL     1      -6.215   6.075  64.440  1.00  0.00    -0.030 C  
HETATM   19  C   UNL     1      -5.944   7.158  65.492  1.00  0.00    -0.037 C  
HETATM   20  C   UNL     1      -7.189   7.913  66.043  1.00  0.00    -0.073 C  
HETATM   21  C   UNL     1      -7.046   8.427  67.530  1.00  0.00    -0.083 C  
HETATM   22  C   UNL     1      -5.947   9.467  67.852  1.00  0.00    -0.052 C  
HETATM   23  C   UNL     1      -6.075  10.067  69.319  1.00  0.00    -0.040 C  
HETATM   24  C   UNL     1      -7.398  10.905  69.767  1.00  0.00    -0.016 C  
HETATM   25  C   UNL     1      -6.899  12.102  68.830  1.00  0.00    -0.100 C  
ENDBRANCH   2   4
TORSDOF 1
ENDMDL
MODEL      132
REMARK 921   NORMALIZED FREE ENERGY PREDICTED BY IDOCK:   13.18 KCAL/MOL
REMARK 922        TOTAL FREE ENERGY PREDICTED BY IDOCK:   14.37 KCAL/MOL
REMARK 923 INTER-LIGAND FREE ENERGY PREDICTED BY IDOCK:   13.27 KCAL/MOL
REMARK 924 INTRA-LIGAND FREE ENERGY PREDICTED BY IDOCK:    1.10 KCAL/MOL
REMARK 927      BINDING AFFINITY PREDICTED BY RF-SCORE:    0.00 PKD
ROOT
HETATM    1  C   UNL     1      -7.724  11.534  71.485  1.00  0.00     8.287 C  
HETATM    2  C   UNL     1      -7.119  10.420  70.662  1.00  0.00     0.382 C  
HETATM    3  O   UNL     1      -7.280  10.409  69.434  1.00  0.00    -0.082 OA 
ENDROOT
BRANCH   2   4
HETATM    4  C   UNL     1      -6.329   9.268  71.411  1.00  0.00    -0.053 C  
HETATM    5  O   UNL     1      -5.140   9.900  71.954  1.00  0.00    -0.073 OA 
HETATM    6  C   UNL     1      -7.256   8.990  72.601  1.00  0.00     0.362 C  
HETATM    7  C   UNL     1      -6.498   7.882  73.228  1.00  0.00    -0.079 C  
HETATM    8  H   UNL     1      -4.667   9.210  72.403  1.00  0.00     0.000 HD 
HETATM    9  C   UNL     1      -6.391   6.969  72.011  1.00  0.00    -0.044 C  
HETATM   10  C   UNL     1      -7.698   6.199  71.666  1.00  0.00    -0.101 C  
HETATM   11  C   UNL     1      -8.574   5.945  72.854  1.00  0.00    -0.121 C  
HETATM   12  C   UNL     1      -9.362   4.877  73.044  1.00  0.00    -0.142 C  
HETATM   13  C   UNL     1     -10.142   4.802  74.332  1.00  0.00    -0.256 C  
HETATM   14  C   UNL     1      -9.516   3.901  71.985  1.00  0.00    -0.198 C  
HETATM   15  C   UNL     1     -10.520   3.005  72.048  1.00  0.00     0.135 C  
HETATM   16  C   UNL     1     -10.656   2.053  70.954  1.00  0.00     1.393 C  
HETATM   17  O   UNL     1     -11.759   1.650  70.594  1.00  0.00     4.382 OA 
HETATM   18  C   UNL     1      -9.348   1.513  70.425  1.00  0.00    -0.167 C  
HETATM   19  C   UNL     1      -8.370   2.636  70.056  1.00  0.00    -0.074 C  
HETATM   20  C   UNL     1      -8.623   4.019  70.724  1.00  0.00    -0.106 C  
HETATM   21  C   UNL     1      -7.324   4.888  70.956  1.00  0.00    -0.061 C  
HETATM   22  C   UNL     1      -6.504   5.339  69.725  1.00  0.00    -0.035 C  
HETATM   23  C   UNL     1      -5.374   6.397  70.089  1.00  0.00    -0.014 C  
HETATM   24  C   UNL     1      -5.759   7.848  70.720  1.00  0.00    -0.030 C  
HETATM   25  C   UNL     1      -6.327   8.269  69.285  1.00  0.00    -0.039 C  
ENDBRANCH   2   4
TORSDOF 1
ENDMDL
MODEL      133
REMARK 921   NORMALIZED FREE ENERGY PREDICTED BY IDOCK:   17.75 KCAL/MOL
REMARK 922        TOTAL FREE ENERGY PREDICTED BY IDOCK:   19.22 KCAL/MOL
REMARK 923 INTER-LIGAND FREE ENERGY PREDICTED BY IDOCK:   17.60 KCAL/MOL
REMARK 924 INTRA-LIGAND FREE ENERGY PREDICTED BY IDOCK:    1.61 KCAL/MOL
REMARK 927      BINDING AFFINITY PREDICTED BY RF-SCORE:    0.00 PKD
ROOT
HETATM    1  C   UNL     1      -5.269  15.977  66.200  1.00  0.00     2.256 C  
HETATM    2  C   UNL     1      -5.522  17.276  65.468  1.00  0.00     0.740 C  
HETATM    3  O   UNL     1      -5.219  17.372  64.270  1.00  0.00     0.899 OA 
ENDROOT
BRANCH   2   4
HETATM    4  C   UNL     1      -6.129  18.496  66.277  1.00  0.00    -0.173 C  
HETATM    5  O   UNL     1      -5.324  19.646  65.910  1.00  0.00    -0.155 OA 
HETATM    6  C   UNL     1      -7.486  18.673  65.583  1.00  0.00    -0.019 C  
HETATM    7  C   UNL     1      -8.022  19.781  66.408  1.00  0.00    -0.335 C  
HETATM    8  H   UNL     1      -5.688  20.378  66.395  1.00  0.00     0.000 HD 
HETATM    9  C   UNL     1      -7.855  19.138  67.780  1.00  0.00    -0.295 C  
HETATM   10  C   UNL     1      -8.918  18.053  68.117  1.00  0.00    -0.287 C  
HETATM   11  C   UNL     1     -10.228  18.264  67.422  1.00  0.00    -0.385 C  
HETATM   12  C   UNL     1     -11.440  17.954  67.905  1.00  0.00     0.841 C  
HETATM   13  C   UNL     1     -12.639  18.281  67.050  1.00  0.00     5.991 C  
HETATM   14  C   UNL     1     -11.553  17.239  69.158  1.00  0.00     1.278 C  
HETATM   15  C   UNL     1     -12.725  16.667  69.494  1.00  0.00     2.717 C  
HETATM   16  C   UNL     1     -12.794  15.936  70.752  1.00  0.00    -0.061 C  
HETATM   17  O   UNL     1     -13.507  14.944  70.875  1.00  0.00    -0.368 OA 
HETATM   18  C   UNL     1     -12.046  16.583  71.895  1.00  0.00    -0.096 C  
HETATM   19  C   UNL     1     -10.592  16.899  71.524  1.00  0.00     2.175 C  
HETATM   20  C   UNL     1     -10.275  17.006  70.003  1.00  0.00     0.401 C  
HETATM   21  C   UNL     1      -9.097  17.996  69.642  1.00  0.00     0.876 C  
HETATM   22  C   UNL     1      -7.681  17.691  70.184  1.00  0.00     2.110 C  
HETATM   23  C   UNL     1      -6.562  18.627  69.548  1.00  0.00    -0.201 C  
HETATM   24  C   UNL     1      -6.264  18.605  67.947  1.00  0.00    -0.189 C  
HETATM   25  C   UNL     1      -5.595  17.165  68.139  1.00  0.00    -0.120 C  
ENDBRANCH   2   4
TORSDOF 1
ENDMDL
MODEL      134
REMARK 921   NORMALIZED FREE ENERGY PREDICTED BY IDOCK:   18.84 KCAL/MOL
REMARK 922        TOTAL FREE ENERGY PREDICTED BY IDOCK:   20.36 KCAL/MOL
REMARK 923 INTER-LIGAND FREE ENERGY PREDICTED BY IDOCK:   19.24 KCAL/MOL
REMARK 924 INTRA-LIGAND FREE ENERGY PREDICTED BY IDOCK:    1.12 KCAL/MOL
REMARK 927      BINDING AFFINITY PREDICTED BY RF-SCORE:    0.00 PKD
ROOT
HETATM    1  C   UNL     1     -11.346  19.780  64.357  1.00  0.00     3.660 C  
HETATM    2  C   UNL     1     -11.067  18.393  64.888  1.00  0.00     1.851 C  
HETATM    3  O   UNL     1     -11.802  17.451  64.557  1.00  0.00     0.420 OA 
ENDROOT
BRANCH   2   4
HETATM    4  C   UNL     1      -9.860  18.197  65.896  1.00  0.00    -0.033 C  
HETATM    5  O   UNL     1      -8.672  18.598  65.165  1.00  0.00     1.009 OA 
HETATM    6  C   UNL     1     -10.137  19.305  66.920  1.00  0.00    -0.467 C  
HETATM    7  C   UNL     1      -9.018  19.040  67.853  1.00  0.00    -0.338 C  
HETATM    8  H   UNL     1      -7.949  18.481  65.769  1.00  0.00     0.000 HD 
HETATM    9  C   UNL     1      -9.291  17.563  68.116  1.00  0.00    -0.276 C  
HETATM   10  C   UNL     1     -10.478  17.290  69.083  1.00  0.00    -0.263 C  
HETATM   11  C   UNL     1     -10.714  18.394  70.067  1.00  0.00     1.698 C  
HETATM   12  C   UNL     1     -11.164  18.254  71.322  1.00  0.00     3.732 C  
HETATM   13  C   UNL     1     -11.301  19.500  72.161  1.00  0.00     7.659 C  
HETATM   14  C   UNL     1     -11.593  16.953  71.790  1.00  0.00     0.447 C  
HETATM   15  C   UNL     1     -12.317  16.859  72.923  1.00  0.00     0.429 C  
HETATM   16  C   UNL     1     -12.749  15.535  73.350  1.00  0.00    -0.532 C  
HETATM   17  O   UNL     1     -13.820  15.370  73.928  1.00  0.00     0.527 OA 
HETATM   18  C   UNL     1     -11.721  14.446  73.155  1.00  0.00     0.498 C  
HETATM   19  C   UNL     1     -11.187  14.410  71.718  1.00  0.00     0.966 C  
HETATM   20  C   UNL     1     -11.352  15.717  70.887  1.00  0.00    -0.417 C  
HETATM   21  C   UNL     1     -10.235  15.949  69.794  1.00  0.00    -0.268 C  
HETATM   22  C   UNL     1     -10.100  14.924  68.643  1.00  0.00    -0.237 C  
HETATM   23  C   UNL     1      -9.108  15.409  67.498  1.00  0.00    -0.199 C  
HETATM   24  C   UNL     1      -9.417  16.758  66.640  1.00  0.00    -0.275 C  
HETATM   25  C   UNL     1     -10.599  15.966  65.910  1.00  0.00    -0.348 C  
ENDBRANCH   2   4
TORSDOF 1
ENDMDL
MODEL      135
REMARK 921   NORMALIZED FREE ENERGY PREDICTED BY IDOCK:   19.78 KCAL/MOL
REMARK 922        TOTAL FREE ENERGY PREDICTED BY IDOCK:   21.36 KCAL/MOL
REMARK 923 INTER-LIGAND FREE ENERGY PREDICTED BY IDOCK:   20.28 KCAL/MOL
REMARK 924 INTRA-LIGAND FREE ENERGY PREDICTED BY IDOCK:    1.09 KCAL/MOL
REMARK 927      BINDING AFFINITY PREDICTED BY RF-SCORE:    0.00 PKD
ROOT
HETATM    1  C   UNL     1     -12.654  17.430  70.944  1.00  0.00     7.474 C  
HETATM    2  C   UNL     1     -11.276  16.814  70.857  1.00  0.00     0.341 C  
HETATM    3  O   UNL     1     -10.304  17.527  70.571  1.00  0.00     0.884 OA 
ENDROOT
BRANCH   2   4
HETATM    4  C   UNL     1     -11.127  15.254  71.092  1.00  0.00    -0.278 C  
HETATM    5  O   UNL     1     -11.364  15.048  72.509  1.00  0.00    -0.382 OA 
HETATM    6  C   UNL     1     -12.365  14.718  70.360  1.00  0.00    -0.402 C  
HETATM    7  C   UNL     1     -12.144  13.268  70.569  1.00  0.00    -0.391 C  
HETATM    8  H   UNL     1     -11.275  14.113  72.650  1.00  0.00     0.000 HD 
HETATM    9  C   UNL     1     -10.729  13.175  70.010  1.00  0.00     0.968 C  
HETATM   10  C   UNL     1     -10.646  13.208  68.457  1.00  0.00    -0.274 C  
HETATM   11  C   UNL     1     -11.872  12.675  67.781  1.00  0.00    -0.381 C  
HETATM   12  C   UNL     1     -11.910  12.015  66.615  1.00  0.00    -0.239 C  
HETATM   13  C   UNL     1     -13.253  11.534  66.125  1.00  0.00     6.710 C  
HETATM   14  C   UNL     1     -10.703  11.878  65.827  1.00  0.00    -0.327 C  
HETATM   15  C   UNL     1     -10.790  11.492  64.539  1.00  0.00    -0.390 C  
HETATM   16  C   UNL     1      -9.555  11.387  63.773  1.00  0.00    -0.237 C  
HETATM   17  O   UNL     1      -9.527  11.642  62.573  1.00  0.00    -0.203 OA 
HETATM   18  C   UNL     1      -8.389  10.806  64.538  1.00  0.00     0.038 C  
HETATM   19  C   UNL     1      -8.149  11.540  65.864  1.00  0.00     0.221 C  
HETATM   20  C   UNL     1      -9.356  12.339  66.438  1.00  0.00    -0.219 C  
HETATM   21  C   UNL     1      -9.387  12.445  68.015  1.00  0.00    -0.204 C  
HETATM   22  C   UNL     1      -8.226  13.174  68.731  1.00  0.00     0.098 C  
HETATM   23  C   UNL     1      -8.508  13.414  70.278  1.00  0.00     3.756 C  
HETATM   24  C   UNL     1      -9.763  14.330  70.767  1.00  0.00     2.831 C  
HETATM   25  C   UNL     1      -8.964  15.615  70.248  1.00  0.00     0.883 C  
ENDBRANCH   2   4
TORSDOF 1
ENDMDL
MODEL      136
REMARK 921   NORMALIZED FREE ENERGY PREDICTED BY IDOCK:   20.90 KCAL/MOL
REMARK 922        TOTAL FREE ENERGY PREDICTED BY IDOCK:   22.54 KCAL/MOL
REMARK 923 INTER-LIGAND FREE ENERGY PREDICTED BY IDOCK:   21.25 KCAL/MOL
REMARK 924 INTRA-LIGAND FREE ENERGY PREDICTED BY IDOCK:    1.29 KCAL/MOL
REMARK 927      BINDING AFFINITY PREDICTED BY RF-SCORE:    0.00 PKD
ROOT
HETATM    1  C   UNL     1      -7.764  13.920  70.659  1.00  0.00     2.582 C  
HETATM    2  C   UNL     1      -7.972  15.410  70.812  1.00  0.00     1.990 C  
HETATM    3  O   UNL     1      -7.091  16.098  71.348  1.00  0.00     3.037 OA 
ENDROOT
BRANCH   2   4
HETATM    4  C   UNL     1      -9.339  16.039  70.318  1.00  0.00     0.987 C  
HETATM    5  O   UNL     1      -9.581  17.177  71.186  1.00  0.00     4.089 OA 
HETATM    6  C   UNL     1      -8.934  16.611  68.953  1.00  0.00    -0.239 C  
HETATM    7  C   UNL     1     -10.251  17.134  68.524  1.00  0.00    -0.346 C  
HETATM    8  H   UNL     1     -10.401  17.554  70.890  1.00  0.00     0.000 HD 
HETATM    9  C   UNL     1     -11.065  15.855  68.694  1.00  0.00    -0.337 C  
HETATM   10  C   UNL     1     -10.849  14.800  67.571  1.00  0.00    -0.287 C  
HETATM   11  C   UNL     1     -10.457  15.398  66.255  1.00  0.00    -0.310 C  
HETATM   12  C   UNL     1     -10.783  14.928  65.043  1.00  0.00    -0.451 C  
HETATM   13  C   UNL     1     -10.310  15.705  63.840  1.00  0.00     3.296 C  
HETATM   14  C   UNL     1     -11.476  13.662  64.926  1.00  0.00    -0.352 C  
HETATM   15  C   UNL     1     -11.537  13.046  63.729  1.00  0.00    -0.517 C  
HETATM   16  C   UNL     1     -12.223  11.763  63.655  1.00  0.00    -0.383 C  
HETATM   17  O   UNL     1     -11.852  10.886  62.881  1.00  0.00     0.902 OA 
HETATM   18  C   UNL     1     -13.483  11.677  64.485  1.00  0.00     2.123 C  
HETATM   19  C   UNL     1     -13.239  12.084  65.944  1.00  0.00     4.014 C  
HETATM   20  C   UNL     1     -11.986  12.968  66.214  1.00  0.00    -0.477 C  
HETATM   21  C   UNL     1     -12.124  13.951  67.443  1.00  0.00    -0.380 C  
HETATM   22  C   UNL     1     -12.329  13.350  68.853  1.00  0.00     0.013 C  
HETATM   23  C   UNL     1     -12.209  14.435  70.010  1.00  0.00    -0.408 C  
HETATM   24  C   UNL     1     -10.822  15.253  70.249  1.00  0.00    -0.303 C  
HETATM   25  C   UNL     1     -10.182  13.905  70.825  1.00  0.00     3.009 C  
ENDBRANCH   2   4
TORSDOF 1
ENDMDL
MODEL      137
REMARK 921   NORMALIZED FREE ENERGY PREDICTED BY IDOCK:   21.66 KCAL/MOL
REMARK 922        TOTAL FREE ENERGY PREDICTED BY IDOCK:   23.35 KCAL/MOL
REMARK 923 INTER-LIGAND FREE ENERGY PREDICTED BY IDOCK:   22.30 KCAL/MOL
REMARK 924 INTRA-LIGAND FREE ENERGY PREDICTED BY IDOCK:    1.04 KCAL/MOL
REMARK 927      BINDING AFFINITY PREDICTED BY RF-SCORE:    0.00 PKD
ROOT
HETATM    1  C   UNL     1      -9.192  16.892  64.355  1.00  0.00     6.131 C  
HETATM    2  C   UNL     1      -8.830  15.687  65.194  1.00  0.00     2.181 C  
HETATM    3  O   UNL     1      -9.204  14.560  64.839  1.00  0.00     0.820 OA 
ENDROOT
BRANCH   2   4
HETATM    4  C   UNL     1      -8.015  15.914  66.534  1.00  0.00    -0.196 C  
HETATM    5  O   UNL     1      -6.650  16.184  66.120  1.00  0.00     0.286 OA 
HETATM    6  C   UNL     1      -8.596  17.249  67.019  1.00  0.00    -0.246 C  
HETATM    7  C   UNL     1      -7.841  17.380  68.286  1.00  0.00    -0.247 C  
HETATM    8  H   UNL     1      -6.162  16.320  66.923  1.00  0.00     0.000 HD 
HETATM    9  C   UNL     1      -8.201  16.031  68.901  1.00  0.00    -0.223 C  
HETATM   10  C   UNL     1      -9.640  15.954  69.486  1.00  0.00    -0.239 C  
HETATM   11  C   UNL     1     -10.169  17.276  69.950  1.00  0.00     0.353 C  
HETATM   12  C   UNL     1     -11.002  17.479  70.981  1.00  0.00     1.757 C  
HETATM   13  C   UNL     1     -11.388  18.902  71.301  1.00  0.00     5.685 C  
HETATM   14  C   UNL     1     -11.573  16.345  71.677  1.00  0.00    -0.335 C  
HETATM   15  C   UNL     1     -12.625  16.530  72.498  1.00  0.00     0.111 C  
HETATM   16  C   UNL     1     -13.187  15.362  73.162  1.00  0.00    -0.525 C  
HETATM   17  O   UNL     1     -14.389  15.281  73.401  1.00  0.00     0.665 OA 
HETATM   18  C   UNL     1     -12.163  14.363  73.649  1.00  0.00     0.084 C  
HETATM   19  C   UNL     1     -11.193  13.946  72.535  1.00  0.00     3.226 C  
HETATM   20  C   UNL     1     -11.067  14.922  71.329  1.00  0.00    -0.078 C  
HETATM   21  C   UNL     1      -9.654  14.916  70.621  1.00  0.00     1.248 C  
HETATM   22  C   UNL     1      -9.166  13.610  69.952  1.00  0.00     2.123 C  
HETATM   23  C   UNL     1      -7.852  13.816  69.079  1.00  0.00     0.097 C  
HETATM   24  C   UNL     1      -7.852  14.812  67.790  1.00  0.00    -0.163 C  
HETATM   25  C   UNL     1      -8.744  13.733  67.017  1.00  0.00    -0.212 C  
ENDBRANCH   2   4
TORSDOF 1
ENDMDL
MODEL      138
REMARK 921   NORMALIZED FREE ENERGY PREDICTED BY IDOCK:   29.27 KCAL/MOL
REMARK 922        TOTAL FREE ENERGY PREDICTED BY IDOCK:   31.40 KCAL/MOL
REMARK 923 INTER-LIGAND FREE ENERGY PREDICTED BY IDOCK:   31.42 KCAL/MOL
REMARK 924 INTRA-LIGAND FREE ENERGY PREDICTED BY IDOCK:   -0.01 KCAL/MOL
REMARK 927      BINDING AFFINITY PREDICTED BY RF-SCORE:    0.00 PKD
ROOT
HETATM    1  C   UNL     1     -13.854  13.864  66.486  1.00  0.00     5.160 C  
HETATM    2  C   UNL     1     -12.958  14.932  65.902  1.00  0.00     0.751 C  
HETATM    3  O   UNL     1     -13.238  15.433  64.804  1.00  0.00     0.425 OA 
ENDROOT
BRANCH   2   4
HETATM    4  C   UNL     1     -11.654  15.347  66.701  1.00  0.00     0.062 C  
HETATM    5  O   UNL     1     -11.404  16.732  66.348  1.00  0.00     0.383 OA 
HETATM    6  C   UNL     1     -12.173  15.352  68.145  1.00  0.00     0.275 C  
HETATM    7  C   UNL     1     -10.910  15.692  68.841  1.00  0.00    -0.252 C  
HETATM    8  H   UNL     1     -10.622  16.981  66.827  1.00  0.00     0.000 HD 
HETATM    9  C   UNL     1     -10.033  14.585  68.265  1.00  0.00    -0.229 C  
HETATM   10  C   UNL     1     -10.278  13.180  68.886  1.00  0.00    -0.021 C  
HETATM   11  C   UNL     1     -10.781  13.229  70.296  1.00  0.00     1.444 C  
HETATM   12  C   UNL     1     -10.516  12.338  71.263  1.00  0.00     7.004 C  
HETATM   13  C   UNL     1     -11.101  12.594  72.629  1.00  0.00     9.477 C  
HETATM   14  C   UNL     1      -9.779  11.133  70.947  1.00  0.00     4.507 C  
HETATM   15  C   UNL     1      -9.772  10.110  71.823  1.00  0.00     3.404 C  
HETATM   16  C   UNL     1      -9.038   8.905  71.461  1.00  0.00    -0.229 C  
HETATM   17  O   UNL     1      -9.421   7.794  71.816  1.00  0.00    -0.145 OA 
HETATM   18  C   UNL     1      -7.723   9.158  70.760  1.00  0.00    -0.162 C  
HETATM   19  C   UNL     1      -7.886  10.085  69.549  1.00  0.00    -0.155 C  
HETATM   20  C   UNL     1      -9.156  10.986  69.536  1.00  0.00     0.348 C  
HETATM   21  C   UNL     1      -8.979  12.365  68.783  1.00  0.00     0.150 C  
HETATM   22  C   UNL     1      -8.656  12.347  67.271  1.00  0.00    -0.185 C  
HETATM   23  C   UNL     1      -8.745  13.788  66.603  1.00  0.00    -0.026 C  
HETATM   24  C   UNL     1     -10.147  14.615  66.583  1.00  0.00    -0.277 C  
HETATM   25  C   UNL     1     -10.689  13.577  65.494  1.00  0.00    -0.293 C  
ENDBRANCH   2   4
TORSDOF 1
ENDMDL
MODEL      139
REMARK 921   NORMALIZED FREE ENERGY PREDICTED BY IDOCK:   35.37 KCAL/MOL
REMARK 922        TOTAL FREE ENERGY PREDICTED BY IDOCK:   37.86 KCAL/MOL
REMARK 923 INTER-LIGAND FREE ENERGY PREDICTED BY IDOCK:   36.71 KCAL/MOL
REMARK 924 INTRA-LIGAND FREE ENERGY PREDICTED BY IDOCK:    1.15 KCAL/MOL
REMARK 927      BINDING AFFINITY PREDICTED BY RF-SCORE:    0.00 PKD
ROOT
HETATM    1  C   UNL     1     -11.853  15.584  63.531  1.00  0.00     1.209 C  
HETATM    2  C   UNL     1     -10.757  16.622  63.444  1.00  0.00     6.007 C  
HETATM    3  O   UNL     1     -10.722  17.394  62.476  1.00  0.00     9.741 OA 
ENDROOT
BRANCH   2   4
HETATM    4  C   UNL     1      -9.655  16.656  64.582  1.00  0.00     3.023 C  
HETATM    5  O   UNL     1      -8.482  17.253  63.971  1.00  0.00     8.443 OA 
HETATM    6  C   UNL     1     -10.235  17.712  65.533  1.00  0.00     0.091 C  
HETATM    7  C   UNL     1      -9.198  17.662  66.590  1.00  0.00    -0.284 C  
HETATM    8  H   UNL     1      -7.821  17.274  64.653  1.00  0.00     0.000 HD 
HETATM    9  C   UNL     1      -9.236  16.164  66.870  1.00  0.00    -0.246 C  
HETATM   10  C   UNL     1     -10.458  15.696  67.712  1.00  0.00    -0.273 C  
HETATM   11  C   UNL     1     -10.993  16.754  68.628  1.00  0.00    -0.298 C  
HETATM   12  C   UNL     1     -11.549  16.552  69.831  1.00  0.00     0.178 C  
HETATM   13  C   UNL     1     -11.995  17.765  70.609  1.00  0.00     5.974 C  
HETATM   14  C   UNL     1     -11.793  15.202  70.293  1.00  0.00    -0.352 C  
HETATM   15  C   UNL     1     -12.611  14.996  71.343  1.00  0.00    -0.406 C  
HETATM   16  C   UNL     1     -12.851  13.623  71.764  1.00  0.00    -0.315 C  
HETATM   17  O   UNL     1     -13.933  13.278  72.229  1.00  0.00    -0.532 OA 
HETATM   18  C   UNL     1     -11.632  12.731  71.718  1.00  0.00     2.843 C  
HETATM   19  C   UNL     1     -10.942  12.771  70.348  1.00  0.00     1.436 C  
HETATM   20  C   UNL     1     -11.239  14.017  69.462  1.00  0.00    -0.249 C  
HETATM   21  C   UNL     1     -10.065  14.430  68.488  1.00  0.00    -0.244 C  
HETATM   22  C   UNL     1      -9.624  13.430  67.394  1.00  0.00    -0.223 C  
HETATM   23  C   UNL     1      -8.611  14.068  66.347  1.00  0.00     0.309 C  
HETATM   24  C   UNL     1      -9.053  15.329  65.417  1.00  0.00     0.678 C  
HETATM   25  C   UNL     1      -9.989  14.330  64.590  1.00  0.00     0.201 C  
ENDBRANCH   2   4
TORSDOF 1
ENDMDL
MODEL      140
REMARK 921   NORMALIZED FREE ENERGY PREDICTED BY IDOCK:   38.21 KCAL/MOL
REMARK 922        TOTAL FREE ENERGY PREDICTED BY IDOCK:   40.86 KCAL/MOL
REMARK 923 INTER-LIGAND FREE ENERGY PREDICTED BY IDOCK:   40.87 KCAL/MOL
REMARK 924 INTRA-LIGAND FREE ENERGY PREDICTED BY IDOCK:   -0.01 KCAL/MOL
REMARK 927      BINDING AFFINITY PREDICTED BY RF-SCORE:    0.00 PKD
ROOT
HETATM    1  C   UNL     1      -8.758  17.997  62.788  1.00  0.00    26.210 C  
HETATM    2  C   UNL     1      -8.681  18.444  64.230  1.00  0.00     8.808 C  
HETATM    3  O   UNL     1      -7.988  19.428  64.529  1.00  0.00     1.746 OA 
ENDROOT
BRANCH   2   4
HETATM    4  C   UNL     1      -9.459  17.605  65.326  1.00  0.00     1.517 C  
HETATM    5  O   UNL     1     -10.010  18.582  66.247  1.00  0.00    -0.355 OA 
HETATM    6  C   UNL     1     -10.639  17.062  64.509  1.00  0.00     1.292 C  
HETATM    7  C   UNL     1     -11.293  16.253  65.563  1.00  0.00     0.258 C  
HETATM    8  H   UNL     1     -10.476  18.079  66.904  1.00  0.00     0.000 HD 
HETATM    9  C   UNL     1     -10.093  15.407  65.974  1.00  0.00    -0.346 C  
HETATM   10  C   UNL     1      -9.739  14.264  64.979  1.00  0.00     0.130 C  
HETATM   11  C   UNL     1     -10.918  13.761  64.204  1.00  0.00    -0.149 C  
HETATM   12  C   UNL     1     -11.112  12.502  63.785  1.00  0.00    -0.503 C  
HETATM   13  C   UNL     1     -12.390  12.199  63.043  1.00  0.00    -0.150 C  
HETATM   14  C   UNL     1     -10.066  11.516  63.964  1.00  0.00    -0.366 C  
HETATM   15  C   UNL     1     -10.128  10.352  63.290  1.00  0.00     0.023 C  
HETATM   16  C   UNL     1      -9.046   9.395  63.478  1.00  0.00    -0.016 C  
HETATM   17  O   UNL     1      -8.676   8.664  62.564  1.00  0.00    -0.182 OA 
HETATM   18  C   UNL     1      -8.546   9.285  64.899  1.00  0.00    -0.204 C  
HETATM   19  C   UNL     1      -8.174  10.654  65.484  1.00  0.00    -0.141 C  
HETATM   20  C   UNL     1      -8.817  11.895  64.799  1.00  0.00     0.685 C  
HETATM   21  C   UNL     1      -9.056  13.129  65.758  1.00  0.00     0.422 C  
HETATM   22  C   UNL     1      -7.829  13.802  66.418  1.00  0.00     1.395 C  
HETATM   23  C   UNL     1      -8.194  15.164  67.155  1.00  0.00    -0.251 C  
HETATM   24  C   UNL     1      -8.798  16.428  66.324  1.00  0.00    -0.367 C  
HETATM   25  C   UNL     1      -7.348  16.635  65.680  1.00  0.00     1.414 C  
ENDBRANCH   2   4
TORSDOF 1
ENDMDL
MODEL      141
REMARK 921   NORMALIZED FREE ENERGY PREDICTED BY IDOCK:   41.96 KCAL/MOL
REMARK 922        TOTAL FREE ENERGY PREDICTED BY IDOCK:   44.84 KCAL/MOL
REMARK 923 INTER-LIGAND FREE ENERGY PREDICTED BY IDOCK:   44.38 KCAL/MOL
REMARK 924 INTRA-LIGAND FREE ENERGY PREDICTED BY IDOCK:    0.46 KCAL/MOL
REMARK 927      BINDING AFFINITY PREDICTED BY RF-SCORE:    0.00 PKD
ROOT
HETATM    1  C   UNL     1     -11.586  12.799  64.557  1.00  0.00    -0.397 C  
HETATM    2  C   UNL     1     -10.523  13.812  64.197  1.00  0.00     0.173 C  
HETATM    3  O   UNL     1      -9.953  13.737  63.099  1.00  0.00     3.060 OA 
ENDROOT
BRANCH   2   4
HETATM    4  C   UNL     1     -10.139  14.920  65.263  1.00  0.00    -0.345 C  
HETATM    5  O   UNL     1     -10.656  16.168  64.733  1.00  0.00    -0.676 OA 
HETATM    6  C   UNL     1     -11.048  14.536  66.438  1.00  0.00    -0.331 C  
HETATM    7  C   UNL     1     -10.611  15.564  67.411  1.00  0.00    -0.292 C  
HETATM    8  H   UNL     1     -10.427  16.832  65.372  1.00  0.00     0.000 HD 
HETATM    9  C   UNL     1      -9.113  15.281  67.377  1.00  0.00    -0.201 C  
HETATM   10  C   UNL     1      -8.679  14.010  68.161  1.00  0.00    -0.180 C  
HETATM   11  C   UNL     1      -9.590  13.670  69.301  1.00  0.00     0.526 C  
HETATM   12  C   UNL     1      -9.229  13.105  70.462  1.00  0.00     5.989 C  
HETATM   13  C   UNL     1     -10.305  12.877  71.494  1.00  0.00     8.844 C  
HETATM   14  C   UNL     1      -7.868  12.646  70.645  1.00  0.00     5.284 C  
HETATM   15  C   UNL     1      -7.578  11.818  71.668  1.00  0.00     9.145 C  
HETATM   16  C   UNL     1      -6.202  11.360  71.807  1.00  0.00     2.091 C  
HETATM   17  O   UNL     1      -5.944  10.241  72.241  1.00  0.00    -0.094 OA 
HETATM   18  C   UNL     1      -5.158  12.413  71.519  1.00  0.00    -0.091 C  
HETATM   19  C   UNL     1      -5.377  13.081  70.155  1.00  0.00    -0.110 C  
HETATM   20  C   UNL     1      -6.813  12.984  69.562  1.00  0.00     0.099 C  
HETATM   21  C   UNL     1      -7.230  14.198  68.639  1.00  0.00    -0.116 C  
HETATM   22  C   UNL     1      -6.428  14.451  67.342  1.00  0.00     0.092 C  
HETATM   23  C   UNL     1      -7.103  15.543  66.402  1.00  0.00     1.346 C  
HETATM   24  C   UNL     1      -8.587  15.304  65.775  1.00  0.00     0.887 C  
HETATM   25  C   UNL     1      -7.948  14.204  64.805  1.00  0.00     9.674 C  
ENDBRANCH   2   4
TORSDOF 1
ENDMDL
MODEL      142
REMARK 921   NORMALIZED FREE ENERGY PREDICTED BY IDOCK:   48.44 KCAL/MOL
REMARK 922        TOTAL FREE ENERGY PREDICTED BY IDOCK:   51.70 KCAL/MOL
REMARK 923 INTER-LIGAND FREE ENERGY PREDICTED BY IDOCK:   50.68 KCAL/MOL
REMARK 924 INTRA-LIGAND FREE ENERGY PREDICTED BY IDOCK:    1.02 KCAL/MOL
REMARK 927      BINDING AFFINITY PREDICTED BY RF-SCORE:    0.00 PKD
ROOT
HETATM    1  C   UNL     1     -10.131  12.080  63.060  1.00  0.00    -0.088 C  
HETATM    2  C   UNL     1      -9.117  11.684  64.109  1.00  0.00     0.288 C  
HETATM    3  O   UNL     1      -9.259  10.619  64.725  1.00  0.00    -0.196 OA 
ENDROOT
BRANCH   2   4
HETATM    4  C   UNL     1      -7.920  12.675  64.418  1.00  0.00     5.484 C  
HETATM    5  O   UNL     1      -7.470  13.158  63.125  1.00  0.00     7.648 OA 
HETATM    6  C   UNL     1      -8.659  13.842  65.086  1.00  0.00     3.437 C  
HETATM    7  C   UNL     1      -7.494  14.703  65.395  1.00  0.00     7.990 C  
HETATM    8  H   UNL     1      -6.753  13.753  63.310  1.00  0.00     0.000 HD 
HETATM    9  C   UNL     1      -6.660  13.684  66.163  1.00  0.00     4.807 C  
HETATM   10  C   UNL     1      -7.149  13.413  67.615  1.00  0.00    -0.168 C  
HETATM   11  C   UNL     1      -7.863  14.577  68.232  1.00  0.00    -0.131 C  
HETATM   12  C   UNL     1      -7.852  14.915  69.529  1.00  0.00    -0.102 C  
HETATM   13  C   UNL     1      -8.616  16.150  69.938  1.00  0.00     0.666 C  
HETATM   14  C   UNL     1      -7.207  14.047  70.493  1.00  0.00     1.035 C  
HETATM   15  C   UNL     1      -7.449  14.218  71.807  1.00  0.00     4.028 C  
HETATM   16  C   UNL     1      -6.800  13.311  72.744  1.00  0.00     5.289 C  
HETATM   17  O   UNL     1      -7.352  12.970  73.787  1.00  0.00     5.478 OA 
HETATM   18  C   UNL     1      -5.371  12.965  72.396  1.00  0.00     0.272 C  
HETATM   19  C   UNL     1      -5.240  12.451  70.956  1.00  0.00    -0.155 C  
HETATM   20  C   UNL     1      -6.387  12.838  69.977  1.00  0.00     0.013 C  
HETATM   21  C   UNL     1      -5.946  12.979  68.466  1.00  0.00    -0.075 C  
HETATM   22  C   UNL     1      -5.390  11.733  67.738  1.00  0.00    -0.057 C  
HETATM   23  C   UNL     1      -5.216  11.959  66.173  1.00  0.00     0.525 C  
HETATM   24  C   UNL     1      -6.501  12.290  65.228  1.00  0.00     4.621 C  
HETATM   25  C   UNL     1      -6.971  10.773  65.417  1.00  0.00     0.070 C  
ENDBRANCH   2   4
TORSDOF 1
ENDMDL
MODEL      143
REMARK 921   NORMALIZED FREE ENERGY PREDICTED BY IDOCK:   49.09 KCAL/MOL
REMARK 922        TOTAL FREE ENERGY PREDICTED BY IDOCK:   52.38 KCAL/MOL
REMARK 923 INTER-LIGAND FREE ENERGY PREDICTED BY IDOCK:   51.72 KCAL/MOL
REMARK 924 INTRA-LIGAND FREE ENERGY PREDICTED BY IDOCK:    0.66 KCAL/MOL
REMARK 927      BINDING AFFINITY PREDICTED BY RF-SCORE:    0.00 PKD
ROOT
HETATM    1  C   UNL     1      -8.774  17.908  62.502  1.00  0.00    26.888 C  
HETATM    2  C   UNL     1      -8.740  18.487  63.899  1.00  0.00    12.485 C  
HETATM    3  O   UNL     1      -8.234  19.602  64.086  1.00  0.00     3.237 OA 
ENDROOT
BRANCH   2   4
HETATM    4  C   UNL     1      -9.317  17.619  65.093  1.00  0.00     2.188 C  
HETATM    5  O   UNL     1     -10.178  16.628  64.474  1.00  0.00     0.161 OA 
HETATM    6  C   UNL     1      -8.060  16.875  65.561  1.00  0.00     1.185 C  
HETATM    7  C   UNL     1      -8.646  16.129  66.699  1.00  0.00    -0.311 C  
HETATM    8  H   UNL     1     -10.523  16.108  65.190  1.00  0.00     0.000 HD 
HETATM    9  C   UNL     1      -9.256  17.308  67.449  1.00  0.00    -0.231 C  
HETATM   10  C   UNL     1      -8.228  18.173  68.234  1.00  0.00    -0.300 C  
HETATM   11  C   UNL     1      -7.017  17.409  68.675  1.00  0.00    -0.226 C  
HETATM   12  C   UNL     1      -6.312  17.620  69.796  1.00  0.00    -0.126 C  
HETATM   13  C   UNL     1      -5.139  16.711  70.067  1.00  0.00    -0.172 C  
HETATM   14  C   UNL     1      -6.628  18.752  70.641  1.00  0.00     0.831 C  
HETATM   15  C   UNL     1      -5.751  19.141  71.586  1.00  0.00    -0.076 C  
HETATM   16  C   UNL     1      -6.093  20.299  72.402  1.00  0.00     0.702 C  
HETATM   17  O   UNL     1      -5.229  21.068  72.811  1.00  0.00     0.147 OA 
HETATM   18  C   UNL     1      -7.547  20.372  72.808  1.00  0.00     3.347 C  
HETATM   19  C   UNL     1      -8.487  20.255  71.601  1.00  0.00     2.196 C  
HETATM   20  C   UNL     1      -7.892  19.591  70.324  1.00  0.00     1.048 C  
HETATM   21  C   UNL     1      -8.944  18.825  69.428  1.00  0.00     0.268 C  
HETATM   22  C   UNL     1     -10.099  19.630  68.789  1.00  0.00    -0.532 C  
HETATM   23  C   UNL     1     -10.930  18.784  67.729  1.00  0.00    -0.204 C  
HETATM   24  C   UNL     1     -10.219  18.195  66.387  1.00  0.00    -0.405 C  
HETATM   25  C   UNL     1     -10.155  19.690  65.822  1.00  0.00    -0.377 C  
ENDBRANCH   2   4
TORSDOF 1
ENDMDL
MODEL      144
REMARK 921   NORMALIZED FREE ENERGY PREDICTED BY IDOCK:   49.15 KCAL/MOL
REMARK 922        TOTAL FREE ENERGY PREDICTED BY IDOCK:   52.45 KCAL/MOL
REMARK 923 INTER-LIGAND FREE ENERGY PREDICTED BY IDOCK:   51.73 KCAL/MOL
REMARK 924 INTRA-LIGAND FREE ENERGY PREDICTED BY IDOCK:    0.71 KCAL/MOL
REMARK 927      BINDING AFFINITY PREDICTED BY RF-SCORE:    0.00 PKD
ROOT
HETATM    1  C   UNL     1     -10.155  12.066  63.086  1.00  0.00    -0.267 C  
HETATM    2  C   UNL     1      -9.232  11.608  64.192  1.00  0.00     0.172 C  
HETATM    3  O   UNL     1      -9.437  10.519  64.748  1.00  0.00    -0.212 OA 
ENDROOT
BRANCH   2   4
HETATM    4  C   UNL     1      -8.050  12.565  64.638  1.00  0.00     3.993 C  
HETATM    5  O   UNL     1      -6.878  12.095  63.924  1.00  0.00     3.497 OA 
HETATM    6  C   UNL     1      -8.464  13.885  63.975  1.00  0.00     9.298 C  
HETATM    7  C   UNL     1      -7.361  14.743  64.466  1.00  0.00    16.348 C  
HETATM    8  H   UNL     1      -6.169  12.668  64.191  1.00  0.00     0.000 HD 
HETATM    9  C   UNL     1      -7.509  14.466  65.958  1.00  0.00     3.824 C  
HETATM   10  C   UNL     1      -8.702  15.201  66.634  1.00  0.00    -0.308 C  
HETATM   11  C   UNL     1      -9.072  16.486  65.959  1.00  0.00    -0.290 C  
HETATM   12  C   UNL     1      -9.554  17.585  66.558  1.00  0.00    -0.295 C  
HETATM   13  C   UNL     1      -9.833  18.788  65.692  1.00  0.00     0.368 C  
HETATM   14  C   UNL     1      -9.881  17.550  67.967  1.00  0.00    -0.299 C  
HETATM   15  C   UNL     1     -10.634  18.532  68.500  1.00  0.00    -0.054 C  
HETATM   16  C   UNL     1     -10.961  18.451  69.917  1.00  0.00     2.257 C  
HETATM   17  O   UNL     1     -12.033  18.867  70.348  1.00  0.00     7.713 OA 
HETATM   18  C   UNL     1      -9.832  17.964  70.794  1.00  0.00     3.338 C  
HETATM   19  C   UNL     1      -9.244  16.639  70.291  1.00  0.00     1.944 C  
HETATM   20  C   UNL     1      -9.495  16.297  68.793  1.00  0.00    -0.237 C  
HETATM   21  C   UNL     1      -8.364  15.425  68.117  1.00  0.00    -0.145 C  
HETATM   22  C   UNL     1      -8.095  14.005  68.668  1.00  0.00    -0.113 C  
HETATM   23  C   UNL     1      -7.109  13.162  67.746  1.00  0.00    -0.148 C  
HETATM   24  C   UNL     1      -7.507  12.799  66.209  1.00  0.00     1.535 C  
HETATM   25  C   UNL     1      -8.586  11.766  66.782  1.00  0.00    -0.185 C  
ENDBRANCH   2   4
TORSDOF 1
ENDMDL
MODEL      145
REMARK 921   NORMALIZED FREE ENERGY PREDICTED BY IDOCK:   49.82 KCAL/MOL
REMARK 922        TOTAL FREE ENERGY PREDICTED BY IDOCK:   53.16 KCAL/MOL
REMARK 923 INTER-LIGAND FREE ENERGY PREDICTED BY IDOCK:   51.98 KCAL/MOL
REMARK 924 INTRA-LIGAND FREE ENERGY PREDICTED BY IDOCK:    1.18 KCAL/MOL
REMARK 927      BINDING AFFINITY PREDICTED BY RF-SCORE:    0.00 PKD
ROOT
HETATM    1  C   UNL     1      -7.397  11.948  62.477  1.00  0.00     1.697 C  
HETATM    2  C   UNL     1      -7.259  10.601  63.149  1.00  0.00     0.099 C  
HETATM    3  O   UNL     1      -6.161  10.026  63.147  1.00  0.00    -0.118 OA 
ENDROOT
BRANCH   2   4
HETATM    4  C   UNL     1      -8.545   9.945  63.802  1.00  0.00    -0.199 C  
HETATM    5  O   UNL     1      -9.215   9.244  62.722  1.00  0.00    -0.496 OA 
HETATM    6  C   UNL     1      -7.914   8.869  64.696  1.00  0.00    -0.132 C  
HETATM    7  C   UNL     1      -9.149   8.330  65.311  1.00  0.00     0.081 C  
HETATM    8  H   UNL     1      -9.986   8.850  63.114  1.00  0.00     0.000 HD 
HETATM    9  C   UNL     1      -9.722   9.639  65.844  1.00  0.00    -0.343 C  
HETATM   10  C   UNL     1      -9.026  10.171  67.130  1.00  0.00    -0.146 C  
HETATM   11  C   UNL     1      -8.426   9.089  67.976  1.00  0.00    -0.125 C  
HETATM   12  C   UNL     1      -8.330   9.091  69.313  1.00  0.00    -0.122 C  
HETATM   13  C   UNL     1      -7.717   7.881  69.973  1.00  0.00    -0.089 C  
HETATM   14  C   UNL     1      -8.716  10.269  70.060  1.00  0.00     0.115 C  
HETATM   15  C   UNL     1      -8.346  10.390  71.349  1.00  0.00     3.796 C  
HETATM   16  C   UNL     1      -8.733  11.601  72.061  1.00  0.00    16.979 C  
HETATM   17  O   UNL     1      -8.014  12.087  72.930  1.00  0.00    15.820 OA 
HETATM   18  C   UNL     1     -10.125  12.096  71.746  1.00  0.00    12.731 C  
HETATM   19  C   UNL     1     -10.351  12.252  70.236  1.00  0.00     2.589 C  
HETATM   20  C   UNL     1      -9.402  11.438  69.308  1.00  0.00     0.285 C  
HETATM   21  C   UNL     1     -10.039  11.007  67.928  1.00  0.00    -0.199 C  
HETATM   22  C   UNL     1     -10.485  12.112  66.941  1.00  0.00    -0.250 C  
HETATM   23  C   UNL     1     -10.878  11.539  65.510  1.00  0.00    -0.313 C  
HETATM   24  C   UNL     1      -9.782  10.763  64.590  1.00  0.00    -0.344 C  
HETATM   25  C   UNL     1      -9.070  12.173  64.333  1.00  0.00     0.668 C  
ENDBRANCH   2   4
TORSDOF 1
ENDMDL
