MODEL        1
REMARK 921   NORMALIZED FREE ENERGY PREDICTED BY IDOCK:   -7.00 KCAL/MOL
REMARK 922        TOTAL FREE ENERGY PREDICTED BY IDOCK:   -7.42 KCAL/MOL
REMARK 923 INTER-LIGAND FREE ENERGY PREDICTED BY IDOCK:   -7.41 KCAL/MOL
REMARK 924 INTRA-LIGAND FREE ENERGY PREDICTED BY IDOCK:   -0.02 KCAL/MOL
REMARK 927      BINDING AFFINITY PREDICTED BY RF-SCORE:    0.00 PKD
ROOT
HETATM    1  C   UNL     1      -9.846  13.131  67.399  1.00  0.00    -0.226 C  
HETATM    2  C   UNL     1      -8.590  13.211  68.046  1.00  0.00    -0.182 C  
HETATM    3  C   UNL     1      -9.595  12.385  68.767  1.00  0.00     0.064 C  
HETATM    4  C   UNL     1     -11.315  11.995  67.726  1.00  0.00    -0.303 C  
HETATM    5  C   UNL     1     -10.165  11.242  67.688  1.00  0.00    -0.206 C  
HETATM    6  C   UNL     1     -11.039  14.169  68.416  1.00  0.00    -0.273 C  
HETATM    7  O   UNL     1     -12.379  11.073  67.976  1.00  0.00    -0.544 OA 
HETATM    8  C   UNL     1     -10.709  10.627  69.378  1.00  0.00    -0.281 C  
HETATM    9  C   UNL     1      -9.710  10.181  66.731  1.00  0.00    -0.235 C  
HETATM   10  C   UNL     1     -10.556  15.618  68.689  1.00  0.00    -0.243 C  
HETATM   11  H   UNL     1     -13.177  10.892  67.493  1.00  0.00     0.000 HD 
HETATM   12  C   UNL     1     -11.689  11.833  70.197  1.00  0.00    -0.354 C  
HETATM   13  C   UNL     1     -11.563  13.484  69.913  1.00  0.00    -0.271 C  
HETATM   14  C   UNL     1     -12.747  14.363  70.394  1.00  0.00    -0.362 C  
HETATM   15  C   UNL     1     -13.651  13.785  71.487  1.00  0.00    -0.323 C  
HETATM   16  C   UNL     1     -13.222  14.002  72.928  1.00  0.00    -0.502 C  
HETATM   17  C   UNL     1     -12.454  15.273  73.189  1.00  0.00    -0.457 C  
HETATM   18  O   UNL     1     -12.196  15.638  74.337  1.00  0.00    -0.604 OA 
HETATM   19  C   UNL     1     -11.959  16.082  72.050  1.00  0.00    -0.622 C  
HETATM   20  C   UNL     1     -12.098  15.681  70.774  1.00  0.00    -0.454 C  
HETATM   21  C   UNL     1     -11.488  16.449  69.611  1.00  0.00    -0.112 C  
ENDROOT
BRANCH   4  22
HETATM   22  C   UNL     1     -11.669  12.312  66.240  1.00  0.00    -0.431 C  
HETATM   23  C   UNL     1     -11.992  12.497  65.104  1.00  0.00    -0.484 C  
ENDBRANCH   4  22
TORSDOF 1
ENDMDL
MODEL        2
REMARK 921   NORMALIZED FREE ENERGY PREDICTED BY IDOCK:   -6.43 KCAL/MOL
REMARK 922        TOTAL FREE ENERGY PREDICTED BY IDOCK:   -6.82 KCAL/MOL
REMARK 923 INTER-LIGAND FREE ENERGY PREDICTED BY IDOCK:   -6.80 KCAL/MOL
REMARK 924 INTRA-LIGAND FREE ENERGY PREDICTED BY IDOCK:   -0.02 KCAL/MOL
REMARK 927      BINDING AFFINITY PREDICTED BY RF-SCORE:    0.00 PKD
ROOT
HETATM    1  C   UNL     1     -11.796   7.521  72.084  1.00  0.00    -0.338 C  
HETATM    2  C   UNL     1     -13.060   7.144  71.573  1.00  0.00    -0.427 C  
HETATM    3  C   UNL     1     -11.949   7.034  70.590  1.00  0.00    -0.361 C  
HETATM    4  C   UNL     1     -10.069   7.277  71.366  1.00  0.00    -0.187 C  
HETATM    5  C   UNL     1     -10.759   6.090  71.290  1.00  0.00    -0.320 C  
HETATM    6  C   UNL     1     -11.369   9.171  71.291  1.00  0.00    -0.406 C  
HETATM    7  O   UNL     1      -8.779   7.018  70.808  1.00  0.00    -0.145 OA 
HETATM    8  C   UNL     1     -10.322   6.147  69.462  1.00  0.00    -0.277 C  
HETATM    9  C   UNL     1     -10.534   4.771  71.966  1.00  0.00    -0.225 C  
HETATM   10  C   UNL     1     -12.465  10.258  71.441  1.00  0.00    -0.528 C  
HETATM   11  H   UNL     1      -7.907   7.131  71.169  1.00  0.00     0.000 HD 
HETATM   12  C   UNL     1     -10.120   7.805  68.919  1.00  0.00    -0.201 C  
HETATM   13  C   UNL     1     -10.885   9.119  69.632  1.00  0.00    -0.210 C  
HETATM   14  C   UNL     1     -10.300  10.519  69.314  1.00  0.00    -0.248 C  
HETATM   15  C   UNL     1      -9.452  10.654  68.046  1.00  0.00    -0.164 C  
HETATM   16  C   UNL     1     -10.187  10.934  66.747  1.00  0.00    -0.277 C  
HETATM   17  C   UNL     1     -11.458  11.733  66.883  1.00  0.00    -0.293 C  
HETATM   18  O   UNL     1     -12.052  12.161  65.892  1.00  0.00    -0.594 OA 
HETATM   19  C   UNL     1     -12.034  11.978  68.227  1.00  0.00    -0.244 C  
HETATM   20  C   UNL     1     -11.507  11.439  69.340  1.00  0.00    -0.378 C  
HETATM   21  C   UNL     1     -12.163  11.590  70.704  1.00  0.00    -0.473 C  
ENDROOT
BRANCH   4  22
HETATM   22  C   UNL     1      -9.620   7.416  72.854  1.00  0.00    -0.224 C  
HETATM   23  C   UNL     1      -9.209   7.552  73.968  1.00  0.00    -0.279 C  
ENDBRANCH   4  22
TORSDOF 1
ENDMDL
MODEL        3
REMARK 921   NORMALIZED FREE ENERGY PREDICTED BY IDOCK:   -6.40 KCAL/MOL
REMARK 922        TOTAL FREE ENERGY PREDICTED BY IDOCK:   -6.79 KCAL/MOL
REMARK 923 INTER-LIGAND FREE ENERGY PREDICTED BY IDOCK:   -6.76 KCAL/MOL
REMARK 924 INTRA-LIGAND FREE ENERGY PREDICTED BY IDOCK:   -0.02 KCAL/MOL
REMARK 927      BINDING AFFINITY PREDICTED BY RF-SCORE:    0.00 PKD
ROOT
HETATM    1  C   UNL     1     -10.844  15.762  67.215  1.00  0.00    -0.298 C  
HETATM    2  C   UNL     1     -10.483  15.591  65.857  1.00  0.00    -0.356 C  
HETATM    3  C   UNL     1      -9.335  15.546  66.803  1.00  0.00    -0.267 C  
HETATM    4  C   UNL     1      -9.840  15.486  68.787  1.00  0.00    -0.217 C  
HETATM    5  C   UNL     1      -9.693  14.396  67.963  1.00  0.00    -0.221 C  
HETATM    6  C   UNL     1     -10.252  17.476  67.713  1.00  0.00    -0.349 C  
HETATM    7  O   UNL     1      -9.058  15.208  69.950  1.00  0.00    -0.450 OA 
HETATM    8  C   UNL     1      -7.850  14.715  68.147  1.00  0.00    -0.128 C  
HETATM    9  C   UNL     1     -10.120  12.968  68.128  1.00  0.00    -0.237 C  
HETATM   10  C   UNL     1     -10.731  18.617  66.779  1.00  0.00    -0.337 C  
HETATM   11  H   UNL     1      -9.293  15.180  70.871  1.00  0.00     0.000 HD 
HETATM   12  C   UNL     1      -7.538  16.415  68.461  1.00  0.00    -0.188 C  
HETATM   13  C   UNL     1      -8.550  17.655  67.955  1.00  0.00    -0.238 C  
HETATM   14  C   UNL     1      -8.360  19.031  68.646  1.00  0.00    -0.397 C  
HETATM   15  C   UNL     1      -7.011  19.296  69.321  1.00  0.00    -0.349 C  
HETATM   16  C   UNL     1      -5.898  19.853  68.451  1.00  0.00    -0.265 C  
HETATM   17  C   UNL     1      -6.347  20.730  67.310  1.00  0.00    -0.282 C  
HETATM   18  O   UNL     1      -5.535  21.368  66.638  1.00  0.00    -0.243 OA 
HETATM   19  C   UNL     1      -7.785  20.800  66.956  1.00  0.00    -0.271 C  
HETATM   20  C   UNL     1      -8.710  20.038  67.566  1.00  0.00    -0.415 C  
HETATM   21  C   UNL     1     -10.166  20.020  67.125  1.00  0.00    -0.580 C  
ENDROOT
BRANCH   4  22
HETATM   22  C   UNL     1     -11.245  15.336  69.449  1.00  0.00    -0.291 C  
HETATM   23  C   UNL     1     -12.286  15.223  70.026  1.00  0.00    -0.385 C  
ENDBRANCH   4  22
TORSDOF 1
ENDMDL
MODEL        4
REMARK 921   NORMALIZED FREE ENERGY PREDICTED BY IDOCK:   -6.29 KCAL/MOL
REMARK 922        TOTAL FREE ENERGY PREDICTED BY IDOCK:   -6.67 KCAL/MOL
REMARK 923 INTER-LIGAND FREE ENERGY PREDICTED BY IDOCK:   -6.68 KCAL/MOL
REMARK 924 INTRA-LIGAND FREE ENERGY PREDICTED BY IDOCK:    0.00 KCAL/MOL
REMARK 927      BINDING AFFINITY PREDICTED BY RF-SCORE:    0.00 PKD
ROOT
HETATM    1  C   UNL     1      -8.772   8.654  66.501  1.00  0.00    -0.143 C  
HETATM    2  C   UNL     1      -7.462   9.180  66.388  1.00  0.00    -0.092 C  
HETATM    3  C   UNL     1      -8.317   9.883  67.382  1.00  0.00    -0.118 C  
HETATM    4  C   UNL     1     -10.106   8.975  67.795  1.00  0.00    -0.208 C  
HETATM    5  C   UNL     1      -8.913   8.726  68.432  1.00  0.00    -0.141 C  
HETATM    6  C   UNL     1      -9.922   9.909  65.704  1.00  0.00    -0.353 C  
HETATM    7  O   UNL     1     -11.063   9.207  68.831  1.00  0.00    -0.435 OA 
HETATM    8  C   UNL     1      -9.222  10.368  69.293  1.00  0.00    -0.198 C  
HETATM    9  C   UNL     1      -8.485   7.600  69.325  1.00  0.00    -0.138 C  
HETATM   10  C   UNL     1      -9.525  10.319  64.262  1.00  0.00    -0.365 C  
HETATM   11  H   UNL     1     -11.893   8.785  69.023  1.00  0.00     0.000 HD 
HETATM   12  C   UNL     1     -10.195  11.428  68.286  1.00  0.00    -0.204 C  
HETATM   13  C   UNL     1     -10.226  11.350  66.609  1.00  0.00    -0.258 C  
HETATM   14  C   UNL     1     -11.415  12.054  65.904  1.00  0.00    -0.392 C  
HETATM   15  C   UNL     1     -12.148  13.147  66.687  1.00  0.00    -0.409 C  
HETATM   16  C   UNL     1     -11.582  14.555  66.608  1.00  0.00    -0.385 C  
HETATM   17  C   UNL     1     -10.889  14.900  65.315  1.00  0.00    -0.386 C  
HETATM   18  O   UNL     1     -10.536  16.055  65.070  1.00  0.00    -0.551 OA 
HETATM   19  C   UNL     1     -10.584  13.833  64.333  1.00  0.00    -0.316 C  
HETATM   20  C   UNL     1     -10.830  12.535  64.588  1.00  0.00    -0.343 C  
HETATM   21  C   UNL     1     -10.411  11.427  63.634  1.00  0.00    -0.463 C  
ENDROOT
BRANCH   4  22
HETATM   22  C   UNL     1     -10.642   7.584  67.334  1.00  0.00    -0.364 C  
HETATM   23  C   UNL     1     -11.071   6.504  67.055  1.00  0.00    -0.411 C  
ENDBRANCH   4  22
TORSDOF 1
ENDMDL
MODEL        5
REMARK 921   NORMALIZED FREE ENERGY PREDICTED BY IDOCK:   -6.26 KCAL/MOL
REMARK 922        TOTAL FREE ENERGY PREDICTED BY IDOCK:   -6.64 KCAL/MOL
REMARK 923 INTER-LIGAND FREE ENERGY PREDICTED BY IDOCK:   -6.64 KCAL/MOL
REMARK 924 INTRA-LIGAND FREE ENERGY PREDICTED BY IDOCK:   -0.00 KCAL/MOL
REMARK 927      BINDING AFFINITY PREDICTED BY RF-SCORE:    0.00 PKD
ROOT
HETATM    1  C   UNL     1     -11.195  12.553  66.729  1.00  0.00    -0.347 C  
HETATM    2  C   UNL     1     -12.283  12.975  67.529  1.00  0.00    -0.127 C  
HETATM    3  C   UNL     1     -11.935  13.914  66.428  1.00  0.00    -0.467 C  
HETATM    4  C   UNL     1     -10.575  13.205  65.071  1.00  0.00    -0.332 C  
HETATM    5  C   UNL     1     -11.938  13.035  65.006  1.00  0.00    -0.438 C  
HETATM    6  C   UNL     1      -9.746  13.670  67.164  1.00  0.00    -0.245 C  
HETATM    7  O   UNL     1     -10.179  13.697  63.789  1.00  0.00    -0.487 OA 
HETATM    8  C   UNL     1     -11.969  14.834  64.464  1.00  0.00    -0.451 C  
HETATM    9  C   UNL     1     -12.779  12.100  64.189  1.00  0.00    -0.416 C  
HETATM   10  C   UNL     1      -9.428  13.747  68.680  1.00  0.00    -0.099 C  
HETATM   11  H   UNL     1      -9.547  13.367  63.160  1.00  0.00     0.000 HD 
HETATM   12  C   UNL     1     -10.593  15.708  65.119  1.00  0.00    -0.449 C  
HETATM   13  C   UNL     1      -9.811  15.282  66.543  1.00  0.00    -0.283 C  
HETATM   14  C   UNL     1      -8.399  15.882  66.766  1.00  0.00    -0.306 C  
HETATM   15  C   UNL     1      -8.045  17.151  65.984  1.00  0.00    -0.183 C  
HETATM   16  C   UNL     1      -8.442  18.480  66.603  1.00  0.00    -0.288 C  
HETATM   17  C   UNL     1      -8.457  18.512  68.110  1.00  0.00    -0.296 C  
HETATM   18  O   UNL     1      -8.602  19.570  68.724  1.00  0.00    -0.357 OA 
HETATM   19  C   UNL     1      -8.339  17.248  68.875  1.00  0.00    -0.174 C  
HETATM   20  C   UNL     1      -8.301  16.047  68.271  1.00  0.00    -0.164 C  
HETATM   21  C   UNL     1      -8.299  14.744  69.056  1.00  0.00    -0.144 C  
ENDROOT
BRANCH   4  22
HETATM   22  C   UNL     1      -9.958  11.777  64.938  1.00  0.00    -0.280 C  
HETATM   23  C   UNL     1      -9.494  10.691  64.758  1.00  0.00    -0.306 C  
ENDBRANCH   4  22
TORSDOF 1
ENDMDL
MODEL        6
REMARK 921   NORMALIZED FREE ENERGY PREDICTED BY IDOCK:   -6.15 KCAL/MOL
REMARK 922        TOTAL FREE ENERGY PREDICTED BY IDOCK:   -6.53 KCAL/MOL
REMARK 923 INTER-LIGAND FREE ENERGY PREDICTED BY IDOCK:   -6.57 KCAL/MOL
REMARK 924 INTRA-LIGAND FREE ENERGY PREDICTED BY IDOCK:    0.04 KCAL/MOL
REMARK 927      BINDING AFFINITY PREDICTED BY RF-SCORE:    0.00 PKD
ROOT
HETATM    1  C   UNL     1      -8.883  17.594  68.824  1.00  0.00    -0.208 C  
HETATM    2  C   UNL     1      -7.755  16.858  69.258  1.00  0.00    -0.052 C  
HETATM    3  C   UNL     1      -8.192  16.542  67.871  1.00  0.00    -0.172 C  
HETATM    4  C   UNL     1      -9.621  17.789  67.099  1.00  0.00    -0.276 C  
HETATM    5  C   UNL     1      -8.262  17.986  67.031  1.00  0.00    -0.240 C  
HETATM    6  C   UNL     1     -10.324  16.386  68.778  1.00  0.00    -0.275 C  
HETATM    7  O   UNL     1     -10.109  17.952  65.766  1.00  0.00    -0.563 OA 
HETATM    8  C   UNL     1      -8.303  16.652  65.708  1.00  0.00     0.307 C  
HETATM    9  C   UNL     1      -7.456  19.205  66.694  1.00  0.00    -0.246 C  
HETATM   10  C   UNL     1     -10.546  15.602  70.098  1.00  0.00    -0.348 C  
HETATM   11  H   UNL     1     -10.772  18.531  65.407  1.00  0.00     0.000 HD 
HETATM   12  C   UNL     1      -9.652  15.557  65.965  1.00  0.00    -0.380 C  
HETATM   13  C   UNL     1     -10.332  15.256  67.471  1.00  0.00    -0.244 C  
HETATM   14  C   UNL     1     -11.739  14.604  67.478  1.00  0.00    -0.403 C  
HETATM   15  C   UNL     1     -12.169  13.847  66.218  1.00  0.00    -0.498 C  
HETATM   16  C   UNL     1     -11.761  12.388  66.113  1.00  0.00    -0.460 C  
HETATM   17  C   UNL     1     -11.649  11.652  67.425  1.00  0.00    -0.254 C  
HETATM   18  O   UNL     1     -11.487  10.432  67.459  1.00  0.00    -0.386 OA 
HETATM   19  C   UNL     1     -11.692  12.407  68.700  1.00  0.00    -0.372 C  
HETATM   20  C   UNL     1     -11.744  13.751  68.734  1.00  0.00    -0.391 C  
HETATM   21  C   UNL     1     -11.669  14.533  70.036  1.00  0.00    -0.359 C  
ENDROOT
BRANCH   4  22
HETATM   22  C   UNL     1     -10.215  19.105  67.692  1.00  0.00    -0.492 C  
HETATM   23  C   UNL     1     -10.609  20.151  68.115  1.00  0.00    -0.255 C  
ENDBRANCH   4  22
TORSDOF 1
ENDMDL
MODEL        7
REMARK 921   NORMALIZED FREE ENERGY PREDICTED BY IDOCK:   -6.11 KCAL/MOL
REMARK 922        TOTAL FREE ENERGY PREDICTED BY IDOCK:   -6.48 KCAL/MOL
REMARK 923 INTER-LIGAND FREE ENERGY PREDICTED BY IDOCK:   -6.47 KCAL/MOL
REMARK 924 INTRA-LIGAND FREE ENERGY PREDICTED BY IDOCK:   -0.02 KCAL/MOL
REMARK 927      BINDING AFFINITY PREDICTED BY RF-SCORE:    0.00 PKD
ROOT
HETATM    1  C   UNL     1     -11.022  13.736  66.261  1.00  0.00    -0.297 C  
HETATM    2  C   UNL     1     -12.370  13.459  65.930  1.00  0.00    -0.493 C  
HETATM    3  C   UNL     1     -12.005  13.119  67.332  1.00  0.00    -0.379 C  
HETATM    4  C   UNL     1     -10.163  13.778  67.939  1.00  0.00    -0.245 C  
HETATM    5  C   UNL     1     -11.337  14.490  68.017  1.00  0.00    -0.326 C  
HETATM    6  C   UNL     1     -10.154  12.074  66.397  1.00  0.00    -0.242 C  
HETATM    7  O   UNL     1      -9.571  13.853  69.238  1.00  0.00    -0.394 OA 
HETATM    8  C   UNL     1     -11.730  13.363  69.469  1.00  0.00    -0.385 C  
HETATM    9  C   UNL     1     -11.594  15.950  68.246  1.00  0.00    -0.274 C  
HETATM   10  C   UNL     1     -10.328  11.155  65.160  1.00  0.00    -0.354 C  
HETATM   11  H   UNL     1      -8.716  14.159  69.520  1.00  0.00     0.000 HD 
HETATM   12  C   UNL     1     -10.921  11.813  69.295  1.00  0.00    -0.231 C  
HETATM   13  C   UNL     1     -10.500  11.145  67.813  1.00  0.00    -0.225 C  
HETATM   14  C   UNL     1      -9.452  10.002  67.840  1.00  0.00    -0.159 C  
HETATM   15  C   UNL     1      -9.270   9.249  69.162  1.00  0.00    -0.149 C  
HETATM   16  C   UNL     1     -10.198   8.075  69.425  1.00  0.00    -0.210 C  
HETATM   17  C   UNL     1     -10.661   7.331  68.199  1.00  0.00    -0.177 C  
HETATM   18  O   UNL     1     -11.280   6.269  68.293  1.00  0.00    -0.328 OA 
HETATM   19  C   UNL     1     -10.410   7.898  66.852  1.00  0.00    -0.400 C  
HETATM   20  C   UNL     1      -9.850   9.108  66.679  1.00  0.00    -0.307 C  
HETATM   21  C   UNL     1      -9.699   9.744  65.306  1.00  0.00    -0.371 C  
ENDROOT
BRANCH   4  22
HETATM   22  C   UNL     1      -9.148  14.705  67.201  1.00  0.00    -0.236 C  
HETATM   23  C   UNL     1      -8.335  15.427  66.705  1.00  0.00    -0.285 C  
ENDBRANCH   4  22
TORSDOF 1
ENDMDL
MODEL        8
REMARK 921   NORMALIZED FREE ENERGY PREDICTED BY IDOCK:   -6.11 KCAL/MOL
REMARK 922        TOTAL FREE ENERGY PREDICTED BY IDOCK:   -6.48 KCAL/MOL
REMARK 923 INTER-LIGAND FREE ENERGY PREDICTED BY IDOCK:   -6.47 KCAL/MOL
REMARK 924 INTRA-LIGAND FREE ENERGY PREDICTED BY IDOCK:   -0.01 KCAL/MOL
REMARK 927      BINDING AFFINITY PREDICTED BY RF-SCORE:    0.00 PKD
ROOT
HETATM    1  C   UNL     1     -10.999  12.814  67.108  1.00  0.00    -0.295 C  
HETATM    2  C   UNL     1     -12.022  13.325  67.942  1.00  0.00    -0.349 C  
HETATM    3  C   UNL     1     -11.676  14.205  66.794  1.00  0.00    -0.432 C  
HETATM    4  C   UNL     1     -10.425  13.374  65.401  1.00  0.00    -0.302 C  
HETATM    5  C   UNL     1     -11.797  13.282  65.406  1.00  0.00    -0.392 C  
HETATM    6  C   UNL     1      -9.471  13.859  67.435  1.00  0.00    -0.226 C  
HETATM    7  O   UNL     1     -10.064  13.801  64.086  1.00  0.00    -0.729 OA 
HETATM    8  C   UNL     1     -11.753  15.061  64.803  1.00  0.00    -0.370 C  
HETATM    9  C   UNL     1     -12.728  12.371  64.662  1.00  0.00    -0.372 C  
HETATM   10  C   UNL     1      -9.076  13.967  68.931  1.00  0.00     0.048 C  
HETATM   11  H   UNL     1      -9.484  13.415  63.439  1.00  0.00     0.000 HD 
HETATM   12  C   UNL     1     -10.300  15.875  65.362  1.00  0.00    -0.399 C  
HETATM   13  C   UNL     1      -9.475  15.451  66.762  1.00  0.00    -0.260 C  
HETATM   14  C   UNL     1      -8.022  15.976  66.897  1.00  0.00    -0.283 C  
HETATM   15  C   UNL     1      -7.636  17.195  66.055  1.00  0.00    -0.185 C  
HETATM   16  C   UNL     1      -7.927  18.565  66.644  1.00  0.00    -0.278 C  
HETATM   17  C   UNL     1      -7.867  18.646  68.148  1.00  0.00    -0.287 C  
HETATM   18  O   UNL     1      -7.923  19.730  68.731  1.00  0.00    -0.307 OA 
HETATM   19  C   UNL     1      -7.783  17.403  68.952  1.00  0.00    -0.209 C  
HETATM   20  C   UNL     1      -7.842  16.183  68.389  1.00  0.00    -0.160 C  
HETATM   21  C   UNL     1      -7.876  14.908  69.219  1.00  0.00    -0.158 C  
ENDROOT
BRANCH   4  22
HETATM   22  C   UNL     1      -9.897  11.910  65.290  1.00  0.00    -0.255 C  
HETATM   23  C   UNL     1      -9.421  10.818  65.198  1.00  0.00    -0.271 C  
ENDBRANCH   4  22
TORSDOF 1
ENDMDL
MODEL        9
REMARK 921   NORMALIZED FREE ENERGY PREDICTED BY IDOCK:   -6.04 KCAL/MOL
REMARK 922        TOTAL FREE ENERGY PREDICTED BY IDOCK:   -6.41 KCAL/MOL
REMARK 923 INTER-LIGAND FREE ENERGY PREDICTED BY IDOCK:   -6.39 KCAL/MOL
REMARK 924 INTRA-LIGAND FREE ENERGY PREDICTED BY IDOCK:   -0.02 KCAL/MOL
REMARK 927      BINDING AFFINITY PREDICTED BY RF-SCORE:    0.00 PKD
ROOT
HETATM    1  C   UNL     1      -9.086  15.107  69.014  1.00  0.00    -0.218 C  
HETATM    2  C   UNL     1      -7.819  15.305  68.417  1.00  0.00    -0.122 C  
HETATM    3  C   UNL     1      -8.968  15.605  67.521  1.00  0.00    -0.199 C  
HETATM    4  C   UNL     1     -10.803  15.624  68.430  1.00  0.00    -0.290 C  
HETATM    5  C   UNL     1      -9.950  16.696  68.322  1.00  0.00    -0.261 C  
HETATM    6  C   UNL     1      -9.812  13.561  68.228  1.00  0.00    -0.233 C  
HETATM    7  O   UNL     1     -12.076  16.087  67.974  1.00  0.00    -0.126 OA 
HETATM    8  C   UNL     1     -10.518  16.755  66.532  1.00  0.00    -0.258 C  
HETATM    9  C   UNL     1      -9.926  18.016  69.035  1.00  0.00    -0.292 C  
HETATM   10  C   UNL     1      -8.884  12.319  68.279  1.00  0.00    -0.178 C  
HETATM   11  H   UNL     1     -12.928  16.095  68.396  1.00  0.00     0.000 HD 
HETATM   12  C   UNL     1     -11.006  15.161  65.978  1.00  0.00    -0.332 C  
HETATM   13  C   UNL     1     -10.398  13.729  66.611  1.00  0.00    -0.279 C  
HETATM   14  C   UNL     1     -11.209  12.441  66.314  1.00  0.00    -0.361 C  
HETATM   15  C   UNL     1     -12.155  12.469  65.110  1.00  0.00    -0.503 C  
HETATM   16  C   UNL     1     -11.564  12.117  63.756  1.00  0.00    -0.557 C  
HETATM   17  C   UNL     1     -10.421  11.135  63.785  1.00  0.00    -0.381 C  
HETATM   18  O   UNL     1      -9.970  10.650  62.746  1.00  0.00    -0.266 OA 
HETATM   19  C   UNL     1      -9.795  10.770  65.078  1.00  0.00    -0.346 C  
HETATM   20  C   UNL     1     -10.155  11.351  66.236  1.00  0.00    -0.263 C  
HETATM   21  C   UNL     1      -9.434  11.067  67.544  1.00  0.00    -0.175 C  
ENDROOT
BRANCH   4  22
HETATM   22  C   UNL     1     -11.161  15.513  69.945  1.00  0.00    -0.322 C  
HETATM   23  C   UNL     1     -11.507  15.404  71.084  1.00  0.00    -0.425 C  
ENDBRANCH   4  22
TORSDOF 1
ENDMDL
MODEL       10
REMARK 921   NORMALIZED FREE ENERGY PREDICTED BY IDOCK:   -6.00 KCAL/MOL
REMARK 922        TOTAL FREE ENERGY PREDICTED BY IDOCK:   -6.37 KCAL/MOL
REMARK 923 INTER-LIGAND FREE ENERGY PREDICTED BY IDOCK:   -6.36 KCAL/MOL
REMARK 924 INTRA-LIGAND FREE ENERGY PREDICTED BY IDOCK:   -0.01 KCAL/MOL
REMARK 927      BINDING AFFINITY PREDICTED BY RF-SCORE:    0.00 PKD
ROOT
HETATM    1  C   UNL     1     -11.672  13.732  67.733  1.00  0.00    -0.393 C  
HETATM    2  C   UNL     1     -11.430  14.588  68.834  1.00  0.00    -0.327 C  
HETATM    3  C   UNL     1     -10.217  13.893  68.325  1.00  0.00    -0.247 C  
HETATM    4  C   UNL     1     -10.463  12.888  66.557  1.00  0.00    -0.265 C  
HETATM    5  C   UNL     1     -10.113  14.212  66.687  1.00  0.00    -0.275 C  
HETATM    6  C   UNL     1     -11.522  11.973  68.380  1.00  0.00    -0.356 C  
HETATM    7  O   UNL     1      -9.510  12.317  65.658  1.00  0.00    -0.387 OA 
HETATM    8  C   UNL     1      -8.421  13.546  67.160  1.00  0.00    -0.177 C  
HETATM    9  C   UNL     1     -10.111  15.335  65.693  1.00  0.00    -0.401 C  
HETATM   10  C   UNL     1     -12.397  11.670  69.624  1.00  0.00    -0.172 C  
HETATM   11  H   UNL     1      -9.624  11.850  64.838  1.00  0.00     0.000 HD 
HETATM   12  C   UNL     1      -8.555  11.950  67.881  1.00  0.00    -0.162 C  
HETATM   13  C   UNL     1      -9.919  11.410  68.698  1.00  0.00    -0.209 C  
HETATM   14  C   UNL     1     -10.039   9.878  68.910  1.00  0.00    -0.194 C  
HETATM   15  C   UNL     1      -8.749   9.056  68.835  1.00  0.00    -0.136 C  
HETATM   16  C   UNL     1      -7.935   8.924  70.110  1.00  0.00    -0.111 C  
HETATM   17  C   UNL     1      -8.732   8.947  71.390  1.00  0.00    -0.192 C  
HETATM   18  O   UNL     1      -8.207   8.686  72.473  1.00  0.00    -0.358 OA 
HETATM   19  C   UNL     1     -10.164   9.330  71.361  1.00  0.00    -0.371 C  
HETATM   20  C   UNL     1     -10.770   9.745  70.234  1.00  0.00    -0.358 C  
HETATM   21  C   UNL     1     -12.204  10.252  70.224  1.00  0.00    -0.298 C  
ENDROOT
BRANCH   4  22
HETATM   22  C   UNL     1     -11.690  12.861  65.594  1.00  0.00    -0.430 C  
HETATM   23  C   UNL     1     -12.631  12.763  64.863  1.00  0.00    -0.541 C  
ENDBRANCH   4  22
TORSDOF 1
ENDMDL
MODEL       11
REMARK 921   NORMALIZED FREE ENERGY PREDICTED BY IDOCK:   -5.97 KCAL/MOL
REMARK 922        TOTAL FREE ENERGY PREDICTED BY IDOCK:   -6.34 KCAL/MOL
REMARK 923 INTER-LIGAND FREE ENERGY PREDICTED BY IDOCK:   -6.31 KCAL/MOL
REMARK 924 INTRA-LIGAND FREE ENERGY PREDICTED BY IDOCK:   -0.02 KCAL/MOL
REMARK 927      BINDING AFFINITY PREDICTED BY RF-SCORE:    0.00 PKD
ROOT
HETATM    1  C   UNL     1      -9.357  10.795  66.958  1.00  0.00    -0.174 C  
HETATM    2  C   UNL     1     -10.163  10.162  65.982  1.00  0.00    -0.288 C  
HETATM    3  C   UNL     1     -10.924  10.990  66.956  1.00  0.00    -0.333 C  
HETATM    4  C   UNL     1      -9.782  12.157  68.192  1.00  0.00    -0.208 C  
HETATM    5  C   UNL     1     -10.243  12.517  66.948  1.00  0.00    -0.237 C  
HETATM    6  C   UNL     1      -9.675   9.894  68.578  1.00  0.00    -0.163 C  
HETATM    7  O   UNL     1     -10.136  13.229  69.068  1.00  0.00    -0.425 OA 
HETATM    8  C   UNL     1     -11.901  12.729  67.808  1.00  0.00    -0.387 C  
HETATM    9  C   UNL     1      -9.845  13.636  66.032  1.00  0.00    -0.290 C  
HETATM   10  C   UNL     1      -9.493   8.355  68.503  1.00  0.00    -0.149 C  
HETATM   11  H   UNL     1      -9.606  13.770  69.642  1.00  0.00     0.000 HD 
HETATM   12  C   UNL     1     -12.019  11.673  69.207  1.00  0.00    -0.382 C  
HETATM   13  C   UNL     1     -11.187  10.221  69.350  1.00  0.00    -0.292 C  
HETATM   14  C   UNL     1     -11.076   9.623  70.777  1.00  0.00    -0.403 C  
HETATM   15  C   UNL     1     -12.105  10.084  71.813  1.00  0.00    -0.323 C  
HETATM   16  C   UNL     1     -13.423   9.331  71.863  1.00  0.00    -0.497 C  
HETATM   17  C   UNL     1     -13.349   7.875  71.480  1.00  0.00    -0.303 C  
HETATM   18  O   UNL     1     -14.313   7.124  71.639  1.00  0.00    -0.417 OA 
HETATM   19  C   UNL     1     -12.114   7.336  70.863  1.00  0.00    -0.326 C  
HETATM   20  C   UNL     1     -11.069   8.123  70.549  1.00  0.00    -0.257 C  
HETATM   21  C   UNL     1      -9.850   7.595  69.808  1.00  0.00    -0.181 C  
ENDROOT
BRANCH   4  22
HETATM   22  C   UNL     1      -8.243  12.416  68.169  1.00  0.00    -0.173 C  
HETATM   23  C   UNL     1      -7.070  12.638  68.226  1.00  0.00    -0.105 C  
ENDBRANCH   4  22
TORSDOF 1
ENDMDL
MODEL       12
REMARK 921   NORMALIZED FREE ENERGY PREDICTED BY IDOCK:   -5.92 KCAL/MOL
REMARK 922        TOTAL FREE ENERGY PREDICTED BY IDOCK:   -6.28 KCAL/MOL
REMARK 923 INTER-LIGAND FREE ENERGY PREDICTED BY IDOCK:   -6.27 KCAL/MOL
REMARK 924 INTRA-LIGAND FREE ENERGY PREDICTED BY IDOCK:   -0.02 KCAL/MOL
REMARK 927      BINDING AFFINITY PREDICTED BY RF-SCORE:    0.00 PKD
ROOT
HETATM    1  C   UNL     1      -6.872  18.047  67.284  1.00  0.00    -0.203 C  
HETATM    2  C   UNL     1      -6.821  17.733  65.905  1.00  0.00    -0.290 C  
HETATM    3  C   UNL     1      -8.188  18.030  66.412  1.00  0.00    -0.285 C  
HETATM    4  C   UNL     1      -8.271  18.780  68.316  1.00  0.00    -0.325 C  
HETATM    5  C   UNL     1      -8.124  19.521  67.166  1.00  0.00    -0.301 C  
HETATM    6  C   UNL     1      -7.662  16.571  68.139  1.00  0.00    -0.167 C  
HETATM    7  O   UNL     1      -9.339  19.389  69.042  1.00  0.00    -0.373 OA 
HETATM    8  C   UNL     1      -9.956  19.182  66.914  1.00  0.00    -0.419 C  
HETATM    9  C   UNL     1      -7.696  20.942  66.955  1.00  0.00    -0.213 C  
HETATM   10  C   UNL     1      -6.989  15.210  67.823  1.00  0.00    -0.190 C  
HETATM   11  H   UNL     1      -9.378  19.737  69.926  1.00  0.00     0.000 HD 
HETATM   12  C   UNL     1     -10.424  17.672  67.679  1.00  0.00    -0.372 C  
HETATM   13  C   UNL     1      -9.368  16.390  67.932  1.00  0.00    -0.214 C  
HETATM   14  C   UNL     1      -9.813  15.318  68.961  1.00  0.00    -0.230 C  
HETATM   15  C   UNL     1     -11.310  15.222  69.271  1.00  0.00    -0.308 C  
HETATM   16  C   UNL     1     -12.151  14.345  68.360  1.00  0.00    -0.278 C  
HETATM   17  C   UNL     1     -11.435  13.162  67.760  1.00  0.00    -0.313 C  
HETATM   18  O   UNL     1     -12.050  12.292  67.141  1.00  0.00    -0.560 OA 
HETATM   19  C   UNL     1      -9.962  13.056  67.876  1.00  0.00    -0.230 C  
HETATM   20  C   UNL     1      -9.216  14.027  68.431  1.00  0.00    -0.196 C  
HETATM   21  C   UNL     1      -7.696  13.976  68.445  1.00  0.00    -0.138 C  
ENDROOT
BRANCH   4  22
HETATM   22  C   UNL     1      -7.109  19.220  69.260  1.00  0.00    -0.333 C  
HETATM   23  C   UNL     1      -6.273  19.592  70.028  1.00  0.00    -0.327 C  
ENDBRANCH   4  22
TORSDOF 1
ENDMDL
MODEL       13
REMARK 921   NORMALIZED FREE ENERGY PREDICTED BY IDOCK:   -5.87 KCAL/MOL
REMARK 922        TOTAL FREE ENERGY PREDICTED BY IDOCK:   -6.23 KCAL/MOL
REMARK 923 INTER-LIGAND FREE ENERGY PREDICTED BY IDOCK:   -6.23 KCAL/MOL
REMARK 924 INTRA-LIGAND FREE ENERGY PREDICTED BY IDOCK:   -0.00 KCAL/MOL
REMARK 927      BINDING AFFINITY PREDICTED BY RF-SCORE:    0.00 PKD
ROOT
HETATM    1  C   UNL     1      -9.081  18.295  66.794  1.00  0.00    -0.287 C  
HETATM    2  C   UNL     1     -10.199  18.663  67.579  1.00  0.00    -0.425 C  
HETATM    3  C   UNL     1      -9.323  17.640  68.210  1.00  0.00    -0.290 C  
HETATM    4  C   UNL     1      -7.544  17.302  67.253  1.00  0.00    -0.180 C  
HETATM    5  C   UNL     1      -7.768  18.255  68.219  1.00  0.00    -0.303 C  
HETATM    6  C   UNL     1      -9.423  16.560  66.157  1.00  0.00    -0.347 C  
HETATM    7  O   UNL     1      -6.373  16.594  67.664  1.00  0.00    -0.131 OA 
HETATM    8  C   UNL     1      -7.725  16.809  69.419  1.00  0.00     0.051 C  
HETATM    9  C   UNL     1      -6.968  19.456  68.626  1.00  0.00    -0.351 C  
HETATM   10  C   UNL     1     -10.786  16.398  65.435  1.00  0.00    -0.310 C  
HETATM   11  H   UNL     1      -5.547  16.437  67.220  1.00  0.00     0.000 HD 
HETATM   12  C   UNL     1      -8.229  15.324  68.627  1.00  0.00    -0.159 C  
HETATM   13  C   UNL     1      -9.266  15.279  67.307  1.00  0.00    -0.209 C  
HETATM   14  C   UNL     1      -9.287  13.963  66.487  1.00  0.00    -0.264 C  
HETATM   15  C   UNL     1      -8.791  12.693  67.185  1.00  0.00    -0.204 C  
HETATM   16  C   UNL     1      -9.804  11.912  68.004  1.00  0.00    -0.190 C  
HETATM   17  C   UNL     1     -11.228  11.988  67.514  1.00  0.00    -0.294 C  
HETATM   18  O   UNL     1     -12.107  11.271  67.995  1.00  0.00    -0.638 OA 
HETATM   19  C   UNL     1     -11.596  12.968  66.465  1.00  0.00    -0.407 C  
HETATM   20  C   UNL     1     -10.716  13.864  65.983  1.00  0.00    -0.287 C  
HETATM   21  C   UNL     1     -11.119  14.947  64.995  1.00  0.00    -0.422 C  
ENDROOT
BRANCH   4  22
HETATM   22  C   UNL     1      -6.908  18.058  66.045  1.00  0.00    -0.332 C  
HETATM   23  C   UNL     1      -6.353  18.634  65.157  1.00  0.00    -0.247 C  
ENDBRANCH   4  22
TORSDOF 1
ENDMDL
MODEL       14
REMARK 921   NORMALIZED FREE ENERGY PREDICTED BY IDOCK:   -5.82 KCAL/MOL
REMARK 922        TOTAL FREE ENERGY PREDICTED BY IDOCK:   -6.18 KCAL/MOL
REMARK 923 INTER-LIGAND FREE ENERGY PREDICTED BY IDOCK:   -6.18 KCAL/MOL
REMARK 924 INTRA-LIGAND FREE ENERGY PREDICTED BY IDOCK:    0.00 KCAL/MOL
REMARK 927      BINDING AFFINITY PREDICTED BY RF-SCORE:    0.00 PKD
ROOT
HETATM    1  C   UNL     1     -11.794  13.691  67.741  1.00  0.00    -0.403 C  
HETATM    2  C   UNL     1     -11.622  14.492  68.895  1.00  0.00    -0.341 C  
HETATM    3  C   UNL     1     -10.349  14.040  68.273  1.00  0.00    -0.247 C  
HETATM    4  C   UNL     1     -10.541  13.139  66.444  1.00  0.00    -0.286 C  
HETATM    5  C   UNL     1     -10.395  14.488  66.664  1.00  0.00    -0.274 C  
HETATM    6  C   UNL     1     -11.332  11.937  68.236  1.00  0.00    -0.335 C  
HETATM    7  O   UNL     1      -9.566  12.794  65.457  1.00  0.00    -0.445 OA 
HETATM    8  C   UNL     1      -8.594  14.070  66.999  1.00  0.00    -0.193 C  
HETATM    9  C   UNL     1     -10.628  15.666  65.765  1.00  0.00    -0.374 C  
HETATM   10  C   UNL     1     -12.073  11.408  69.492  1.00  0.00    -0.370 C  
HETATM   11  H   UNL     1      -9.655  12.376  64.608  1.00  0.00     0.000 HD 
HETATM   12  C   UNL     1      -8.434  12.426  67.595  1.00  0.00    -0.169 C  
HETATM   13  C   UNL     1      -9.645  11.616  68.430  1.00  0.00    -0.195 C  
HETATM   14  C   UNL     1      -9.511  10.074  68.523  1.00  0.00    -0.150 C  
HETATM   15  C   UNL     1      -8.116   9.477  68.319  1.00  0.00    -0.102 C  
HETATM   16  C   UNL     1      -7.216   9.385  69.540  1.00  0.00    -0.067 C  
HETATM   17  C   UNL     1      -7.928   9.187  70.853  1.00  0.00    -0.157 C  
HETATM   18  O   UNL     1      -7.304   8.936  71.886  1.00  0.00    -0.281 OA 
HETATM   19  C   UNL     1      -9.401   9.337  70.924  1.00  0.00    -0.313 C  
HETATM   20  C   UNL     1     -10.132   9.730  69.865  1.00  0.00    -0.288 C  
HETATM   21  C   UNL     1     -11.625   9.999  69.964  1.00  0.00    -0.279 C  
ENDROOT
BRANCH   4  22
HETATM   22  C   UNL     1     -11.804  12.985  65.541  1.00  0.00    -0.438 C  
HETATM   23  C   UNL     1     -12.771  12.792  64.866  1.00  0.00    -0.479 C  
ENDBRANCH   4  22
TORSDOF 1
ENDMDL
MODEL       15
REMARK 921   NORMALIZED FREE ENERGY PREDICTED BY IDOCK:   -5.75 KCAL/MOL
REMARK 922        TOTAL FREE ENERGY PREDICTED BY IDOCK:   -6.10 KCAL/MOL
REMARK 923 INTER-LIGAND FREE ENERGY PREDICTED BY IDOCK:   -6.08 KCAL/MOL
REMARK 924 INTRA-LIGAND FREE ENERGY PREDICTED BY IDOCK:   -0.02 KCAL/MOL
REMARK 927      BINDING AFFINITY PREDICTED BY RF-SCORE:    0.00 PKD
ROOT
HETATM    1  C   UNL     1      -8.599  19.824  66.745  1.00  0.00    -0.375 C  
HETATM    2  C   UNL     1      -9.563  20.254  67.687  1.00  0.00    -0.530 C  
HETATM    3  C   UNL     1      -8.641  19.203  68.196  1.00  0.00    -0.359 C  
HETATM    4  C   UNL     1      -7.052  18.772  66.979  1.00  0.00    -0.204 C  
HETATM    5  C   UNL     1      -7.081  19.749  67.946  1.00  0.00    -0.310 C  
HETATM    6  C   UNL     1      -9.109  18.096  66.209  1.00  0.00    -0.199 C  
HETATM    7  O   UNL     1      -5.860  18.019  67.217  1.00  0.00    -0.131 OA 
HETATM    8  C   UNL     1      -6.908  18.322  69.157  1.00  0.00    -0.247 C  
HETATM    9  C   UNL     1      -6.177  20.919  68.195  1.00  0.00    -0.374 C  
HETATM   10  C   UNL     1     -10.574  17.983  65.714  1.00  0.00    -0.174 C  
HETATM   11  H   UNL     1      -5.122  17.819  66.652  1.00  0.00     0.000 HD 
HETATM   12  C   UNL     1      -7.592  16.848  68.488  1.00  0.00    -0.221 C  
HETATM   13  C   UNL     1      -8.826  16.828  67.349  1.00  0.00    -0.209 C  
HETATM   14  C   UNL     1      -9.030  15.501  66.572  1.00  0.00    -0.348 C  
HETATM   15  C   UNL     1      -8.483  14.222  67.212  1.00  0.00    -0.226 C  
HETATM   16  C   UNL     1      -9.385  13.500  68.198  1.00  0.00    -0.213 C  
HETATM   17  C   UNL     1     -10.864  13.631  67.936  1.00  0.00    -0.250 C  
HETATM   18  O   UNL     1     -11.685  12.961  68.565  1.00  0.00    -0.300 OA 
HETATM   19  C   UNL     1     -11.352  14.610  66.936  1.00  0.00    -0.361 C  
HETATM   20  C   UNL     1     -10.523  15.458  66.302  1.00  0.00    -0.310 C  
HETATM   21  C   UNL     1     -11.033  16.542  65.365  1.00  0.00    -0.137 C  
ENDROOT
BRANCH   4  22
HETATM   22  C   UNL     1      -6.584  19.479  65.669  1.00  0.00    -0.279 C  
HETATM   23  C   UNL     1      -6.162  19.975  64.666  1.00  0.00    -0.320 C  
ENDBRANCH   4  22
TORSDOF 1
ENDMDL
MODEL       16
REMARK 921   NORMALIZED FREE ENERGY PREDICTED BY IDOCK:   -5.71 KCAL/MOL
REMARK 922        TOTAL FREE ENERGY PREDICTED BY IDOCK:   -6.06 KCAL/MOL
REMARK 923 INTER-LIGAND FREE ENERGY PREDICTED BY IDOCK:   -6.04 KCAL/MOL
REMARK 924 INTRA-LIGAND FREE ENERGY PREDICTED BY IDOCK:   -0.02 KCAL/MOL
REMARK 927      BINDING AFFINITY PREDICTED BY RF-SCORE:    0.00 PKD
ROOT
HETATM    1  C   UNL     1     -11.657  12.124  67.681  1.00  0.00    -0.413 C  
HETATM    2  C   UNL     1     -11.905  12.504  66.340  1.00  0.00    -0.445 C  
HETATM    3  C   UNL     1     -10.462  12.425  66.694  1.00  0.00    -0.251 C  
HETATM    4  C   UNL     1     -10.054  11.592  68.519  1.00  0.00    -0.207 C  
HETATM    5  C   UNL     1     -10.192  10.905  67.336  1.00  0.00    -0.236 C  
HETATM    6  C   UNL     1     -11.046  13.664  68.568  1.00  0.00    -0.301 C  
HETATM    7  O   UNL     1      -8.827  11.140  69.095  1.00  0.00    -0.365 OA 
HETATM    8  C   UNL     1      -8.481  11.577  66.941  1.00  0.00    -0.165 C  
HETATM    9  C   UNL     1     -10.391   9.445  67.059  1.00  0.00    -0.322 C  
HETATM   10  C   UNL     1     -11.970  14.901  68.419  1.00  0.00    -0.255 C  
HETATM   11  H   UNL     1      -8.637  10.753  69.943  1.00  0.00     0.000 HD 
HETATM   12  C   UNL     1      -8.200  13.099  67.771  1.00  0.00    -0.168 C  
HETATM   13  C   UNL     1      -9.426  14.156  68.217  1.00  0.00    -0.211 C  
HETATM   14  C   UNL     1      -9.066  15.228  69.278  1.00  0.00    -0.240 C  
HETATM   15  C   UNL     1      -7.583  15.570  69.455  1.00  0.00    -0.225 C  
HETATM   16  C   UNL     1      -7.003  16.633  68.538  1.00  0.00    -0.161 C  
HETATM   17  C   UNL     1      -7.969  17.704  68.099  1.00  0.00    -0.256 C  
HETATM   18  O   UNL     1      -7.581  18.703  67.492  1.00  0.00    -0.226 OA 
HETATM   19  C   UNL     1      -9.420  17.541  68.359  1.00  0.00    -0.292 C  
HETATM   20  C   UNL     1      -9.926  16.421  68.906  1.00  0.00    -0.257 C  
HETATM   21  C   UNL     1     -11.423  16.202  69.065  1.00  0.00    -0.323 C  
ENDROOT
BRANCH   4  22
HETATM   22  C   UNL     1     -11.018  10.898  69.531  1.00  0.00    -0.306 C  
HETATM   23  C   UNL     1     -11.715  10.399  70.364  1.00  0.00    -0.419 C  
ENDBRANCH   4  22
TORSDOF 1
ENDMDL
MODEL       17
REMARK 921   NORMALIZED FREE ENERGY PREDICTED BY IDOCK:   -5.68 KCAL/MOL
REMARK 922        TOTAL FREE ENERGY PREDICTED BY IDOCK:   -6.03 KCAL/MOL
REMARK 923 INTER-LIGAND FREE ENERGY PREDICTED BY IDOCK:   -6.04 KCAL/MOL
REMARK 924 INTRA-LIGAND FREE ENERGY PREDICTED BY IDOCK:    0.01 KCAL/MOL
REMARK 927      BINDING AFFINITY PREDICTED BY RF-SCORE:    0.00 PKD
ROOT
HETATM    1  C   UNL     1     -10.196  10.337  69.753  1.00  0.00    -0.262 C  
HETATM    2  C   UNL     1     -11.590  10.235  69.976  1.00  0.00    -0.349 C  
HETATM    3  C   UNL     1     -11.131   9.621  68.701  1.00  0.00    -0.085 C  
HETATM    4  C   UNL     1      -9.100   9.478  68.481  1.00  0.00    -0.131 C  
HETATM    5  C   UNL     1      -9.911   8.542  69.080  1.00  0.00    -0.197 C  
HETATM    6  C   UNL     1      -9.965  11.604  68.384  1.00  0.00    -0.201 C  
HETATM    7  O   UNL     1      -8.303   8.759  67.537  1.00  0.00    -0.109 OA 
HETATM    8  C   UNL     1     -10.419   8.104  67.324  1.00  0.00    -0.379 C  
HETATM    9  C   UNL     1      -9.589   7.378  69.968  1.00  0.00    -0.168 C  
HETATM   10  C   UNL     1     -10.668  12.963  68.641  1.00  0.00    -0.273 C  
HETATM   11  H   UNL     1      -7.361   8.692  67.435  1.00  0.00     0.000 HD 
HETATM   12  C   UNL     1     -10.258   9.492  66.261  1.00  0.00    -0.290 C  
HETATM   13  C   UNL     1     -10.367  11.084  66.785  1.00  0.00    -0.284 C  
HETATM   14  C   UNL     1      -9.806  12.169  65.829  1.00  0.00    -0.264 C  
HETATM   15  C   UNL     1      -9.676  11.800  64.348  1.00  0.00    -0.166 C  
HETATM   16  C   UNL     1     -10.899  12.007  63.472  1.00  0.00    -0.509 C  
HETATM   17  C   UNL     1     -11.802  13.142  63.883  1.00  0.00    -0.472 C  
HETATM   18  O   UNL     1     -12.731  13.510  63.162  1.00  0.00    -0.718 OA 
HETATM   19  C   UNL     1     -11.605  13.806  65.193  1.00  0.00    -0.341 C  
HETATM   20  C   UNL     1     -10.690  13.376  66.081  1.00  0.00    -0.288 C  
HETATM   21  C   UNL     1     -10.566  13.979  67.473  1.00  0.00    -0.260 C  
ENDROOT
BRANCH   4  22
HETATM   22  C   UNL     1      -7.967   9.782  69.510  1.00  0.00    -0.137 C  
HETATM   23  C   UNL     1      -7.072   9.943  70.285  1.00  0.00    -0.155 C  
ENDBRANCH   4  22
TORSDOF 1
ENDMDL
MODEL       18
REMARK 921   NORMALIZED FREE ENERGY PREDICTED BY IDOCK:   -5.68 KCAL/MOL
REMARK 922        TOTAL FREE ENERGY PREDICTED BY IDOCK:   -6.02 KCAL/MOL
REMARK 923 INTER-LIGAND FREE ENERGY PREDICTED BY IDOCK:   -6.01 KCAL/MOL
REMARK 924 INTRA-LIGAND FREE ENERGY PREDICTED BY IDOCK:   -0.02 KCAL/MOL
REMARK 927      BINDING AFFINITY PREDICTED BY RF-SCORE:    0.00 PKD
ROOT
HETATM    1  C   UNL     1      -9.730   9.725  69.866  1.00  0.00    -0.273 C  
HETATM    2  C   UNL     1     -10.998   9.126  70.056  1.00  0.00    -0.240 C  
HETATM    3  C   UNL     1     -10.361   8.804  68.750  1.00  0.00    -0.234 C  
HETATM    4  C   UNL     1      -8.410   9.398  68.560  1.00  0.00    -0.118 C  
HETATM    5  C   UNL     1      -8.838   8.198  69.077  1.00  0.00    -0.144 C  
HETATM    6  C   UNL     1      -9.968  11.087  68.592  1.00  0.00    -0.205 C  
HETATM    7  O   UNL     1      -7.418   9.073  67.584  1.00  0.00    -0.084 OA 
HETATM    8  C   UNL     1      -9.171   7.734  67.287  1.00  0.00    -0.162 C  
HETATM    9  C   UNL     1      -8.121   7.161  69.890  1.00  0.00    -0.125 C  
HETATM   10  C   UNL     1     -11.101  12.091  68.929  1.00  0.00    -0.298 C  
HETATM   11  H   UNL     1      -6.513   9.349  67.495  1.00  0.00     0.000 HD 
HETATM   12  C   UNL     1      -9.514   9.163  66.324  1.00  0.00    -0.299 C  
HETATM   13  C   UNL     1     -10.172  10.574  66.954  1.00  0.00    -0.280 C  
HETATM   14  C   UNL     1     -10.034  11.851  66.086  1.00  0.00    -0.254 C  
HETATM   15  C   UNL     1      -9.792  11.658  64.586  1.00  0.00    -0.259 C  
HETATM   16  C   UNL     1     -11.016  11.484  63.703  1.00  0.00    -0.482 C  
HETATM   17  C   UNL     1     -12.258  12.198  64.174  1.00  0.00    -0.413 C  
HETATM   18  O   UNL     1     -13.261  12.267  63.463  1.00  0.00    -0.716 OA 
HETATM   19  C   UNL     1     -12.297  12.794  65.530  1.00  0.00    -0.495 C  
HETATM   20  C   UNL     1     -11.284  12.651  66.404  1.00  0.00    -0.350 C  
HETATM   21  C   UNL     1     -11.370  13.158  67.835  1.00  0.00    -0.321 C  
ENDROOT
BRANCH   4  22
HETATM   22  C   UNL     1      -7.450  10.007  69.628  1.00  0.00    -0.134 C  
HETATM   23  C   UNL     1      -6.654  10.456  70.398  1.00  0.00    -0.121 C  
ENDBRANCH   4  22
TORSDOF 1
ENDMDL
MODEL       19
REMARK 921   NORMALIZED FREE ENERGY PREDICTED BY IDOCK:   -5.63 KCAL/MOL
REMARK 922        TOTAL FREE ENERGY PREDICTED BY IDOCK:   -5.97 KCAL/MOL
REMARK 923 INTER-LIGAND FREE ENERGY PREDICTED BY IDOCK:   -5.95 KCAL/MOL
REMARK 924 INTRA-LIGAND FREE ENERGY PREDICTED BY IDOCK:   -0.02 KCAL/MOL
REMARK 927      BINDING AFFINITY PREDICTED BY RF-SCORE:    0.00 PKD
ROOT
HETATM    1  C   UNL     1     -10.233  12.562  66.410  1.00  0.00    -0.260 C  
HETATM    2  C   UNL     1     -11.381  12.156  65.688  1.00  0.00    -0.395 C  
HETATM    3  C   UNL     1     -11.624  12.394  67.137  1.00  0.00    -0.435 C  
HETATM    4  C   UNL     1     -10.074  13.267  68.152  1.00  0.00    -0.241 C  
HETATM    5  C   UNL     1     -11.076  13.934  67.486  1.00  0.00    -0.302 C  
HETATM    6  C   UNL     1      -9.727  11.098  67.476  1.00  0.00    -0.193 C  
HETATM    7  O   UNL     1     -10.012  13.851  69.455  1.00  0.00    -0.402 OA 
HETATM    8  C   UNL     1     -12.144  13.453  68.956  1.00  0.00    -0.299 C  
HETATM    9  C   UNL     1     -11.188  15.363  67.047  1.00  0.00    -0.229 C  
HETATM   10  C   UNL     1      -9.551   9.768  66.698  1.00  0.00    -0.239 C  
HETATM   11  H   UNL     1      -9.293  14.256  69.926  1.00  0.00     0.000 HD 
HETATM   12  C   UNL     1     -11.560  11.971  69.696  1.00  0.00    -0.371 C  
HETATM   13  C   UNL     1     -10.711  10.786  68.862  1.00  0.00    -0.259 C  
HETATM   14  C   UNL     1      -9.926   9.761  69.722  1.00  0.00    -0.265 C  
HETATM   15  C   UNL     1     -10.366   9.584  71.178  1.00  0.00    -0.330 C  
HETATM   16  C   UNL     1     -11.482   8.590  71.449  1.00  0.00    -0.344 C  
HETATM   17  C   UNL     1     -11.549   7.420  70.501  1.00  0.00    -0.229 C  
HETATM   18  O   UNL     1     -12.303   6.469  70.715  1.00  0.00    -0.284 OA 
HETATM   19  C   UNL     1     -10.730   7.423  69.266  1.00  0.00    -0.197 C  
HETATM   20  C   UNL     1      -9.979   8.481  68.909  1.00  0.00    -0.197 C  
HETATM   21  C   UNL     1      -9.232   8.535  67.585  1.00  0.00    -0.147 C  
ENDROOT
BRANCH   4  22
HETATM   22  C   UNL     1      -8.735  13.851  67.605  1.00  0.00    -0.187 C  
HETATM   23  C   UNL     1      -7.693  14.325  67.259  1.00  0.00    -0.145 C  
ENDBRANCH   4  22
TORSDOF 1
ENDMDL
MODEL       20
REMARK 921   NORMALIZED FREE ENERGY PREDICTED BY IDOCK:   -5.60 KCAL/MOL
REMARK 922        TOTAL FREE ENERGY PREDICTED BY IDOCK:   -5.94 KCAL/MOL
REMARK 923 INTER-LIGAND FREE ENERGY PREDICTED BY IDOCK:   -5.94 KCAL/MOL
REMARK 924 INTRA-LIGAND FREE ENERGY PREDICTED BY IDOCK:    0.00 KCAL/MOL
REMARK 927      BINDING AFFINITY PREDICTED BY RF-SCORE:    0.00 PKD
ROOT
HETATM    1  C   UNL     1      -9.446  14.425  68.556  1.00  0.00    -0.212 C  
HETATM    2  C   UNL     1      -8.161  14.936  68.256  1.00  0.00    -0.145 C  
HETATM    3  C   UNL     1      -9.115  14.979  67.115  1.00  0.00    -0.229 C  
HETATM    4  C   UNL     1     -11.059  14.535  67.583  1.00  0.00    -0.304 C  
HETATM    5  C   UNL     1     -10.483  15.783  67.642  1.00  0.00    -0.282 C  
HETATM    6  C   UNL     1      -9.585  12.774  67.668  1.00  0.00    -0.192 C  
HETATM    7  O   UNL     1     -12.267  14.695  66.838  1.00  0.00    -0.459 OA 
HETATM    8  C   UNL     1     -10.628  15.754  65.768  1.00  0.00    -0.369 C  
HETATM    9  C   UNL     1     -10.936  17.049  68.305  1.00  0.00    -0.269 C  
HETATM   10  C   UNL     1      -8.425  11.787  67.962  1.00  0.00    -0.157 C  
HETATM   11  H   UNL     1     -13.169  14.488  67.055  1.00  0.00     0.000 HD 
HETATM   12  C   UNL     1     -10.584  14.106  65.162  1.00  0.00    -0.414 C  
HETATM   13  C   UNL     1      -9.813  12.843  65.956  1.00  0.00    -0.256 C  
HETATM   14  C   UNL     1     -10.204  11.408  65.518  1.00  0.00    -0.312 C  
HETATM   15  C   UNL     1     -10.832  11.243  64.131  1.00  0.00    -0.407 C  
HETATM   16  C   UNL     1      -9.883  11.081  62.956  1.00  0.00    -0.370 C  
HETATM   17  C   UNL     1      -8.577  10.398  63.270  1.00  0.00    -0.190 C  
HETATM   18  O   UNL     1      -7.800  10.064  62.374  1.00  0.00    -0.116 OA 
HETATM   19  C   UNL     1      -8.191  10.156  64.681  1.00  0.00    -0.165 C  
HETATM   20  C   UNL     1      -8.932  10.603  65.711  1.00  0.00    -0.200 C  
HETATM   21  C   UNL     1      -8.480  10.462  67.157  1.00  0.00    -0.126 C  
ENDROOT
BRANCH   4  22
HETATM   22  C   UNL     1     -11.714  14.300  68.980  1.00  0.00    -0.352 C  
HETATM   23  C   UNL     1     -12.272  14.169  70.028  1.00  0.00    -0.418 C  
ENDBRANCH   4  22
TORSDOF 1
ENDMDL
MODEL       21
REMARK 921   NORMALIZED FREE ENERGY PREDICTED BY IDOCK:   -5.59 KCAL/MOL
REMARK 922        TOTAL FREE ENERGY PREDICTED BY IDOCK:   -5.93 KCAL/MOL
REMARK 923 INTER-LIGAND FREE ENERGY PREDICTED BY IDOCK:   -5.91 KCAL/MOL
REMARK 924 INTRA-LIGAND FREE ENERGY PREDICTED BY IDOCK:   -0.02 KCAL/MOL
REMARK 927      BINDING AFFINITY PREDICTED BY RF-SCORE:    0.00 PKD
ROOT
HETATM    1  C   UNL     1      -9.257  17.013  66.159  1.00  0.00    -0.244 C  
HETATM    2  C   UNL     1     -10.455  17.289  65.459  1.00  0.00    -0.135 C  
HETATM    3  C   UNL     1     -10.382  17.909  66.810  1.00  0.00    -0.357 C  
HETATM    4  C   UNL     1      -8.556  17.789  67.729  1.00  0.00    -0.237 C  
HETATM    5  C   UNL     1      -8.962  18.788  66.876  1.00  0.00    -0.302 C  
HETATM    6  C   UNL     1      -9.705  15.808  67.532  1.00  0.00    -0.226 C  
HETATM    7  O   UNL     1      -8.040  18.447  68.888  1.00  0.00    -0.274 OA 
HETATM    8  C   UNL     1      -9.977  19.394  68.337  1.00  0.00    -0.527 C  
HETATM    9  C   UNL     1      -8.183  19.844  66.149  1.00  0.00    -0.346 C  
HETATM   10  C   UNL     1     -10.467  14.545  67.054  1.00  0.00    -0.268 C  
HETATM   11  H   UNL     1      -7.193  18.392  69.314  1.00  0.00     0.000 HD 
HETATM   12  C   UNL     1     -10.401  18.062  69.400  1.00  0.00     0.171 C  
HETATM   13  C   UNL     1     -10.555  16.471  68.883  1.00  0.00    -0.326 C  
HETATM   14  C   UNL     1     -10.528  15.379  69.983  1.00  0.00    -0.301 C  
HETATM   15  C   UNL     1     -10.867  15.813  71.412  1.00  0.00     0.105 C  
HETATM   16  C   UNL     1     -12.334  15.826  71.803  1.00  0.00    -0.523 C  
HETATM   17  C   UNL     1     -13.196  14.801  71.109  1.00  0.00    -0.393 C  
HETATM   18  O   UNL     1     -14.361  14.605  71.460  1.00  0.00    -0.449 OA 
HETATM   19  C   UNL     1     -12.656  14.041  69.957  1.00  0.00    -0.250 C  
HETATM   20  C   UNL     1     -11.437  14.289  69.445  1.00  0.00    -0.337 C  
HETATM   21  C   UNL     1     -10.928  13.595  68.191  1.00  0.00    -0.273 C  
ENDROOT
BRANCH   4  22
HETATM   22  C   UNL     1      -7.195  17.274  67.168  1.00  0.00    -0.202 C  
HETATM   23  C   UNL     1      -6.117  16.909  66.801  1.00  0.00    -0.216 C  
ENDBRANCH   4  22
TORSDOF 1
ENDMDL
MODEL       22
REMARK 921   NORMALIZED FREE ENERGY PREDICTED BY IDOCK:   -5.53 KCAL/MOL
REMARK 922        TOTAL FREE ENERGY PREDICTED BY IDOCK:   -5.87 KCAL/MOL
REMARK 923 INTER-LIGAND FREE ENERGY PREDICTED BY IDOCK:   -5.92 KCAL/MOL
REMARK 924 INTRA-LIGAND FREE ENERGY PREDICTED BY IDOCK:    0.05 KCAL/MOL
REMARK 927      BINDING AFFINITY PREDICTED BY RF-SCORE:    0.00 PKD
ROOT
HETATM    1  C   UNL     1     -11.030   7.208  71.408  1.00  0.00    -0.258 C  
HETATM    2  C   UNL     1     -12.320   6.790  71.003  1.00  0.00    -0.370 C  
HETATM    3  C   UNL     1     -11.330   6.874  69.895  1.00  0.00    -0.321 C  
HETATM    4  C   UNL     1      -9.390   7.179  70.476  1.00  0.00    -0.158 C  
HETATM    5  C   UNL     1     -10.006   5.957  70.341  1.00  0.00    -0.247 C  
HETATM    6  C   UNL     1     -10.810   8.962  70.768  1.00  0.00    -0.294 C  
HETATM    7  O   UNL     1      -8.163   7.083  69.750  1.00  0.00    -0.127 OA 
HETATM    8  C   UNL     1      -9.798   6.243  68.495  1.00  0.00    -0.152 C  
HETATM    9  C   UNL     1      -9.615   4.594  70.831  1.00  0.00    -0.249 C  
HETATM   10  C   UNL     1     -11.948   9.938  71.166  1.00  0.00    -0.473 C  
HETATM   11  H   UNL     1      -7.263   7.224  70.020  1.00  0.00     0.000 HD 
HETATM   12  C   UNL     1      -9.771   7.961  68.128  1.00  0.00    -0.177 C  
HETATM   13  C   UNL     1     -10.528   9.126  69.071  1.00  0.00    -0.238 C  
HETATM   14  C   UNL     1     -10.078  10.594  68.852  1.00  0.00    -0.215 C  
HETATM   15  C   UNL     1      -9.400  10.930  67.521  1.00  0.00    -0.164 C  
HETATM   16  C   UNL     1     -10.304  11.289  66.354  1.00  0.00    -0.291 C  
HETATM   17  C   UNL     1     -11.598  11.967  66.725  1.00  0.00    -0.321 C  
HETATM   18  O   UNL     1     -12.335  12.451  65.864  1.00  0.00    -0.638 OA 
HETATM   19  C   UNL     1     -12.023  12.021  68.144  1.00  0.00    -0.231 C  
HETATM   20  C   UNL     1     -11.331  11.408  69.121  1.00  0.00    -0.353 C  
HETATM   21  C   UNL     1     -11.826  11.361  70.559  1.00  0.00    -0.394 C  
ENDROOT
BRANCH   4  22
HETATM   22  C   UNL     1      -8.775   7.192  71.910  1.00  0.00    -0.126 C  
HETATM   23  C   UNL     1      -8.307   7.124  73.008  1.00  0.00    -0.125 C  
ENDBRANCH   4  22
TORSDOF 1
ENDMDL
MODEL       23
REMARK 921   NORMALIZED FREE ENERGY PREDICTED BY IDOCK:   -5.53 KCAL/MOL
REMARK 922        TOTAL FREE ENERGY PREDICTED BY IDOCK:   -5.87 KCAL/MOL
REMARK 923 INTER-LIGAND FREE ENERGY PREDICTED BY IDOCK:   -5.95 KCAL/MOL
REMARK 924 INTRA-LIGAND FREE ENERGY PREDICTED BY IDOCK:    0.08 KCAL/MOL
REMARK 927      BINDING AFFINITY PREDICTED BY RF-SCORE:    0.00 PKD
ROOT
HETATM    1  C   UNL     1      -8.948   8.014  69.264  1.00  0.00    -0.148 C  
HETATM    2  C   UNL     1      -7.823   8.761  69.688  1.00  0.00    -0.090 C  
HETATM    3  C   UNL     1      -8.867   8.585  70.734  1.00  0.00    -0.187 C  
HETATM    4  C   UNL     1     -10.361   7.266  70.263  1.00  0.00    -0.210 C  
HETATM    5  C   UNL     1      -9.167   6.945  70.865  1.00  0.00    -0.157 C  
HETATM    6  C   UNL     1     -10.364   9.237  69.083  1.00  0.00    -0.222 C  
HETATM    7  O   UNL     1     -11.379   6.669  71.070  1.00  0.00    -0.280 OA 
HETATM    8  C   UNL     1      -9.931   7.704  72.406  1.00  0.00    -0.256 C  
HETATM    9  C   UNL     1      -8.485   5.625  71.065  1.00  0.00    -0.122 C  
HETATM   10  C   UNL     1     -10.043  10.464  68.190  1.00  0.00    -0.179 C  
HETATM   11  H   UNL     1     -12.073   6.057  70.852  1.00  0.00     0.000 HD 
HETATM   12  C   UNL     1     -11.118   8.926  71.979  1.00  0.00    -0.421 C  
HETATM   13  C   UNL     1     -11.071   9.810  70.552  1.00  0.00    -0.384 C  
HETATM   14  C   UNL     1     -12.380  10.534  70.142  1.00  0.00    -0.339 C  
HETATM   15  C   UNL     1     -13.404  10.813  71.247  1.00  0.00    -0.182 C  
HETATM   16  C   UNL     1     -13.232  12.094  72.044  1.00  0.00    -0.496 C  
HETATM   17  C   UNL     1     -12.613  13.245  71.292  1.00  0.00    -0.308 C  
HETATM   18  O   UNL     1     -12.573  14.376  71.778  1.00  0.00    -0.332 OA 
HETATM   19  C   UNL     1     -12.003  13.013  69.961  1.00  0.00    -0.383 C  
HETATM   20  C   UNL     1     -11.902  11.784  69.425  1.00  0.00    -0.398 C  
HETATM   21  C   UNL     1     -11.171  11.527  68.116  1.00  0.00    -0.335 C  
ENDROOT
BRANCH   4  22
HETATM   22  C   UNL     1     -10.492   6.311  69.036  1.00  0.00    -0.287 C  
HETATM   23  C   UNL     1     -10.516   5.590  68.084  1.00  0.00    -0.231 C  
ENDBRANCH   4  22
TORSDOF 1
ENDMDL
MODEL       24
REMARK 921   NORMALIZED FREE ENERGY PREDICTED BY IDOCK:   -5.51 KCAL/MOL
REMARK 922        TOTAL FREE ENERGY PREDICTED BY IDOCK:   -5.85 KCAL/MOL
REMARK 923 INTER-LIGAND FREE ENERGY PREDICTED BY IDOCK:   -5.84 KCAL/MOL
REMARK 924 INTRA-LIGAND FREE ENERGY PREDICTED BY IDOCK:   -0.01 KCAL/MOL
REMARK 927      BINDING AFFINITY PREDICTED BY RF-SCORE:    0.00 PKD
ROOT
HETATM    1  C   UNL     1     -11.344  14.950  67.059  1.00  0.00    -0.345 C  
HETATM    2  C   UNL     1     -11.276  15.206  65.668  1.00  0.00    -0.296 C  
HETATM    3  C   UNL     1     -10.007  14.700  66.257  1.00  0.00    -0.306 C  
HETATM    4  C   UNL     1     -10.144  14.034  68.189  1.00  0.00    -0.244 C  
HETATM    5  C   UNL     1     -10.365  13.278  67.061  1.00  0.00    -0.246 C  
HETATM    6  C   UNL     1     -10.348  16.304  67.901  1.00  0.00    -0.285 C  
HETATM    7  O   UNL     1      -9.233  13.282  68.993  1.00  0.00    -0.365 OA 
HETATM    8  C   UNL     1      -8.493  13.283  66.894  1.00  0.00    -0.074 C  
HETATM    9  C   UNL     1     -11.025  11.944  66.879  1.00  0.00    -0.335 C  
HETATM   10  C   UNL     1     -10.757  17.746  67.500  1.00  0.00    -0.315 C  
HETATM   11  H   UNL     1      -9.296  12.972  69.890  1.00  0.00     0.000 HD 
HETATM   12  C   UNL     1      -7.803  14.723  67.627  1.00  0.00    -0.191 C  
HETATM   13  C   UNL     1      -8.629  16.178  67.777  1.00  0.00    -0.172 C  
HETATM   14  C   UNL     1      -8.051  17.202  68.789  1.00  0.00    -0.252 C  
HETATM   15  C   UNL     1      -6.577  17.052  69.175  1.00  0.00    -0.230 C  
HETATM   16  C   UNL     1      -5.554  17.728  68.279  1.00  0.00    -0.158 C  
HETATM   17  C   UNL     1      -6.024  18.989  67.599  1.00  0.00    -0.199 C  
HETATM   18  O   UNL     1      -5.239  19.711  66.982  1.00  0.00    -0.165 OA 
HETATM   19  C   UNL     1      -7.460  19.354  67.633  1.00  0.00    -0.285 C  
HETATM   20  C   UNL     1      -8.389  18.551  68.182  1.00  0.00    -0.316 C  
HETATM   21  C   UNL     1      -9.875  18.865  68.113  1.00  0.00    -0.420 C  
ENDROOT
BRANCH   4  22
HETATM   22  C   UNL     1     -11.407  13.843  69.086  1.00  0.00    -0.331 C  
HETATM   23  C   UNL     1     -12.337  13.737  69.828  1.00  0.00    -0.311 C  
ENDBRANCH   4  22
TORSDOF 1
ENDMDL
MODEL       25
REMARK 921   NORMALIZED FREE ENERGY PREDICTED BY IDOCK:   -5.49 KCAL/MOL
REMARK 922        TOTAL FREE ENERGY PREDICTED BY IDOCK:   -5.83 KCAL/MOL
REMARK 923 INTER-LIGAND FREE ENERGY PREDICTED BY IDOCK:   -5.84 KCAL/MOL
REMARK 924 INTRA-LIGAND FREE ENERGY PREDICTED BY IDOCK:    0.01 KCAL/MOL
REMARK 927      BINDING AFFINITY PREDICTED BY RF-SCORE:    0.00 PKD
ROOT
HETATM    1  C   UNL     1      -8.599  15.867  68.320  1.00  0.00    -0.176 C  
HETATM    2  C   UNL     1      -9.665  15.714  69.238  1.00  0.00    -0.271 C  
HETATM    3  C   UNL     1      -9.174  14.436  68.655  1.00  0.00    -0.181 C  
HETATM    4  C   UNL     1      -7.448  14.579  67.562  1.00  0.00    -0.194 C  
HETATM    5  C   UNL     1      -7.525  14.371  68.920  1.00  0.00    -0.132 C  
HETATM    6  C   UNL     1      -9.311  15.532  66.612  1.00  0.00    -0.291 C  
HETATM    7  O   UNL     1      -6.565  13.574  67.060  1.00  0.00    -0.427 OA 
HETATM    8  C   UNL     1      -8.012  12.616  68.454  1.00  0.00    -0.134 C  
HETATM    9  C   UNL     1      -6.489  14.488  69.997  1.00  0.00    -0.160 C  
HETATM   10  C   UNL     1     -10.571  16.367  66.267  1.00  0.00    -0.243 C  
HETATM   11  H   UNL     1      -5.764  13.640  66.553  1.00  0.00     0.000 HD 
HETATM   12  C   UNL     1      -8.794  12.580  66.882  1.00  0.00    -0.203 C  
HETATM   13  C   UNL     1      -9.640  13.878  66.233  1.00  0.00    -0.274 C  
HETATM   14  C   UNL     1      -9.911  13.835  64.707  1.00  0.00    -0.129 C  
HETATM   15  C   UNL     1      -9.859  12.466  64.023  1.00  0.00    -0.160 C  
HETATM   16  C   UNL     1     -11.133  11.640  64.026  1.00  0.00    -0.458 C  
HETATM   17  C   UNL     1     -12.416  12.432  64.014  1.00  0.00    -0.459 C  
HETATM   18  O   UNL     1     -13.505  11.879  63.852  1.00  0.00    -0.559 OA 
HETATM   19  C   UNL     1     -12.381  13.896  64.244  1.00  0.00    -0.390 C  
HETATM   20  C   UNL     1     -11.243  14.545  64.549  1.00  0.00    -0.302 C  
HETATM   21  C   UNL     1     -11.223  16.025  64.901  1.00  0.00    -0.319 C  
ENDROOT
BRANCH   4  22
HETATM   22  C   UNL     1      -6.494  15.799  67.370  1.00  0.00    -0.193 C  
HETATM   23  C   UNL     1      -5.707  16.691  67.258  1.00  0.00    -0.188 C  
ENDBRANCH   4  22
TORSDOF 1
ENDMDL
MODEL       26
REMARK 921   NORMALIZED FREE ENERGY PREDICTED BY IDOCK:   -5.46 KCAL/MOL
REMARK 922        TOTAL FREE ENERGY PREDICTED BY IDOCK:   -5.79 KCAL/MOL
REMARK 923 INTER-LIGAND FREE ENERGY PREDICTED BY IDOCK:   -5.77 KCAL/MOL
REMARK 924 INTRA-LIGAND FREE ENERGY PREDICTED BY IDOCK:   -0.02 KCAL/MOL
REMARK 927      BINDING AFFINITY PREDICTED BY RF-SCORE:    0.00 PKD
ROOT
HETATM    1  C   UNL     1     -11.717  14.686  67.551  1.00  0.00    -0.403 C  
HETATM    2  C   UNL     1     -11.688  15.264  68.843  1.00  0.00    -0.362 C  
HETATM    3  C   UNL     1     -10.343  14.987  68.270  1.00  0.00    -0.236 C  
HETATM    4  C   UNL     1     -10.331  14.436  66.297  1.00  0.00    -0.295 C  
HETATM    5  C   UNL     1     -10.280  15.726  66.771  1.00  0.00    -0.284 C  
HETATM    6  C   UNL     1     -11.201  12.890  67.758  1.00  0.00    -0.319 C  
HETATM    7  O   UNL     1      -9.260  14.321  65.358  1.00  0.00    -0.335 OA 
HETATM    8  C   UNL     1      -8.493  15.325  67.191  1.00  0.00    -0.235 C  
HETATM    9  C   UNL     1     -10.503  17.041  66.085  1.00  0.00    -0.274 C  
HETATM   10  C   UNL     1     -12.013  12.107  68.822  1.00  0.00    -0.292 C  
HETATM   11  H   UNL     1      -9.254  14.066  64.443  1.00  0.00     0.000 HD 
HETATM   12  C   UNL     1      -8.291  13.605  67.488  1.00  0.00    -0.191 C  
HETATM   13  C   UNL     1      -9.520  12.607  68.045  1.00  0.00    -0.209 C  
HETATM   14  C   UNL     1      -9.308  11.081  67.867  1.00  0.00    -0.160 C  
HETATM   15  C   UNL     1      -7.869  10.588  67.688  1.00  0.00    -0.105 C  
HETATM   16  C   UNL     1      -7.070  10.306  68.949  1.00  0.00    -0.075 C  
HETATM   17  C   UNL     1      -7.878   9.838  70.133  1.00  0.00    -0.183 C  
HETATM   18  O   UNL     1      -7.329   9.423  71.155  1.00  0.00    -0.283 OA 
HETATM   19  C   UNL     1      -9.358   9.913  70.093  1.00  0.00    -0.200 C  
HETATM   20  C   UNL     1     -10.018  10.467  69.061  1.00  0.00    -0.223 C  
HETATM   21  C   UNL     1     -11.527  10.654  69.069  1.00  0.00    -0.342 C  
ENDROOT
BRANCH   4  22
HETATM   22  C   UNL     1     -11.504  14.404  65.268  1.00  0.00    -0.350 C  
HETATM   23  C   UNL     1     -12.368  14.318  64.447  1.00  0.00    -0.417 C  
ENDBRANCH   4  22
TORSDOF 1
ENDMDL
MODEL       27
REMARK 921   NORMALIZED FREE ENERGY PREDICTED BY IDOCK:   -5.42 KCAL/MOL
REMARK 922        TOTAL FREE ENERGY PREDICTED BY IDOCK:   -5.75 KCAL/MOL
REMARK 923 INTER-LIGAND FREE ENERGY PREDICTED BY IDOCK:   -5.73 KCAL/MOL
REMARK 924 INTRA-LIGAND FREE ENERGY PREDICTED BY IDOCK:   -0.02 KCAL/MOL
REMARK 927      BINDING AFFINITY PREDICTED BY RF-SCORE:    0.00 PKD
ROOT
HETATM    1  C   UNL     1     -10.957  13.211  65.950  1.00  0.00    -0.288 C  
HETATM    2  C   UNL     1     -12.237  12.755  65.557  1.00  0.00    -0.519 C  
HETATM    3  C   UNL     1     -11.862  12.391  66.950  1.00  0.00    -0.377 C  
HETATM    4  C   UNL     1     -10.159  13.282  67.657  1.00  0.00    -0.229 C  
HETATM    5  C   UNL     1     -11.429  13.804  67.732  1.00  0.00    -0.354 C  
HETATM    6  C   UNL     1      -9.849  11.693  66.026  1.00  0.00    -0.258 C  
HETATM    7  O   UNL     1      -9.620  13.368  68.978  1.00  0.00    -0.401 OA 
HETATM    8  C   UNL     1     -11.685  12.546  69.106  1.00  0.00    -0.375 C  
HETATM    9  C   UNL     1     -11.911  15.192  68.030  1.00  0.00    -0.225 C  
HETATM   10  C   UNL     1      -9.849  10.833  64.735  1.00  0.00    -0.358 C  
HETATM   11  H   UNL     1      -8.830  13.782  69.306  1.00  0.00     0.000 HD 
HETATM   12  C   UNL     1     -10.646  11.149  68.876  1.00  0.00    -0.239 C  
HETATM   13  C   UNL     1     -10.088  10.640  67.376  1.00  0.00    -0.231 C  
HETATM   14  C   UNL     1      -8.880   9.668  67.378  1.00  0.00    -0.134 C  
HETATM   15  C   UNL     1      -8.621   8.873  68.662  1.00  0.00    -0.133 C  
HETATM   16  C   UNL     1      -9.367   7.561  68.827  1.00  0.00    -0.147 C  
HETATM   17  C   UNL     1      -9.678   6.829  67.547  1.00  0.00    -0.128 C  
HETATM   18  O   UNL     1     -10.131   5.683  67.561  1.00  0.00    -0.145 OA 
HETATM   19  C   UNL     1      -9.480   7.506  66.243  1.00  0.00    -0.161 C  
HETATM   20  C   UNL     1      -9.106   8.795  66.157  1.00  0.00    -0.251 C  
HETATM   21  C   UNL     1      -9.017   9.526  64.826  1.00  0.00    -0.263 C  
ENDROOT
BRANCH   4  22
HETATM   22  C   UNL     1      -9.277  14.393  67.007  1.00  0.00    -0.246 C  
HETATM   23  C   UNL     1      -8.543  15.221  66.556  1.00  0.00    -0.264 C  
ENDBRANCH   4  22
TORSDOF 1
ENDMDL
MODEL       28
REMARK 921   NORMALIZED FREE ENERGY PREDICTED BY IDOCK:   -5.39 KCAL/MOL
REMARK 922        TOTAL FREE ENERGY PREDICTED BY IDOCK:   -5.72 KCAL/MOL
REMARK 923 INTER-LIGAND FREE ENERGY PREDICTED BY IDOCK:   -5.74 KCAL/MOL
REMARK 924 INTRA-LIGAND FREE ENERGY PREDICTED BY IDOCK:    0.02 KCAL/MOL
REMARK 927      BINDING AFFINITY PREDICTED BY RF-SCORE:    0.00 PKD
ROOT
HETATM    1  C   UNL     1      -9.533  16.795  68.296  1.00  0.00    -0.240 C  
HETATM    2  C   UNL     1      -8.702  16.791  69.442  1.00  0.00     0.188 C  
HETATM    3  C   UNL     1      -8.600  15.561  68.610  1.00  0.00    -0.179 C  
HETATM    4  C   UNL     1      -9.549  15.650  66.797  1.00  0.00    -0.240 C  
HETATM    5  C   UNL     1      -8.255  16.045  67.048  1.00  0.00    -0.255 C  
HETATM    6  C   UNL     1     -10.922  15.575  68.638  1.00  0.00    -0.279 C  
HETATM    7  O   UNL     1      -9.483  14.792  65.657  1.00  0.00    -0.492 OA 
HETATM    8  C   UNL     1      -7.876  14.205  67.080  1.00  0.00    -0.063 C  
HETATM    9  C   UNL     1      -7.306  16.885  66.246  1.00  0.00    -0.248 C  
HETATM   10  C   UNL     1     -11.677  15.819  69.971  1.00  0.00    -0.362 C  
HETATM   11  H   UNL     1      -9.923  14.833  64.815  1.00  0.00     0.000 HD 
HETATM   12  C   UNL     1      -9.288  13.284  67.574  1.00  0.00    -0.218 C  
HETATM   13  C   UNL     1     -10.506  13.900  68.553  1.00  0.00    -0.253 C  
HETATM   14  C   UNL     1     -11.849  13.125  68.560  1.00  0.00    -0.377 C  
HETATM   15  C   UNL     1     -11.816  11.659  68.116  1.00  0.00    -0.315 C  
HETATM   16  C   UNL     1     -11.492  10.621  69.176  1.00  0.00    -0.349 C  
HETATM   17  C   UNL     1     -11.932  10.968  70.575  1.00  0.00    -0.379 C  
HETATM   18  O   UNL     1     -11.873  10.140  71.486  1.00  0.00    -0.362 OA 
HETATM   19  C   UNL     1     -12.407  12.338  70.881  1.00  0.00    -0.363 C  
HETATM   20  C   UNL     1     -12.384  13.324  69.966  1.00  0.00    -0.269 C  
HETATM   21  C   UNL     1     -12.758  14.758  70.309  1.00  0.00    -0.324 C  
ENDROOT
BRANCH   4  22
HETATM   22  C   UNL     1     -10.238  16.862  66.097  1.00  0.00    -0.352 C  
HETATM   23  C   UNL     1     -10.709  17.789  65.508  1.00  0.00    -0.009 C  
ENDBRANCH   4  22
TORSDOF 1
ENDMDL
MODEL       29
REMARK 921   NORMALIZED FREE ENERGY PREDICTED BY IDOCK:   -5.39 KCAL/MOL
REMARK 922        TOTAL FREE ENERGY PREDICTED BY IDOCK:   -5.72 KCAL/MOL
REMARK 923 INTER-LIGAND FREE ENERGY PREDICTED BY IDOCK:   -5.70 KCAL/MOL
REMARK 924 INTRA-LIGAND FREE ENERGY PREDICTED BY IDOCK:   -0.02 KCAL/MOL
REMARK 927      BINDING AFFINITY PREDICTED BY RF-SCORE:    0.00 PKD
ROOT
HETATM    1  C   UNL     1     -10.972   6.238  70.957  1.00  0.00    -0.340 C  
HETATM    2  C   UNL     1      -9.794   5.453  70.962  1.00  0.00    -0.246 C  
HETATM    3  C   UNL     1      -9.553   6.914  71.102  1.00  0.00    -0.167 C  
HETATM    4  C   UNL     1     -11.228   8.052  71.402  1.00  0.00    -0.252 C  
HETATM    5  C   UNL     1     -10.480   7.450  72.386  1.00  0.00    -0.273 C  
HETATM    6  C   UNL     1     -11.008   7.136  69.306  1.00  0.00    -0.163 C  
HETATM    7  O   UNL     1     -11.382   9.415  71.804  1.00  0.00    -0.379 OA 
HETATM    8  C   UNL     1      -9.249   8.834  72.064  1.00  0.00    -0.294 C  
HETATM    9  C   UNL     1     -10.781   7.177  73.829  1.00  0.00    -0.191 C  
HETATM   10  C   UNL     1     -10.854   6.213  68.069  1.00  0.00    -0.398 C  
HETATM   11  H   UNL     1     -12.159   9.944  71.943  1.00  0.00     0.000 HD 
HETATM   12  C   UNL     1      -9.372   9.408  70.409  1.00  0.00    -0.317 C  
HETATM   13  C   UNL     1      -9.908   8.458  69.131  1.00  0.00    -0.183 C  
HETATM   14  C   UNL     1     -10.341   9.208  67.845  1.00  0.00    -0.285 C  
HETATM   15  C   UNL     1      -9.798  10.625  67.641  1.00  0.00    -0.191 C  
HETATM   16  C   UNL     1      -8.442  10.758  66.970  1.00  0.00    -0.128 C  
HETATM   17  C   UNL     1      -8.107   9.680  65.971  1.00  0.00    -0.112 C  
HETATM   18  O   UNL     1      -7.115   9.767  65.247  1.00  0.00    -0.106 OA 
HETATM   19  C   UNL     1      -8.957   8.469  65.880  1.00  0.00    -0.235 C  
HETATM   20  C   UNL     1      -9.984   8.251  66.722  1.00  0.00    -0.355 C  
HETATM   21  C   UNL     1     -10.783   6.957  66.709  1.00  0.00    -0.296 C  
ENDROOT
BRANCH   4  22
HETATM   22  C   UNL     1     -12.702   7.603  71.650  1.00  0.00    -0.368 C  
HETATM   23  C   UNL     1     -13.854   7.326  71.807  1.00  0.00    -0.420 C  
ENDBRANCH   4  22
TORSDOF 1
ENDMDL
MODEL       30
REMARK 921   NORMALIZED FREE ENERGY PREDICTED BY IDOCK:   -5.36 KCAL/MOL
REMARK 922        TOTAL FREE ENERGY PREDICTED BY IDOCK:   -5.69 KCAL/MOL
REMARK 923 INTER-LIGAND FREE ENERGY PREDICTED BY IDOCK:   -5.77 KCAL/MOL
REMARK 924 INTRA-LIGAND FREE ENERGY PREDICTED BY IDOCK:    0.08 KCAL/MOL
REMARK 927      BINDING AFFINITY PREDICTED BY RF-SCORE:    0.00 PKD
ROOT
HETATM    1  C   UNL     1      -8.591   7.176  70.676  1.00  0.00    -0.143 C  
HETATM    2  C   UNL     1      -7.603   7.981  71.291  1.00  0.00    -0.081 C  
HETATM    3  C   UNL     1      -8.880   7.897  72.050  1.00  0.00    -0.187 C  
HETATM    4  C   UNL     1     -10.220   6.512  71.356  1.00  0.00    -0.197 C  
HETATM    5  C   UNL     1      -9.220   6.275  72.271  1.00  0.00    -0.139 C  
HETATM    6  C   UNL     1      -9.902   8.351  70.015  1.00  0.00    -0.182 C  
HETATM    7  O   UNL     1     -11.415   5.986  71.935  1.00  0.00    -0.287 OA 
HETATM    8  C   UNL     1     -10.343   7.176  73.480  1.00  0.00    -0.412 C  
HETATM    9  C   UNL     1      -8.625   4.994  72.774  1.00  0.00    -0.119 C  
HETATM   10  C   UNL     1      -9.351   9.484  69.110  1.00  0.00    -0.163 C  
HETATM   11  H   UNL     1     -12.037   5.343  71.613  1.00  0.00     0.000 HD 
HETATM   12  C   UNL     1     -11.369   8.328  72.641  1.00  0.00    -0.421 C  
HETATM   13  C   UNL     1     -10.953   9.061  71.189  1.00  0.00    -0.371 C  
HETATM   14  C   UNL     1     -12.107   9.718  70.387  1.00  0.00    -0.176 C  
HETATM   15  C   UNL     1     -13.374  10.092  71.161  1.00  0.00    -0.372 C  
HETATM   16  C   UNL     1     -13.397  11.452  71.838  1.00  0.00    -0.409 C  
HETATM   17  C   UNL     1     -12.596  12.528  71.151  1.00  0.00    -0.253 C  
HETATM   18  O   UNL     1     -12.668  13.704  71.511  1.00  0.00    -0.346 OA 
HETATM   19  C   UNL     1     -11.670  12.170  70.051  1.00  0.00    -0.330 C  
HETATM   20  C   UNL     1     -11.449  10.894  69.689  1.00  0.00    -0.377 C  
HETATM   21  C   UNL     1     -10.412  10.515  68.642  1.00  0.00    -0.211 C  
ENDROOT
BRANCH   4  22
HETATM   22  C   UNL     1     -10.044   5.434  70.242  1.00  0.00    -0.318 C  
HETATM   23  C   UNL     1      -9.834   4.605  69.407  1.00  0.00    -0.272 C  
ENDBRANCH   4  22
TORSDOF 1
ENDMDL
MODEL       31
REMARK 921   NORMALIZED FREE ENERGY PREDICTED BY IDOCK:   -5.33 KCAL/MOL
REMARK 922        TOTAL FREE ENERGY PREDICTED BY IDOCK:   -5.65 KCAL/MOL
REMARK 923 INTER-LIGAND FREE ENERGY PREDICTED BY IDOCK:   -5.64 KCAL/MOL
REMARK 924 INTRA-LIGAND FREE ENERGY PREDICTED BY IDOCK:   -0.01 KCAL/MOL
REMARK 927      BINDING AFFINITY PREDICTED BY RF-SCORE:    0.00 PKD
ROOT
HETATM    1  C   UNL     1     -10.993  11.621  66.439  1.00  0.00    -0.345 C  
HETATM    2  C   UNL     1     -11.746  11.393  67.616  1.00  0.00    -0.246 C  
HETATM    3  C   UNL     1     -11.102  12.733  67.555  1.00  0.00    -0.300 C  
HETATM    4  C   UNL     1     -10.260  13.217  65.753  1.00  0.00    -0.292 C  
HETATM    5  C   UNL     1     -11.567  13.443  66.115  1.00  0.00    -0.378 C  
HETATM    6  C   UNL     1      -9.184  11.575  66.946  1.00  0.00    -0.181 C  
HETATM    7  O   UNL     1      -9.773  14.461  65.244  1.00  0.00    -0.540 OA 
HETATM    8  C   UNL     1     -10.864  14.849  67.145  1.00  0.00    -0.311 C  
HETATM    9  C   UNL     1     -12.775  13.785  65.295  1.00  0.00    -0.481 C  
HETATM   10  C   UNL     1      -8.768  10.302  67.729  1.00  0.00    -0.121 C  
HETATM   11  H   UNL     1      -9.382  14.686  64.408  1.00  0.00     0.000 HD 
HETATM   12  C   UNL     1      -9.209  14.506  67.625  1.00  0.00    -0.195 C  
HETATM   13  C   UNL     1      -8.596  12.954  67.808  1.00  0.00    -0.185 C  
HETATM   14  C   UNL     1      -7.051  12.817  67.831  1.00  0.00    -0.118 C  
HETATM   15  C   UNL     1      -6.241  14.066  68.189  1.00  0.00    -0.132 C  
HETATM   16  C   UNL     1      -5.996  14.334  69.663  1.00  0.00    -0.112 C  
HETATM   17  C   UNL     1      -5.903  13.109  70.536  1.00  0.00    -0.150 C  
HETATM   18  O   UNL     1      -5.546  13.189  71.712  1.00  0.00    -0.396 OA 
HETATM   19  C   UNL     1      -6.285  11.784  69.991  1.00  0.00    -0.136 C  
HETATM   20  C   UNL     1      -6.799  11.640  68.756  1.00  0.00    -0.090 C  
HETATM   21  C   UNL     1      -7.302  10.302  68.238  1.00  0.00    -0.085 C  
ENDROOT
BRANCH   4  22
HETATM   22  C   UNL     1     -10.319  12.454  64.393  1.00  0.00    -0.370 C  
HETATM   23  C   UNL     1     -10.286  11.876  63.347  1.00  0.00    -0.478 C  
ENDBRANCH   4  22
TORSDOF 1
ENDMDL
MODEL       32
REMARK 921   NORMALIZED FREE ENERGY PREDICTED BY IDOCK:   -5.31 KCAL/MOL
REMARK 922        TOTAL FREE ENERGY PREDICTED BY IDOCK:   -5.63 KCAL/MOL
REMARK 923 INTER-LIGAND FREE ENERGY PREDICTED BY IDOCK:   -5.61 KCAL/MOL
REMARK 924 INTRA-LIGAND FREE ENERGY PREDICTED BY IDOCK:   -0.02 KCAL/MOL
REMARK 927      BINDING AFFINITY PREDICTED BY RF-SCORE:    0.00 PKD
ROOT
HETATM    1  C   UNL     1     -11.601   8.091  72.097  1.00  0.00    -0.399 C  
HETATM    2  C   UNL     1     -12.948   7.952  71.685  1.00  0.00    -0.359 C  
HETATM    3  C   UNL     1     -11.966   7.281  70.792  1.00  0.00    -0.311 C  
HETATM    4  C   UNL     1     -10.048   7.198  71.505  1.00  0.00    -0.186 C  
HETATM    5  C   UNL     1     -11.035   6.271  71.745  1.00  0.00    -0.305 C  
HETATM    6  C   UNL     1     -10.793   9.283  70.888  1.00  0.00    -0.365 C  
HETATM    7  O   UNL     1      -8.910   6.455  71.064  1.00  0.00    -0.138 OA 
HETATM    8  C   UNL     1     -10.707   5.712  69.982  1.00  0.00    -0.390 C  
HETATM    9  C   UNL     1     -11.134   5.174  72.763  1.00  0.00    -0.330 C  
HETATM   10  C   UNL     1     -11.545  10.628  70.713  1.00  0.00    -0.388 C  
HETATM   11  H   UNL     1      -8.020   6.416  71.396  1.00  0.00     0.000 HD 
HETATM   12  C   UNL     1     -10.098   7.040  69.007  1.00  0.00    -0.182 C  
HETATM   13  C   UNL     1     -10.439   8.655  69.317  1.00  0.00    -0.226 C  
HETATM   14  C   UNL     1      -9.518   9.701  68.637  1.00  0.00    -0.147 C  
HETATM   15  C   UNL     1      -8.741   9.250  67.396  1.00  0.00    -0.121 C  
HETATM   16  C   UNL     1      -9.448   9.361  66.057  1.00  0.00    -0.304 C  
HETATM   17  C   UNL     1     -10.447  10.484  65.945  1.00  0.00    -0.153 C  
HETATM   18  O   UNL     1     -10.961  10.776  64.864  1.00  0.00    -0.102 OA 
HETATM   19  C   UNL     1     -10.857  11.231  67.158  1.00  0.00    -0.321 C  
HETATM   20  C   UNL     1     -10.430  10.888  68.387  1.00  0.00    -0.206 C  
HETATM   21  C   UNL     1     -10.941  11.576  69.644  1.00  0.00    -0.129 C  
ENDROOT
BRANCH   4  22
HETATM   22  C   UNL     1      -9.493   7.604  72.906  1.00  0.00    -0.262 C  
HETATM   23  C   UNL     1      -8.998   7.930  73.944  1.00  0.00    -0.287 C  
ENDBRANCH   4  22
TORSDOF 1
ENDMDL
MODEL       33
REMARK 921   NORMALIZED FREE ENERGY PREDICTED BY IDOCK:   -5.28 KCAL/MOL
REMARK 922        TOTAL FREE ENERGY PREDICTED BY IDOCK:   -5.61 KCAL/MOL
REMARK 923 INTER-LIGAND FREE ENERGY PREDICTED BY IDOCK:   -5.59 KCAL/MOL
REMARK 924 INTRA-LIGAND FREE ENERGY PREDICTED BY IDOCK:   -0.02 KCAL/MOL
REMARK 927      BINDING AFFINITY PREDICTED BY RF-SCORE:    0.00 PKD
ROOT
HETATM    1  C   UNL     1      -9.610  12.975  67.272  1.00  0.00    -0.225 C  
HETATM    2  C   UNL     1      -8.743  12.656  68.344  1.00  0.00    -0.118 C  
HETATM    3  C   UNL     1      -9.881  13.538  68.722  1.00  0.00    -0.050 C  
HETATM    4  C   UNL     1     -11.317  13.777  67.282  1.00  0.00    -0.321 C  
HETATM    5  C   UNL     1     -11.285  12.777  68.226  1.00  0.00    -0.308 C  
HETATM    6  C   UNL     1      -9.295  14.779  66.849  1.00  0.00    -0.256 C  
HETATM    7  O   UNL     1     -12.631  14.335  67.346  1.00  0.00    -0.531 OA 
HETATM    8  C   UNL     1     -11.852  14.114  69.419  1.00  0.00    -0.378 C  
HETATM    9  C   UNL     1     -12.026  11.477  68.314  1.00  0.00    -0.239 C  
HETATM   10  C   UNL     1      -7.807  15.127  66.588  1.00  0.00     0.178 C  
HETATM   11  H   UNL     1     -13.298  14.446  66.678  1.00  0.00     0.000 HD 
HETATM   12  C   UNL     1     -11.308  15.698  68.888  1.00  0.00    -0.341 C  
HETATM   13  C   UNL     1      -9.935  15.946  67.953  1.00  0.00    -0.221 C  
HETATM   14  C   UNL     1      -9.822  17.317  67.238  1.00  0.00    -0.267 C  
HETATM   15  C   UNL     1     -10.646  18.476  67.807  1.00  0.00    -0.422 C  
HETATM   16  C   UNL     1     -10.023  19.284  68.932  1.00  0.00    -0.495 C  
HETATM   17  C   UNL     1      -8.519  19.384  68.898  1.00  0.00    -0.292 C  
HETATM   18  O   UNL     1      -7.913  20.142  69.657  1.00  0.00     0.233 OA 
HETATM   19  C   UNL     1      -7.743  18.528  67.969  1.00  0.00    -0.281 C  
HETATM   20  C   UNL     1      -8.329  17.592  67.201  1.00  0.00    -0.232 C  
HETATM   21  C   UNL     1      -7.526  16.633  66.337  1.00  0.00    -0.260 C  
ENDROOT
BRANCH   4  22
HETATM   22  C   UNL     1     -11.470  13.060  65.904  1.00  0.00    -0.374 C  
HETATM   23  C   UNL     1     -11.640  12.565  64.830  1.00  0.00    -0.386 C  
ENDBRANCH   4  22
TORSDOF 1
ENDMDL
MODEL       34
REMARK 921   NORMALIZED FREE ENERGY PREDICTED BY IDOCK:   -5.23 KCAL/MOL
REMARK 922        TOTAL FREE ENERGY PREDICTED BY IDOCK:   -5.55 KCAL/MOL
REMARK 923 INTER-LIGAND FREE ENERGY PREDICTED BY IDOCK:   -5.53 KCAL/MOL
REMARK 924 INTRA-LIGAND FREE ENERGY PREDICTED BY IDOCK:   -0.02 KCAL/MOL
REMARK 927      BINDING AFFINITY PREDICTED BY RF-SCORE:    0.00 PKD
ROOT
HETATM    1  C   UNL     1      -8.686  15.849  67.883  1.00  0.00    -0.168 C  
HETATM    2  C   UNL     1      -7.623  16.287  67.058  1.00  0.00    -0.250 C  
HETATM    3  C   UNL     1      -8.833  15.849  66.311  1.00  0.00    -0.386 C  
HETATM    4  C   UNL     1     -10.490  15.497  67.462  1.00  0.00    -0.282 C  
HETATM    5  C   UNL     1     -10.131  16.709  66.921  1.00  0.00    -0.280 C  
HETATM    6  C   UNL     1      -8.778  13.981  67.689  1.00  0.00    -0.189 C  
HETATM    7  O   UNL     1     -11.860  15.298  67.105  1.00  0.00    -0.160 OA 
HETATM    8  C   UNL     1     -10.748  15.981  65.302  1.00  0.00    -0.417 C  
HETATM    9  C   UNL     1     -10.597  18.102  67.221  1.00  0.00    -0.384 C  
HETATM   10  C   UNL     1      -7.436  13.243  67.937  1.00  0.00    -0.143 C  
HETATM   11  H   UNL     1     -12.629  15.135  67.639  1.00  0.00     0.000 HD 
HETATM   12  C   UNL     1     -10.593  14.231  65.303  1.00  0.00    -0.396 C  
HETATM   13  C   UNL     1      -9.448  13.399  66.206  1.00  0.00    -0.196 C  
HETATM   14  C   UNL     1      -9.700  11.883  66.417  1.00  0.00    -0.238 C  
HETATM   15  C   UNL     1     -10.629  11.180  65.423  1.00  0.00    -0.291 C  
HETATM   16  C   UNL     1     -10.002  10.651  64.145  1.00  0.00    -0.406 C  
HETATM   17  C   UNL     1      -8.566  10.210  64.264  1.00  0.00    -0.193 C  
HETATM   18  O   UNL     1      -8.003   9.614  63.344  1.00  0.00    -0.130 OA 
HETATM   19  C   UNL     1      -7.795  10.531  65.489  1.00  0.00    -0.138 C  
HETATM   20  C   UNL     1      -8.307  11.283  66.479  1.00  0.00    -0.168 C  
HETATM   21  C   UNL     1      -7.480  11.713  67.681  1.00  0.00    -0.116 C  
ENDROOT
BRANCH   4  22
HETATM   22  C   UNL     1     -10.715  15.757  68.984  1.00  0.00    -0.235 C  
HETATM   23  C   UNL     1     -10.964  15.951  70.136  1.00  0.00    -0.369 C  
ENDBRANCH   4  22
TORSDOF 1
ENDMDL
MODEL       35
REMARK 921   NORMALIZED FREE ENERGY PREDICTED BY IDOCK:   -5.12 KCAL/MOL
REMARK 922        TOTAL FREE ENERGY PREDICTED BY IDOCK:   -5.43 KCAL/MOL
REMARK 923 INTER-LIGAND FREE ENERGY PREDICTED BY IDOCK:   -5.42 KCAL/MOL
REMARK 924 INTRA-LIGAND FREE ENERGY PREDICTED BY IDOCK:   -0.02 KCAL/MOL
REMARK 927      BINDING AFFINITY PREDICTED BY RF-SCORE:    0.00 PKD
ROOT
HETATM    1  C   UNL     1      -9.206  11.753  66.337  1.00  0.00    -0.223 C  
HETATM    2  C   UNL     1      -9.949  11.018  65.383  1.00  0.00    -0.313 C  
HETATM    3  C   UNL     1     -10.720  11.389  66.601  1.00  0.00    -0.316 C  
HETATM    4  C   UNL     1      -9.782  12.703  67.862  1.00  0.00    -0.216 C  
HETATM    5  C   UNL     1     -10.577  13.044  66.793  1.00  0.00    -0.269 C  
HETATM    6  C   UNL     1      -8.885  10.588  67.778  1.00  0.00    -0.125 C  
HETATM    7  O   UNL     1     -10.273  13.456  68.973  1.00  0.00    -0.421 OA 
HETATM    8  C   UNL     1     -12.005  12.547  67.909  1.00  0.00    -0.283 C  
HETATM    9  C   UNL     1     -10.749  14.344  66.065  1.00  0.00    -0.302 C  
HETATM   10  C   UNL     1      -8.243   9.235  67.379  1.00  0.00    -0.117 C  
HETATM   11  H   UNL     1      -9.838  14.065  69.558  1.00  0.00     0.000 HD 
HETATM   12  C   UNL     1     -11.494  11.338  69.077  1.00  0.00    -0.369 C  
HETATM   13  C   UNL     1     -10.233  10.262  68.811  1.00  0.00    -0.205 C  
HETATM   14  C   UNL     1      -9.650   9.553  70.061  1.00  0.00    -0.272 C  
HETATM   15  C   UNL     1     -10.540   9.483  71.306  1.00  0.00    -0.358 C  
HETATM   16  C   UNL     1     -11.510   8.318  71.399  1.00  0.00    -0.314 C  
HETATM   17  C   UNL     1     -11.057   7.045  70.732  1.00  0.00    -0.273 C  
HETATM   18  O   UNL     1     -11.679   5.991  70.879  1.00  0.00    -0.207 OA 
HETATM   19  C   UNL     1      -9.867   7.058  69.848  1.00  0.00    -0.173 C  
HETATM   20  C   UNL     1      -9.213   8.194  69.546  1.00  0.00    -0.158 C  
HETATM   21  C   UNL     1      -8.067   8.229  68.547  1.00  0.00    -0.123 C  
ENDROOT
BRANCH   4  22
HETATM   22  C   UNL     1      -8.444  13.482  67.667  1.00  0.00    -0.184 C  
HETATM   23  C   UNL     1      -7.443  14.128  67.573  1.00  0.00    -0.192 C  
ENDBRANCH   4  22
TORSDOF 1
ENDMDL
MODEL       36
REMARK 921   NORMALIZED FREE ENERGY PREDICTED BY IDOCK:   -5.11 KCAL/MOL
REMARK 922        TOTAL FREE ENERGY PREDICTED BY IDOCK:   -5.43 KCAL/MOL
REMARK 923 INTER-LIGAND FREE ENERGY PREDICTED BY IDOCK:   -5.51 KCAL/MOL
REMARK 924 INTRA-LIGAND FREE ENERGY PREDICTED BY IDOCK:    0.08 KCAL/MOL
REMARK 927      BINDING AFFINITY PREDICTED BY RF-SCORE:    0.00 PKD
ROOT
HETATM    1  C   UNL     1     -11.448  13.505  65.382  1.00  0.00    -0.318 C  
HETATM    2  C   UNL     1     -12.638  12.759  65.203  1.00  0.00    -0.513 C  
HETATM    3  C   UNL     1     -11.771  12.268  66.308  1.00  0.00    -0.431 C  
HETATM    4  C   UNL     1     -10.201  13.488  66.797  1.00  0.00    -0.264 C  
HETATM    5  C   UNL     1     -11.471  13.565  67.319  1.00  0.00    -0.369 C  
HETATM    6  C   UNL     1     -10.040  12.421  64.768  1.00  0.00    -0.260 C  
HETATM    7  O   UNL     1      -9.316  13.480  67.919  1.00  0.00    -0.199 OA 
HETATM    8  C   UNL     1     -10.975  12.050  68.314  1.00  0.00    -0.275 C  
HETATM    9  C   UNL     1     -12.156  14.651  68.094  1.00  0.00    -0.199 C  
HETATM   10  C   UNL     1     -10.234  11.870  63.331  1.00  0.00    -0.478 C  
HETATM   11  H   UNL     1      -8.587  14.046  68.146  1.00  0.00     0.000 HD 
HETATM   12  C   UNL     1      -9.754  11.116  67.464  1.00  0.00    -0.193 C  
HETATM   13  C   UNL     1      -9.586  11.105  65.793  1.00  0.00    -0.255 C  
HETATM   14  C   UNL     1      -8.240  10.574  65.235  1.00  0.00    -0.146 C  
HETATM   15  C   UNL     1      -7.410   9.667  66.149  1.00  0.00    -0.098 C  
HETATM   16  C   UNL     1      -7.727   8.182  66.124  1.00  0.00    -0.090 C  
HETATM   17  C   UNL     1      -8.235   7.652  64.807  1.00  0.00    -0.078 C  
HETATM   18  O   UNL     1      -8.371   6.442  64.616  1.00  0.00    -0.109 OA 
HETATM   19  C   UNL     1      -8.622   8.596  63.732  1.00  0.00    -0.011 C  
HETATM   20  C   UNL     1      -8.617   9.928  63.914  1.00  0.00    -0.202 C  
HETATM   21  C   UNL     1      -9.125  10.894  62.855  1.00  0.00    -0.327 C  
ENDROOT
BRANCH   4  22
HETATM   22  C   UNL     1      -9.861  14.921  66.283  1.00  0.00    -0.315 C  
HETATM   23  C   UNL     1      -9.671  16.021  65.856  1.00  0.00    -0.378 C  
ENDBRANCH   4  22
TORSDOF 1
ENDMDL
MODEL       37
REMARK 921   NORMALIZED FREE ENERGY PREDICTED BY IDOCK:   -5.09 KCAL/MOL
REMARK 922        TOTAL FREE ENERGY PREDICTED BY IDOCK:   -5.41 KCAL/MOL
REMARK 923 INTER-LIGAND FREE ENERGY PREDICTED BY IDOCK:   -5.38 KCAL/MOL
REMARK 924 INTRA-LIGAND FREE ENERGY PREDICTED BY IDOCK:   -0.02 KCAL/MOL
REMARK 927      BINDING AFFINITY PREDICTED BY RF-SCORE:    0.00 PKD
ROOT
HETATM    1  C   UNL     1      -9.163  10.678  66.675  1.00  0.00    -0.184 C  
HETATM    2  C   UNL     1      -9.975   9.876  65.837  1.00  0.00    -0.347 C  
HETATM    3  C   UNL     1     -10.697  10.480  66.989  1.00  0.00    -0.310 C  
HETATM    4  C   UNL     1      -9.642  11.880  68.047  1.00  0.00    -0.193 C  
HETATM    5  C   UNL     1     -10.420  12.128  66.941  1.00  0.00    -0.250 C  
HETATM    6  C   UNL     1      -8.919   9.710  68.268  1.00  0.00    -0.123 C  
HETATM    7  O   UNL     1     -10.057  12.822  69.038  1.00  0.00    -0.426 OA 
HETATM    8  C   UNL     1     -11.869  11.914  68.119  1.00  0.00    -0.338 C  
HETATM    9  C   UNL     1     -10.497  13.320  66.033  1.00  0.00    -0.289 C  
HETATM   10  C   UNL     1      -8.392   8.266  68.067  1.00  0.00    -0.129 C  
HETATM   11  H   UNL     1      -9.568  13.472  69.529  1.00  0.00     0.000 HD 
HETATM   12  C   UNL     1     -11.443  10.847  69.447  1.00  0.00    -0.373 C  
HETATM   13  C   UNL     1     -10.275   9.645  69.338  1.00  0.00    -0.220 C  
HETATM   14  C   UNL     1      -9.735   9.079  70.677  1.00  0.00    -0.287 C  
HETATM   15  C   UNL     1     -10.612   9.260  71.920  1.00  0.00    -0.168 C  
HETATM   16  C   UNL     1     -11.672   8.203  72.181  1.00  0.00    -0.418 C  
HETATM   17  C   UNL     1     -11.330   6.815  71.704  1.00  0.00    -0.266 C  
HETATM   18  O   UNL     1     -12.033   5.847  72.001  1.00  0.00    -0.244 OA 
HETATM   19  C   UNL     1     -10.154   6.605  70.826  1.00  0.00    -0.205 C  
HETATM   20  C   UNL     1      -9.415   7.629  70.363  1.00  0.00    -0.164 C  
HETATM   21  C   UNL     1      -8.282   7.427  69.368  1.00  0.00    -0.131 C  
ENDROOT
BRANCH   4  22
HETATM   22  C   UNL     1      -8.249  12.513  67.741  1.00  0.00    -0.166 C  
HETATM   23  C   UNL     1      -7.182  13.027  67.578  1.00  0.00    -0.154 C  
ENDBRANCH   4  22
TORSDOF 1
ENDMDL
MODEL       38
REMARK 921   NORMALIZED FREE ENERGY PREDICTED BY IDOCK:   -5.07 KCAL/MOL
REMARK 922        TOTAL FREE ENERGY PREDICTED BY IDOCK:   -5.38 KCAL/MOL
REMARK 923 INTER-LIGAND FREE ENERGY PREDICTED BY IDOCK:   -5.37 KCAL/MOL
REMARK 924 INTRA-LIGAND FREE ENERGY PREDICTED BY IDOCK:   -0.01 KCAL/MOL
REMARK 927      BINDING AFFINITY PREDICTED BY RF-SCORE:    0.00 PKD
ROOT
HETATM    1  C   UNL     1      -9.497   9.940  70.092  1.00  0.00    -0.214 C  
HETATM    2  C   UNL     1      -8.083   9.905  70.066  1.00  0.00    -0.193 C  
HETATM    3  C   UNL     1      -8.721   9.738  68.732  1.00  0.00    -0.128 C  
HETATM    4  C   UNL     1     -10.739  10.082  68.679  1.00  0.00    -0.226 C  
HETATM    5  C   UNL     1      -9.758  11.031  68.512  1.00  0.00    -0.189 C  
HETATM    6  C   UNL     1     -10.081   8.179  69.786  1.00  0.00    -0.197 C  
HETATM    7  O   UNL     1     -11.638  10.249  67.581  1.00  0.00    -0.602 OA 
HETATM    8  C   UNL     1      -9.553  10.277  66.803  1.00  0.00    -0.214 C  
HETATM    9  C   UNL     1      -9.815  12.529  68.555  1.00  0.00    -0.153 C  
HETATM   10  C   UNL     1      -9.454   7.121  70.732  1.00  0.00    -0.164 C  
HETATM   11  H   UNL     1     -12.574  10.409  67.557  1.00  0.00     0.000 HD 
HETATM   12  C   UNL     1     -10.021   8.584  66.806  1.00  0.00    -0.351 C  
HETATM   13  C   UNL     1      -9.944   7.599  68.164  1.00  0.00    -0.203 C  
HETATM   14  C   UNL     1     -10.759   6.280  68.111  1.00  0.00    -0.364 C  
HETATM   15  C   UNL     1     -11.133   5.742  66.727  1.00  0.00    -0.091 C  
HETATM   16  C   UNL     1     -10.115   4.856  66.029  1.00  0.00    -0.264 C  
HETATM   17  C   UNL     1      -9.245   4.030  66.942  1.00  0.00    -0.167 C  
HETATM   18  O   UNL     1      -8.499   3.157  66.495  1.00  0.00    -0.100 OA 
HETATM   19  C   UNL     1      -9.247   4.293  68.401  1.00  0.00    -0.190 C  
HETATM   20  C   UNL     1      -9.942   5.309  68.943  1.00  0.00    -0.250 C  
HETATM   21  C   UNL     1      -9.853   5.654  70.422  1.00  0.00    -0.253 C  
ENDROOT
BRANCH   4  22
HETATM   22  C   UNL     1     -11.681  10.632  69.795  1.00  0.00    -0.385 C  
HETATM   23  C   UNL     1     -12.454  10.998  70.630  1.00  0.00    -0.465 C  
ENDBRANCH   4  22
TORSDOF 1
ENDMDL
MODEL       39
REMARK 921   NORMALIZED FREE ENERGY PREDICTED BY IDOCK:   -5.04 KCAL/MOL
REMARK 922        TOTAL FREE ENERGY PREDICTED BY IDOCK:   -5.35 KCAL/MOL
REMARK 923 INTER-LIGAND FREE ENERGY PREDICTED BY IDOCK:   -5.33 KCAL/MOL
REMARK 924 INTRA-LIGAND FREE ENERGY PREDICTED BY IDOCK:   -0.01 KCAL/MOL
REMARK 927      BINDING AFFINITY PREDICTED BY RF-SCORE:    0.00 PKD
ROOT
HETATM    1  C   UNL     1      -7.723   9.322  68.616  1.00  0.00    -0.085 C  
HETATM    2  C   UNL     1      -7.916   8.035  68.059  1.00  0.00    -0.128 C  
HETATM    3  C   UNL     1      -9.065   8.960  67.867  1.00  0.00    -0.145 C  
HETATM    4  C   UNL     1      -8.714  10.910  68.386  1.00  0.00    -0.147 C  
HETATM    5  C   UNL     1      -8.469  10.350  67.154  1.00  0.00    -0.126 C  
HETATM    6  C   UNL     1      -8.833   9.419  70.131  1.00  0.00    -0.249 C  
HETATM    7  O   UNL     1      -9.462  12.101  68.135  1.00  0.00    -0.194 OA 
HETATM    8  C   UNL     1     -10.332  10.448  66.925  1.00  0.00    -0.297 C  
HETATM    9  C   UNL     1      -7.650  10.834  65.995  1.00  0.00    -0.130 C  
HETATM   10  C   UNL     1      -8.647   8.256  71.140  1.00  0.00    -0.168 C  
HETATM   11  H   UNL     1      -9.299  13.006  68.376  1.00  0.00     0.000 HD 
HETATM   12  C   UNL     1     -11.157  10.370  68.474  1.00  0.00    -0.318 C  
HETATM   13  C   UNL     1     -10.524   9.604  69.828  1.00  0.00    -0.263 C  
HETATM   14  C   UNL     1     -11.166   9.968  71.193  1.00  0.00    -0.339 C  
HETATM   15  C   UNL     1     -12.579  10.559  71.169  1.00  0.00    -0.520 C  
HETATM   16  C   UNL     1     -13.739   9.579  71.161  1.00  0.00    -0.161 C  
HETATM   17  C   UNL     1     -13.487   8.273  71.871  1.00  0.00    -0.346 C  
HETATM   18  O   UNL     1     -14.399   7.470  72.072  1.00  0.00    -0.343 OA 
HETATM   19  C   UNL     1     -12.113   7.921  72.301  1.00  0.00    -0.363 C  
HETATM   20  C   UNL     1     -11.051   8.692  72.006  1.00  0.00    -0.437 C  
HETATM   21  C   UNL     1      -9.628   8.275  72.342  1.00  0.00    -0.364 C  
ENDROOT
BRANCH   4  22
HETATM   22  C   UNL     1      -7.381  11.598  68.817  1.00  0.00    -0.118 C  
HETATM   23  C   UNL     1      -6.400  12.161  69.202  1.00  0.00    -0.094 C  
ENDBRANCH   4  22
TORSDOF 1
ENDMDL
MODEL       40
REMARK 921   NORMALIZED FREE ENERGY PREDICTED BY IDOCK:   -5.04 KCAL/MOL
REMARK 922        TOTAL FREE ENERGY PREDICTED BY IDOCK:   -5.35 KCAL/MOL
REMARK 923 INTER-LIGAND FREE ENERGY PREDICTED BY IDOCK:   -5.37 KCAL/MOL
REMARK 924 INTRA-LIGAND FREE ENERGY PREDICTED BY IDOCK:    0.03 KCAL/MOL
REMARK 927      BINDING AFFINITY PREDICTED BY RF-SCORE:    0.00 PKD
ROOT
HETATM    1  C   UNL     1      -8.202   7.194  68.110  1.00  0.00    -0.124 C  
HETATM    2  C   UNL     1      -8.973   6.036  67.854  1.00  0.00    -0.118 C  
HETATM    3  C   UNL     1      -9.683   7.314  67.579  1.00  0.00    -0.181 C  
HETATM    4  C   UNL     1      -8.515   8.995  67.645  1.00  0.00    -0.117 C  
HETATM    5  C   UNL     1      -8.721   8.202  66.540  1.00  0.00    -0.160 C  
HETATM    6  C   UNL     1      -8.911   7.975  69.666  1.00  0.00    -0.145 C  
HETATM    7  O   UNL     1      -8.769  10.335  67.220  1.00  0.00    -0.126 OA 
HETATM    8  C   UNL     1     -10.407   9.030  66.467  1.00  0.00    -0.263 C  
HETATM    9  C   UNL     1      -7.987   8.117  65.235  1.00  0.00    -0.126 C  
HETATM   10  C   UNL     1      -9.027   7.010  70.874  1.00  0.00    -0.152 C  
HETATM   11  H   UNL     1      -8.227  11.115  67.250  1.00  0.00     0.000 HD 
HETATM   12  C   UNL     1     -10.922   9.541  68.067  1.00  0.00    -0.155 C  
HETATM   13  C   UNL     1     -10.420   8.799  69.487  1.00  0.00    -0.222 C  
HETATM   14  C   UNL     1     -10.627   9.601  70.799  1.00  0.00    -0.392 C  
HETATM   15  C   UNL     1     -11.678  10.715  70.782  1.00  0.00    -0.435 C  
HETATM   16  C   UNL     1     -13.113  10.318  71.085  1.00  0.00    -0.481 C  
HETATM   17  C   UNL     1     -13.276   9.152  72.026  1.00  0.00    -0.441 C  
HETATM   18  O   UNL     1     -14.381   8.842  72.473  1.00  0.00    -0.579 OA 
HETATM   19  C   UNL     1     -12.098   8.330  72.393  1.00  0.00    -0.430 C  
HETATM   20  C   UNL     1     -10.885   8.534  71.847  1.00  0.00    -0.392 C  
HETATM   21  C   UNL     1      -9.704   7.620  72.131  1.00  0.00    -0.220 C  
ENDROOT
BRANCH   4  22
HETATM   22  C   UNL     1      -6.968   9.122  67.798  1.00  0.00    -0.078 C  
HETATM   23  C   UNL     1      -5.792   9.215  67.993  1.00  0.00    -0.038 C  
ENDBRANCH   4  22
TORSDOF 1
ENDMDL
MODEL       41
REMARK 921   NORMALIZED FREE ENERGY PREDICTED BY IDOCK:   -4.96 KCAL/MOL
REMARK 922        TOTAL FREE ENERGY PREDICTED BY IDOCK:   -5.27 KCAL/MOL
REMARK 923 INTER-LIGAND FREE ENERGY PREDICTED BY IDOCK:   -5.25 KCAL/MOL
REMARK 924 INTRA-LIGAND FREE ENERGY PREDICTED BY IDOCK:   -0.02 KCAL/MOL
REMARK 927      BINDING AFFINITY PREDICTED BY RF-SCORE:    0.00 PKD
ROOT
HETATM    1  C   UNL     1     -11.712  13.315  67.638  1.00  0.00    -0.408 C  
HETATM    2  C   UNL     1     -12.884  13.869  67.070  1.00  0.00     0.679 C  
HETATM    3  C   UNL     1     -11.637  14.186  66.323  1.00  0.00    -0.379 C  
HETATM    4  C   UNL     1      -9.970  13.164  66.932  1.00  0.00    -0.245 C  
HETATM    5  C   UNL     1     -10.876  12.736  65.989  1.00  0.00    -0.301 C  
HETATM    6  C   UNL     1     -10.760  14.746  68.399  1.00  0.00    -0.243 C  
HETATM    7  O   UNL     1      -8.681  13.021  66.331  1.00  0.00    -0.426 OA 
HETATM    8  C   UNL     1     -10.045  13.991  64.864  1.00  0.00    -0.288 C  
HETATM    9  C   UNL     1     -11.109  11.383  65.386  1.00  0.00    -0.196 C  
HETATM   10  C   UNL     1     -11.588  15.620  69.377  1.00  0.00    -0.378 C  
HETATM   11  H   UNL     1      -7.908  12.547  66.613  1.00  0.00     0.000 HD 
HETATM   12  C   UNL     1      -9.359  15.311  65.798  1.00  0.00    -0.233 C  
HETATM   13  C   UNL     1      -9.946  15.796  67.294  1.00  0.00    -0.238 C  
HETATM   14  C   UNL     1      -9.005  16.677  68.156  1.00  0.00    -0.210 C  
HETATM   15  C   UNL     1      -7.890  17.434  67.428  1.00  0.00    -0.212 C  
HETATM   16  C   UNL     1      -8.237  18.796  66.853  1.00  0.00    -0.272 C  
HETATM   17  C   UNL     1      -9.293  19.564  67.606  1.00  0.00    -0.316 C  
HETATM   18  O   UNL     1      -9.542  20.740  67.334  1.00  0.00    -0.452 OA 
HETATM   19  C   UNL     1     -10.082  18.891  68.665  1.00  0.00    -0.447 C  
HETATM   20  C   UNL     1      -9.949  17.579  68.930  1.00  0.00    -0.313 C  
HETATM   21  C   UNL     1     -10.839  16.860  69.933  1.00  0.00     0.021 C  
ENDROOT
BRANCH   4  22
HETATM   22  C   UNL     1      -9.842  11.999  67.962  1.00  0.00    -0.199 C  
HETATM   23  C   UNL     1      -9.672  11.133  68.768  1.00  0.00    -0.194 C  
ENDBRANCH   4  22
TORSDOF 1
ENDMDL
MODEL       42
REMARK 921   NORMALIZED FREE ENERGY PREDICTED BY IDOCK:   -4.96 KCAL/MOL
REMARK 922        TOTAL FREE ENERGY PREDICTED BY IDOCK:   -5.27 KCAL/MOL
REMARK 923 INTER-LIGAND FREE ENERGY PREDICTED BY IDOCK:   -5.28 KCAL/MOL
REMARK 924 INTRA-LIGAND FREE ENERGY PREDICTED BY IDOCK:    0.01 KCAL/MOL
REMARK 927      BINDING AFFINITY PREDICTED BY RF-SCORE:    0.00 PKD
ROOT
HETATM    1  C   UNL     1      -9.637   8.340  68.254  1.00  0.00    -0.158 C  
HETATM    2  C   UNL     1     -10.796   7.693  67.765  1.00  0.00    -0.133 C  
HETATM    3  C   UNL     1     -10.036   8.445  66.731  1.00  0.00    -0.373 C  
HETATM    4  C   UNL     1      -8.204   9.140  67.325  1.00  0.00    -0.114 C  
HETATM    5  C   UNL     1      -8.456   7.902  66.782  1.00  0.00    -0.129 C  
HETATM    6  C   UNL     1     -10.020  10.181  68.273  1.00  0.00    -0.168 C  
HETATM    7  O   UNL     1      -7.114   9.682  66.577  1.00  0.00    -0.087 OA 
HETATM    8  C   UNL     1      -8.597   8.829  65.154  1.00  0.00    -0.209 C  
HETATM    9  C   UNL     1      -7.627   6.653  66.744  1.00  0.00    -0.091 C  
HETATM   10  C   UNL     1     -11.323  10.557  69.025  1.00  0.00    -0.319 C  
HETATM   11  H   UNL     1      -6.264  10.005  66.853  1.00  0.00     0.000 HD 
HETATM   12  C   UNL     1      -9.115  10.486  65.420  1.00  0.00    -0.215 C  
HETATM   13  C   UNL     1     -10.036  10.974  66.737  1.00  0.00    -0.240 C  
HETATM   14  C   UNL     1     -10.060  12.494  67.042  1.00  0.00    -0.222 C  
HETATM   15  C   UNL     1      -9.699  13.445  65.897  1.00  0.00    -0.197 C  
HETATM   16  C   UNL     1     -10.820  13.862  64.962  1.00  0.00    -0.389 C  
HETATM   17  C   UNL     1     -12.190  13.933  65.587  1.00  0.00    -0.452 C  
HETATM   18  O   UNL     1     -13.146  14.413  64.976  1.00  0.00    -0.615 OA 
HETATM   19  C   UNL     1     -12.411  13.380  66.945  1.00  0.00    -0.262 C  
HETATM   20  C   UNL     1     -11.443  12.733  67.619  1.00  0.00    -0.387 C  
HETATM   21  C   UNL     1     -11.699  12.062  68.960  1.00  0.00    -0.382 C  
ENDROOT
BRANCH   4  22
HETATM   22  C   UNL     1      -7.425   8.876  68.651  1.00  0.00    -0.088 C  
HETATM   23  C   UNL     1      -6.844   8.747  69.688  1.00  0.00    -0.046 C  
ENDBRANCH   4  22
TORSDOF 1
ENDMDL
MODEL       43
REMARK 921   NORMALIZED FREE ENERGY PREDICTED BY IDOCK:   -4.90 KCAL/MOL
REMARK 922        TOTAL FREE ENERGY PREDICTED BY IDOCK:   -5.20 KCAL/MOL
REMARK 923 INTER-LIGAND FREE ENERGY PREDICTED BY IDOCK:   -5.18 KCAL/MOL
REMARK 924 INTRA-LIGAND FREE ENERGY PREDICTED BY IDOCK:   -0.02 KCAL/MOL
REMARK 927      BINDING AFFINITY PREDICTED BY RF-SCORE:    0.00 PKD
ROOT
HETATM    1  C   UNL     1     -10.826  16.333  68.504  1.00  0.00    -0.330 C  
HETATM    2  C   UNL     1     -11.031  16.356  69.904  1.00  0.00    -0.339 C  
HETATM    3  C   UNL     1      -9.671  15.915  69.496  1.00  0.00    -0.255 C  
HETATM    4  C   UNL     1      -9.234  16.154  67.509  1.00  0.00    -0.208 C  
HETATM    5  C   UNL     1      -9.046  17.097  68.492  1.00  0.00    -0.265 C  
HETATM    6  C   UNL     1     -10.775  14.522  68.002  1.00  0.00    -0.243 C  
HETATM    7  O   UNL     1      -7.995  16.072  66.801  1.00  0.00    -0.225 OA 
HETATM    8  C   UNL     1      -7.567  16.046  68.985  1.00  0.00    -0.209 C  
HETATM    9  C   UNL     1      -8.790  18.572  68.410  1.00  0.00    -0.346 C  
HETATM   10  C   UNL     1     -11.993  13.689  68.479  1.00  0.00    -0.396 C  
HETATM   11  H   UNL     1      -7.793  16.183  65.879  1.00  0.00     0.000 HD 
HETATM   12  C   UNL     1      -7.820  14.365  68.544  1.00  0.00    -0.138 C  
HETATM   13  C   UNL     1      -9.336  13.656  68.410  1.00  0.00    -0.181 C  
HETATM   14  C   UNL     1      -9.409  12.316  67.632  1.00  0.00    -0.186 C  
HETATM   15  C   UNL     1      -8.113  11.512  67.497  1.00  0.00    -0.137 C  
HETATM   16  C   UNL     1      -7.768  10.557  68.627  1.00  0.00    -0.106 C  
HETATM   17  C   UNL     1      -8.949   9.955  69.346  1.00  0.00    -0.195 C  
HETATM   18  O   UNL     1      -8.801   9.048  70.166  1.00  0.00    -0.152 OA 
HETATM   19  C   UNL     1     -10.311  10.486  69.101  1.00  0.00    -0.240 C  
HETATM   20  C   UNL     1     -10.531  11.554  68.314  1.00  0.00    -0.219 C  
HETATM   21  C   UNL     1     -11.911  12.174  68.154  1.00  0.00    -0.362 C  
ENDROOT
BRANCH   4  22
HETATM   22  C   UNL     1     -10.059  16.861  66.390  1.00  0.00    -0.331 C  
HETATM   23  C   UNL     1     -10.652  17.361  65.480  1.00  0.00    -0.115 C  
ENDBRANCH   4  22
TORSDOF 1
ENDMDL
MODEL       44
REMARK 921   NORMALIZED FREE ENERGY PREDICTED BY IDOCK:   -4.89 KCAL/MOL
REMARK 922        TOTAL FREE ENERGY PREDICTED BY IDOCK:   -5.20 KCAL/MOL
REMARK 923 INTER-LIGAND FREE ENERGY PREDICTED BY IDOCK:   -5.17 KCAL/MOL
REMARK 924 INTRA-LIGAND FREE ENERGY PREDICTED BY IDOCK:   -0.02 KCAL/MOL
REMARK 927      BINDING AFFINITY PREDICTED BY RF-SCORE:    0.00 PKD
ROOT
HETATM    1  C   UNL     1      -8.482  11.361  67.525  1.00  0.00    -0.137 C  
HETATM    2  C   UNL     1      -8.498  11.338  68.940  1.00  0.00    -0.062 C  
HETATM    3  C   UNL     1      -9.703  11.961  68.327  1.00  0.00    -0.200 C  
HETATM    4  C   UNL     1      -9.861  11.745  66.296  1.00  0.00    -0.221 C  
HETATM    5  C   UNL     1     -10.332  10.859  67.238  1.00  0.00    -0.255 C  
HETATM    6  C   UNL     1      -8.193  13.149  67.022  1.00  0.00    -0.062 C  
HETATM    7  O   UNL     1     -10.952  11.987  65.405  1.00  0.00    -0.284 OA 
HETATM    8  C   UNL     1     -11.700  12.121  67.497  1.00  0.00    -0.385 C  
HETATM    9  C   UNL     1     -10.782   9.434  67.115  1.00  0.00    -0.234 C  
HETATM   10  C   UNL     1      -6.955  13.809  67.682  1.00  0.00    -0.186 C  
HETATM   11  H   UNL     1     -11.026  11.887  64.463  1.00  0.00     0.000 HD 
HETATM   12  C   UNL     1     -11.143  13.739  67.103  1.00  0.00    -0.315 C  
HETATM   13  C   UNL     1      -9.537  14.221  67.205  1.00  0.00    -0.245 C  
HETATM   14  C   UNL     1      -9.154  15.520  66.449  1.00  0.00    -0.351 C  
HETATM   15  C   UNL     1     -10.284  16.498  66.116  1.00  0.00    -0.360 C  
HETATM   16  C   UNL     1     -10.655  17.516  67.180  1.00  0.00    -0.264 C  
HETATM   17  C   UNL     1      -9.524  17.958  68.074  1.00  0.00    -0.279 C  
HETATM   18  O   UNL     1      -9.662  18.895  68.862  1.00  0.00    -0.382 OA 
HETATM   19  C   UNL     1      -8.232  17.233  68.041  1.00  0.00    -0.223 C  
HETATM   20  C   UNL     1      -8.050  16.128  67.295  1.00  0.00    -0.202 C  
HETATM   21  C   UNL     1      -6.767  15.314  67.350  1.00  0.00    -0.157 C  
ENDROOT
BRANCH   4  22
HETATM   22  C   UNL     1      -8.985  10.903  65.317  1.00  0.00    -0.202 C  
HETATM   23  C   UNL     1      -8.350  10.295  64.507  1.00  0.00    -0.168 C  
ENDBRANCH   4  22
TORSDOF 1
ENDMDL
MODEL       45
REMARK 921   NORMALIZED FREE ENERGY PREDICTED BY IDOCK:   -4.88 KCAL/MOL
REMARK 922        TOTAL FREE ENERGY PREDICTED BY IDOCK:   -5.18 KCAL/MOL
REMARK 923 INTER-LIGAND FREE ENERGY PREDICTED BY IDOCK:   -5.16 KCAL/MOL
REMARK 924 INTRA-LIGAND FREE ENERGY PREDICTED BY IDOCK:   -0.02 KCAL/MOL
REMARK 927      BINDING AFFINITY PREDICTED BY RF-SCORE:    0.00 PKD
ROOT
HETATM    1  C   UNL     1      -9.221  12.857  68.046  1.00  0.00    -0.212 C  
HETATM    2  C   UNL     1      -7.906  12.962  67.535  1.00  0.00    -0.177 C  
HETATM    3  C   UNL     1      -8.839  12.200  66.663  1.00  0.00    -0.182 C  
HETATM    4  C   UNL     1     -10.811  12.280  67.210  1.00  0.00    -0.245 C  
HETATM    5  C   UNL     1     -10.169  13.175  66.387  1.00  0.00    -0.286 C  
HETATM    6  C   UNL     1      -9.437  11.074  68.603  1.00  0.00    -0.197 C  
HETATM    7  O   UNL     1     -11.998  11.889  66.517  1.00  0.00    -0.588 OA 
HETATM    8  C   UNL     1     -10.287  11.815  65.095  1.00  0.00    -0.323 C  
HETATM    9  C   UNL     1     -10.561  14.545  65.920  1.00  0.00    -0.315 C  
HETATM   10  C   UNL     1      -8.337  10.566  69.572  1.00  0.00    -0.075 C  
HETATM   11  H   UNL     1     -12.913  11.926  66.771  1.00  0.00     0.000 HD 
HETATM   12  C   UNL     1     -10.324  10.232  65.855  1.00  0.00    -0.241 C  
HETATM   13  C   UNL     1      -9.635   9.900  67.350  1.00  0.00    -0.185 C  
HETATM   14  C   UNL     1     -10.098   8.598  68.053  1.00  0.00    -0.241 C  
HETATM   15  C   UNL     1     -10.712   7.505  67.173  1.00  0.00    -0.379 C  
HETATM   16  C   UNL     1      -9.757   6.524  66.518  1.00  0.00    -0.177 C  
HETATM   17  C   UNL     1      -8.494   6.238  67.291  1.00  0.00    -0.108 C  
HETATM   18  O   UNL     1      -7.723   5.341  66.944  1.00  0.00    -0.094 OA 
HETATM   19  C   UNL     1      -8.143   7.071  68.465  1.00  0.00    -0.124 C  
HETATM   20  C   UNL     1      -8.874   8.141  68.827  1.00  0.00    -0.138 C  
HETATM   21  C   UNL     1      -8.452   9.067  69.957  1.00  0.00    -0.149 C  
ENDROOT
BRANCH   4  22
HETATM   22  C   UNL     1     -11.498  13.136  68.319  1.00  0.00    -0.349 C  
HETATM   23  C   UNL     1     -12.084  13.740  69.167  1.00  0.00    -0.374 C  
ENDBRANCH   4  22
TORSDOF 1
ENDMDL
MODEL       46
REMARK 921   NORMALIZED FREE ENERGY PREDICTED BY IDOCK:   -4.86 KCAL/MOL
REMARK 922        TOTAL FREE ENERGY PREDICTED BY IDOCK:   -5.16 KCAL/MOL
REMARK 923 INTER-LIGAND FREE ENERGY PREDICTED BY IDOCK:   -5.14 KCAL/MOL
REMARK 924 INTRA-LIGAND FREE ENERGY PREDICTED BY IDOCK:   -0.02 KCAL/MOL
REMARK 927      BINDING AFFINITY PREDICTED BY RF-SCORE:    0.00 PKD
ROOT
HETATM    1  C   UNL     1     -11.611  12.675  67.694  1.00  0.00    -0.414 C  
HETATM    2  C   UNL     1     -11.582  12.489  69.097  1.00  0.00    -0.375 C  
HETATM    3  C   UNL     1     -10.294  12.956  68.517  1.00  0.00    -0.239 C  
HETATM    4  C   UNL     1     -10.374  13.525  66.552  1.00  0.00    -0.282 C  
HETATM    5  C   UNL     1     -10.618  14.338  67.634  1.00  0.00    -0.253 C  
HETATM    6  C   UNL     1     -10.604  11.273  66.948  1.00  0.00    -0.300 C  
HETATM    7  O   UNL     1      -9.435  14.229  65.736  1.00  0.00    -0.505 OA 
HETATM    8  C   UNL     1      -8.752  14.328  67.852  1.00  0.00    -0.178 C  
HETATM    9  C   UNL     1     -11.273  15.684  67.731  1.00  0.00    -0.297 C  
HETATM   10  C   UNL     1     -11.036   9.857  67.410  1.00  0.00    -0.214 C  
HETATM   11  H   UNL     1      -9.473  14.494  64.824  1.00  0.00     0.000 HD 
HETATM   12  C   UNL     1      -8.055  12.849  67.210  1.00  0.00    -0.164 C  
HETATM   13  C   UNL     1      -8.888  11.394  67.111  1.00  0.00    -0.156 C  
HETATM   14  C   UNL     1      -8.292  10.317  66.168  1.00  0.00    -0.140 C  
HETATM   15  C   UNL     1      -6.807  10.437  65.815  1.00  0.00    -0.132 C  
HETATM   16  C   UNL     1      -5.813   9.800  66.772  1.00  0.00    -0.054 C  
HETATM   17  C   UNL     1      -6.311   8.578  67.500  1.00  0.00    -0.057 C  
HETATM   18  O   UNL     1      -5.549   7.883  68.174  1.00  0.00    -0.031 OA 
HETATM   19  C   UNL     1      -7.749   8.222  67.447  1.00  0.00    -0.102 C  
HETATM   20  C   UNL     1      -8.657   9.002  66.833  1.00  0.00    -0.128 C  
HETATM   21  C   UNL     1     -10.147   8.702  66.877  1.00  0.00    -0.355 C  
ENDROOT
BRANCH   4  22
HETATM   22  C   UNL     1     -11.611  13.679  65.613  1.00  0.00    -0.342 C  
HETATM   23  C   UNL     1     -12.509  13.808  64.835  1.00  0.00    -0.420 C  
ENDBRANCH   4  22
TORSDOF 1
ENDMDL
MODEL       47
REMARK 921   NORMALIZED FREE ENERGY PREDICTED BY IDOCK:   -4.83 KCAL/MOL
REMARK 922        TOTAL FREE ENERGY PREDICTED BY IDOCK:   -5.13 KCAL/MOL
REMARK 923 INTER-LIGAND FREE ENERGY PREDICTED BY IDOCK:   -5.10 KCAL/MOL
REMARK 924 INTRA-LIGAND FREE ENERGY PREDICTED BY IDOCK:   -0.02 KCAL/MOL
REMARK 927      BINDING AFFINITY PREDICTED BY RF-SCORE:    0.00 PKD
ROOT
HETATM    1  C   UNL     1      -9.545   9.261  69.007  1.00  0.00    -0.159 C  
HETATM    2  C   UNL     1     -10.652   8.517  68.533  1.00  0.00    -0.154 C  
HETATM    3  C   UNL     1      -9.811   9.109  67.458  1.00  0.00    -0.227 C  
HETATM    4  C   UNL     1      -8.044   9.933  68.084  1.00  0.00    -0.104 C  
HETATM    5  C   UNL     1      -8.236   8.617  67.731  1.00  0.00    -0.118 C  
HETATM    6  C   UNL     1      -9.945  11.071  68.692  1.00  0.00    -0.205 C  
HETATM    7  O   UNL     1      -6.897  10.371  67.352  1.00  0.00    -0.074 OA 
HETATM    8  C   UNL     1      -8.243   9.265  65.967  1.00  0.00    -0.111 C  
HETATM    9  C   UNL     1      -7.397   7.398  67.968  1.00  0.00    -0.096 C  
HETATM   10  C   UNL     1     -11.312  11.535  69.260  1.00  0.00    -0.353 C  
HETATM   11  H   UNL     1      -6.077  10.753  67.643  1.00  0.00     0.000 HD 
HETATM   12  C   UNL     1      -8.796  10.932  65.915  1.00  0.00    -0.197 C  
HETATM   13  C   UNL     1      -9.833  11.604  67.052  1.00  0.00    -0.211 C  
HETATM   14  C   UNL     1      -9.897  13.153  67.101  1.00  0.00    -0.235 C  
HETATM   15  C   UNL     1      -9.445  13.914  65.851  1.00  0.00    -0.085 C  
HETATM   16  C   UNL     1     -10.485  14.148  64.769  1.00  0.00    -0.432 C  
HETATM   17  C   UNL     1     -11.904  14.289  65.256  1.00  0.00    -0.374 C  
HETATM   18  O   UNL     1     -12.808  14.642  64.496  1.00  0.00    -0.579 OA 
HETATM   19  C   UNL     1     -12.238  13.958  66.662  1.00  0.00    -0.465 C  
HETATM   20  C   UNL     1     -11.327  13.451  67.513  1.00  0.00    -0.327 C  
HETATM   21  C   UNL     1     -11.693  13.000  68.918  1.00  0.00    -0.371 C  
ENDROOT
BRANCH   4  22
HETATM   22  C   UNL     1      -7.381   9.904  69.497  1.00  0.00    -0.102 C  
HETATM   23  C   UNL     1      -6.814   9.922  70.548  1.00  0.00    -0.122 C  
ENDBRANCH   4  22
TORSDOF 1
ENDMDL
MODEL       48
REMARK 921   NORMALIZED FREE ENERGY PREDICTED BY IDOCK:   -4.76 KCAL/MOL
REMARK 922        TOTAL FREE ENERGY PREDICTED BY IDOCK:   -5.06 KCAL/MOL
REMARK 923 INTER-LIGAND FREE ENERGY PREDICTED BY IDOCK:   -5.06 KCAL/MOL
REMARK 924 INTRA-LIGAND FREE ENERGY PREDICTED BY IDOCK:   -0.00 KCAL/MOL
REMARK 927      BINDING AFFINITY PREDICTED BY RF-SCORE:    0.00 PKD
ROOT
HETATM    1  C   UNL     1      -9.004  10.959  67.643  1.00  0.00    -0.140 C  
HETATM    2  C   UNL     1      -7.987  11.289  68.570  1.00  0.00    -0.145 C  
HETATM    3  C   UNL     1      -8.046   9.844  68.219  1.00  0.00    -0.104 C  
HETATM    4  C   UNL     1      -9.295   9.372  66.666  1.00  0.00    -0.163 C  
HETATM    5  C   UNL     1      -7.974   9.734  66.552  1.00  0.00    -0.112 C  
HETATM    6  C   UNL     1     -10.327  10.036  68.609  1.00  0.00    -0.211 C  
HETATM    7  O   UNL     1      -9.440   8.171  65.906  1.00  0.00    -0.399 OA 
HETATM    8  C   UNL     1      -7.617   7.995  67.170  1.00  0.00    -0.097 C  
HETATM    9  C   UNL     1      -7.169  10.176  65.367  1.00  0.00    -0.144 C  
HETATM   10  C   UNL     1     -10.835  10.778  69.873  1.00  0.00    -0.264 C  
HETATM   11  H   UNL     1     -10.020   7.952  65.185  1.00  0.00     0.000 HD 
HETATM   12  C   UNL     1      -8.932   7.406  68.173  1.00  0.00    -0.129 C  
HETATM   13  C   UNL     1      -9.952   8.408  69.054  1.00  0.00    -0.194 C  
HETATM   14  C   UNL     1     -11.283   7.782  69.546  1.00  0.00     0.097 C  
HETATM   15  C   UNL     1     -11.346   6.256  69.647  1.00  0.00    -0.492 C  
HETATM   16  C   UNL     1     -10.855   5.625  70.939  1.00  0.00    -0.294 C  
HETATM   17  C   UNL     1     -11.040   6.464  72.178  1.00  0.00    -0.263 C  
HETATM   18  O   UNL     1     -10.832   5.998  73.300  1.00  0.00    -0.254 OA 
HETATM   19  C   UNL     1     -11.438   7.886  72.053  1.00  0.00    -0.351 C  
HETATM   20  C   UNL     1     -11.562   8.492  70.859  1.00  0.00    -0.295 C  
HETATM   21  C   UNL     1     -11.853   9.980  70.730  1.00  0.00    -0.435 C  
ENDROOT
BRANCH   4  22
HETATM   22  C   UNL     1     -10.082  10.316  65.704  1.00  0.00    -0.341 C  
HETATM   23  C   UNL     1     -10.660  10.993  64.907  1.00  0.00    -0.328 C  
ENDBRANCH   4  22
TORSDOF 1
ENDMDL
MODEL       49
REMARK 921   NORMALIZED FREE ENERGY PREDICTED BY IDOCK:   -4.73 KCAL/MOL
REMARK 922        TOTAL FREE ENERGY PREDICTED BY IDOCK:   -5.02 KCAL/MOL
REMARK 923 INTER-LIGAND FREE ENERGY PREDICTED BY IDOCK:   -5.00 KCAL/MOL
REMARK 924 INTRA-LIGAND FREE ENERGY PREDICTED BY IDOCK:   -0.02 KCAL/MOL
REMARK 927      BINDING AFFINITY PREDICTED BY RF-SCORE:    0.00 PKD
ROOT
HETATM    1  C   UNL     1      -9.177  16.640  68.011  1.00  0.00    -0.223 C  
HETATM    2  C   UNL     1      -9.943  16.565  69.199  1.00  0.00    -0.275 C  
HETATM    3  C   UNL     1      -8.821  15.590  69.135  1.00  0.00    -0.253 C  
HETATM    4  C   UNL     1      -7.512  15.863  67.583  1.00  0.00    -0.152 C  
HETATM    5  C   UNL     1      -7.426  16.457  68.821  1.00  0.00    -0.207 C  
HETATM    6  C   UNL     1      -9.604  15.112  67.002  1.00  0.00    -0.235 C  
HETATM    7  O   UNL     1      -6.223  15.301  67.328  1.00  0.00    -0.321 OA 
HETATM    8  C   UNL     1      -6.829  14.773  69.403  1.00  0.00    -0.162 C  
HETATM    9  C   UNL     1      -6.622  17.628  69.301  1.00  0.00    -0.233 C  
HETATM   10  C   UNL     1     -11.123  14.903  66.766  1.00  0.00    -0.335 C  
HETATM   11  H   UNL     1      -5.616  15.428  66.608  1.00  0.00     0.000 HD 
HETATM   12  C   UNL     1      -7.483  13.494  68.392  1.00  0.00    -0.124 C  
HETATM   13  C   UNL     1      -8.934  13.619  67.555  1.00  0.00    -0.209 C  
HETATM   14  C   UNL     1      -9.164  12.597  66.411  1.00  0.00    -0.162 C  
HETATM   15  C   UNL     1      -8.351  11.300  66.454  1.00  0.00    -0.159 C  
HETATM   16  C   UNL     1      -8.922  10.151  67.267  1.00  0.00    -0.144 C  
HETATM   17  C   UNL     1     -10.427  10.091  67.333  1.00  0.00    -0.260 C  
HETATM   18  O   UNL     1     -11.006   9.119  67.822  1.00  0.00    -0.160 OA 
HETATM   19  C   UNL     1     -11.232  11.235  66.843  1.00  0.00    -0.300 C  
HETATM   20  C   UNL     1     -10.666  12.375  66.411  1.00  0.00    -0.277 C  
HETATM   21  C   UNL     1     -11.490  13.593  66.020  1.00  0.00    -0.340 C  
ENDROOT
BRANCH   4  22
HETATM   22  C   UNL     1      -7.433  17.025  66.545  1.00  0.00    -0.327 C  
HETATM   23  C   UNL     1      -7.307  17.883  65.723  1.00  0.00    -0.145 C  
ENDBRANCH   4  22
TORSDOF 1
ENDMDL
MODEL       50
REMARK 921   NORMALIZED FREE ENERGY PREDICTED BY IDOCK:   -4.68 KCAL/MOL
REMARK 922        TOTAL FREE ENERGY PREDICTED BY IDOCK:   -4.97 KCAL/MOL
REMARK 923 INTER-LIGAND FREE ENERGY PREDICTED BY IDOCK:   -4.95 KCAL/MOL
REMARK 924 INTRA-LIGAND FREE ENERGY PREDICTED BY IDOCK:   -0.02 KCAL/MOL
REMARK 927      BINDING AFFINITY PREDICTED BY RF-SCORE:    0.00 PKD
ROOT
HETATM    1  C   UNL     1      -7.849   8.552  66.190  1.00  0.00    -0.098 C  
HETATM    2  C   UNL     1      -8.638   7.402  65.951  1.00  0.00    -0.165 C  
HETATM    3  C   UNL     1      -9.388   8.684  65.867  1.00  0.00    -0.262 C  
HETATM    4  C   UNL     1      -8.234  10.376  65.905  1.00  0.00    -0.150 C  
HETATM    5  C   UNL     1      -8.577   9.663  64.780  1.00  0.00    -0.197 C  
HETATM    6  C   UNL     1      -8.354   9.205  67.879  1.00  0.00    -0.117 C  
HETATM    7  O   UNL     1      -8.552  11.739  65.618  1.00  0.00    -0.390 OA 
HETATM    8  C   UNL     1     -10.264  10.464  64.990  1.00  0.00    -0.334 C  
HETATM    9  C   UNL     1      -8.020   9.686  63.388  1.00  0.00    -0.145 C  
HETATM   10  C   UNL     1      -8.303   8.152  69.017  1.00  0.00    -0.128 C  
HETATM   11  H   UNL     1      -8.017  12.524  65.635  1.00  0.00     0.000 HD 
HETATM   12  C   UNL     1     -10.569  10.848  66.676  1.00  0.00    -0.305 C  
HETATM   13  C   UNL     1      -9.880  10.013  67.960  1.00  0.00    -0.164 C  
HETATM   14  C   UNL     1      -9.919  10.714  69.343  1.00  0.00    -0.183 C  
HETATM   15  C   UNL     1     -10.972  11.807  69.547  1.00  0.00    -0.126 C  
HETATM   16  C   UNL     1     -12.351  11.365  70.003  1.00  0.00    -0.311 C  
HETATM   17  C   UNL     1     -12.380  10.130  70.868  1.00  0.00    -0.363 C  
HETATM   18  O   UNL     1     -13.415   9.770  71.431  1.00  0.00    -0.373 OA 
HETATM   19  C   UNL     1     -11.158   9.305  71.016  1.00  0.00    -0.396 C  
HETATM   20  C   UNL     1     -10.029   9.569  70.334  1.00  0.00    -0.325 C  
HETATM   21  C   UNL     1      -8.814   8.657  70.392  1.00  0.00    -0.170 C  
ENDROOT
BRANCH   4  22
HETATM   22  C   UNL     1      -6.681  10.519  65.865  1.00  0.00    -0.130 C  
HETATM   23  C   UNL     1      -5.501  10.705  65.823  1.00  0.00    -0.121 C  
ENDBRANCH   4  22
TORSDOF 1
ENDMDL
MODEL       51
REMARK 921   NORMALIZED FREE ENERGY PREDICTED BY IDOCK:   -4.63 KCAL/MOL
REMARK 922        TOTAL FREE ENERGY PREDICTED BY IDOCK:   -4.92 KCAL/MOL
REMARK 923 INTER-LIGAND FREE ENERGY PREDICTED BY IDOCK:   -4.96 KCAL/MOL
REMARK 924 INTRA-LIGAND FREE ENERGY PREDICTED BY IDOCK:    0.04 KCAL/MOL
REMARK 927      BINDING AFFINITY PREDICTED BY RF-SCORE:    0.00 PKD
ROOT
HETATM    1  C   UNL     1      -9.118   9.181  70.624  1.00  0.00    -0.307 C  
HETATM    2  C   UNL     1      -7.778   8.964  70.226  1.00  0.00    -0.090 C  
HETATM    3  C   UNL     1      -8.688   7.819  69.953  1.00  0.00    -0.142 C  
HETATM    4  C   UNL     1     -10.680   8.200  70.233  1.00  0.00    -0.235 C  
HETATM    5  C   UNL     1      -9.978   8.410  69.069  1.00  0.00    -0.194 C  
HETATM    6  C   UNL     1      -9.405   8.109  72.142  1.00  0.00    -0.270 C  
HETATM    7  O   UNL     1     -11.843   7.457  69.861  1.00  0.00    -0.497 OA 
HETATM    8  C   UNL     1     -10.070   6.543  68.873  1.00  0.00    -0.183 C  
HETATM    9  C   UNL     1     -10.314   9.205  67.843  1.00  0.00    -0.285 C  
HETATM   10  C   UNL     1      -8.365   8.309  73.275  1.00  0.00    -0.251 C  
HETATM   11  H   UNL     1     -12.768   7.634  69.991  1.00  0.00     0.000 HD 
HETATM   12  C   UNL     1     -10.183   5.755  70.438  1.00  0.00    -0.288 C  
HETATM   13  C   UNL     1      -9.573   6.413  71.858  1.00  0.00    -0.160 C  
HETATM   14  C   UNL     1     -10.101   5.808  73.185  1.00  0.00    -0.200 C  
HETATM   15  C   UNL     1     -10.702   4.400  73.125  1.00  0.00    -0.296 C  
HETATM   16  C   UNL     1      -9.741   3.231  73.257  1.00  0.00    -0.155 C  
HETATM   17  C   UNL     1      -8.524   3.488  74.109  1.00  0.00    -0.085 C  
HETATM   18  O   UNL     1      -7.761   2.573  74.424  1.00  0.00    -0.045 OA 
HETATM   19  C   UNL     1      -8.208   4.869  74.546  1.00  0.00    -0.098 C  
HETATM   20  C   UNL     1      -8.927   5.930  74.139  1.00  0.00    -0.123 C  
HETATM   21  C   UNL     1      -8.536   7.357  74.489  1.00  0.00    -0.234 C  
ENDROOT
BRANCH   4  22
HETATM   22  C   UNL     1     -11.398   9.549  70.549  1.00  0.00    -0.343 C  
HETATM   23  C   UNL     1     -11.954  10.594  70.715  1.00  0.00    -0.477 C  
ENDBRANCH   4  22
TORSDOF 1
ENDMDL
MODEL       52
REMARK 921   NORMALIZED FREE ENERGY PREDICTED BY IDOCK:   -4.62 KCAL/MOL
REMARK 922        TOTAL FREE ENERGY PREDICTED BY IDOCK:   -4.90 KCAL/MOL
REMARK 923 INTER-LIGAND FREE ENERGY PREDICTED BY IDOCK:   -4.88 KCAL/MOL
REMARK 924 INTRA-LIGAND FREE ENERGY PREDICTED BY IDOCK:   -0.02 KCAL/MOL
REMARK 927      BINDING AFFINITY PREDICTED BY RF-SCORE:    0.00 PKD
ROOT
HETATM    1  C   UNL     1      -9.971  14.132  67.442  1.00  0.00    -0.240 C  
HETATM    2  C   UNL     1      -9.205  14.598  66.347  1.00  0.00    -0.280 C  
HETATM    3  C   UNL     1      -9.812  13.256  66.138  1.00  0.00    -0.286 C  
HETATM    4  C   UNL     1     -11.166  12.678  67.562  1.00  0.00    -0.288 C  
HETATM    5  C   UNL     1     -11.452  13.403  66.429  1.00  0.00    -0.359 C  
HETATM    6  C   UNL     1      -8.973  12.756  68.245  1.00  0.00    -0.175 C  
HETATM    7  O   UNL     1     -12.105  11.601  67.587  1.00  0.00    -0.615 OA 
HETATM    8  C   UNL     1     -11.262  11.761  65.533  1.00  0.00    -0.316 C  
HETATM    9  C   UNL     1     -12.658  14.209  66.050  1.00  0.00    -0.407 C  
HETATM   10  C   UNL     1      -7.517  13.146  68.609  1.00  0.00    -0.092 C  
HETATM   11  H   UNL     1     -12.733  11.333  68.248  1.00  0.00     0.000 HD 
HETATM   12  C   UNL     1     -10.165  10.699  66.401  1.00  0.00    -0.291 C  
HETATM   13  C   UNL     1      -8.931  11.249  67.399  1.00  0.00    -0.144 C  
HETATM   14  C   UNL     1      -8.330  10.219  68.390  1.00  0.00    -0.119 C  
HETATM   15  C   UNL     1      -8.519   8.735  68.061  1.00  0.00    -0.126 C  
HETATM   16  C   UNL     1      -7.489   8.092  67.148  1.00  0.00    -0.092 C  
HETATM   17  C   UNL     1      -6.098   8.667  67.236  1.00  0.00    -0.055 C  
HETATM   18  O   UNL     1      -5.147   8.126  66.670  1.00  0.00    -0.026 OA 
HETATM   19  C   UNL     1      -5.867   9.927  67.981  1.00  0.00    -0.039 C  
HETATM   20  C   UNL     1      -6.876  10.635  68.519  1.00  0.00    -0.065 C  
HETATM   21  C   UNL     1      -6.657  11.988  69.180  1.00  0.00    -0.107 C  
ENDROOT
BRANCH   4  22
HETATM   22  C   UNL     1     -11.762  13.492  68.752  1.00  0.00    -0.373 C  
HETATM   23  C   UNL     1     -12.230  14.048  69.701  1.00  0.00    -0.383 C  
ENDBRANCH   4  22
TORSDOF 1
ENDMDL
MODEL       53
REMARK 921   NORMALIZED FREE ENERGY PREDICTED BY IDOCK:   -4.55 KCAL/MOL
REMARK 922        TOTAL FREE ENERGY PREDICTED BY IDOCK:   -4.83 KCAL/MOL
REMARK 923 INTER-LIGAND FREE ENERGY PREDICTED BY IDOCK:   -4.81 KCAL/MOL
REMARK 924 INTRA-LIGAND FREE ENERGY PREDICTED BY IDOCK:   -0.02 KCAL/MOL
REMARK 927      BINDING AFFINITY PREDICTED BY RF-SCORE:    0.00 PKD
ROOT
HETATM    1  C   UNL     1      -8.646   8.338  66.855  1.00  0.00    -0.122 C  
HETATM    2  C   UNL     1      -9.746   8.502  65.980  1.00  0.00    -0.195 C  
HETATM    3  C   UNL     1      -9.702   9.487  67.095  1.00  0.00    -0.221 C  
HETATM    4  C   UNL     1      -7.978   9.478  68.201  1.00  0.00    -0.094 C  
HETATM    5  C   UNL     1      -8.195  10.211  67.058  1.00  0.00    -0.118 C  
HETATM    6  C   UNL     1      -9.339   7.644  68.460  1.00  0.00    -0.147 C  
HETATM    7  O   UNL     1      -7.476  10.400  69.170  1.00  0.00    -0.090 OA 
HETATM    8  C   UNL     1      -9.237  11.316  68.164  1.00  0.00    -0.170 C  
HETATM    9  C   UNL     1      -7.242  10.925  66.147  1.00  0.00    -0.101 C  
HETATM   10  C   UNL     1     -10.209   6.372  68.286  1.00  0.00    -0.197 C  
HETATM   11  H   UNL     1      -6.676  10.396  69.683  1.00  0.00     0.000 HD 
HETATM   12  C   UNL     1      -9.898  10.406  69.513  1.00  0.00    -0.211 C  
HETATM   13  C   UNL     1     -10.203   8.755  69.462  1.00  0.00    -0.208 C  
HETATM   14  C   UNL     1     -10.391   8.043  70.827  1.00  0.00    -0.214 C  
HETATM   15  C   UNL     1     -10.782   8.912  72.025  1.00  0.00    -0.389 C  
HETATM   16  C   UNL     1     -12.263   9.177  72.235  1.00  0.00    -0.348 C  
HETATM   17  C   UNL     1     -13.187   8.077  71.777  1.00  0.00    -0.341 C  
HETATM   18  O   UNL     1     -14.390   8.103  72.041  1.00  0.00    -0.417 OA 
HETATM   19  C   UNL     1     -12.656   6.961  70.958  1.00  0.00    -0.319 C  
HETATM   20  C   UNL     1     -11.381   6.932  70.530  1.00  0.00    -0.374 C  
HETATM   21  C   UNL     1     -10.866   5.851  69.592  1.00  0.00    -0.444 C  
ENDROOT
BRANCH   4  22
HETATM   22  C   UNL     1      -6.650   8.694  67.962  1.00  0.00    -0.058 C  
HETATM   23  C   UNL     1      -5.597   8.145  67.827  1.00  0.00    -0.038 C  
ENDBRANCH   4  22
TORSDOF 1
ENDMDL
MODEL       54
REMARK 921   NORMALIZED FREE ENERGY PREDICTED BY IDOCK:   -4.54 KCAL/MOL
REMARK 922        TOTAL FREE ENERGY PREDICTED BY IDOCK:   -4.82 KCAL/MOL
REMARK 923 INTER-LIGAND FREE ENERGY PREDICTED BY IDOCK:   -4.84 KCAL/MOL
REMARK 924 INTRA-LIGAND FREE ENERGY PREDICTED BY IDOCK:    0.02 KCAL/MOL
REMARK 927      BINDING AFFINITY PREDICTED BY RF-SCORE:    0.00 PKD
ROOT
HETATM    1  C   UNL     1      -9.058  11.337  69.062  1.00  0.00     0.015 C  
HETATM    2  C   UNL     1      -7.732  11.235  68.577  1.00  0.00    -0.131 C  
HETATM    3  C   UNL     1      -8.732  10.471  67.783  1.00  0.00    -0.122 C  
HETATM    4  C   UNL     1     -10.690  10.831  68.264  1.00  0.00    -0.213 C  
HETATM    5  C   UNL     1      -9.944  11.539  67.352  1.00  0.00    -0.209 C  
HETATM    6  C   UNL     1      -9.474   9.674  69.834  1.00  0.00    -0.260 C  
HETATM    7  O   UNL     1     -11.903  10.483  67.595  1.00  0.00    -0.598 OA 
HETATM    8  C   UNL     1     -10.194  10.045  66.239  1.00  0.00    -0.285 C  
HETATM    9  C   UNL     1     -10.179  12.872  66.705  1.00  0.00    -0.243 C  
HETATM   10  C   UNL     1      -8.448   9.180  70.887  1.00  0.00    -0.251 C  
HETATM   11  H   UNL     1     -12.812  10.650  67.818  1.00  0.00     0.000 HD 
HETATM   12  C   UNL     1     -10.413   8.585  67.191  1.00  0.00    -0.370 C  
HETATM   13  C   UNL     1      -9.783   8.377  68.733  1.00  0.00    -0.168 C  
HETATM   14  C   UNL     1     -10.394   7.232  69.583  1.00  0.00    -0.227 C  
HETATM   15  C   UNL     1     -11.113   6.108  68.832  1.00  0.00    -0.417 C  
HETATM   16  C   UNL     1     -10.262   4.954  68.331  1.00  0.00    -0.098 C  
HETATM   17  C   UNL     1      -9.048   4.636  69.167  1.00  0.00    -0.117 C  
HETATM   18  O   UNL     1      -8.376   3.626  68.956  1.00  0.00    -0.067 OA 
HETATM   19  C   UNL     1      -8.623   5.571  70.236  1.00  0.00    -0.126 C  
HETATM   20  C   UNL     1      -9.237   6.750  70.440  1.00  0.00    -0.156 C  
HETATM   21  C   UNL     1      -8.731   7.764  71.455  1.00  0.00    -0.142 C  
ENDROOT
BRANCH   4  22
HETATM   22  C   UNL     1     -11.294  11.890  69.238  1.00  0.00    -0.338 C  
HETATM   23  C   UNL     1     -11.777  12.744  69.921  1.00  0.00    -0.321 C  
ENDBRANCH   4  22
TORSDOF 1
ENDMDL
MODEL       55
REMARK 921   NORMALIZED FREE ENERGY PREDICTED BY IDOCK:   -4.52 KCAL/MOL
REMARK 922        TOTAL FREE ENERGY PREDICTED BY IDOCK:   -4.80 KCAL/MOL
REMARK 923 INTER-LIGAND FREE ENERGY PREDICTED BY IDOCK:   -4.77 KCAL/MOL
REMARK 924 INTRA-LIGAND FREE ENERGY PREDICTED BY IDOCK:   -0.02 KCAL/MOL
REMARK 927      BINDING AFFINITY PREDICTED BY RF-SCORE:    0.00 PKD
ROOT
HETATM    1  C   UNL     1     -11.107  15.239  67.820  1.00  0.00    -0.318 C  
HETATM    2  C   UNL     1     -11.361  15.416  69.201  1.00  0.00    -0.323 C  
HETATM    3  C   UNL     1      -9.963  15.721  68.795  1.00  0.00    -0.214 C  
HETATM    4  C   UNL     1      -9.630  15.771  66.775  1.00  0.00    -0.236 C  
HETATM    5  C   UNL     1     -10.039  16.832  67.548  1.00  0.00    -0.276 C  
HETATM    6  C   UNL     1     -10.046  13.694  67.666  1.00  0.00    -0.242 C  
HETATM    7  O   UNL     1      -8.516  16.245  66.016  1.00  0.00    -0.324 OA 
HETATM    8  C   UNL     1      -8.253  16.880  68.132  1.00  0.00    -0.207 C  
HETATM    9  C   UNL     1     -10.631  18.158  67.173  1.00  0.00    -0.362 C  
HETATM   10  C   UNL     1     -10.630  12.441  68.370  1.00  0.00    -0.251 C  
HETATM   11  H   UNL     1      -8.362  16.269  65.078  1.00  0.00     0.000 HD 
HETATM   12  C   UNL     1      -7.520  15.287  68.034  1.00  0.00    -0.129 C  
HETATM   13  C   UNL     1      -8.391  13.854  68.136  1.00  0.00    -0.163 C  
HETATM   14  C   UNL     1      -7.678  12.573  67.631  1.00  0.00    -0.151 C  
HETATM   15  C   UNL     1      -6.148  12.600  67.566  1.00  0.00    -0.157 C  
HETATM   16  C   UNL     1      -5.393  12.228  68.830  1.00  0.00    -0.054 C  
HETATM   17  C   UNL     1      -6.084  11.232  69.726  1.00  0.00    -0.112 C  
HETATM   18  O   UNL     1      -5.505  10.732  70.691  1.00  0.00    -0.084 OA 
HETATM   19  C   UNL     1      -7.500  10.872  69.474  1.00  0.00    -0.081 C  
HETATM   20  C   UNL     1      -8.230  11.470  68.515  1.00  0.00    -0.148 C  
HETATM   21  C   UNL     1      -9.714  11.189  68.332  1.00  0.00    -0.191 C  
ENDROOT
BRANCH   4  22
HETATM   22  C   UNL     1     -10.651  15.680  65.599  1.00  0.00    -0.393 C  
HETATM   23  C   UNL     1     -11.372  15.604  64.649  1.00  0.00    -0.355 C  
ENDBRANCH   4  22
TORSDOF 1
ENDMDL
MODEL       56
REMARK 921   NORMALIZED FREE ENERGY PREDICTED BY IDOCK:   -4.51 KCAL/MOL
REMARK 922        TOTAL FREE ENERGY PREDICTED BY IDOCK:   -4.79 KCAL/MOL
REMARK 923 INTER-LIGAND FREE ENERGY PREDICTED BY IDOCK:   -4.76 KCAL/MOL
REMARK 924 INTRA-LIGAND FREE ENERGY PREDICTED BY IDOCK:   -0.02 KCAL/MOL
REMARK 927      BINDING AFFINITY PREDICTED BY RF-SCORE:    0.00 PKD
ROOT
HETATM    1  C   UNL     1      -7.997   9.177  68.432  1.00  0.00    -0.103 C  
HETATM    2  C   UNL     1      -7.146   8.059  68.262  1.00  0.00    -0.088 C  
HETATM    3  C   UNL     1      -8.597   7.739  68.181  1.00  0.00    -0.123 C  
HETATM    4  C   UNL     1      -9.848   9.358  68.118  1.00  0.00    -0.160 C  
HETATM    5  C   UNL     1      -9.265   8.751  67.030  1.00  0.00    -0.177 C  
HETATM    6  C   UNL     1      -8.792   8.992  70.125  1.00  0.00    -0.196 C  
HETATM    7  O   UNL     1     -11.240   9.462  67.810  1.00  0.00    -0.492 OA 
HETATM    8  C   UNL     1     -10.551   7.408  67.301  1.00  0.00    -0.393 C  
HETATM    9  C   UNL     1      -9.101   9.210  65.612  1.00  0.00    -0.273 C  
HETATM   10  C   UNL     1      -7.787   8.778  71.286  1.00  0.00    -0.167 C  
HETATM   11  H   UNL     1     -11.821  10.214  67.780  1.00  0.00     0.000 HD 
HETATM   12  C   UNL     1     -11.028   7.329  68.990  1.00  0.00    -0.077 C  
HETATM   13  C   UNL     1     -10.034   7.797  70.260  1.00  0.00    -0.189 C  
HETATM   14  C   UNL     1     -10.726   8.053  71.624  1.00  0.00    -0.284 C  
HETATM   15  C   UNL     1     -12.094   7.401  71.850  1.00  0.00    -0.341 C  
HETATM   16  C   UNL     1     -12.105   5.980  72.386  1.00  0.00    -0.169 C  
HETATM   17  C   UNL     1     -10.949   5.619  73.283  1.00  0.00    -0.272 C  
HETATM   18  O   UNL     1     -10.932   4.557  73.906  1.00  0.00    -0.280 OA 
HETATM   19  C   UNL     1      -9.786   6.533  73.393  1.00  0.00    -0.200 C  
HETATM   20  C   UNL     1      -9.682   7.649  72.650  1.00  0.00    -0.251 C  
HETATM   21  C   UNL     1      -8.439   8.525  72.672  1.00  0.00    -0.169 C  
ENDROOT
BRANCH   4  22
HETATM   22  C   UNL     1      -9.503  10.875  67.997  1.00  0.00    -0.167 C  
HETATM   23  C   UNL     1      -9.314  12.052  67.915  1.00  0.00    -0.190 C  
ENDBRANCH   4  22
TORSDOF 1
ENDMDL
MODEL       57
REMARK 921   NORMALIZED FREE ENERGY PREDICTED BY IDOCK:   -4.48 KCAL/MOL
REMARK 922        TOTAL FREE ENERGY PREDICTED BY IDOCK:   -4.75 KCAL/MOL
REMARK 923 INTER-LIGAND FREE ENERGY PREDICTED BY IDOCK:   -4.74 KCAL/MOL
REMARK 924 INTRA-LIGAND FREE ENERGY PREDICTED BY IDOCK:   -0.01 KCAL/MOL
REMARK 927      BINDING AFFINITY PREDICTED BY RF-SCORE:    0.00 PKD
ROOT
HETATM    1  C   UNL     1      -8.712   8.625  67.109  1.00  0.00    -0.134 C  
HETATM    2  C   UNL     1      -9.714   7.834  66.498  1.00  0.00    -0.265 C  
HETATM    3  C   UNL     1     -10.209   8.696  67.606  1.00  0.00    -0.300 C  
HETATM    4  C   UNL     1      -8.865  10.070  68.312  1.00  0.00    -0.116 C  
HETATM    5  C   UNL     1      -9.736  10.263  67.265  1.00  0.00    -0.199 C  
HETATM    6  C   UNL     1      -8.397   7.875  68.804  1.00  0.00    -0.128 C  
HETATM    7  O   UNL     1      -9.035  11.196  69.176  1.00  0.00    -0.369 OA 
HETATM    8  C   UNL     1     -11.045  10.430  68.603  1.00  0.00    -0.313 C  
HETATM    9  C   UNL     1      -9.774  11.308  66.191  1.00  0.00    -0.251 C  
HETATM   10  C   UNL     1      -8.083   6.356  68.785  1.00  0.00    -0.114 C  
HETATM   11  H   UNL     1      -8.412  11.834  69.503  1.00  0.00     0.000 HD 
HETATM   12  C   UNL     1     -10.596   9.519  70.036  1.00  0.00    -0.280 C  
HETATM   13  C   UNL     1      -9.609   8.160  70.003  1.00  0.00    -0.171 C  
HETATM   14  C   UNL     1      -8.985   7.723  71.354  1.00  0.00    -0.151 C  
HETATM   15  C   UNL     1      -9.673   8.206  72.634  1.00  0.00    -0.360 C  
HETATM   16  C   UNL     1     -10.816   7.361  73.167  1.00  0.00    -0.435 C  
HETATM   17  C   UNL     1     -10.712   5.883  72.887  1.00  0.00    -0.249 C  
HETATM   18  O   UNL     1     -11.488   5.079  73.407  1.00  0.00    -0.323 OA 
HETATM   19  C   UNL     1      -9.688   5.382  71.940  1.00  0.00    -0.204 C  
HETATM   20  C   UNL     1      -8.890   6.212  71.245  1.00  0.00    -0.136 C  
HETATM   21  C   UNL     1      -7.921   5.709  70.186  1.00  0.00    -0.099 C  
ENDROOT
BRANCH   4  22
HETATM   22  C   UNL     1      -7.452  10.446  67.767  1.00  0.00    -0.088 C  
HETATM   23  C   UNL     1      -6.381  10.807  67.378  1.00  0.00    -0.059 C  
ENDBRANCH   4  22
TORSDOF 1
ENDMDL
MODEL       58
REMARK 921   NORMALIZED FREE ENERGY PREDICTED BY IDOCK:   -4.40 KCAL/MOL
REMARK 922        TOTAL FREE ENERGY PREDICTED BY IDOCK:   -4.67 KCAL/MOL
REMARK 923 INTER-LIGAND FREE ENERGY PREDICTED BY IDOCK:   -4.65 KCAL/MOL
REMARK 924 INTRA-LIGAND FREE ENERGY PREDICTED BY IDOCK:   -0.02 KCAL/MOL
REMARK 927      BINDING AFFINITY PREDICTED BY RF-SCORE:    0.00 PKD
ROOT
HETATM    1  C   UNL     1     -10.885   6.573  71.171  1.00  0.00    -0.296 C  
HETATM    2  C   UNL     1     -10.325   5.277  71.264  1.00  0.00    -0.292 C  
HETATM    3  C   UNL     1      -9.320   6.368  71.151  1.00  0.00    -0.166 C  
HETATM    4  C   UNL     1     -10.068   8.267  71.318  1.00  0.00    -0.198 C  
HETATM    5  C   UNL     1      -9.649   7.475  72.360  1.00  0.00    -0.205 C  
HETATM    6  C   UNL     1     -10.632   7.139  69.397  1.00  0.00    -0.246 C  
HETATM    7  O   UNL     1      -9.414   9.526  71.493  1.00  0.00    -0.279 OA 
HETATM    8  C   UNL     1      -7.917   7.902  71.769  1.00  0.00    -0.118 C  
HETATM    9  C   UNL     1      -9.872   7.587  73.839  1.00  0.00    -0.205 C  
HETATM   10  C   UNL     1     -11.151   6.145  68.325  1.00  0.00    -0.336 C  
HETATM   11  H   UNL     1      -9.762  10.407  71.571  1.00  0.00     0.000 HD 
HETATM   12  C   UNL     1      -7.911   8.247  70.047  1.00  0.00    -0.104 C  
HETATM   13  C   UNL     1      -9.024   7.605  68.965  1.00  0.00    -0.137 C  
HETATM   14  C   UNL     1      -9.138   8.310  67.588  1.00  0.00    -0.139 C  
HETATM   15  C   UNL     1      -7.947   9.158  67.133  1.00  0.00    -0.106 C  
HETATM   16  C   UNL     1      -6.826   8.442  66.400  1.00  0.00    -0.070 C  
HETATM   17  C   UNL     1      -7.248   7.248  65.583  1.00  0.00    -0.070 C  
HETATM   18  O   UNL     1      -6.461   6.687  64.819  1.00  0.00    -0.040 OA 
HETATM   19  C   UNL     1      -8.620   6.704  65.725  1.00  0.00    -0.147 C  
HETATM   20  C   UNL     1      -9.491   7.189  66.628  1.00  0.00    -0.219 C  
HETATM   21  C   UNL     1     -10.856   6.558  66.859  1.00  0.00    -0.427 C  
ENDROOT
BRANCH   4  22
HETATM   22  C   UNL     1     -11.509   8.737  71.690  1.00  0.00    -0.386 C  
HETATM   23  C   UNL     1     -12.588   9.170  71.966  1.00  0.00    -0.463 C  
ENDBRANCH   4  22
TORSDOF 1
ENDMDL
MODEL       59
REMARK 921   NORMALIZED FREE ENERGY PREDICTED BY IDOCK:   -4.40 KCAL/MOL
REMARK 922        TOTAL FREE ENERGY PREDICTED BY IDOCK:   -4.67 KCAL/MOL
REMARK 923 INTER-LIGAND FREE ENERGY PREDICTED BY IDOCK:   -4.67 KCAL/MOL
REMARK 924 INTRA-LIGAND FREE ENERGY PREDICTED BY IDOCK:    0.00 KCAL/MOL
REMARK 927      BINDING AFFINITY PREDICTED BY RF-SCORE:    0.00 PKD
ROOT
HETATM    1  C   UNL     1      -9.092  10.158  67.442  1.00  0.00    -0.149 C  
HETATM    2  C   UNL     1      -8.691  10.086  66.087  1.00  0.00    -0.153 C  
HETATM    3  C   UNL     1      -7.788  10.897  66.947  1.00  0.00    -0.135 C  
HETATM    4  C   UNL     1      -8.158  10.782  68.958  1.00  0.00    -0.140 C  
HETATM    5  C   UNL     1      -7.341   9.939  68.241  1.00  0.00    -0.079 C  
HETATM    6  C   UNL     1      -9.733  11.904  67.717  1.00  0.00    -0.189 C  
HETATM    7  O   UNL     1      -7.389  11.212  70.083  1.00  0.00    -0.409 OA 
HETATM    8  C   UNL     1      -6.127  11.374  68.257  1.00  0.00    -0.045 C  
HETATM    9  C   UNL     1      -6.761   8.599  68.583  1.00  0.00    -0.059 C  
HETATM   10  C   UNL     1     -10.822  12.354  66.708  1.00  0.00    -0.283 C  
HETATM   11  H   UNL     1      -7.560  11.158  71.016  1.00  0.00     0.000 HD 
HETATM   12  C   UNL     1      -6.974  12.908  68.370  1.00  0.00    -0.096 C  
HETATM   13  C   UNL     1      -8.540  13.150  67.814  1.00  0.00    -0.188 C  
HETATM   14  C   UNL     1      -9.277  14.408  68.344  1.00  0.00    -0.195 C  
HETATM   15  C   UNL     1      -8.414  15.550  68.888  1.00  0.00    -0.207 C  
HETATM   16  C   UNL     1      -7.904  16.571  67.886  1.00  0.00    -0.162 C  
HETATM   17  C   UNL     1      -8.798  16.812  66.697  1.00  0.00    -0.255 C  
HETATM   18  O   UNL     1      -8.574  17.728  65.905  1.00  0.00    -0.516 OA 
HETATM   19  C   UNL     1      -9.947  15.910  66.443  1.00  0.00    -0.304 C  
HETATM   20  C   UNL     1     -10.179  14.819  67.195  1.00  0.00    -0.245 C  
HETATM   21  C   UNL     1     -11.284  13.827  66.866  1.00  0.00    -0.326 C  
ENDROOT
BRANCH   4  22
HETATM   22  C   UNL     1      -9.150   9.860  69.733  1.00  0.00    -0.249 C  
HETATM   23  C   UNL     1      -9.952   9.218  70.343  1.00  0.00    -0.287 C  
ENDBRANCH   4  22
TORSDOF 1
ENDMDL
MODEL       60
REMARK 921   NORMALIZED FREE ENERGY PREDICTED BY IDOCK:   -4.34 KCAL/MOL
REMARK 922        TOTAL FREE ENERGY PREDICTED BY IDOCK:   -4.61 KCAL/MOL
REMARK 923 INTER-LIGAND FREE ENERGY PREDICTED BY IDOCK:   -4.61 KCAL/MOL
REMARK 924 INTRA-LIGAND FREE ENERGY PREDICTED BY IDOCK:    0.00 KCAL/MOL
REMARK 927      BINDING AFFINITY PREDICTED BY RF-SCORE:    0.00 PKD
ROOT
HETATM    1  C   UNL     1     -11.328  11.339  66.976  1.00  0.00    -0.262 C  
HETATM    2  C   UNL     1     -11.999  11.254  68.219  1.00  0.00    -0.215 C  
HETATM    3  C   UNL     1     -10.891  12.246  68.191  1.00  0.00    -0.258 C  
HETATM    4  C   UNL     1     -10.095  12.617  66.340  1.00  0.00    -0.253 C  
HETATM    5  C   UNL     1     -11.171  13.268  66.897  1.00  0.00    -0.332 C  
HETATM    6  C   UNL     1      -9.642  10.544  67.224  1.00  0.00    -0.188 C  
HETATM    7  O   UNL     1      -9.210  13.641  65.884  1.00  0.00    -0.489 OA 
HETATM    8  C   UNL     1      -9.883  14.151  67.943  1.00  0.00    -0.224 C  
HETATM    9  C   UNL     1     -12.219  14.148  66.284  1.00  0.00    -0.474 C  
HETATM   10  C   UNL     1      -9.688   9.116  67.825  1.00  0.00    -0.188 C  
HETATM   11  H   UNL     1      -8.841  13.813  65.025  1.00  0.00     0.000 HD 
HETATM   12  C   UNL     1      -8.458  13.147  68.159  1.00  0.00    -0.173 C  
HETATM   13  C   UNL     1      -8.486  11.469  68.116  1.00  0.00    -0.154 C  
HETATM   14  C   UNL     1      -7.123  10.757  67.915  1.00  0.00    -0.085 C  
HETATM   15  C   UNL     1      -5.860  11.548  68.269  1.00  0.00    -0.045 C  
HETATM   16  C   UNL     1      -5.395  11.501  69.714  1.00  0.00    -0.068 C  
HETATM   17  C   UNL     1      -5.709  10.225  70.453  1.00  0.00    -0.078 C  
HETATM   18  O   UNL     1      -5.242  10.004  71.572  1.00  0.00    -0.071 OA 
HETATM   19  C   UNL     1      -6.627   9.229  69.849  1.00  0.00    -0.049 C  
HETATM   20  C   UNL     1      -7.266   9.459  68.688  1.00  0.00    -0.074 C  
HETATM   21  C   UNL     1      -8.298   8.493  68.126  1.00  0.00    -0.127 C  
ENDROOT
BRANCH   4  22
HETATM   22  C   UNL     1     -10.572  12.124  64.939  1.00  0.00    -0.332 C  
HETATM   23  C   UNL     1     -10.872  11.703  63.861  1.00  0.00    -0.471 C  
ENDBRANCH   4  22
TORSDOF 1
ENDMDL
MODEL       61
REMARK 921   NORMALIZED FREE ENERGY PREDICTED BY IDOCK:   -4.33 KCAL/MOL
REMARK 922        TOTAL FREE ENERGY PREDICTED BY IDOCK:   -4.60 KCAL/MOL
REMARK 923 INTER-LIGAND FREE ENERGY PREDICTED BY IDOCK:   -4.64 KCAL/MOL
REMARK 924 INTRA-LIGAND FREE ENERGY PREDICTED BY IDOCK:    0.04 KCAL/MOL
REMARK 927      BINDING AFFINITY PREDICTED BY RF-SCORE:    0.00 PKD
ROOT
HETATM    1  C   UNL     1      -9.310   7.813  70.238  1.00  0.00    -0.156 C  
HETATM    2  C   UNL     1     -10.514   8.324  70.778  1.00  0.00    -0.223 C  
HETATM    3  C   UNL     1     -10.649   7.772  69.403  1.00  0.00    -0.211 C  
HETATM    4  C   UNL     1      -9.014   6.755  68.704  1.00  0.00    -0.125 C  
HETATM    5  C   UNL     1     -10.047   6.213  69.433  1.00  0.00    -0.230 C  
HETATM    6  C   UNL     1      -8.759   9.029  68.914  1.00  0.00    -0.136 C  
HETATM    7  O   UNL     1      -8.848   5.907  67.566  1.00  0.00    -0.109 OA 
HETATM    8  C   UNL     1     -11.018   6.328  67.828  1.00  0.00    -0.427 C  
HETATM    9  C   UNL     1     -10.161   4.908  70.164  1.00  0.00    -0.310 C  
HETATM   10  C   UNL     1      -8.666  10.501  69.394  1.00  0.00    -0.093 C  
HETATM   11  H   UNL     1      -8.089   5.435  67.242  1.00  0.00     0.000 HD 
HETATM   12  C   UNL     1     -10.412   7.635  66.823  1.00  0.00    -0.319 C  
HETATM   13  C   UNL     1      -9.649   9.001  67.433  1.00  0.00    -0.195 C  
HETATM   14  C   UNL     1      -8.826   9.844  66.424  1.00  0.00    -0.159 C  
HETATM   15  C   UNL     1      -9.164   9.688  64.938  1.00  0.00    -0.306 C  
HETATM   16  C   UNL     1     -10.278  10.560  64.386  1.00  0.00    -0.337 C  
HETATM   17  C   UNL     1     -10.436  11.904  65.051  1.00  0.00    -0.289 C  
HETATM   18  O   UNL     1     -11.191  12.760  64.588  1.00  0.00    -0.297 OA 
HETATM   19  C   UNL     1      -9.706  12.195  66.308  1.00  0.00    -0.251 C  
HETATM   20  C   UNL     1      -8.961  11.267  66.934  1.00  0.00    -0.163 C  
HETATM   21  C   UNL     1      -8.309  11.525  68.284  1.00  0.00    -0.154 C  
ENDROOT
BRANCH   4  22
HETATM   22  C   UNL     1      -7.705   6.349  69.450  1.00  0.00    -0.101 C  
HETATM   23  C   UNL     1      -6.741   5.976  70.049  1.00  0.00    -0.052 C  
ENDBRANCH   4  22
TORSDOF 1
ENDMDL
MODEL       62
REMARK 921   NORMALIZED FREE ENERGY PREDICTED BY IDOCK:   -4.32 KCAL/MOL
REMARK 922        TOTAL FREE ENERGY PREDICTED BY IDOCK:   -4.59 KCAL/MOL
REMARK 923 INTER-LIGAND FREE ENERGY PREDICTED BY IDOCK:   -4.57 KCAL/MOL
REMARK 924 INTRA-LIGAND FREE ENERGY PREDICTED BY IDOCK:   -0.02 KCAL/MOL
REMARK 927      BINDING AFFINITY PREDICTED BY RF-SCORE:    0.00 PKD
ROOT
HETATM    1  C   UNL     1      -9.742   9.043  70.945  1.00  0.00    -0.329 C  
HETATM    2  C   UNL     1     -10.292   9.931  69.990  1.00  0.00    -0.320 C  
HETATM    3  C   UNL     1     -10.901   8.574  69.981  1.00  0.00    -0.225 C  
HETATM    4  C   UNL     1     -10.352   7.359  71.536  1.00  0.00    -0.200 C  
HETATM    5  C   UNL     1     -11.404   8.245  71.541  1.00  0.00    -0.320 C  
HETATM    6  C   UNL     1      -8.713   7.796  69.986  1.00  0.00    -0.141 C  
HETATM    7  O   UNL     1     -10.885   6.114  71.992  1.00  0.00    -0.227 OA 
HETATM    8  C   UNL     1     -12.270   6.965  70.472  1.00  0.00    -0.253 C  
HETATM    9  C   UNL     1     -12.220   8.803  72.669  1.00  0.00    -0.239 C  
HETATM   10  C   UNL     1      -7.667   8.427  69.030  1.00  0.00    -0.097 C  
HETATM   11  H   UNL     1     -10.630   5.550  72.714  1.00  0.00     0.000 HD 
HETATM   12  C   UNL     1     -11.104   6.022  69.557  1.00  0.00    -0.468 C  
HETATM   13  C   UNL     1      -9.591   6.595  69.107  1.00  0.00    -0.136 C  
HETATM   14  C   UNL     1      -8.547   5.532  68.676  1.00  0.00    -0.103 C  
HETATM   15  C   UNL     1      -9.079   4.172  68.215  1.00  0.00    -0.176 C  
HETATM   16  C   UNL     1      -9.461   4.038  66.751  1.00  0.00    -0.219 C  
HETATM   17  C   UNL     1      -8.668   4.892  65.795  1.00  0.00    -0.131 C  
HETATM   18  O   UNL     1      -8.772   4.751  64.576  1.00  0.00    -0.146 OA 
HETATM   19  C   UNL     1      -7.775   5.953  66.321  1.00  0.00    -0.102 C  
HETATM   20  C   UNL     1      -7.706   6.244  67.632  1.00  0.00    -0.098 C  
HETATM   21  C   UNL     1      -6.883   7.408  68.162  1.00  0.00    -0.063 C  
ENDROOT
BRANCH   4  22
HETATM   22  C   UNL     1      -9.506   7.692  72.804  1.00  0.00    -0.243 C  
HETATM   23  C   UNL     1      -8.842   7.870  73.782  1.00  0.00    -0.332 C  
ENDBRANCH   4  22
TORSDOF 1
ENDMDL
MODEL       63
REMARK 921   NORMALIZED FREE ENERGY PREDICTED BY IDOCK:   -4.32 KCAL/MOL
REMARK 922        TOTAL FREE ENERGY PREDICTED BY IDOCK:   -4.58 KCAL/MOL
REMARK 923 INTER-LIGAND FREE ENERGY PREDICTED BY IDOCK:   -4.60 KCAL/MOL
REMARK 924 INTRA-LIGAND FREE ENERGY PREDICTED BY IDOCK:    0.01 KCAL/MOL
REMARK 927      BINDING AFFINITY PREDICTED BY RF-SCORE:    0.00 PKD
ROOT
HETATM    1  C   UNL     1      -9.886   6.168  71.419  1.00  0.00    -0.200 C  
HETATM    2  C   UNL     1      -8.538   6.137  71.848  1.00  0.00    -0.132 C  
HETATM    3  C   UNL     1      -8.741   6.786  70.525  1.00  0.00    -0.147 C  
HETATM    4  C   UNL     1     -10.693   7.122  70.006  1.00  0.00    -0.248 C  
HETATM    5  C   UNL     1      -9.895   7.978  70.728  1.00  0.00    -0.197 C  
HETATM    6  C   UNL     1     -10.029   4.922  70.018  1.00  0.00    -0.323 C  
HETATM    7  O   UNL     1     -11.268   7.909  68.961  1.00  0.00    -0.410 OA 
HETATM    8  C   UNL     1      -9.091   8.359  69.073  1.00  0.00    -0.147 C  
HETATM    9  C   UNL     1     -10.235   9.172  71.570  1.00  0.00    -0.403 C  
HETATM   10  C   UNL     1      -9.505   3.504  70.364  1.00  0.00    -0.254 C  
HETATM   11  H   UNL     1     -12.174   8.065  68.720  1.00  0.00     0.000 HD 
HETATM   12  C   UNL     1      -9.223   6.987  67.984  1.00  0.00    -0.129 C  
HETATM   13  C   UNL     1      -9.345   5.395  68.503  1.00  0.00    -0.144 C  
HETATM   14  C   UNL     1      -9.857   4.364  67.463  1.00  0.00    -0.180 C  
HETATM   15  C   UNL     1      -9.729   4.737  65.983  1.00  0.00    -0.205 C  
HETATM   16  C   UNL     1      -8.413   4.410  65.297  1.00  0.00    -0.121 C  
HETATM   17  C   UNL     1      -7.693   3.196  65.827  1.00  0.00    -0.084 C  
HETATM   18  O   UNL     1      -6.706   2.738  65.250  1.00  0.00    -0.038 OA 
HETATM   19  C   UNL     1      -8.147   2.560  67.087  1.00  0.00    -0.075 C  
HETATM   20  C   UNL     1      -9.139   3.079  67.832  1.00  0.00    -0.225 C  
HETATM   21  C   UNL     1      -9.527   2.497  69.183  1.00  0.00    -0.143 C  
ENDROOT
BRANCH   4  22
HETATM   22  C   UNL     1     -11.991   6.932  70.851  1.00  0.00    -0.430 C  
HETATM   23  C   UNL     1     -12.996   6.863  71.494  1.00  0.00    -0.362 C  
ENDBRANCH   4  22
TORSDOF 1
ENDMDL
MODEL       64
REMARK 921   NORMALIZED FREE ENERGY PREDICTED BY IDOCK:   -4.30 KCAL/MOL
REMARK 922        TOTAL FREE ENERGY PREDICTED BY IDOCK:   -4.56 KCAL/MOL
REMARK 923 INTER-LIGAND FREE ENERGY PREDICTED BY IDOCK:   -4.56 KCAL/MOL
REMARK 924 INTRA-LIGAND FREE ENERGY PREDICTED BY IDOCK:    0.00 KCAL/MOL
REMARK 927      BINDING AFFINITY PREDICTED BY RF-SCORE:    0.00 PKD
ROOT
HETATM    1  C   UNL     1      -9.034  13.801  67.389  1.00  0.00    -0.224 C  
HETATM    2  C   UNL     1      -8.847  13.706  68.789  1.00  0.00     0.076 C  
HETATM    3  C   UNL     1      -9.769  14.796  68.370  1.00  0.00    -0.214 C  
HETATM    4  C   UNL     1     -10.303  14.778  66.393  1.00  0.00    -0.293 C  
HETATM    5  C   UNL     1     -10.947  14.105  67.405  1.00  0.00    -0.306 C  
HETATM    6  C   UNL     1      -8.120  15.346  66.831  1.00  0.00    -0.259 C  
HETATM    7  O   UNL     1     -11.320  15.490  65.685  1.00  0.00    -0.212 OA 
HETATM    8  C   UNL     1     -11.628  15.795  67.868  1.00  0.00    -0.153 C  
HETATM    9  C   UNL     1     -11.952  12.993  67.369  1.00  0.00    -0.372 C  
HETATM   10  C   UNL     1      -6.637  15.412  67.279  1.00  0.00    -0.049 C  
HETATM   11  H   UNL     1     -11.568  15.481  64.768  1.00  0.00     0.000 HD 
HETATM   12  C   UNL     1     -10.525  17.070  67.375  1.00  0.00    -0.322 C  
HETATM   13  C   UNL     1      -8.867  16.857  67.216  1.00  0.00    -0.206 C  
HETATM   14  C   UNL     1      -8.105  17.931  66.397  1.00  0.00    -0.296 C  
HETATM   15  C   UNL     1      -8.775  19.299  66.240  1.00  0.00    -0.333 C  
HETATM   16  C   UNL     1      -8.535  20.318  67.340  1.00  0.00    -0.405 C  
HETATM   17  C   UNL     1      -7.203  20.215  68.038  1.00  0.00    -0.281 C  
HETATM   18  O   UNL     1      -6.828  21.081  68.829  1.00  0.00     0.145 OA 
HETATM   19  C   UNL     1      -6.339  19.032  67.806  1.00  0.00    -0.219 C  
HETATM   20  C   UNL     1      -6.737  17.993  67.051  1.00  0.00    -0.204 C  
HETATM   21  C   UNL     1      -5.904  16.728  66.908  1.00  0.00    -0.181 C  
ENDROOT
BRANCH   4  22
HETATM   22  C   UNL     1     -10.003  13.711  65.294  1.00  0.00    -0.229 C  
HETATM   23  C   UNL     1      -9.849  12.897  64.433  1.00  0.00    -0.025 C  
ENDBRANCH   4  22
TORSDOF 1
ENDMDL
MODEL       65
REMARK 921   NORMALIZED FREE ENERGY PREDICTED BY IDOCK:   -4.29 KCAL/MOL
REMARK 922        TOTAL FREE ENERGY PREDICTED BY IDOCK:   -4.55 KCAL/MOL
REMARK 923 INTER-LIGAND FREE ENERGY PREDICTED BY IDOCK:   -4.61 KCAL/MOL
REMARK 924 INTRA-LIGAND FREE ENERGY PREDICTED BY IDOCK:    0.06 KCAL/MOL
REMARK 927      BINDING AFFINITY PREDICTED BY RF-SCORE:    0.00 PKD
ROOT
HETATM    1  C   UNL     1      -7.662  10.741  66.912  1.00  0.00    -0.130 C  
HETATM    2  C   UNL     1      -7.110  10.419  68.174  1.00  0.00    -0.082 C  
HETATM    3  C   UNL     1      -8.598  10.435  68.146  1.00  0.00    -0.125 C  
HETATM    4  C   UNL     1      -9.435  10.598  66.284  1.00  0.00    -0.177 C  
HETATM    5  C   UNL     1      -9.082   9.423  66.906  1.00  0.00    -0.160 C  
HETATM    6  C   UNL     1      -8.368  12.477  67.065  1.00  0.00    -0.144 C  
HETATM    7  O   UNL     1     -10.780  10.417  65.837  1.00  0.00    -0.098 OA 
HETATM    8  C   UNL     1     -10.628   9.701  67.939  1.00  0.00    -0.308 C  
HETATM    9  C   UNL     1      -8.906   8.035  66.369  1.00  0.00    -0.183 C  
HETATM   10  C   UNL     1      -7.368  13.531  67.609  1.00  0.00    -0.180 C  
HETATM   11  H   UNL     1     -11.169  10.492  64.973  1.00  0.00     0.000 HD 
HETATM   12  C   UNL     1     -11.000  11.413  68.061  1.00  0.00    -0.290 C  
HETATM   13  C   UNL     1      -9.844  12.627  67.951  1.00  0.00    -0.218 C  
HETATM   14  C   UNL     1     -10.367  14.060  67.671  1.00  0.00    -0.242 C  
HETATM   15  C   UNL     1     -11.832  14.350  68.010  1.00  0.00    -0.361 C  
HETATM   16  C   UNL     1     -12.142  14.778  69.434  1.00  0.00    -0.305 C  
HETATM   17  C   UNL     1     -11.048  15.546  70.130  1.00  0.00    -0.323 C  
HETATM   18  O   UNL     1     -11.242  16.085  71.221  1.00  0.00    -0.345 OA 
HETATM   19  C   UNL     1      -9.699  15.625  69.521  1.00  0.00    -0.287 C  
HETATM   20  C   UNL     1      -9.383  14.960  68.395  1.00  0.00    -0.197 C  
HETATM   21  C   UNL     1      -7.970  14.943  67.832  1.00  0.00    -0.145 C  
ENDROOT
BRANCH   4  22
HETATM   22  C   UNL     1      -8.751  10.561  64.882  1.00  0.00    -0.192 C  
HETATM   23  C   UNL     1      -8.199  10.463  63.827  1.00  0.00    -0.122 C  
ENDBRANCH   4  22
TORSDOF 1
ENDMDL
MODEL       66
REMARK 921   NORMALIZED FREE ENERGY PREDICTED BY IDOCK:   -4.25 KCAL/MOL
REMARK 922        TOTAL FREE ENERGY PREDICTED BY IDOCK:   -4.52 KCAL/MOL
REMARK 923 INTER-LIGAND FREE ENERGY PREDICTED BY IDOCK:   -4.51 KCAL/MOL
REMARK 924 INTRA-LIGAND FREE ENERGY PREDICTED BY IDOCK:   -0.01 KCAL/MOL
REMARK 927      BINDING AFFINITY PREDICTED BY RF-SCORE:    0.00 PKD
ROOT
HETATM    1  C   UNL     1     -11.468   7.300  70.092  1.00  0.00    -0.197 C  
HETATM    2  C   UNL     1     -11.121   6.167  69.317  1.00  0.00    -0.463 C  
HETATM    3  C   UNL     1     -10.025   6.667  70.190  1.00  0.00    -0.190 C  
HETATM    4  C   UNL     1     -10.570   8.105  71.542  1.00  0.00    -0.228 C  
HETATM    5  C   UNL     1     -10.627   6.746  71.748  1.00  0.00    -0.237 C  
HETATM    6  C   UNL     1     -10.556   8.762  69.340  1.00  0.00    -0.218 C  
HETATM    7  O   UNL     1      -9.881   8.644  72.673  1.00  0.00    -0.250 OA 
HETATM    8  C   UNL     1      -8.761   6.865  71.941  1.00  0.00    -0.126 C  
HETATM    9  C   UNL     1     -11.333   5.933  72.791  1.00  0.00    -0.305 C  
HETATM   10  C   UNL     1     -10.780   8.943  67.816  1.00  0.00    -0.204 C  
HETATM   11  H   UNL     1     -10.134   9.311  73.300  1.00  0.00     0.000 HD 
HETATM   12  C   UNL     1      -8.123   8.221  71.025  1.00  0.00    -0.118 C  
HETATM   13  C   UNL     1      -8.857   8.843  69.649  1.00  0.00    -0.142 C  
HETATM   14  C   UNL     1      -8.410  10.260  69.205  1.00  0.00    -0.167 C  
HETATM   15  C   UNL     1      -7.049  10.755  69.703  1.00  0.00    -0.136 C  
HETATM   16  C   UNL     1      -5.830  10.377  68.879  1.00  0.00    -0.040 C  
HETATM   17  C   UNL     1      -6.074  10.225  67.399  1.00  0.00    -0.054 C  
HETATM   18  O   UNL     1      -5.138  10.083  66.610  1.00  0.00    -0.038 OA 
HETATM   19  C   UNL     1      -7.461  10.202  66.878  1.00  0.00    -0.096 C  
HETATM   20  C   UNL     1      -8.531  10.229  67.692  1.00  0.00    -0.118 C  
HETATM   21  C   UNL     1      -9.952  10.086  67.170  1.00  0.00    -0.251 C  
ENDROOT
BRANCH   4  22
HETATM   22  C   UNL     1     -11.989   8.650  71.893  1.00  0.00    -0.424 C  
HETATM   23  C   UNL     1     -13.053   9.074  72.235  1.00  0.00    -0.508 C  
ENDBRANCH   4  22
TORSDOF 1
ENDMDL
MODEL       67
REMARK 921   NORMALIZED FREE ENERGY PREDICTED BY IDOCK:   -4.04 KCAL/MOL
REMARK 922        TOTAL FREE ENERGY PREDICTED BY IDOCK:   -4.29 KCAL/MOL
REMARK 923 INTER-LIGAND FREE ENERGY PREDICTED BY IDOCK:   -4.29 KCAL/MOL
REMARK 924 INTRA-LIGAND FREE ENERGY PREDICTED BY IDOCK:   -0.00 KCAL/MOL
REMARK 927      BINDING AFFINITY PREDICTED BY RF-SCORE:    0.00 PKD
ROOT
HETATM    1  C   UNL     1     -10.474   9.342  71.218  1.00  0.00    -0.408 C  
HETATM    2  C   UNL     1     -11.782   9.767  70.887  1.00  0.00    -0.429 C  
HETATM    3  C   UNL     1     -11.319   8.574  70.128  1.00  0.00    -0.072 C  
HETATM    4  C   UNL     1      -9.564   7.748  70.785  1.00  0.00    -0.165 C  
HETATM    5  C   UNL     1     -10.821   7.436  71.247  1.00  0.00    -0.258 C  
HETATM    6  C   UNL     1      -9.379   9.796  69.759  1.00  0.00    -0.249 C  
HETATM    7  O   UNL     1      -8.938   6.500  70.479  1.00  0.00    -0.150 OA 
HETATM    8  C   UNL     1     -10.997   6.487  69.634  1.00  0.00    -0.394 C  
HETATM    9  C   UNL     1     -11.268   6.705  72.478  1.00  0.00    -0.302 C  
HETATM   10  C   UNL     1      -9.473  11.281  69.324  1.00  0.00     0.176 C  
HETATM   11  H   UNL     1      -8.123   6.117  70.783  1.00  0.00     0.000 HD 
HETATM   12  C   UNL     1      -9.989   7.192  68.380  1.00  0.00    -0.166 C  
HETATM   13  C   UNL     1      -9.538   8.809  68.349  1.00  0.00    -0.157 C  
HETATM   14  C   UNL     1      -8.342   9.178  67.433  1.00  0.00    -0.115 C  
HETATM   15  C   UNL     1      -8.006   8.210  66.294  1.00  0.00    -0.101 C  
HETATM   16  C   UNL     1      -8.751   8.395  64.984  1.00  0.00    -0.092 C  
HETATM   17  C   UNL     1      -9.155   9.812  64.665  1.00  0.00    -0.245 C  
HETATM   18  O   UNL     1      -9.617  10.110  63.562  1.00  0.00    -0.293 OA 
HETATM   19  C   UNL     1      -9.037  10.864  65.702  1.00  0.00    -0.223 C  
HETATM   20  C   UNL     1      -8.657  10.586  66.962  1.00  0.00    -0.127 C  
HETATM   21  C   UNL     1      -8.649  11.641  68.058  1.00  0.00    -0.152 C  
ENDROOT
BRANCH   4  22
HETATM   22  C   UNL     1      -8.716   8.093  72.049  1.00  0.00    -0.221 C  
HETATM   23  C   UNL     1      -8.008   8.376  72.969  1.00  0.00    -0.149 C  
ENDBRANCH   4  22
TORSDOF 1
ENDMDL
MODEL       68
REMARK 921   NORMALIZED FREE ENERGY PREDICTED BY IDOCK:   -4.04 KCAL/MOL
REMARK 922        TOTAL FREE ENERGY PREDICTED BY IDOCK:   -4.29 KCAL/MOL
REMARK 923 INTER-LIGAND FREE ENERGY PREDICTED BY IDOCK:   -4.27 KCAL/MOL
REMARK 924 INTRA-LIGAND FREE ENERGY PREDICTED BY IDOCK:   -0.02 KCAL/MOL
REMARK 927      BINDING AFFINITY PREDICTED BY RF-SCORE:    0.00 PKD
ROOT
HETATM    1  C   UNL     1     -10.835  10.759  66.965  1.00  0.00    -0.311 C  
HETATM    2  C   UNL     1     -11.262  10.853  68.311  1.00  0.00    -0.347 C  
HETATM    3  C   UNL     1      -9.788  10.944  68.132  1.00  0.00    -0.187 C  
HETATM    4  C   UNL     1      -9.152  11.116  66.192  1.00  0.00    -0.201 C  
HETATM    5  C   UNL     1      -9.497  12.158  67.020  1.00  0.00    -0.201 C  
HETATM    6  C   UNL     1     -10.026   9.072  66.777  1.00  0.00    -0.332 C  
HETATM    7  O   UNL     1      -7.876  11.454  65.646  1.00  0.00    -0.361 OA 
HETATM    8  C   UNL     1      -7.835  11.840  67.838  1.00  0.00    -0.135 C  
HETATM    9  C   UNL     1      -9.805  13.596  66.723  1.00  0.00    -0.271 C  
HETATM   10  C   UNL     1     -10.902   7.883  67.250  1.00  0.00    -0.189 C  
HETATM   11  H   UNL     1      -7.581  11.534  64.746  1.00  0.00     0.000 HD 
HETATM   12  C   UNL     1      -7.361  10.158  67.657  1.00  0.00    -0.089 C  
HETATM   13  C   UNL     1      -8.456   8.897  67.478  1.00  0.00    -0.116 C  
HETATM   14  C   UNL     1      -7.890   7.561  66.929  1.00  0.00    -0.111 C  
HETATM   15  C   UNL     1      -6.383   7.325  67.071  1.00  0.00    -0.051 C  
HETATM   16  C   UNL     1      -5.897   6.715  68.374  1.00  0.00    -0.021 C  
HETATM   17  C   UNL     1      -6.865   5.779  69.050  1.00  0.00    -0.062 C  
HETATM   18  O   UNL     1      -6.525   5.100  70.020  1.00  0.00    -0.032 OA 
HETATM   19  C   UNL     1      -8.267   5.697  68.574  1.00  0.00    -0.106 C  
HETATM   20  C   UNL     1      -8.739   6.497  67.601  1.00  0.00    -0.114 C  
HETATM   21  C   UNL     1     -10.204   6.499  67.192  1.00  0.00    -0.257 C  
ENDROOT
BRANCH   4  22
HETATM   22  C   UNL     1      -9.987  11.311  64.888  1.00  0.00    -0.323 C  
HETATM   23  C   UNL     1     -10.558  11.465  63.850  1.00  0.00    -0.452 C  
ENDBRANCH   4  22
TORSDOF 1
ENDMDL
MODEL       69
REMARK 921   NORMALIZED FREE ENERGY PREDICTED BY IDOCK:   -4.02 KCAL/MOL
REMARK 922        TOTAL FREE ENERGY PREDICTED BY IDOCK:   -4.27 KCAL/MOL
REMARK 923 INTER-LIGAND FREE ENERGY PREDICTED BY IDOCK:   -4.28 KCAL/MOL
REMARK 924 INTRA-LIGAND FREE ENERGY PREDICTED BY IDOCK:    0.01 KCAL/MOL
REMARK 927      BINDING AFFINITY PREDICTED BY RF-SCORE:    0.00 PKD
ROOT
HETATM    1  C   UNL     1     -10.949   7.267  71.472  1.00  0.00    -0.259 C  
HETATM    2  C   UNL     1     -12.186   6.922  70.877  1.00  0.00    -0.404 C  
HETATM    3  C   UNL     1     -11.116   5.904  70.692  1.00  0.00    -0.335 C  
HETATM    4  C   UNL     1      -9.412   6.219  71.784  1.00  0.00    -0.150 C  
HETATM    5  C   UNL     1     -10.522   5.527  72.209  1.00  0.00    -0.266 C  
HETATM    6  C   UNL     1      -9.780   7.697  70.063  1.00  0.00    -0.172 C  
HETATM    7  O   UNL     1      -8.294   5.370  72.051  1.00  0.00    -0.119 OA 
HETATM    8  C   UNL     1      -9.891   4.158  71.086  1.00  0.00    -0.244 C  
HETATM    9  C   UNL     1     -10.951   5.092  73.578  1.00  0.00    -0.370 C  
HETATM   10  C   UNL     1     -10.329   8.759  69.075  1.00  0.00    -0.227 C  
HETATM   11  H   UNL     1      -7.503   5.516  72.558  1.00  0.00     0.000 HD 
HETATM   12  C   UNL     1      -8.951   4.821  69.759  1.00  0.00    -0.139 C  
HETATM   13  C   UNL     1      -9.173   6.366  69.142  1.00  0.00    -0.133 C  
HETATM   14  C   UNL     1      -8.022   6.938  68.273  1.00  0.00    -0.119 C  
HETATM   15  C   UNL     1      -7.054   5.934  67.641  1.00  0.00    -0.074 C  
HETATM   16  C   UNL     1      -7.447   5.344  66.298  1.00  0.00    -0.087 C  
HETATM   17  C   UNL     1      -8.272   6.243  65.414  1.00  0.00    -0.142 C  
HETATM   18  O   UNL     1      -8.512   5.942  64.244  1.00  0.00    -0.083 OA 
HETATM   19  C   UNL     1      -8.845   7.495  65.964  1.00  0.00    -0.179 C  
HETATM   20  C   UNL     1      -8.727   7.825  67.263  1.00  0.00    -0.128 C  
HETATM   21  C   UNL     1      -9.413   9.046  67.856  1.00  0.00    -0.159 C  
ENDROOT
BRANCH   4  22
HETATM   22  C   UNL     1      -9.123   7.284  72.888  1.00  0.00    -0.176 C  
HETATM   23  C   UNL     1      -8.884   8.040  73.781  1.00  0.00    -0.313 C  
ENDBRANCH   4  22
TORSDOF 1
ENDMDL
MODEL       70
REMARK 921   NORMALIZED FREE ENERGY PREDICTED BY IDOCK:   -3.84 KCAL/MOL
REMARK 922        TOTAL FREE ENERGY PREDICTED BY IDOCK:   -4.08 KCAL/MOL
REMARK 923 INTER-LIGAND FREE ENERGY PREDICTED BY IDOCK:   -4.06 KCAL/MOL
REMARK 924 INTRA-LIGAND FREE ENERGY PREDICTED BY IDOCK:   -0.02 KCAL/MOL
REMARK 927      BINDING AFFINITY PREDICTED BY RF-SCORE:    0.00 PKD
ROOT
HETATM    1  C   UNL     1      -8.621   9.866  69.587  1.00  0.00    -0.207 C  
HETATM    2  C   UNL     1      -7.392   9.985  70.278  1.00  0.00    -0.152 C  
HETATM    3  C   UNL     1      -7.505   8.758  69.443  1.00  0.00    -0.080 C  
HETATM    4  C   UNL     1      -9.131   8.696  68.199  1.00  0.00    -0.141 C  
HETATM    5  C   UNL     1      -7.908   9.247  67.895  1.00  0.00    -0.092 C  
HETATM    6  C   UNL     1      -9.585   8.497  70.443  1.00  0.00    -0.189 C  
HETATM    7  O   UNL     1      -9.450   7.827  67.110  1.00  0.00    -0.141 OA 
HETATM    8  C   UNL     1      -7.338   7.466  67.710  1.00  0.00    -0.092 C  
HETATM    9  C   UNL     1      -7.488  10.176  66.796  1.00  0.00    -0.104 C  
HETATM   10  C   UNL     1      -9.733   8.678  71.976  1.00  0.00    -0.391 C  
HETATM   11  H   UNL     1     -10.205   7.798  66.533  1.00  0.00     0.000 HD 
HETATM   12  C   UNL     1      -8.294   6.394  68.722  1.00  0.00    -0.121 C  
HETATM   13  C   UNL     1      -9.050   6.882  70.139  1.00  0.00    -0.152 C  
HETATM   14  C   UNL     1     -10.166   5.953  70.685  1.00  0.00    -0.268 C  
HETATM   15  C   UNL     1     -10.152   4.493  70.224  1.00  0.00    -0.230 C  
HETATM   16  C   UNL     1      -9.293   3.523  71.018  1.00  0.00    -0.213 C  
HETATM   17  C   UNL     1      -9.143   3.845  72.483  1.00  0.00    -0.109 C  
HETATM   18  O   UNL     1      -8.610   3.050  73.259  1.00  0.00    -0.079 OA 
HETATM   19  C   UNL     1      -9.602   5.156  73.001  1.00  0.00    -0.158 C  
HETATM   20  C   UNL     1     -10.080   6.117  72.191  1.00  0.00    -0.207 C  
HETATM   21  C   UNL     1     -10.440   7.504  72.703  1.00  0.00    -0.322 C  
ENDROOT
BRANCH   4  22
HETATM   22  C   UNL     1     -10.187   9.802  67.890  1.00  0.00    -0.237 C  
HETATM   23  C   UNL     1     -11.033  10.597  67.608  1.00  0.00    -0.370 C  
ENDBRANCH   4  22
TORSDOF 1
ENDMDL
MODEL       71
REMARK 921   NORMALIZED FREE ENERGY PREDICTED BY IDOCK:   -3.82 KCAL/MOL
REMARK 922        TOTAL FREE ENERGY PREDICTED BY IDOCK:   -4.06 KCAL/MOL
REMARK 923 INTER-LIGAND FREE ENERGY PREDICTED BY IDOCK:   -4.05 KCAL/MOL
REMARK 924 INTRA-LIGAND FREE ENERGY PREDICTED BY IDOCK:   -0.02 KCAL/MOL
REMARK 927      BINDING AFFINITY PREDICTED BY RF-SCORE:    0.00 PKD
ROOT
HETATM    1  C   UNL     1      -6.845   9.714  68.132  1.00  0.00    -0.069 C  
HETATM    2  C   UNL     1      -6.079  10.579  68.950  1.00  0.00    -0.040 C  
HETATM    3  C   UNL     1      -7.142   9.836  69.678  1.00  0.00    -0.083 C  
HETATM    4  C   UNL     1      -8.070   8.360  68.604  1.00  0.00    -0.122 C  
HETATM    5  C   UNL     1      -6.925   8.211  69.351  1.00  0.00    -0.051 C  
HETATM    6  C   UNL     1      -8.538  10.512  67.950  1.00  0.00    -0.123 C  
HETATM    7  O   UNL     1      -8.945   7.306  69.012  1.00  0.00    -0.135 OA 
HETATM    8  C   UNL     1      -8.085   8.258  70.830  1.00  0.00    -0.109 C  
HETATM    9  C   UNL     1      -5.895   7.122  69.374  1.00  0.00    -0.026 C  
HETATM   10  C   UNL     1      -8.505  11.984  67.461  1.00  0.00    -0.165 C  
HETATM   11  H   UNL     1      -9.375   6.621  68.513  1.00  0.00     0.000 HD 
HETATM   12  C   UNL     1      -9.529   9.187  70.463  1.00  0.00    -0.291 C  
HETATM   13  C   UNL     1      -9.576  10.425  69.329  1.00  0.00    -0.226 C  
HETATM   14  C   UNL     1     -10.981  10.859  68.834  1.00  0.00    -0.278 C  
HETATM   15  C   UNL     1     -12.176  10.522  69.731  1.00  0.00    -0.252 C  
HETATM   16  C   UNL     1     -12.522  11.516  70.826  1.00  0.00    -0.444 C  
HETATM   17  C   UNL     1     -12.204  12.956  70.516  1.00  0.00    -0.314 C  
HETATM   18  O   UNL     1     -12.586  13.867  71.253  1.00  0.00    -0.340 OA 
HETATM   19  C   UNL     1     -11.382  13.291  69.329  1.00  0.00    -0.311 C  
HETATM   20  C   UNL     1     -10.830  12.343  68.551  1.00  0.00    -0.270 C  
HETATM   21  C   UNL     1      -9.890  12.681  67.404  1.00  0.00    -0.205 C  
ENDROOT
BRANCH   4  22
HETATM   22  C   UNL     1      -7.731   7.802  67.186  1.00  0.00    -0.105 C  
HETATM   23  C   UNL     1      -7.548   7.368  66.088  1.00  0.00    -0.088 C  
ENDBRANCH   4  22
TORSDOF 1
ENDMDL
MODEL       72
REMARK 921   NORMALIZED FREE ENERGY PREDICTED BY IDOCK:   -3.78 KCAL/MOL
REMARK 922        TOTAL FREE ENERGY PREDICTED BY IDOCK:   -4.02 KCAL/MOL
REMARK 923 INTER-LIGAND FREE ENERGY PREDICTED BY IDOCK:   -4.07 KCAL/MOL
REMARK 924 INTRA-LIGAND FREE ENERGY PREDICTED BY IDOCK:    0.06 KCAL/MOL
REMARK 927      BINDING AFFINITY PREDICTED BY RF-SCORE:    0.00 PKD
ROOT
HETATM    1  C   UNL     1      -9.154   7.877  68.536  1.00  0.00    -0.132 C  
HETATM    2  C   UNL     1     -10.242   7.309  67.832  1.00  0.00    -0.237 C  
HETATM    3  C   UNL     1     -10.592   7.817  69.185  1.00  0.00    -0.193 C  
HETATM    4  C   UNL     1      -9.130   8.912  70.113  1.00  0.00    -0.176 C  
HETATM    5  C   UNL     1     -10.089   9.410  69.262  1.00  0.00    -0.200 C  
HETATM    6  C   UNL     1      -8.709   6.663  69.901  1.00  0.00    -0.141 C  
HETATM    7  O   UNL     1      -9.169   9.740  71.277  1.00  0.00    -0.274 OA 
HETATM    8  C   UNL     1     -11.255   9.198  70.721  1.00  0.00    -0.336 C  
HETATM    9  C   UNL     1     -10.187  10.723  68.544  1.00  0.00    -0.192 C  
HETATM   10  C   UNL     1      -8.462   5.211  69.413  1.00  0.00    -0.090 C  
HETATM   11  H   UNL     1      -8.491  10.248  71.707  1.00  0.00     0.000 HD 
HETATM   12  C   UNL     1     -10.708   7.904  71.776  1.00  0.00    -0.281 C  
HETATM   13  C   UNL     1      -9.787   6.602  71.251  1.00  0.00    -0.190 C  
HETATM   14  C   UNL     1      -9.054   5.784  72.346  1.00  0.00    -0.142 C  
HETATM   15  C   UNL     1      -9.595   5.883  73.776  1.00  0.00    -0.147 C  
HETATM   16  C   UNL     1     -10.716   4.933  74.160  1.00  0.00    -0.318 C  
HETATM   17  C   UNL     1     -10.700   3.599  73.457  1.00  0.00    -0.217 C  
HETATM   18  O   UNL     1     -11.456   2.688  73.801  1.00  0.00    -0.209 OA 
HETATM   19  C   UNL     1      -9.794   3.382  72.304  1.00  0.00    -0.231 C  
HETATM   20  C   UNL     1      -9.032   4.369  71.799  1.00  0.00    -0.157 C  
HETATM   21  C   UNL     1      -8.192   4.183  70.544  1.00  0.00    -0.071 C  
ENDROOT
BRANCH   4  22
HETATM   22  C   UNL     1      -7.762   9.413  69.555  1.00  0.00    -0.089 C  
HETATM   23  C   UNL     1      -6.701   9.725  69.101  1.00  0.00    -0.053 C  
ENDBRANCH   4  22
TORSDOF 1
ENDMDL
MODEL       73
REMARK 921   NORMALIZED FREE ENERGY PREDICTED BY IDOCK:   -3.77 KCAL/MOL
REMARK 922        TOTAL FREE ENERGY PREDICTED BY IDOCK:   -4.01 KCAL/MOL
REMARK 923 INTER-LIGAND FREE ENERGY PREDICTED BY IDOCK:   -4.07 KCAL/MOL
REMARK 924 INTRA-LIGAND FREE ENERGY PREDICTED BY IDOCK:    0.07 KCAL/MOL
REMARK 927      BINDING AFFINITY PREDICTED BY RF-SCORE:    0.00 PKD
ROOT
HETATM    1  C   UNL     1      -8.922  10.411  68.946  1.00  0.00    -0.170 C  
HETATM    2  C   UNL     1      -7.806  10.250  69.801  1.00  0.00    -0.151 C  
HETATM    3  C   UNL     1      -7.761   9.407  68.576  1.00  0.00    -0.085 C  
HETATM    4  C   UNL     1      -9.193   9.825  67.173  1.00  0.00    -0.138 C  
HETATM    5  C   UNL     1      -7.958  10.424  67.265  1.00  0.00    -0.110 C  
HETATM    6  C   UNL     1      -9.950   8.845  69.109  1.00  0.00    -0.192 C  
HETATM    7  O   UNL     1      -9.328   9.410  65.812  1.00  0.00    -0.202 OA 
HETATM    8  C   UNL     1      -7.309   8.817  66.539  1.00  0.00    -0.081 C  
HETATM    9  C   UNL     1      -7.420  11.678  66.642  1.00  0.00    -0.037 C  
HETATM   10  C   UNL     1     -10.317   8.468  70.568  1.00  0.00    -0.226 C  
HETATM   11  H   UNL     1      -9.992   9.605  65.161  1.00  0.00     0.000 HD 
HETATM   12  C   UNL     1      -8.362   7.473  66.953  1.00  0.00    -0.125 C  
HETATM   13  C   UNL     1      -9.325   7.436  68.328  1.00  0.00    -0.140 C  
HETATM   14  C   UNL     1     -10.475   6.395  68.341  1.00  0.00    -0.266 C  
HETATM   15  C   UNL     1     -10.348   5.197  67.396  1.00  0.00    -0.209 C  
HETATM   16  C   UNL     1      -9.578   3.991  67.905  1.00  0.00    -0.199 C  
HETATM   17  C   UNL     1      -9.644   3.763  69.393  1.00  0.00    -0.149 C  
HETATM   18  O   UNL     1      -9.200   2.733  69.902  1.00  0.00    -0.116 OA 
HETATM   19  C   UNL     1     -10.215   4.810  70.275  1.00  0.00    -0.262 C  
HETATM   20  C   UNL     1     -10.606   6.007  69.803  1.00  0.00    -0.356 C  
HETATM   21  C   UNL     1     -11.080   7.125  70.719  1.00  0.00    -0.296 C  
ENDROOT
BRANCH   4  22
HETATM   22  C   UNL     1     -10.231  10.989  67.132  1.00  0.00    -0.243 C  
HETATM   23  C   UNL     1     -11.030  11.877  67.179  1.00  0.00    -0.319 C  
ENDBRANCH   4  22
TORSDOF 1
ENDMDL
MODEL       74
REMARK 921   NORMALIZED FREE ENERGY PREDICTED BY IDOCK:   -3.74 KCAL/MOL
REMARK 922        TOTAL FREE ENERGY PREDICTED BY IDOCK:   -3.98 KCAL/MOL
REMARK 923 INTER-LIGAND FREE ENERGY PREDICTED BY IDOCK:   -3.95 KCAL/MOL
REMARK 924 INTRA-LIGAND FREE ENERGY PREDICTED BY IDOCK:   -0.02 KCAL/MOL
REMARK 927      BINDING AFFINITY PREDICTED BY RF-SCORE:    0.00 PKD
ROOT
HETATM    1  C   UNL     1     -10.351   7.010  66.995  1.00  0.00    -0.360 C  
HETATM    2  C   UNL     1     -10.555   8.405  67.116  1.00  0.00    -0.326 C  
HETATM    3  C   UNL     1      -9.207   7.946  67.548  1.00  0.00    -0.152 C  
HETATM    4  C   UNL     1      -8.765   5.995  67.109  1.00  0.00    -0.109 C  
HETATM    5  C   UNL     1      -8.550   7.073  66.283  1.00  0.00    -0.142 C  
HETATM    6  C   UNL     1     -10.351   6.316  68.742  1.00  0.00    -0.245 C  
HETATM    7  O   UNL     1      -7.530   5.278  67.148  1.00  0.00    -0.082 OA 
HETATM    8  C   UNL     1      -7.101   7.444  67.420  1.00  0.00    -0.085 C  
HETATM    9  C   UNL     1      -8.255   7.149  64.815  1.00  0.00    -0.052 C  
HETATM   10  C   UNL     1     -11.591   6.705  69.587  1.00  0.00    -0.305 C  
HETATM   11  H   UNL     1      -7.325   4.372  66.944  1.00  0.00     0.000 HD 
HETATM   12  C   UNL     1      -7.401   6.827  69.037  1.00  0.00    -0.094 C  
HETATM   13  C   UNL     1      -8.936   6.623  69.686  1.00  0.00    -0.142 C  
HETATM   14  C   UNL     1      -9.046   5.707  70.932  1.00  0.00    -0.160 C  
HETATM   15  C   UNL     1      -7.773   5.481  71.752  1.00  0.00    -0.107 C  
HETATM   16  C   UNL     1      -7.454   6.501  72.832  1.00  0.00    -0.093 C  
HETATM   17  C   UNL     1      -8.650   7.156  73.475  1.00  0.00    -0.139 C  
HETATM   18  O   UNL     1      -8.527   7.873  74.469  1.00  0.00    -0.215 OA 
HETATM   19  C   UNL     1      -9.997   6.974  72.884  1.00  0.00    -0.215 C  
HETATM   20  C   UNL     1     -10.188   6.306  71.732  1.00  0.00    -0.224 C  
HETATM   21  C   UNL     1     -11.551   6.220  71.061  1.00  0.00    -0.337 C  
ENDROOT
BRANCH   4  22
HETATM   22  C   UNL     1      -9.572   4.961  66.264  1.00  0.00    -0.180 C  
HETATM   23  C   UNL     1     -10.137   4.116  65.636  1.00  0.00    -0.189 C  
ENDBRANCH   4  22
TORSDOF 1
ENDMDL
MODEL       75
REMARK 921   NORMALIZED FREE ENERGY PREDICTED BY IDOCK:   -3.74 KCAL/MOL
REMARK 922        TOTAL FREE ENERGY PREDICTED BY IDOCK:   -3.97 KCAL/MOL
REMARK 923 INTER-LIGAND FREE ENERGY PREDICTED BY IDOCK:   -4.05 KCAL/MOL
REMARK 924 INTRA-LIGAND FREE ENERGY PREDICTED BY IDOCK:    0.08 KCAL/MOL
REMARK 927      BINDING AFFINITY PREDICTED BY RF-SCORE:    0.00 PKD
ROOT
HETATM    1  C   UNL     1     -10.821  15.627  66.290  1.00  0.00    -0.262 C  
HETATM    2  C   UNL     1     -12.188  15.294  66.437  1.00  0.00     0.597 C  
HETATM    3  C   UNL     1     -11.310  14.748  67.506  1.00  0.00    -0.355 C  
HETATM    4  C   UNL     1      -9.387  15.451  67.502  1.00  0.00    -0.203 C  
HETATM    5  C   UNL     1     -10.453  16.032  68.148  1.00  0.00    -0.269 C  
HETATM    6  C   UNL     1      -9.940  14.051  65.766  1.00  0.00    -0.319 C  
HETATM    7  O   UNL     1      -8.345  15.351  68.475  1.00  0.00    -0.139 OA 
HETATM    8  C   UNL     1     -10.244  14.638  69.392  1.00  0.00    -0.099 C  
HETATM    9  C   UNL     1     -10.625  17.401  68.736  1.00  0.00    -0.283 C  
HETATM   10  C   UNL     1     -10.560  13.350  64.529  1.00  0.00    -0.441 C  
HETATM   11  H   UNL     1      -7.452  15.677  68.473  1.00  0.00     0.000 HD 
HETATM   12  C   UNL     1      -9.539  13.221  68.630  1.00  0.00    -0.053 C  
HETATM   13  C   UNL     1      -9.705  12.862  66.998  1.00  0.00    -0.230 C  
HETATM   14  C   UNL     1      -8.709  11.829  66.411  1.00  0.00    -0.147 C  
HETATM   15  C   UNL     1      -8.024  10.876  67.395  1.00  0.00    -0.113 C  
HETATM   16  C   UNL     1      -8.763   9.597  67.749  1.00  0.00    -0.122 C  
HETATM   17  C   UNL     1      -9.648   9.040  66.663  1.00  0.00    -0.213 C  
HETATM   18  O   UNL     1     -10.167   7.928  66.771  1.00  0.00    -0.277 OA 
HETATM   19  C   UNL     1      -9.938   9.853  65.459  1.00  0.00    -0.363 C  
HETATM   20  C   UNL     1      -9.506  11.120  65.330  1.00  0.00    -0.257 C  
HETATM   21  C   UNL     1      -9.901  11.997  64.151  1.00  0.00    -0.210 C  
ENDROOT
BRANCH   4  22
HETATM   22  C   UNL     1      -8.745  16.580  66.636  1.00  0.00    -0.286 C  
HETATM   23  C   UNL     1      -8.318  17.444  65.930  1.00  0.00    -0.006 C  
ENDBRANCH   4  22
TORSDOF 1
ENDMDL
MODEL       76
REMARK 921   NORMALIZED FREE ENERGY PREDICTED BY IDOCK:   -3.69 KCAL/MOL
REMARK 922        TOTAL FREE ENERGY PREDICTED BY IDOCK:   -3.92 KCAL/MOL
REMARK 923 INTER-LIGAND FREE ENERGY PREDICTED BY IDOCK:   -3.89 KCAL/MOL
REMARK 924 INTRA-LIGAND FREE ENERGY PREDICTED BY IDOCK:   -0.02 KCAL/MOL
REMARK 927      BINDING AFFINITY PREDICTED BY RF-SCORE:    0.00 PKD
ROOT
HETATM    1  C   UNL     1     -10.721   6.347  71.057  1.00  0.00    -0.301 C  
HETATM    2  C   UNL     1     -11.207   5.908  69.802  1.00  0.00    -0.331 C  
HETATM    3  C   UNL     1      -9.723   5.960  69.896  1.00  0.00    -0.208 C  
HETATM    4  C   UNL     1      -8.977   6.296  71.774  1.00  0.00    -0.140 C  
HETATM    5  C   UNL     1      -9.279   5.066  71.238  1.00  0.00    -0.186 C  
HETATM    6  C   UNL     1     -10.041   8.079  70.790  1.00  0.00    -0.207 C  
HETATM    7  O   UNL     1      -7.651   6.182  72.295  1.00  0.00    -0.094 OA 
HETATM    8  C   UNL     1      -7.692   5.291  70.256  1.00  0.00    -0.072 C  
HETATM    9  C   UNL     1      -9.455   3.723  71.882  1.00  0.00    -0.207 C  
HETATM   10  C   UNL     1     -11.033   9.062  70.115  1.00  0.00    -0.256 C  
HETATM   11  H   UNL     1      -7.305   6.338  73.166  1.00  0.00     0.000 HD 
HETATM   12  C   UNL     1      -7.346   6.995  70.007  1.00  0.00    -0.081 C  
HETATM   13  C   UNL     1      -8.528   8.187  69.962  1.00  0.00    -0.128 C  
HETATM   14  C   UNL     1      -8.044   9.650  70.144  1.00  0.00    -0.205 C  
HETATM   15  C   UNL     1      -6.570   9.944  69.848  1.00  0.00    -0.080 C  
HETATM   16  C   UNL     1      -6.202  10.258  68.409  1.00  0.00    -0.047 C  
HETATM   17  C   UNL     1      -7.276  10.941  67.601  1.00  0.00    -0.093 C  
HETATM   18  O   UNL     1      -7.041  11.391  66.479  1.00  0.00    -0.128 OA 
HETATM   19  C   UNL     1      -8.653  11.040  68.141  1.00  0.00    -0.140 C  
HETATM   20  C   UNL     1      -9.009  10.465  69.303  1.00  0.00    -0.176 C  
HETATM   21  C   UNL     1     -10.447  10.464  69.800  1.00  0.00    -0.284 C  
ENDROOT
BRANCH   4  22
HETATM   22  C   UNL     1      -9.725   6.361  73.142  1.00  0.00    -0.169 C  
HETATM   23  C   UNL     1     -10.234   6.442  74.220  1.00  0.00    -0.362 C  
ENDBRANCH   4  22
TORSDOF 1
ENDMDL
MODEL       77
REMARK 921   NORMALIZED FREE ENERGY PREDICTED BY IDOCK:   -3.69 KCAL/MOL
REMARK 922        TOTAL FREE ENERGY PREDICTED BY IDOCK:   -3.92 KCAL/MOL
REMARK 923 INTER-LIGAND FREE ENERGY PREDICTED BY IDOCK:   -3.92 KCAL/MOL
REMARK 924 INTRA-LIGAND FREE ENERGY PREDICTED BY IDOCK:    0.00 KCAL/MOL
REMARK 927      BINDING AFFINITY PREDICTED BY RF-SCORE:    0.00 PKD
ROOT
HETATM    1  C   UNL     1     -10.677  12.267  66.518  1.00  0.00    -0.279 C  
HETATM    2  C   UNL     1     -11.248  11.258  67.330  1.00  0.00    -0.364 C  
HETATM    3  C   UNL     1      -9.820  11.547  67.631  1.00  0.00    -0.192 C  
HETATM    4  C   UNL     1      -9.045  13.195  66.695  1.00  0.00    -0.173 C  
HETATM    5  C   UNL     1      -9.693  13.191  67.908  1.00  0.00    -0.221 C  
HETATM    6  C   UNL     1      -9.500  11.400  65.336  1.00  0.00    -0.240 C  
HETATM    7  O   UNL     1      -7.826  13.911  66.904  1.00  0.00    -0.362 OA 
HETATM    8  C   UNL     1      -8.093  12.462  68.572  1.00  0.00    -0.096 C  
HETATM    9  C   UNL     1     -10.279  14.307  68.719  1.00  0.00    -0.226 C  
HETATM   10  C   UNL     1     -10.136  10.229  64.541  1.00  0.00    -0.286 C  
HETATM   11  H   UNL     1      -7.466  14.676  66.470  1.00  0.00     0.000 HD 
HETATM   12  C   UNL     1      -7.244  11.571  67.319  1.00  0.00    -0.132 C  
HETATM   13  C   UNL     1      -8.009  10.846  66.011  1.00  0.00    -0.132 C  
HETATM   14  C   UNL     1      -7.110  10.463  64.807  1.00  0.00    -0.033 C  
HETATM   15  C   UNL     1      -5.611  10.300  65.074  1.00  0.00    -0.126 C  
HETATM   16  C   UNL     1      -5.136   8.938  65.549  1.00  0.00    -0.037 C  
HETATM   17  C   UNL     1      -5.937   7.763  65.048  1.00  0.00    -0.038 C  
HETATM   18  O   UNL     1      -5.555   6.606  65.229  1.00  0.00    -0.028 OA 
HETATM   19  C   UNL     1      -7.230   7.992  64.360  1.00  0.00    -0.085 C  
HETATM   20  C   UNL     1      -7.767   9.219  64.236  1.00  0.00    -0.119 C  
HETATM   21  C   UNL     1      -9.147   9.445  63.638  1.00  0.00    -0.062 C  
ENDROOT
BRANCH   4  22
HETATM   22  C   UNL     1      -9.765  14.275  65.829  1.00  0.00    -0.264 C  
HETATM   23  C   UNL     1     -10.286  15.156  65.212  1.00  0.00    -0.425 C  
ENDBRANCH   4  22
TORSDOF 1
ENDMDL
MODEL       78
REMARK 921   NORMALIZED FREE ENERGY PREDICTED BY IDOCK:   -3.66 KCAL/MOL
REMARK 922        TOTAL FREE ENERGY PREDICTED BY IDOCK:   -3.89 KCAL/MOL
REMARK 923 INTER-LIGAND FREE ENERGY PREDICTED BY IDOCK:   -3.87 KCAL/MOL
REMARK 924 INTRA-LIGAND FREE ENERGY PREDICTED BY IDOCK:   -0.02 KCAL/MOL
REMARK 927      BINDING AFFINITY PREDICTED BY RF-SCORE:    0.00 PKD
ROOT
HETATM    1  C   UNL     1     -10.073   7.957  70.985  1.00  0.00    -0.212 C  
HETATM    2  C   UNL     1     -11.443   8.069  70.646  1.00  0.00    -0.237 C  
HETATM    3  C   UNL     1     -10.965   6.668  70.797  1.00  0.00    -0.318 C  
HETATM    4  C   UNL     1      -9.082   6.465  71.577  1.00  0.00    -0.144 C  
HETATM    5  C   UNL     1     -10.248   6.547  72.303  1.00  0.00    -0.203 C  
HETATM    6  C   UNL     1      -9.193   7.325  69.449  1.00  0.00    -0.148 C  
HETATM    7  O   UNL     1      -8.388   5.321  72.078  1.00  0.00    -0.119 OA 
HETATM    8  C   UNL     1     -10.520   4.771  71.751  1.00  0.00    -0.182 C  
HETATM    9  C   UNL     1     -10.488   6.815  73.758  1.00  0.00    -0.383 C  
HETATM   10  C   UNL     1      -9.464   8.154  68.166  1.00  0.00    -0.150 C  
HETATM   11  H   UNL     1      -7.514   5.227  72.440  1.00  0.00     0.000 HD 
HETATM   12  C   UNL     1      -9.724   4.464  70.216  1.00  0.00    -0.281 C  
HETATM   13  C   UNL     1      -9.422   5.654  69.069  1.00  0.00    -0.159 C  
HETATM   14  C   UNL     1      -8.373   5.316  67.979  1.00  0.00    -0.098 C  
HETATM   15  C   UNL     1      -8.083   3.834  67.719  1.00  0.00    -0.088 C  
HETATM   16  C   UNL     1      -8.984   3.115  66.731  1.00  0.00    -0.172 C  
HETATM   17  C   UNL     1      -9.543   3.972  65.623  1.00  0.00    -0.190 C  
HETATM   18  O   UNL     1     -10.150   3.472  64.675  1.00  0.00    -0.172 OA 
HETATM   19  C   UNL     1      -9.402   5.446  65.689  1.00  0.00    -0.098 C  
HETATM   20  C   UNL     1      -8.860   6.066  66.752  1.00  0.00    -0.120 C  
HETATM   21  C   UNL     1      -8.822   7.581  66.875  1.00  0.00    -0.145 C  
ENDROOT
BRANCH   4  22
HETATM   22  C   UNL     1      -8.132   7.552  72.170  1.00  0.00    -0.115 C  
HETATM   23  C   UNL     1      -7.365   8.326  72.661  1.00  0.00    -0.141 C  
ENDBRANCH   4  22
TORSDOF 1
ENDMDL
MODEL       79
REMARK 921   NORMALIZED FREE ENERGY PREDICTED BY IDOCK:   -3.65 KCAL/MOL
REMARK 922        TOTAL FREE ENERGY PREDICTED BY IDOCK:   -3.88 KCAL/MOL
REMARK 923 INTER-LIGAND FREE ENERGY PREDICTED BY IDOCK:   -3.87 KCAL/MOL
REMARK 924 INTRA-LIGAND FREE ENERGY PREDICTED BY IDOCK:   -0.01 KCAL/MOL
REMARK 927      BINDING AFFINITY PREDICTED BY RF-SCORE:    0.00 PKD
ROOT
HETATM    1  C   UNL     1     -10.625   9.739  68.492  1.00  0.00    -0.252 C  
HETATM    2  C   UNL     1     -11.228  10.214  69.681  1.00  0.00    -0.310 C  
HETATM    3  C   UNL     1      -9.753  10.042  69.773  1.00  0.00    -0.259 C  
HETATM    4  C   UNL     1      -8.806   9.650  68.000  1.00  0.00    -0.119 C  
HETATM    5  C   UNL     1      -9.073  10.900  68.509  1.00  0.00    -0.173 C  
HETATM    6  C   UNL     1     -10.125   7.957  68.821  1.00  0.00    -0.203 C  
HETATM    7  O   UNL     1      -7.420   9.657  67.651  1.00  0.00    -0.090 OA 
HETATM    8  C   UNL     1      -7.646  10.546  69.679  1.00  0.00    -0.134 C  
HETATM    9  C   UNL     1      -9.059  12.253  67.864  1.00  0.00    -0.190 C  
HETATM   10  C   UNL     1     -11.270   7.058  69.356  1.00  0.00    -0.143 C  
HETATM   11  H   UNL     1      -6.981   9.475  66.828  1.00  0.00     0.000 HD 
HETATM   12  C   UNL     1      -7.472   8.819  69.949  1.00  0.00    -0.053 C  
HETATM   13  C   UNL     1      -8.742   7.726  69.832  1.00  0.00    -0.142 C  
HETATM   14  C   UNL     1      -8.358   6.229  69.695  1.00  0.00    -0.125 C  
HETATM   15  C   UNL     1      -6.961   5.817  70.169  1.00  0.00    -0.065 C  
HETATM   16  C   UNL     1      -6.803   5.471  71.640  1.00  0.00    -0.066 C  
HETATM   17  C   UNL     1      -8.022   4.876  72.298  1.00  0.00    -0.110 C  
HETATM   18  O   UNL     1      -7.967   4.407  73.436  1.00  0.00    -0.092 OA 
HETATM   19  C   UNL     1      -9.324   4.889  71.589  1.00  0.00    -0.192 C  
HETATM   20  C   UNL     1      -9.484   5.493  70.398  1.00  0.00    -0.209 C  
HETATM   21  C   UNL     1     -10.842   5.612  69.724  1.00  0.00    -0.370 C  
ENDROOT
BRANCH   4  22
HETATM   22  C   UNL     1      -9.379   9.648  66.549  1.00  0.00    -0.212 C  
HETATM   23  C   UNL     1      -9.749   9.676  65.413  1.00  0.00    -0.365 C  
ENDBRANCH   4  22
TORSDOF 1
ENDMDL
MODEL       80
REMARK 921   NORMALIZED FREE ENERGY PREDICTED BY IDOCK:   -3.63 KCAL/MOL
REMARK 922        TOTAL FREE ENERGY PREDICTED BY IDOCK:   -3.86 KCAL/MOL
REMARK 923 INTER-LIGAND FREE ENERGY PREDICTED BY IDOCK:   -3.85 KCAL/MOL
REMARK 924 INTRA-LIGAND FREE ENERGY PREDICTED BY IDOCK:   -0.00 KCAL/MOL
REMARK 927      BINDING AFFINITY PREDICTED BY RF-SCORE:    0.00 PKD
ROOT
HETATM    1  C   UNL     1      -9.269   4.793  71.984  1.00  0.00    -0.167 C  
HETATM    2  C   UNL     1     -10.496   4.236  71.553  1.00  0.00     0.047 C  
HETATM    3  C   UNL     1      -9.644   4.759  70.451  1.00  0.00    -0.267 C  
HETATM    4  C   UNL     1      -7.744   5.295  70.994  1.00  0.00    -0.097 C  
HETATM    5  C   UNL     1      -8.143   4.039  70.599  1.00  0.00    -0.061 C  
HETATM    6  C   UNL     1      -9.424   6.655  71.774  1.00  0.00    -0.151 C  
HETATM    7  O   UNL     1      -6.592   5.606  70.208  1.00  0.00    -0.042 OA 
HETATM    8  C   UNL     1      -8.161   4.771  68.869  1.00  0.00    -0.082 C  
HETATM    9  C   UNL     1      -7.473   2.704  70.728  1.00  0.00    -0.036 C  
HETATM   10  C   UNL     1     -10.675   7.275  72.449  1.00  0.00    -0.283 C  
HETATM   11  H   UNL     1      -5.710   5.855  70.460  1.00  0.00     0.000 HD 
HETATM   12  C   UNL     1      -8.473   6.499  68.924  1.00  0.00    -0.122 C  
HETATM   13  C   UNL     1      -9.335   7.251  70.154  1.00  0.00    -0.155 C  
HETATM   14  C   UNL     1      -9.174   8.789  70.273  1.00  0.00    -0.191 C  
HETATM   15  C   UNL     1      -8.693   9.543  69.029  1.00  0.00    -0.142 C  
HETATM   16  C   UNL     1      -9.751   9.975  68.028  1.00  0.00    -0.158 C  
HETATM   17  C   UNL     1     -11.105  10.286  68.613  1.00  0.00    -0.239 C  
HETATM   18  O   UNL     1     -11.992  10.801  67.930  1.00  0.00    -0.518 OA 
HETATM   19  C   UNL     1     -11.398   9.934  70.023  1.00  0.00    -0.303 C  
HETATM   20  C   UNL     1     -10.521   9.262  70.790  1.00  0.00    -0.343 C  
HETATM   21  C   UNL     1     -10.864   8.794  72.196  1.00  0.00    -0.400 C  
ENDROOT
BRANCH   4  22
HETATM   22  C   UNL     1      -7.010   5.102  72.358  1.00  0.00    -0.079 C  
HETATM   23  C   UNL     1      -6.443   5.032  73.407  1.00  0.00    -0.065 C  
ENDBRANCH   4  22
TORSDOF 1
ENDMDL
MODEL       81
REMARK 921   NORMALIZED FREE ENERGY PREDICTED BY IDOCK:   -3.60 KCAL/MOL
REMARK 922        TOTAL FREE ENERGY PREDICTED BY IDOCK:   -3.82 KCAL/MOL
REMARK 923 INTER-LIGAND FREE ENERGY PREDICTED BY IDOCK:   -3.82 KCAL/MOL
REMARK 924 INTRA-LIGAND FREE ENERGY PREDICTED BY IDOCK:   -0.00 KCAL/MOL
REMARK 927      BINDING AFFINITY PREDICTED BY RF-SCORE:    0.00 PKD
ROOT
HETATM    1  C   UNL     1      -9.968  10.167  67.686  1.00  0.00    -0.216 C  
HETATM    2  C   UNL     1      -9.627   9.871  69.027  1.00  0.00    -0.188 C  
HETATM    3  C   UNL     1      -8.494   9.752  68.070  1.00  0.00    -0.118 C  
HETATM    4  C   UNL     1      -8.866  10.458  66.184  1.00  0.00    -0.158 C  
HETATM    5  C   UNL     1      -8.391  11.200  67.240  1.00  0.00    -0.135 C  
HETATM    6  C   UNL     1      -9.973   8.529  66.762  1.00  0.00    -0.351 C  
HETATM    7  O   UNL     1      -7.988  10.728  65.089  1.00  0.00    -0.321 OA 
HETATM    8  C   UNL     1      -6.760  10.329  66.902  1.00  0.00    -0.081 C  
HETATM    9  C   UNL     1      -8.301  12.683  67.444  1.00  0.00    -0.184 C  
HETATM   10  C   UNL     1     -10.850   7.428  67.413  1.00  0.00    -0.299 C  
HETATM   11  H   UNL     1      -8.160  11.055  64.213  1.00  0.00     0.000 HD 
HETATM   12  C   UNL     1      -7.031   8.754  66.173  1.00  0.00    -0.081 C  
HETATM   13  C   UNL     1      -8.425   7.847  66.408  1.00  0.00    -0.139 C  
HETATM   14  C   UNL     1      -8.684   6.700  65.397  1.00  0.00    -0.006 C  
HETATM   15  C   UNL     1      -7.479   6.165  64.619  1.00  0.00    -0.085 C  
HETATM   16  C   UNL     1      -6.658   5.070  65.278  1.00  0.00    -0.037 C  
HETATM   17  C   UNL     1      -7.426   4.149  66.192  1.00  0.00    -0.084 C  
HETATM   18  O   UNL     1      -6.908   3.131  66.653  1.00  0.00    -0.050 OA 
HETATM   19  C   UNL     1      -8.815   4.487  66.582  1.00  0.00    -0.112 C  
HETATM   20  C   UNL     1      -9.400   5.641  66.216  1.00  0.00    -0.169 C  
HETATM   21  C   UNL     1     -10.780   6.045  66.712  1.00  0.00    -0.374 C  
ENDROOT
BRANCH   4  22
HETATM   22  C   UNL     1     -10.107  11.232  65.641  1.00  0.00    -0.295 C  
HETATM   23  C   UNL     1     -11.070  11.766  65.176  1.00  0.00    -0.341 C  
ENDBRANCH   4  22
TORSDOF 1
ENDMDL
MODEL       82
REMARK 921   NORMALIZED FREE ENERGY PREDICTED BY IDOCK:   -3.58 KCAL/MOL
REMARK 922        TOTAL FREE ENERGY PREDICTED BY IDOCK:   -3.80 KCAL/MOL
REMARK 923 INTER-LIGAND FREE ENERGY PREDICTED BY IDOCK:   -3.79 KCAL/MOL
REMARK 924 INTRA-LIGAND FREE ENERGY PREDICTED BY IDOCK:   -0.02 KCAL/MOL
REMARK 927      BINDING AFFINITY PREDICTED BY RF-SCORE:    0.00 PKD
ROOT
HETATM    1  C   UNL     1     -10.645   7.518  70.056  1.00  0.00    -0.242 C  
HETATM    2  C   UNL     1     -11.740   6.627  69.963  1.00  0.00    -0.378 C  
HETATM    3  C   UNL     1     -11.273   6.875  71.353  1.00  0.00    -0.296 C  
HETATM    4  C   UNL     1      -9.898   8.379  71.558  1.00  0.00    -0.208 C  
HETATM    5  C   UNL     1     -11.264   8.530  71.587  1.00  0.00    -0.361 C  
HETATM    6  C   UNL     1      -9.146   6.477  70.509  1.00  0.00    -0.152 C  
HETATM    7  O   UNL     1      -9.404   9.052  72.718  1.00  0.00    -0.098 OA 
HETATM    8  C   UNL     1     -11.142   7.796  73.313  1.00  0.00    -0.190 C  
HETATM    9  C   UNL     1     -12.126   9.751  71.465  1.00  0.00    -0.493 C  
HETATM   10  C   UNL     1      -8.901   5.264  69.575  1.00  0.00    -0.121 C  
HETATM   11  H   UNL     1      -8.766   9.750  72.813  1.00  0.00     0.000 HD 
HETATM   12  C   UNL     1      -9.744   6.741  73.446  1.00  0.00    -0.216 C  
HETATM   13  C   UNL     1      -9.068   5.923  72.145  1.00  0.00    -0.145 C  
HETATM   14  C   UNL     1      -7.630   5.376  72.341  1.00  0.00    -0.097 C  
HETATM   15  C   UNL     1      -7.149   5.167  73.781  1.00  0.00    -0.082 C  
HETATM   16  C   UNL     1      -7.483   3.839  74.438  1.00  0.00    -0.062 C  
HETATM   17  C   UNL     1      -7.573   2.661  73.502  1.00  0.00    -0.047 C  
HETATM   18  O   UNL     1      -7.675   1.511  73.933  1.00  0.00    -0.032 OA 
HETATM   19  C   UNL     1      -7.582   2.881  72.037  1.00  0.00    -0.052 C  
HETATM   20  C   UNL     1      -7.597   4.114  71.499  1.00  0.00    -0.064 C  
HETATM   21  C   UNL     1      -7.726   4.344  70.001  1.00  0.00    -0.053 C  
ENDROOT
BRANCH   4  22
HETATM   22  C   UNL     1      -9.376   9.398  70.498  1.00  0.00    -0.319 C  
HETATM   23  C   UNL     1      -8.954  10.224  69.745  1.00  0.00    -0.079 C  
ENDBRANCH   4  22
TORSDOF 1
ENDMDL
MODEL       83
REMARK 921   NORMALIZED FREE ENERGY PREDICTED BY IDOCK:   -3.57 KCAL/MOL
REMARK 922        TOTAL FREE ENERGY PREDICTED BY IDOCK:   -3.80 KCAL/MOL
REMARK 923 INTER-LIGAND FREE ENERGY PREDICTED BY IDOCK:   -3.86 KCAL/MOL
REMARK 924 INTRA-LIGAND FREE ENERGY PREDICTED BY IDOCK:    0.07 KCAL/MOL
REMARK 927      BINDING AFFINITY PREDICTED BY RF-SCORE:    0.00 PKD
ROOT
HETATM    1  C   UNL     1      -8.607   9.947  66.388  1.00  0.00    -0.136 C  
HETATM    2  C   UNL     1      -9.572  10.917  66.748  1.00  0.00    -0.210 C  
HETATM    3  C   UNL     1      -8.686  10.495  67.866  1.00  0.00    -0.126 C  
HETATM    4  C   UNL     1      -7.092   9.329  67.325  1.00  0.00    -0.082 C  
HETATM    5  C   UNL     1      -7.108  10.703  67.354  1.00  0.00    -0.090 C  
HETATM    6  C   UNL     1      -9.156   8.330  67.174  1.00  0.00    -0.162 C  
HETATM    7  O   UNL     1      -5.924   8.934  68.049  1.00  0.00    -0.045 OA 
HETATM    8  C   UNL     1      -6.990  10.500  69.218  1.00  0.00    -0.086 C  
HETATM    9  C   UNL     1      -6.177  11.715  66.755  1.00  0.00    -0.123 C  
HETATM   10  C   UNL     1     -10.617   7.922  66.851  1.00  0.00    -0.333 C  
HETATM   11  H   UNL     1      -5.185   8.393  67.798  1.00  0.00     0.000 HD 
HETATM   12  C   UNL     1      -7.704   8.978  69.728  1.00  0.00    -0.077 C  
HETATM   13  C   UNL     1      -8.922   8.192  68.881  1.00  0.00    -0.141 C  
HETATM   14  C   UNL     1      -9.152   6.697  69.224  1.00  0.00    -0.138 C  
HETATM   15  C   UNL     1      -8.648   6.203  70.584  1.00  0.00    -0.135 C  
HETATM   16  C   UNL     1      -9.582   6.368  71.770  1.00  0.00    -0.162 C  
HETATM   17  C   UNL     1     -11.053   6.297  71.448  1.00  0.00    -0.284 C  
HETATM   18  O   UNL     1     -11.901   6.253  72.342  1.00  0.00    -0.291 OA 
HETATM   19  C   UNL     1     -11.502   6.324  70.035  1.00  0.00    -0.460 C  
HETATM   20  C   UNL     1     -10.641   6.494  69.015  1.00  0.00    -0.286 C  
HETATM   21  C   UNL     1     -11.109   6.641  67.576  1.00  0.00    -0.374 C  
ENDROOT
BRANCH   4  22
HETATM   22  C   UNL     1      -6.587   8.936  65.902  1.00  0.00    -0.057 C  
HETATM   23  C   UNL     1      -6.204   8.711  64.792  1.00  0.00    -0.065 C  
ENDBRANCH   4  22
TORSDOF 1
ENDMDL
MODEL       84
REMARK 921   NORMALIZED FREE ENERGY PREDICTED BY IDOCK:   -3.57 KCAL/MOL
REMARK 922        TOTAL FREE ENERGY PREDICTED BY IDOCK:   -3.79 KCAL/MOL
REMARK 923 INTER-LIGAND FREE ENERGY PREDICTED BY IDOCK:   -3.77 KCAL/MOL
REMARK 924 INTRA-LIGAND FREE ENERGY PREDICTED BY IDOCK:   -0.02 KCAL/MOL
REMARK 927      BINDING AFFINITY PREDICTED BY RF-SCORE:    0.00 PKD
ROOT
HETATM    1  C   UNL     1      -7.271  10.561  65.033  1.00  0.00     0.005 C  
HETATM    2  C   UNL     1      -6.155  10.817  65.865  1.00  0.00    -0.128 C  
HETATM    3  C   UNL     1      -6.595   9.396  65.857  1.00  0.00    -0.076 C  
HETATM    4  C   UNL     1      -8.004   8.925  64.447  1.00  0.00    -0.137 C  
HETATM    5  C   UNL     1      -6.642   8.899  64.261  1.00  0.00    -0.078 C  
HETATM    6  C   UNL     1      -8.730  10.252  66.177  1.00  0.00    -0.163 C  
HETATM    7  O   UNL     1      -8.488   7.663  63.984  1.00  0.00    -0.370 OA 
HETATM    8  C   UNL     1      -6.703   7.312  65.266  1.00  0.00    -0.048 C  
HETATM    9  C   UNL     1      -5.816   8.840  63.011  1.00  0.00    -0.085 C  
HETATM   10  C   UNL     1      -8.966  11.364  67.232  1.00  0.00    -0.159 C  
HETATM   11  H   UNL     1      -9.141   7.444  63.329  1.00  0.00     0.000 HD 
HETATM   12  C   UNL     1      -8.069   7.323  66.370  1.00  0.00    -0.119 C  
HETATM   13  C   UNL     1      -8.755   8.726  66.989  1.00  0.00    -0.131 C  
HETATM   14  C   UNL     1     -10.172   8.592  67.603  1.00  0.00    -0.297 C  
HETATM   15  C   UNL     1     -10.613   7.196  68.054  1.00  0.00    -0.251 C  
HETATM   16  C   UNL     1     -10.228   6.767  69.459  1.00  0.00    -0.202 C  
HETATM   17  C   UNL     1     -10.129   7.882  70.470  1.00  0.00    -0.192 C  
HETATM   18  O   UNL     1      -9.987   7.643  71.670  1.00  0.00    -0.174 OA 
HETATM   19  C   UNL     1     -10.162   9.293  70.017  1.00  0.00    -0.244 C  
HETATM   20  C   UNL     1     -10.192   9.626  68.715  1.00  0.00    -0.213 C  
HETATM   21  C   UNL     1     -10.105  11.069  68.244  1.00  0.00    -0.191 C  
ENDROOT
BRANCH   4  22
HETATM   22  C   UNL     1      -8.578   9.798  63.287  1.00  0.00    -0.200 C  
HETATM   23  C   UNL     1      -9.068  10.409  62.385  1.00  0.00    -0.313 C  
ENDBRANCH   4  22
TORSDOF 1
ENDMDL
MODEL       85
REMARK 921   NORMALIZED FREE ENERGY PREDICTED BY IDOCK:   -3.55 KCAL/MOL
REMARK 922        TOTAL FREE ENERGY PREDICTED BY IDOCK:   -3.77 KCAL/MOL
REMARK 923 INTER-LIGAND FREE ENERGY PREDICTED BY IDOCK:   -3.79 KCAL/MOL
REMARK 924 INTRA-LIGAND FREE ENERGY PREDICTED BY IDOCK:    0.02 KCAL/MOL
REMARK 927      BINDING AFFINITY PREDICTED BY RF-SCORE:    0.00 PKD
ROOT
HETATM    1  C   UNL     1      -9.407  18.711  68.568  1.00  0.00    -0.379 C  
HETATM    2  C   UNL     1      -8.989  18.630  69.917  1.00  0.00     1.254 C  
HETATM    3  C   UNL     1      -8.091  17.931  68.959  1.00  0.00    -0.051 C  
HETATM    4  C   UNL     1      -8.487  18.274  66.980  1.00  0.00    -0.250 C  
HETATM    5  C   UNL     1      -7.667  19.036  67.779  1.00  0.00    -0.273 C  
HETATM    6  C   UNL     1     -10.039  17.003  68.101  1.00  0.00    -0.308 C  
HETATM    7  O   UNL     1      -7.730  17.984  65.803  1.00  0.00    -0.532 OA 
HETATM    8  C   UNL     1      -6.443  17.623  67.583  1.00  0.00    -0.177 C  
HETATM    9  C   UNL     1      -7.102  20.411  67.587  1.00  0.00    -0.345 C  
HETATM   10  C   UNL     1     -11.111  16.430  69.064  1.00  0.00    -0.315 C  
HETATM   11  H   UNL     1      -7.914  18.143  64.885  1.00  0.00     0.000 HD 
HETATM   12  C   UNL     1      -7.280  16.104  67.304  1.00  0.00    -0.232 C  
HETATM   13  C   UNL     1      -8.838  15.786  67.846  1.00  0.00    -0.175 C  
HETATM   14  C   UNL     1      -9.572  14.592  67.184  1.00  0.00    -0.236 C  
HETATM   15  C   UNL     1      -8.708  13.528  66.501  1.00  0.00     0.087 C  
HETATM   16  C   UNL     1      -8.177  12.403  67.373  1.00  0.00    -0.180 C  
HETATM   17  C   UNL     1      -9.055  12.019  68.537  1.00  0.00    -0.106 C  
HETATM   18  O   UNL     1      -8.814  11.019  69.215  1.00  0.00    -0.050 OA 
HETATM   19  C   UNL     1     -10.207  12.875  68.906  1.00  0.00    -0.007 C  
HETATM   20  C   UNL     1     -10.457  14.043  68.288  1.00  0.00    -0.245 C  
HETATM   21  C   UNL     1     -11.565  14.981  68.743  1.00  0.00    -0.357 C  
ENDROOT
BRANCH   4  22
HETATM   22  C   UNL     1      -9.496  19.271  66.328  1.00  0.00    -0.387 C  
HETATM   23  C   UNL     1     -10.323  19.978  65.834  1.00  0.00    -0.529 C  
ENDBRANCH   4  22
TORSDOF 1
ENDMDL
MODEL       86
REMARK 921   NORMALIZED FREE ENERGY PREDICTED BY IDOCK:   -3.50 KCAL/MOL
REMARK 922        TOTAL FREE ENERGY PREDICTED BY IDOCK:   -3.72 KCAL/MOL
REMARK 923 INTER-LIGAND FREE ENERGY PREDICTED BY IDOCK:   -3.75 KCAL/MOL
REMARK 924 INTRA-LIGAND FREE ENERGY PREDICTED BY IDOCK:    0.02 KCAL/MOL
REMARK 927      BINDING AFFINITY PREDICTED BY RF-SCORE:    0.00 PKD
ROOT
HETATM    1  C   UNL     1      -9.153   6.189  66.070  1.00  0.00    -0.136 C  
HETATM    2  C   UNL     1      -8.444   7.377  66.369  1.00  0.00    -0.129 C  
HETATM    3  C   UNL     1      -7.822   6.142  66.917  1.00  0.00    -0.104 C  
HETATM    4  C   UNL     1      -8.641   4.384  66.260  1.00  0.00    -0.112 C  
HETATM    5  C   UNL     1      -7.625   5.077  65.643  1.00  0.00    -0.086 C  
HETATM    6  C   UNL     1      -9.956   5.628  67.675  1.00  0.00    -0.177 C  
HETATM    7  O   UNL     1      -8.185   3.034  66.368  1.00  0.00    -0.084 OA 
HETATM    8  C   UNL     1      -6.547   4.391  67.021  1.00  0.00    -0.046 C  
HETATM    9  C   UNL     1      -7.053   4.970  64.262  1.00  0.00    -0.050 C  
HETATM   10  C   UNL     1     -10.807   6.715  68.382  1.00  0.00    -0.320 C  
HETATM   11  H   UNL     1      -8.565   2.218  66.063  1.00  0.00     0.000 HD 
HETATM   12  C   UNL     1      -7.496   4.086  68.467  1.00  0.00    -0.059 C  
HETATM   13  C   UNL     1      -8.903   4.920  68.849  1.00  0.00    -0.115 C  
HETATM   14  C   UNL     1      -9.825   4.272  69.915  1.00  0.00    -0.267 C  
HETATM   15  C   UNL     1      -9.190   3.255  70.867  1.00  0.00    -0.202 C  
HETATM   16  C   UNL     1      -8.530   3.799  72.122  1.00  0.00    -0.094 C  
HETATM   17  C   UNL     1      -9.137   5.062  72.676  1.00  0.00    -0.131 C  
HETATM   18  O   UNL     1      -8.796   5.506  73.774  1.00  0.00    -0.124 OA 
HETATM   19  C   UNL     1     -10.133   5.815  71.876  1.00  0.00    -0.228 C  
HETATM   20  C   UNL     1     -10.460   5.456  70.622  1.00  0.00    -0.329 C  
HETATM   21  C   UNL     1     -11.390   6.292  69.756  1.00  0.00    -0.506 C  
ENDROOT
BRANCH   4  22
HETATM   22  C   UNL     1      -9.723   4.143  65.161  1.00  0.00    -0.198 C  
HETATM   23  C   UNL     1     -10.494   3.932  64.273  1.00  0.00    -0.247 C  
ENDBRANCH   4  22
TORSDOF 1
ENDMDL
MODEL       87
REMARK 921   NORMALIZED FREE ENERGY PREDICTED BY IDOCK:   -3.46 KCAL/MOL
REMARK 922        TOTAL FREE ENERGY PREDICTED BY IDOCK:   -3.68 KCAL/MOL
REMARK 923 INTER-LIGAND FREE ENERGY PREDICTED BY IDOCK:   -3.68 KCAL/MOL
REMARK 924 INTRA-LIGAND FREE ENERGY PREDICTED BY IDOCK:    0.01 KCAL/MOL
REMARK 927      BINDING AFFINITY PREDICTED BY RF-SCORE:    0.00 PKD
ROOT
HETATM    1  C   UNL     1      -8.735  12.082  66.288  1.00  0.00    -0.027 C  
HETATM    2  C   UNL     1      -9.594  12.200  65.170  1.00  0.00    -0.051 C  
HETATM    3  C   UNL     1     -10.213  11.529  66.345  1.00  0.00    -0.261 C  
HETATM    4  C   UNL     1      -9.116  11.607  68.073  1.00  0.00    -0.177 C  
HETATM    5  C   UNL     1     -10.025  12.551  67.655  1.00  0.00    -0.201 C  
HETATM    6  C   UNL     1      -8.265  10.266  66.413  1.00  0.00    -0.129 C  
HETATM    7  O   UNL     1      -9.465  11.298  69.424  1.00  0.00    -0.399 OA 
HETATM    8  C   UNL     1     -11.320  11.300  68.195  1.00  0.00    -0.372 C  
HETATM    9  C   UNL     1     -10.263  13.961  68.105  1.00  0.00    -0.249 C  
HETATM   10  C   UNL     1      -7.692   9.660  65.105  1.00  0.00    -0.117 C  
HETATM   11  H   UNL     1      -8.956  11.334  70.226  1.00  0.00     0.000 HD 
HETATM   12  C   UNL     1     -10.695   9.663  68.082  1.00  0.00    -0.266 C  
HETATM   13  C   UNL     1      -9.488   9.200  67.010  1.00  0.00    -0.201 C  
HETATM   14  C   UNL     1      -8.774   7.856  67.309  1.00  0.00    -0.131 C  
HETATM   15  C   UNL     1      -9.514   6.850  68.195  1.00  0.00    -0.122 C  
HETATM   16  C   UNL     1     -10.483   5.903  67.509  1.00  0.00    -0.306 C  
HETATM   17  C   UNL     1     -10.128   5.530  66.092  1.00  0.00    -0.092 C  
HETATM   18  O   UNL     1     -10.743   4.647  65.492  1.00  0.00    -0.275 OA 
HETATM   19  C   UNL     1      -9.049   6.260  65.386  1.00  0.00     0.160 C  
HETATM   20  C   UNL     1      -8.419   7.313  65.936  1.00  0.00    -0.148 C  
HETATM   21  C   UNL     1      -7.396   8.138  65.170  1.00  0.00    -0.078 C  
ENDROOT
BRANCH   4  22
HETATM   22  C   UNL     1      -7.800  12.387  68.379  1.00  0.00    -0.142 C  
HETATM   23  C   UNL     1      -6.754  12.915  68.613  1.00  0.00    -0.095 C  
ENDBRANCH   4  22
TORSDOF 1
ENDMDL
MODEL       88
REMARK 921   NORMALIZED FREE ENERGY PREDICTED BY IDOCK:   -3.44 KCAL/MOL
REMARK 922        TOTAL FREE ENERGY PREDICTED BY IDOCK:   -3.66 KCAL/MOL
REMARK 923 INTER-LIGAND FREE ENERGY PREDICTED BY IDOCK:   -3.65 KCAL/MOL
REMARK 924 INTRA-LIGAND FREE ENERGY PREDICTED BY IDOCK:   -0.01 KCAL/MOL
REMARK 927      BINDING AFFINITY PREDICTED BY RF-SCORE:    0.00 PKD
ROOT
HETATM    1  C   UNL     1     -10.528   5.385  69.418  1.00  0.00    -0.331 C  
HETATM    2  C   UNL     1     -11.454   6.430  69.651  1.00  0.00    -0.446 C  
HETATM    3  C   UNL     1     -10.102   6.895  69.240  1.00  0.00    -0.178 C  
HETATM    4  C   UNL     1      -8.827   5.423  68.605  1.00  0.00    -0.103 C  
HETATM    5  C   UNL     1      -9.719   6.110  67.814  1.00  0.00    -0.118 C  
HETATM    6  C   UNL     1      -9.312   5.421  70.851  1.00  0.00    -0.196 C  
HETATM    7  O   UNL     1      -7.570   5.492  67.930  1.00  0.00    -0.083 OA 
HETATM    8  C   UNL     1      -8.484   7.521  67.938  1.00  0.00    -0.122 C  
HETATM    9  C   UNL     1     -10.240   5.827  66.437  1.00  0.00    -0.192 C  
HETATM   10  C   UNL     1      -9.971   5.384  72.254  1.00  0.00    -0.219 C  
HETATM   11  H   UNL     1      -6.978   4.809  67.635  1.00  0.00     0.000 HD 
HETATM   12  C   UNL     1      -7.568   7.422  69.434  1.00  0.00    -0.096 C  
HETATM   13  C   UNL     1      -8.149   6.699  70.834  1.00  0.00    -0.119 C  
HETATM   14  C   UNL     1      -7.096   6.334  71.913  1.00  0.00    -0.085 C  
HETATM   15  C   UNL     1      -5.758   7.076  71.868  1.00  0.00    -0.037 C  
HETATM   16  C   UNL     1      -5.679   8.409  72.591  1.00  0.00    -0.057 C  
HETATM   17  C   UNL     1      -6.563   8.538  73.805  1.00  0.00    -0.087 C  
HETATM   18  O   UNL     1      -6.467   9.504  74.564  1.00  0.00    -0.353 OA 
HETATM   19  C   UNL     1      -7.598   7.513  74.076  1.00  0.00    -0.155 C  
HETATM   20  C   UNL     1      -7.841   6.499  73.226  1.00  0.00    -0.096 C  
HETATM   21  C   UNL     1      -8.980   5.514  73.441  1.00  0.00    -0.129 C  
ENDROOT
BRANCH   4  22
HETATM   22  C   UNL     1      -9.108   3.909  68.350  1.00  0.00    -0.189 C  
HETATM   23  C   UNL     1      -9.257   2.734  68.193  1.00  0.00    -0.254 C  
ENDBRANCH   4  22
TORSDOF 1
ENDMDL
MODEL       89
REMARK 921   NORMALIZED FREE ENERGY PREDICTED BY IDOCK:   -3.43 KCAL/MOL
REMARK 922        TOTAL FREE ENERGY PREDICTED BY IDOCK:   -3.65 KCAL/MOL
REMARK 923 INTER-LIGAND FREE ENERGY PREDICTED BY IDOCK:   -3.65 KCAL/MOL
REMARK 924 INTRA-LIGAND FREE ENERGY PREDICTED BY IDOCK:    0.00 KCAL/MOL
REMARK 927      BINDING AFFINITY PREDICTED BY RF-SCORE:    0.00 PKD
ROOT
HETATM    1  C   UNL     1     -10.391   6.844  70.425  1.00  0.00    -0.221 C  
HETATM    2  C   UNL     1     -11.652   6.477  69.897  1.00  0.00    -0.433 C  
HETATM    3  C   UNL     1     -10.659   5.369  69.927  1.00  0.00    -0.351 C  
HETATM    4  C   UNL     1      -8.932   5.771  70.953  1.00  0.00    -0.145 C  
HETATM    5  C   UNL     1     -10.087   5.257  71.494  1.00  0.00    -0.254 C  
HETATM    6  C   UNL     1      -9.200   6.902  68.971  1.00  0.00    -0.137 C  
HETATM    7  O   UNL     1      -7.877   4.914  71.394  1.00  0.00    -0.097 OA 
HETATM    8  C   UNL     1      -9.562   3.652  70.670  1.00  0.00    -0.254 C  
HETATM    9  C   UNL     1     -10.541   5.133  72.918  1.00  0.00    -0.280 C  
HETATM   10  C   UNL     1      -9.675   7.785  67.787  1.00  0.00    -0.186 C  
HETATM   11  H   UNL     1      -7.076   5.101  71.870  1.00  0.00     0.000 HD 
HETATM   12  C   UNL     1      -8.581   3.971  69.248  1.00  0.00    -0.111 C  
HETATM   13  C   UNL     1      -8.694   5.377  68.336  1.00  0.00    -0.098 C  
HETATM   14  C   UNL     1      -7.508   5.682  67.384  1.00  0.00    -0.084 C  
HETATM   15  C   UNL     1      -6.617   4.507  66.972  1.00  0.00    -0.050 C  
HETATM   16  C   UNL     1      -7.057   3.692  65.768  1.00  0.00    -0.063 C  
HETATM   17  C   UNL     1      -7.819   4.456  64.715  1.00  0.00    -0.089 C  
HETATM   18  O   UNL     1      -8.084   3.948  63.625  1.00  0.00    -0.086 OA 
HETATM   19  C   UNL     1      -8.298   5.829  65.002  1.00  0.00    -0.138 C  
HETATM   20  C   UNL     1      -8.151   6.400  66.211  1.00  0.00    -0.114 C  
HETATM   21  C   UNL     1      -8.746   7.760  66.545  1.00  0.00    -0.162 C  
ENDROOT
BRANCH   4  22
HETATM   22  C   UNL     1      -8.564   7.010  71.828  1.00  0.00    -0.114 C  
HETATM   23  C   UNL     1      -8.263   7.908  72.556  1.00  0.00    -0.184 C  
ENDBRANCH   4  22
TORSDOF 1
ENDMDL
MODEL       90
REMARK 921   NORMALIZED FREE ENERGY PREDICTED BY IDOCK:   -3.39 KCAL/MOL
REMARK 922        TOTAL FREE ENERGY PREDICTED BY IDOCK:   -3.60 KCAL/MOL
REMARK 923 INTER-LIGAND FREE ENERGY PREDICTED BY IDOCK:   -3.68 KCAL/MOL
REMARK 924 INTRA-LIGAND FREE ENERGY PREDICTED BY IDOCK:    0.08 KCAL/MOL
REMARK 927      BINDING AFFINITY PREDICTED BY RF-SCORE:    0.00 PKD
ROOT
HETATM    1  C   UNL     1     -10.624   7.164  69.398  1.00  0.00    -0.246 C  
HETATM    2  C   UNL     1     -11.104   6.243  68.437  1.00  0.00    -0.371 C  
HETATM    3  C   UNL     1      -9.621   6.296  68.542  1.00  0.00    -0.128 C  
HETATM    4  C   UNL     1      -8.895   7.384  70.118  1.00  0.00    -0.147 C  
HETATM    5  C   UNL     1      -9.228   6.050  70.149  1.00  0.00    -0.165 C  
HETATM    6  C   UNL     1      -9.884   8.601  68.439  1.00  0.00    -0.189 C  
HETATM    7  O   UNL     1      -7.582   7.473  70.676  1.00  0.00    -0.082 OA 
HETATM    8  C   UNL     1      -7.619   5.798  69.211  1.00  0.00    -0.088 C  
HETATM    9  C   UNL     1      -9.458   5.115  71.298  1.00  0.00    -0.203 C  
HETATM   10  C   UNL     1     -10.832   9.223  67.381  1.00  0.00    -0.165 C  
HETATM   11  H   UNL     1      -7.245   7.978  71.408  1.00  0.00     0.000 HD 
HETATM   12  C   UNL     1      -7.213   7.225  68.270  1.00  0.00    -0.094 C  
HETATM   13  C   UNL     1      -8.354   8.311  67.687  1.00  0.00    -0.127 C  
HETATM   14  C   UNL     1      -7.826   9.700  67.243  1.00  0.00    -0.095 C  
HETATM   15  C   UNL     1      -6.339   9.806  66.893  1.00  0.00    -0.065 C  
HETATM   16  C   UNL     1      -5.937   9.468  65.468  1.00  0.00    -0.064 C  
HETATM   17  C   UNL     1      -6.975   9.765  64.416  1.00  0.00    -0.126 C  
HETATM   18  O   UNL     1      -6.707   9.688  63.216  1.00  0.00    -0.103 OA 
HETATM   19  C   UNL     1      -8.357  10.116  64.821  1.00  0.00    -0.167 C  
HETATM   20  C   UNL     1      -8.750  10.100  66.107  1.00  0.00    -0.154 C  
HETATM   21  C   UNL     1     -10.195  10.344  66.517  1.00  0.00    -0.289 C  
ENDROOT
BRANCH   4  22
HETATM   22  C   UNL     1      -9.663   8.043  71.306  1.00  0.00    -0.199 C  
HETATM   23  C   UNL     1     -10.317   8.533  72.178  1.00  0.00    -0.409 C  
ENDBRANCH   4  22
TORSDOF 1
ENDMDL
MODEL       91
REMARK 921   NORMALIZED FREE ENERGY PREDICTED BY IDOCK:   -3.38 KCAL/MOL
REMARK 922        TOTAL FREE ENERGY PREDICTED BY IDOCK:   -3.59 KCAL/MOL
REMARK 923 INTER-LIGAND FREE ENERGY PREDICTED BY IDOCK:   -3.64 KCAL/MOL
REMARK 924 INTRA-LIGAND FREE ENERGY PREDICTED BY IDOCK:    0.05 KCAL/MOL
REMARK 927      BINDING AFFINITY PREDICTED BY RF-SCORE:    0.00 PKD
ROOT
HETATM    1  C   UNL     1     -10.032   8.967  70.543  1.00  0.00    -0.263 C  
HETATM    2  C   UNL     1     -10.816   9.675  69.601  1.00  0.00    -0.266 C  
HETATM    3  C   UNL     1     -10.712   8.216  69.333  1.00  0.00    -0.164 C  
HETATM    4  C   UNL     1      -9.846   7.112  70.825  1.00  0.00    -0.178 C  
HETATM    5  C   UNL     1     -11.183   7.420  70.726  1.00  0.00    -0.293 C  
HETATM    6  C   UNL     1      -8.433   8.506  69.668  1.00  0.00    -0.130 C  
HETATM    7  O   UNL     1      -9.784   5.700  71.036  1.00  0.00    -0.164 OA 
HETATM    8  C   UNL     1     -11.215   6.107  69.382  1.00  0.00    -0.466 C  
HETATM    9  C   UNL     1     -12.292   7.341  71.732  1.00  0.00    -0.375 C  
HETATM   10  C   UNL     1      -7.700   9.699  68.999  1.00  0.00    -0.078 C  
HETATM   11  H   UNL     1      -9.382   5.187  71.729  1.00  0.00     0.000 HD 
HETATM   12  C   UNL     1      -9.645   5.965  68.608  1.00  0.00    -0.145 C  
HETATM   13  C   UNL     1      -8.536   7.222  68.515  1.00  0.00    -0.125 C  
HETATM   14  C   UNL     1      -7.073   6.833  68.178  1.00  0.00    -0.086 C  
HETATM   15  C   UNL     1      -6.847   5.487  67.482  1.00  0.00    -0.060 C  
HETATM   16  C   UNL     1      -6.946   5.466  65.967  1.00  0.00    -0.066 C  
HETATM   17  C   UNL     1      -6.539   6.742  65.275  1.00  0.00    -0.050 C  
HETATM   18  O   UNL     1      -6.420   6.793  64.050  1.00  0.00    -0.037 OA 
HETATM   19  C   UNL     1      -6.316   7.973  66.069  1.00  0.00    -0.046 C  
HETATM   20  C   UNL     1      -6.546   8.021  67.394  1.00  0.00    -0.058 C  
HETATM   21  C   UNL     1      -6.433   9.311  68.191  1.00  0.00    -0.058 C  
ENDROOT
BRANCH   4  22
HETATM   22  C   UNL     1      -9.411   7.549  72.258  1.00  0.00    -0.195 C  
HETATM   23  C   UNL     1      -9.039   7.944  73.323  1.00  0.00    -0.341 C  
ENDBRANCH   4  22
TORSDOF 1
ENDMDL
MODEL       92
REMARK 921   NORMALIZED FREE ENERGY PREDICTED BY IDOCK:   -3.22 KCAL/MOL
REMARK 922        TOTAL FREE ENERGY PREDICTED BY IDOCK:   -3.42 KCAL/MOL
REMARK 923 INTER-LIGAND FREE ENERGY PREDICTED BY IDOCK:   -3.41 KCAL/MOL
REMARK 924 INTRA-LIGAND FREE ENERGY PREDICTED BY IDOCK:   -0.01 KCAL/MOL
REMARK 927      BINDING AFFINITY PREDICTED BY RF-SCORE:    0.00 PKD
ROOT
HETATM    1  C   UNL     1      -8.101   7.402  67.018  1.00  0.00    -0.113 C  
HETATM    2  C   UNL     1      -7.762   8.595  67.701  1.00  0.00    -0.102 C  
HETATM    3  C   UNL     1      -7.227   7.359  68.332  1.00  0.00    -0.093 C  
HETATM    4  C   UNL     1      -7.433   5.650  67.222  1.00  0.00    -0.084 C  
HETATM    5  C   UNL     1      -6.377   6.528  67.156  1.00  0.00    -0.041 C  
HETATM    6  C   UNL     1      -9.378   6.523  68.080  1.00  0.00    -0.109 C  
HETATM    7  O   UNL     1      -6.856   4.352  67.375  1.00  0.00    -0.053 OA 
HETATM    8  C   UNL     1      -5.844   5.749  68.781  1.00  0.00    -0.019 C  
HETATM    9  C   UNL     1      -5.293   6.694  66.133  1.00  0.00    -0.018 C  
HETATM   10  C   UNL     1     -10.597   7.397  68.474  1.00  0.00    -0.188 C  
HETATM   11  H   UNL     1      -6.951   3.559  66.860  1.00  0.00     0.000 HD 
HETATM   12  C   UNL     1      -7.231   5.132  69.663  1.00  0.00    -0.056 C  
HETATM   13  C   UNL     1      -8.784   5.751  69.508  1.00  0.00    -0.111 C  
HETATM   14  C   UNL     1      -9.942   4.858  70.024  1.00  0.00    -0.323 C  
HETATM   15  C   UNL     1      -9.590   3.774  71.048  1.00  0.00    -0.249 C  
HETATM   16  C   UNL     1      -9.576   4.181  72.511  1.00  0.00    -0.190 C  
HETATM   17  C   UNL     1     -10.541   5.277  72.886  1.00  0.00    -0.229 C  
HETATM   18  O   UNL     1     -10.739   5.578  74.064  1.00  0.00    -0.275 OA 
HETATM   19  C   UNL     1     -11.239   6.040  71.824  1.00  0.00    -0.333 C  
HETATM   20  C   UNL     1     -10.981   5.848  70.518  1.00  0.00    -0.362 C  
HETATM   21  C   UNL     1     -11.606   6.710  69.432  1.00  0.00    -0.210 C  
ENDROOT
BRANCH   4  22
HETATM   22  C   UNL     1      -7.937   5.474  65.755  1.00  0.00    -0.108 C  
HETATM   23  C   UNL     1      -8.369   5.282  64.658  1.00  0.00    -0.141 C  
ENDBRANCH   4  22
TORSDOF 1
ENDMDL
MODEL       93
REMARK 921   NORMALIZED FREE ENERGY PREDICTED BY IDOCK:   -3.18 KCAL/MOL
REMARK 922        TOTAL FREE ENERGY PREDICTED BY IDOCK:   -3.38 KCAL/MOL
REMARK 923 INTER-LIGAND FREE ENERGY PREDICTED BY IDOCK:   -3.36 KCAL/MOL
REMARK 924 INTRA-LIGAND FREE ENERGY PREDICTED BY IDOCK:   -0.02 KCAL/MOL
REMARK 927      BINDING AFFINITY PREDICTED BY RF-SCORE:    0.00 PKD
ROOT
HETATM    1  C   UNL     1     -10.376  13.921  67.685  1.00  0.00    -0.242 C  
HETATM    2  C   UNL     1     -10.901  13.353  68.870  1.00  0.00    -0.253 C  
HETATM    3  C   UNL     1      -9.419  13.490  68.864  1.00  0.00     0.155 C  
HETATM    4  C   UNL     1      -8.648  14.577  67.309  1.00  0.00    -0.215 C  
HETATM    5  C   UNL     1      -9.070  15.087  68.514  1.00  0.00    -0.188 C  
HETATM    6  C   UNL     1      -9.526  12.527  66.753  1.00  0.00    -0.231 C  
HETATM    7  O   UNL     1      -7.342  15.113  67.091  1.00  0.00    -0.199 OA 
HETATM    8  C   UNL     1      -7.466  14.376  69.187  1.00  0.00    -0.094 C  
HETATM    9  C   UNL     1      -9.381  16.492  68.938  1.00  0.00    -0.256 C  
HETATM   10  C   UNL     1     -10.413  11.277  66.519  1.00  0.00    -0.299 C  
HETATM   11  H   UNL     1      -6.984  15.618  66.369  1.00  0.00     0.000 HD 
HETATM   12  C   UNL     1      -6.951  12.989  68.240  1.00  0.00    -0.101 C  
HETATM   13  C   UNL     1      -8.007  11.999  67.388  1.00  0.00    -0.165 C  
HETATM   14  C   UNL     1      -7.380  11.092  66.298  1.00  0.00    -0.055 C  
HETATM   15  C   UNL     1      -5.884  10.787  66.413  1.00  0.00    -0.109 C  
HETATM   16  C   UNL     1      -5.482   9.607  67.281  1.00  0.00    -0.036 C  
HETATM   17  C   UNL     1      -6.480   8.480  67.341  1.00  0.00    -0.058 C  
HETATM   18  O   UNL     1      -6.199   7.406  67.875  1.00  0.00    -0.040 OA 
HETATM   19  C   UNL     1      -7.842   8.670  66.787  1.00  0.00    -0.094 C  
HETATM   20  C   UNL     1      -8.257   9.853  66.299  1.00  0.00    -0.114 C  
HETATM   21  C   UNL     1      -9.688  10.084  65.840  1.00  0.00    -0.309 C  
ENDROOT
BRANCH   4  22
HETATM   22  C   UNL     1      -9.390  15.403  66.211  1.00  0.00    -0.351 C  
HETATM   23  C   UNL     1      -9.888  16.060  65.347  1.00  0.00    -0.113 C  
ENDBRANCH   4  22
TORSDOF 1
ENDMDL
MODEL       94
REMARK 921   NORMALIZED FREE ENERGY PREDICTED BY IDOCK:   -3.12 KCAL/MOL
REMARK 922        TOTAL FREE ENERGY PREDICTED BY IDOCK:   -3.32 KCAL/MOL
REMARK 923 INTER-LIGAND FREE ENERGY PREDICTED BY IDOCK:   -3.32 KCAL/MOL
REMARK 924 INTRA-LIGAND FREE ENERGY PREDICTED BY IDOCK:   -0.00 KCAL/MOL
REMARK 927      BINDING AFFINITY PREDICTED BY RF-SCORE:    0.00 PKD
ROOT
HETATM    1  C   UNL     1      -8.016   5.322  72.271  1.00  0.00    -0.106 C  
HETATM    2  C   UNL     1      -6.636   5.428  71.976  1.00  0.00    -0.056 C  
HETATM    3  C   UNL     1      -7.492   6.397  71.240  1.00  0.00    -0.089 C  
HETATM    4  C   UNL     1      -9.444   6.483  71.856  1.00  0.00    -0.151 C  
HETATM    5  C   UNL     1      -8.404   7.218  72.377  1.00  0.00    -0.122 C  
HETATM    6  C   UNL     1      -8.830   4.561  70.757  1.00  0.00    -0.140 C  
HETATM    7  O   UNL     1     -10.482   7.422  71.568  1.00  0.00    -0.202 OA 
HETATM    8  C   UNL     1      -8.556   8.236  70.804  1.00  0.00    -0.147 C  
HETATM    9  C   UNL     1      -8.289   8.005  73.647  1.00  0.00    -0.302 C  
HETATM   10  C   UNL     1      -8.179   3.238  70.276  1.00  0.00    -0.066 C  
HETATM   11  H   UNL     1     -11.387   7.462  71.854  1.00  0.00     0.000 HD 
HETATM   12  C   UNL     1      -9.200   7.265  69.490  1.00  0.00    -0.149 C  
HETATM   13  C   UNL     1      -9.016   5.599  69.387  1.00  0.00    -0.124 C  
HETATM   14  C   UNL     1      -9.968   4.855  68.414  1.00  0.00    -0.183 C  
HETATM   15  C   UNL     1     -10.613   5.680  67.296  1.00  0.00    -0.328 C  
HETATM   16  C   UNL     1      -9.822   5.844  66.011  1.00  0.00     0.018 C  
HETATM   17  C   UNL     1      -8.914   4.693  65.660  1.00  0.00    -0.138 C  
HETATM   18  O   UNL     1      -8.348   4.637  64.567  1.00  0.00    -0.111 OA 
HETATM   19  C   UNL     1      -8.656   3.627  66.657  1.00  0.00    -0.111 C  
HETATM   20  C   UNL     1      -9.141   3.686  67.910  1.00  0.00    -0.196 C  
HETATM   21  C   UNL     1      -8.781   2.656  68.969  1.00  0.00    -0.133 C  
ENDROOT
BRANCH   4  22
HETATM   22  C   UNL     1     -10.131   5.792  73.075  1.00  0.00    -0.198 C  
HETATM   23  C   UNL     1     -10.693   5.331  74.023  1.00  0.00    -0.286 C  
ENDBRANCH   4  22
TORSDOF 1
ENDMDL
MODEL       95
REMARK 921   NORMALIZED FREE ENERGY PREDICTED BY IDOCK:   -3.11 KCAL/MOL
REMARK 922        TOTAL FREE ENERGY PREDICTED BY IDOCK:   -3.31 KCAL/MOL
REMARK 923 INTER-LIGAND FREE ENERGY PREDICTED BY IDOCK:   -3.34 KCAL/MOL
REMARK 924 INTRA-LIGAND FREE ENERGY PREDICTED BY IDOCK:    0.03 KCAL/MOL
REMARK 927      BINDING AFFINITY PREDICTED BY RF-SCORE:    0.00 PKD
ROOT
HETATM    1  C   UNL     1      -9.224  11.049  65.683  1.00  0.00    -0.231 C  
HETATM    2  C   UNL     1     -10.145  10.901  64.618  1.00  0.00    -0.391 C  
HETATM    3  C   UNL     1     -10.151   9.775  65.590  1.00  0.00    -0.282 C  
HETATM    4  C   UNL     1      -9.062  10.085  67.296  1.00  0.00    -0.138 C  
HETATM    5  C   UNL     1     -10.380  10.431  67.110  1.00  0.00    -0.290 C  
HETATM    6  C   UNL     1      -7.840   9.816  65.368  1.00  0.00    -0.122 C  
HETATM    7  O   UNL     1      -9.015   9.362  68.528  1.00  0.00    -0.128 OA 
HETATM    8  C   UNL     1     -10.718   8.594  67.319  1.00  0.00    -0.209 C  
HETATM    9  C   UNL     1     -11.279  11.346  67.887  1.00  0.00    -0.352 C  
HETATM   10  C   UNL     1      -7.202   9.914  63.958  1.00  0.00    -0.133 C  
HETATM   11  H   UNL     1      -8.510   9.506  69.320  1.00  0.00     0.000 HD 
HETATM   12  C   UNL     1      -9.330   7.641  66.818  1.00  0.00    -0.218 C  
HETATM   13  C   UNL     1      -8.211   8.156  65.677  1.00  0.00    -0.133 C  
HETATM   14  C   UNL     1      -6.855   7.403  65.647  1.00  0.00    -0.056 C  
HETATM   15  C   UNL     1      -6.819   5.998  66.256  1.00  0.00    -0.061 C  
HETATM   16  C   UNL     1      -7.204   4.841  65.352  1.00  0.00    -0.071 C  
HETATM   17  C   UNL     1      -6.887   5.030  63.890  1.00  0.00    -0.047 C  
HETATM   18  O   UNL     1      -7.001   4.102  63.088  1.00  0.00    -0.041 OA 
HETATM   19  C   UNL     1      -6.469   6.362  63.392  1.00  0.00    -0.033 C  
HETATM   20  C   UNL     1      -6.441   7.446  64.188  1.00  0.00    -0.048 C  
HETATM   21  C   UNL     1      -6.128   8.836  63.654  1.00  0.00    -0.077 C  
ENDROOT
BRANCH   4  22
HETATM   22  C   UNL     1      -8.345  11.378  67.794  1.00  0.00    -0.127 C  
HETATM   23  C   UNL     1      -7.857  12.381  68.223  1.00  0.00    -0.150 C  
ENDBRANCH   4  22
TORSDOF 1
ENDMDL
MODEL       96
REMARK 921   NORMALIZED FREE ENERGY PREDICTED BY IDOCK:   -3.09 KCAL/MOL
REMARK 922        TOTAL FREE ENERGY PREDICTED BY IDOCK:   -3.28 KCAL/MOL
REMARK 923 INTER-LIGAND FREE ENERGY PREDICTED BY IDOCK:   -3.36 KCAL/MOL
REMARK 924 INTRA-LIGAND FREE ENERGY PREDICTED BY IDOCK:    0.08 KCAL/MOL
REMARK 927      BINDING AFFINITY PREDICTED BY RF-SCORE:    0.00 PKD
ROOT
HETATM    1  C   UNL     1      -8.595   9.543  69.275  1.00  0.00    -0.149 C  
HETATM    2  C   UNL     1      -7.376   9.709  68.576  1.00  0.00    -0.078 C  
HETATM    3  C   UNL     1      -8.210   8.579  68.086  1.00  0.00    -0.120 C  
HETATM    4  C   UNL     1     -10.103   8.489  68.861  1.00  0.00    -0.203 C  
HETATM    5  C   UNL     1      -9.726   9.194  67.742  1.00  0.00    -0.188 C  
HETATM    6  C   UNL     1      -8.402   7.995  70.325  1.00  0.00    -0.125 C  
HETATM    7  O   UNL     1     -11.243   7.719  68.474  1.00  0.00    -0.357 OA 
HETATM    8  C   UNL     1      -9.681   7.512  66.903  1.00  0.00    -0.272 C  
HETATM    9  C   UNL     1     -10.422  10.279  66.976  1.00  0.00    -0.304 C  
HETATM   10  C   UNL     1      -7.144   7.987  71.232  1.00  0.00    -0.057 C  
HETATM   11  H   UNL     1     -12.122   7.678  68.834  1.00  0.00     0.000 HD 
HETATM   12  C   UNL     1      -9.336   6.242  68.066  1.00  0.00    -0.114 C  
HETATM   13  C   UNL     1      -8.469   6.488  69.483  1.00  0.00    -0.131 C  
HETATM   14  C   UNL     1      -8.601   5.394  70.574  1.00  0.00    -0.125 C  
HETATM   15  C   UNL     1      -9.059   4.004  70.124  1.00  0.00    -0.186 C  
HETATM   16  C   UNL     1      -7.986   3.045  69.636  1.00  0.00    -0.055 C  
HETATM   17  C   UNL     1      -6.631   3.214  70.274  1.00  0.00    -0.033 C  
HETATM   18  O   UNL     1      -5.729   2.396  70.083  1.00  0.00    -0.016 OA 
HETATM   19  C   UNL     1      -6.354   4.404  71.113  1.00  0.00    -0.019 C  
HETATM   20  C   UNL     1      -7.249   5.396  71.265  1.00  0.00    -0.075 C  
HETATM   21  C   UNL     1      -6.925   6.672  72.026  1.00  0.00    -0.072 C  
ENDROOT
BRANCH   4  22
HETATM   22  C   UNL     1     -10.850   9.508  69.776  1.00  0.00    -0.264 C  
HETATM   23  C   UNL     1     -11.367  10.342  70.459  1.00  0.00    -0.422 C  
ENDBRANCH   4  22
TORSDOF 1
ENDMDL
MODEL       97
REMARK 921   NORMALIZED FREE ENERGY PREDICTED BY IDOCK:   -3.02 KCAL/MOL
REMARK 922        TOTAL FREE ENERGY PREDICTED BY IDOCK:   -3.21 KCAL/MOL
REMARK 923 INTER-LIGAND FREE ENERGY PREDICTED BY IDOCK:   -3.23 KCAL/MOL
REMARK 924 INTRA-LIGAND FREE ENERGY PREDICTED BY IDOCK:    0.02 KCAL/MOL
REMARK 927      BINDING AFFINITY PREDICTED BY RF-SCORE:    0.00 PKD
ROOT
HETATM    1  C   UNL     1      -8.265   6.864  66.573  1.00  0.00    -0.117 C  
HETATM    2  C   UNL     1      -9.256   7.710  66.022  1.00  0.00    -0.118 C  
HETATM    3  C   UNL     1      -8.491   8.319  67.143  1.00  0.00    -0.123 C  
HETATM    4  C   UNL     1      -6.857   7.253  67.767  1.00  0.00    -0.070 C  
HETATM    5  C   UNL     1      -6.867   8.193  66.763  1.00  0.00    -0.069 C  
HETATM    6  C   UNL     1      -8.901   6.324  68.258  1.00  0.00    -0.114 C  
HETATM    7  O   UNL     1      -5.772   7.609  68.627  1.00  0.00    -0.025 OA 
HETATM    8  C   UNL     1      -6.943   9.444  68.163  1.00  0.00    -0.075 C  
HETATM    9  C   UNL     1      -5.874   8.493  65.681  1.00  0.00    -0.044 C  
HETATM   10  C   UNL     1     -10.324   5.707  68.239  1.00  0.00    -0.253 C  
HETATM   11  H   UNL     1      -5.014   7.114  68.916  1.00  0.00     0.000 HD 
HETATM   12  C   UNL     1      -7.714   8.752  69.581  1.00  0.00    -0.088 C  
HETATM   13  C   UNL     1      -8.844   7.511  69.513  1.00  0.00    -0.137 C  
HETATM   14  C   UNL     1      -9.116   6.748  70.835  1.00  0.00    -0.153 C  
HETATM   15  C   UNL     1      -8.758   7.461  72.143  1.00  0.00    -0.134 C  
HETATM   16  C   UNL     1      -9.807   8.381  72.742  1.00  0.00    -0.289 C  
HETATM   17  C   UNL     1     -11.238   7.989  72.472  1.00  0.00    -0.388 C  
HETATM   18  O   UNL     1     -12.173   8.560  73.038  1.00  0.00    -0.211 OA 
HETATM   19  C   UNL     1     -11.539   6.930  71.480  1.00  0.00    -0.329 C  
HETATM   20  C   UNL     1     -10.578   6.351  70.738  1.00  0.00    -0.288 C  
HETATM   21  C   UNL     1     -10.895   5.351  69.638  1.00  0.00    -0.158 C  
ENDROOT
BRANCH   4  22
HETATM   22  C   UNL     1      -6.212   5.974  67.149  1.00  0.00    -0.029 C  
HETATM   23  C   UNL     1      -5.761   4.951  66.725  1.00  0.00    -0.018 C  
ENDBRANCH   4  22
TORSDOF 1
ENDMDL
MODEL       98
REMARK 921   NORMALIZED FREE ENERGY PREDICTED BY IDOCK:   -3.01 KCAL/MOL
REMARK 922        TOTAL FREE ENERGY PREDICTED BY IDOCK:   -3.20 KCAL/MOL
REMARK 923 INTER-LIGAND FREE ENERGY PREDICTED BY IDOCK:   -3.18 KCAL/MOL
REMARK 924 INTRA-LIGAND FREE ENERGY PREDICTED BY IDOCK:   -0.02 KCAL/MOL
REMARK 927      BINDING AFFINITY PREDICTED BY RF-SCORE:    0.00 PKD
ROOT
HETATM    1  C   UNL     1      -9.769   9.321  69.699  1.00  0.00    -0.192 C  
HETATM    2  C   UNL     1     -10.738  10.100  69.023  1.00  0.00    -0.249 C  
HETATM    3  C   UNL     1     -10.357   8.850  68.311  1.00  0.00    -0.250 C  
HETATM    4  C   UNL     1      -9.193   7.553  69.387  1.00  0.00    -0.149 C  
HETATM    5  C   UNL     1     -10.568   7.584  69.383  1.00  0.00    -0.225 C  
HETATM    6  C   UNL     1      -8.168   9.502  68.731  1.00  0.00    -0.112 C  
HETATM    7  O   UNL     1      -8.831   6.191  69.147  1.00  0.00    -0.123 OA 
HETATM    8  C   UNL     1     -10.416   6.771  67.696  1.00  0.00    -0.287 C  
HETATM    9  C   UNL     1     -11.572   6.967  70.310  1.00  0.00    -0.362 C  
HETATM   10  C   UNL     1      -7.736  10.969  68.472  1.00  0.00    -0.122 C  
HETATM   11  H   UNL     1      -8.291   5.589  69.646  1.00  0.00     0.000 HD 
HETATM   12  C   UNL     1      -8.901   7.211  66.924  1.00  0.00    -0.132 C  
HETATM   13  C   UNL     1      -8.079   8.642  67.234  1.00  0.00    -0.101 C  
HETATM   14  C   UNL     1      -6.591   8.696  66.798  1.00  0.00    -0.061 C  
HETATM   15  C   UNL     1      -6.140   7.709  65.717  1.00  0.00    -0.038 C  
HETATM   16  C   UNL     1      -6.327   8.132  64.271  1.00  0.00    -0.065 C  
HETATM   17  C   UNL     1      -6.232   9.615  64.015  1.00  0.00    -0.108 C  
HETATM   18  O   UNL     1      -6.203  10.063  62.868  1.00  0.00    -0.114 OA 
HETATM   19  C   UNL     1      -6.215  10.561  65.156  1.00  0.00    -0.079 C  
HETATM   20  C   UNL     1      -6.367  10.150  66.427  1.00  0.00    -0.077 C  
HETATM   21  C   UNL     1      -6.470  11.128  67.589  1.00  0.00    -0.065 C  
ENDROOT
BRANCH   4  22
HETATM   22  C   UNL     1      -8.767   7.612  70.887  1.00  0.00    -0.138 C  
HETATM   23  C   UNL     1      -8.385   7.605  72.019  1.00  0.00    -0.129 C  
ENDBRANCH   4  22
TORSDOF 1
ENDMDL
MODEL       99
REMARK 921   NORMALIZED FREE ENERGY PREDICTED BY IDOCK:   -2.96 KCAL/MOL
REMARK 922        TOTAL FREE ENERGY PREDICTED BY IDOCK:   -3.15 KCAL/MOL
REMARK 923 INTER-LIGAND FREE ENERGY PREDICTED BY IDOCK:   -3.16 KCAL/MOL
REMARK 924 INTRA-LIGAND FREE ENERGY PREDICTED BY IDOCK:    0.01 KCAL/MOL
REMARK 927      BINDING AFFINITY PREDICTED BY RF-SCORE:    0.00 PKD
ROOT
HETATM    1  C   UNL     1      -6.283   7.477  68.178  1.00  0.00    -0.040 C  
HETATM    2  C   UNL     1      -5.386   8.397  68.769  1.00  0.00    -0.036 C  
HETATM    3  C   UNL     1      -6.735   8.375  69.395  1.00  0.00    -0.045 C  
HETATM    4  C   UNL     1      -7.961   6.856  68.775  1.00  0.00    -0.120 C  
HETATM    5  C   UNL     1      -7.062   6.789  69.814  1.00  0.00    -0.068 C  
HETATM    6  C   UNL     1      -7.541   8.495  67.221  1.00  0.00    -0.097 C  
HETATM    7  O   UNL     1      -9.200   6.373  69.298  1.00  0.00    -0.135 OA 
HETATM    8  C   UNL     1      -8.327   7.810  70.755  1.00  0.00    -0.116 C  
HETATM    9  C   UNL     1      -6.496   5.616  70.557  1.00  0.00    -0.035 C  
HETATM   10  C   UNL     1      -6.921   9.507  66.222  1.00  0.00    -0.091 C  
HETATM   11  H   UNL     1      -9.769   5.668  69.010  1.00  0.00     0.000 HD 
HETATM   12  C   UNL     1      -9.283   8.792  69.655  1.00  0.00    -0.150 C  
HETATM   13  C   UNL     1      -8.728   9.325  68.163  1.00  0.00    -0.125 C  
HETATM   14  C   UNL     1      -9.803   9.817  67.159  1.00  0.00    -0.238 C  
HETATM   15  C   UNL     1     -11.155  10.250  67.734  1.00  0.00    -0.335 C  
HETATM   16  C   UNL     1     -11.280  11.690  68.200  1.00  0.00    -0.325 C  
HETATM   17  C   UNL     1     -10.434  12.687  67.451  1.00  0.00    -0.224 C  
HETATM   18  O   UNL     1     -10.571  13.899  67.626  1.00  0.00    -0.243 OA 
HETATM   19  C   UNL     1      -9.386  12.211  66.516  1.00  0.00    -0.229 C  
HETATM   20  C   UNL     1      -9.100  10.906  66.369  1.00  0.00    -0.188 C  
HETATM   21  C   UNL     1      -7.948  10.421  65.502  1.00  0.00    -0.153 C  
ENDROOT
BRANCH   4  22
HETATM   22  C   UNL     1      -7.643   5.637  67.854  1.00  0.00    -0.085 C  
HETATM   23  C   UNL     1      -7.412   4.657  67.211  1.00  0.00    -0.085 C  
ENDBRANCH   4  22
TORSDOF 1
ENDMDL
MODEL      100
REMARK 921   NORMALIZED FREE ENERGY PREDICTED BY IDOCK:   -2.94 KCAL/MOL
REMARK 922        TOTAL FREE ENERGY PREDICTED BY IDOCK:   -3.12 KCAL/MOL
REMARK 923 INTER-LIGAND FREE ENERGY PREDICTED BY IDOCK:   -3.13 KCAL/MOL
REMARK 924 INTRA-LIGAND FREE ENERGY PREDICTED BY IDOCK:    0.00 KCAL/MOL
REMARK 927      BINDING AFFINITY PREDICTED BY RF-SCORE:    0.00 PKD
ROOT
HETATM    1  C   UNL     1     -10.048   8.323  70.214  1.00  0.00    -0.195 C  
HETATM    2  C   UNL     1      -9.968   9.017  71.445  1.00  0.00    -0.388 C  
HETATM    3  C   UNL     1      -8.654   8.557  70.918  1.00  0.00    -0.184 C  
HETATM    4  C   UNL     1      -8.689   7.821  69.007  1.00  0.00    -0.135 C  
HETATM    5  C   UNL     1      -8.515   9.140  69.357  1.00  0.00    -0.130 C  
HETATM    6  C   UNL     1      -9.710   6.514  70.598  1.00  0.00    -0.194 C  
HETATM    7  O   UNL     1      -7.631   7.513  68.097  1.00  0.00    -0.108 OA 
HETATM    8  C   UNL     1      -6.776   8.610  69.835  1.00  0.00    -0.042 C  
HETATM    9  C   UNL     1      -8.606  10.397  68.545  1.00  0.00    -0.134 C  
HETATM   10  C   UNL     1     -10.598   5.919  71.722  1.00  0.00    -0.286 C  
HETATM   11  H   UNL     1      -7.647   7.171  67.210  1.00  0.00     0.000 HD 
HETATM   12  C   UNL     1      -6.743   6.916  70.298  1.00  0.00    -0.052 C  
HETATM   13  C   UNL     1      -8.066   6.099  70.933  1.00  0.00    -0.121 C  
HETATM   14  C   UNL     1      -8.003   4.549  70.904  1.00  0.00    -0.072 C  
HETATM   15  C   UNL     1      -6.618   3.905  70.791  1.00  0.00    -0.031 C  
HETATM   16  C   UNL     1      -5.855   3.670  72.084  1.00  0.00    -0.009 C  
HETATM   17  C   UNL     1      -6.708   3.399  73.297  1.00  0.00    -0.034 C  
HETATM   18  O   UNL     1      -6.206   3.034  74.361  1.00  0.00    -0.014 OA 
HETATM   19  C   UNL     1      -8.173   3.612  73.231  1.00  0.00    -0.080 C  
HETATM   20  C   UNL     1      -8.773   4.125  72.142  1.00  0.00    -0.120 C  
HETATM   21  C   UNL     1     -10.257   4.457  72.113  1.00  0.00    -0.247 C  
ENDROOT
BRANCH   4  22
HETATM   22  C   UNL     1      -9.856   7.803  67.971  1.00  0.00    -0.192 C  
HETATM   23  C   UNL     1     -10.754   7.712  67.188  1.00  0.00    -0.361 C  
ENDBRANCH   4  22
TORSDOF 1
ENDMDL
MODEL      101
REMARK 921   NORMALIZED FREE ENERGY PREDICTED BY IDOCK:   -2.81 KCAL/MOL
REMARK 922        TOTAL FREE ENERGY PREDICTED BY IDOCK:   -2.99 KCAL/MOL
REMARK 923 INTER-LIGAND FREE ENERGY PREDICTED BY IDOCK:   -2.97 KCAL/MOL
REMARK 924 INTRA-LIGAND FREE ENERGY PREDICTED BY IDOCK:   -0.02 KCAL/MOL
REMARK 927      BINDING AFFINITY PREDICTED BY RF-SCORE:    0.00 PKD
ROOT
HETATM    1  C   UNL     1      -9.066   9.949  65.397  1.00  0.00    -0.241 C  
HETATM    2  C   UNL     1     -10.256   9.391  65.923  1.00  0.00    -0.123 C  
HETATM    3  C   UNL     1     -10.473  10.576  65.050  1.00  0.00    -0.221 C  
HETATM    4  C   UNL     1      -8.819  11.227  64.033  1.00  0.00     0.203 C  
HETATM    5  C   UNL     1      -9.705  10.269  63.597  1.00  0.00    -0.276 C  
HETATM    6  C   UNL     1      -8.792  11.573  66.304  1.00  0.00    -0.186 C  
HETATM    7  O   UNL     1      -8.681  12.154  62.954  1.00  0.00    -0.244 OA 
HETATM    8  C   UNL     1     -10.844  11.722  63.247  1.00  0.00    -0.400 C  
HETATM    9  C   UNL     1      -9.600   9.252  62.500  1.00  0.00     0.818 C  
HETATM   10  C   UNL     1      -8.810  11.456  67.850  1.00  0.00    -0.149 C  
HETATM   11  H   UNL     1      -7.913  12.456  62.482  1.00  0.00     0.000 HD 
HETATM   12  C   UNL     1     -10.493  13.066  64.322  1.00  0.00    -0.424 C  
HETATM   13  C   UNL     1      -9.823  12.884  65.851  1.00  0.00    -0.239 C  
HETATM   14  C   UNL     1      -9.206  14.154  66.493  1.00  0.00    -0.247 C  
HETATM   15  C   UNL     1      -9.679  15.510  65.961  1.00  0.00    -0.378 C  
HETATM   16  C   UNL     1     -10.932  16.101  66.583  1.00  0.00    -0.055 C  
HETATM   17  C   UNL     1     -11.165  15.744  68.029  1.00  0.00    -0.338 C  
HETATM   18  O   UNL     1     -12.053  16.290  68.685  1.00  0.00    -0.059 OA 
HETATM   19  C   UNL     1     -10.344  14.689  68.670  1.00  0.00    -0.246 C  
HETATM   20  C   UNL     1      -9.442  13.968  67.981  1.00  0.00    -0.206 C  
HETATM   21  C   UNL     1      -8.684  12.806  68.605  1.00  0.00     0.057 C  
ENDROOT
BRANCH   4  22
HETATM   22  C   UNL     1      -7.403  10.580  63.924  1.00  0.00     0.108 C  
HETATM   23  C   UNL     1      -6.288  10.158  63.839  1.00  0.00    -0.127 C  
ENDBRANCH   4  22
TORSDOF 1
ENDMDL
MODEL      102
REMARK 921   NORMALIZED FREE ENERGY PREDICTED BY IDOCK:   -2.80 KCAL/MOL
REMARK 922        TOTAL FREE ENERGY PREDICTED BY IDOCK:   -2.98 KCAL/MOL
REMARK 923 INTER-LIGAND FREE ENERGY PREDICTED BY IDOCK:   -2.96 KCAL/MOL
REMARK 924 INTRA-LIGAND FREE ENERGY PREDICTED BY IDOCK:   -0.02 KCAL/MOL
REMARK 927      BINDING AFFINITY PREDICTED BY RF-SCORE:    0.00 PKD
ROOT
HETATM    1  C   UNL     1     -11.241   8.130  69.363  1.00  0.00     0.213 C  
HETATM    2  C   UNL     1     -11.495   6.914  70.040  1.00  0.00    -0.328 C  
HETATM    3  C   UNL     1     -10.145   7.485  70.299  1.00  0.00    -0.194 C  
HETATM    4  C   UNL     1      -9.848   9.382  69.587  1.00  0.00    -0.193 C  
HETATM    5  C   UNL     1     -10.364   9.059  70.820  1.00  0.00    -0.305 C  
HETATM    6  C   UNL     1     -10.015   7.734  67.994  1.00  0.00    -0.210 C  
HETATM    7  O   UNL     1      -8.805  10.328  69.833  1.00  0.00    -0.367 OA 
HETATM    8  C   UNL     1      -8.587   8.641  71.268  1.00  0.00    -0.236 C  
HETATM    9  C   UNL     1     -11.106   9.884  71.827  1.00  0.00     0.345 C  
HETATM   10  C   UNL     1     -10.444   6.568  67.066  1.00  0.00    -0.364 C  
HETATM   11  H   UNL     1      -8.668  11.208  69.502  1.00  0.00     0.000 HD 
HETATM   12  C   UNL     1      -7.680   8.155  69.844  1.00  0.00    -0.098 C  
HETATM   13  C   UNL     1      -8.382   7.457  68.487  1.00  0.00    -0.126 C  
HETATM   14  C   UNL     1      -7.536   7.466  67.187  1.00  0.00    -0.106 C  
HETATM   15  C   UNL     1      -6.020   7.623  67.338  1.00  0.00    -0.047 C  
HETATM   16  C   UNL     1      -5.211   6.359  67.567  1.00  0.00    -0.005 C  
HETATM   17  C   UNL     1      -5.773   5.109  66.937  1.00  0.00    -0.018 C  
HETATM   18  O   UNL     1      -5.127   4.060  66.914  1.00  0.00    -0.007 OA 
HETATM   19  C   UNL     1      -7.143   5.121  66.370  1.00  0.00    -0.072 C  
HETATM   20  C   UNL     1      -7.948   6.193  66.470  1.00  0.00    -0.105 C  
HETATM   21  C   UNL     1      -9.393   6.169  65.996  1.00  0.00    -0.085 C  
ENDROOT
BRANCH   4  22
HETATM   22  C   UNL     1     -10.868  10.371  68.942  1.00  0.00    -0.273 C  
HETATM   23  C   UNL     1     -11.589  11.172  68.426  1.00  0.00    -0.376 C  
ENDBRANCH   4  22
TORSDOF 1
ENDMDL
MODEL      103
REMARK 921   NORMALIZED FREE ENERGY PREDICTED BY IDOCK:   -2.77 KCAL/MOL
REMARK 922        TOTAL FREE ENERGY PREDICTED BY IDOCK:   -2.95 KCAL/MOL
REMARK 923 INTER-LIGAND FREE ENERGY PREDICTED BY IDOCK:   -3.02 KCAL/MOL
REMARK 924 INTRA-LIGAND FREE ENERGY PREDICTED BY IDOCK:    0.07 KCAL/MOL
REMARK 927      BINDING AFFINITY PREDICTED BY RF-SCORE:    0.00 PKD
ROOT
HETATM    1  C   UNL     1      -7.792  10.914  66.915  1.00  0.00    -0.135 C  
HETATM    2  C   UNL     1      -6.384  10.892  66.770  1.00  0.00    -0.097 C  
HETATM    3  C   UNL     1      -7.055   9.617  66.397  1.00  0.00    -0.093 C  
HETATM    4  C   UNL     1      -9.099   9.700  66.303  1.00  0.00    -0.160 C  
HETATM    5  C   UNL     1      -8.235   9.987  65.272  1.00  0.00    -0.148 C  
HETATM    6  C   UNL     1      -8.192   9.845  68.409  1.00  0.00    -0.106 C  
HETATM    7  O   UNL     1     -10.055   8.782  65.769  1.00  0.00    -0.420 OA 
HETATM    8  C   UNL     1      -8.020   8.124  65.155  1.00  0.00    -0.126 C  
HETATM    9  C   UNL     1      -8.453  10.695  63.968  1.00  0.00    -0.056 C  
HETATM   10  C   UNL     1      -7.414  10.225  69.696  1.00  0.00    -0.159 C  
HETATM   11  H   UNL     1     -11.004   8.820  65.725  1.00  0.00     0.000 HD 
HETATM   12  C   UNL     1      -8.300   7.363  66.713  1.00  0.00    -0.122 C  
HETATM   13  C   UNL     1      -8.059   8.137  68.183  1.00  0.00    -0.128 C  
HETATM   14  C   UNL     1      -8.727   7.489  69.425  1.00  0.00    -0.137 C  
HETATM   15  C   UNL     1      -9.097   6.006  69.329  1.00  0.00    -0.126 C  
HETATM   16  C   UNL     1      -8.018   4.998  69.686  1.00  0.00    -0.071 C  
HETATM   17  C   UNL     1      -7.026   5.455  70.725  1.00  0.00    -0.056 C  
HETATM   18  O   UNL     1      -6.209   4.673  71.214  1.00  0.00    -0.017 OA 
HETATM   19  C   UNL     1      -6.997   6.877  71.143  1.00  0.00    -0.069 C  
HETATM   20  C   UNL     1      -7.776   7.808  70.564  1.00  0.00    -0.088 C  
HETATM   21  C   UNL     1      -7.664   9.286  70.906  1.00  0.00    -0.134 C  
ENDROOT
BRANCH   4  22
HETATM   22  C   UNL     1     -10.049  10.933  66.421  1.00  0.00    -0.280 C  
HETATM   23  C   UNL     1     -10.723  11.909  66.560  1.00  0.00    -0.293 C  
ENDBRANCH   4  22
TORSDOF 1
ENDMDL
MODEL      104
REMARK 921   NORMALIZED FREE ENERGY PREDICTED BY IDOCK:   -2.63 KCAL/MOL
REMARK 922        TOTAL FREE ENERGY PREDICTED BY IDOCK:   -2.80 KCAL/MOL
REMARK 923 INTER-LIGAND FREE ENERGY PREDICTED BY IDOCK:   -2.88 KCAL/MOL
REMARK 924 INTRA-LIGAND FREE ENERGY PREDICTED BY IDOCK:    0.08 KCAL/MOL
REMARK 927      BINDING AFFINITY PREDICTED BY RF-SCORE:    0.00 PKD
ROOT
HETATM    1  C   UNL     1      -8.774   6.702  66.661  1.00  0.00    -0.126 C  
HETATM    2  C   UNL     1     -10.171   6.918  66.581  1.00  0.00    -0.215 C  
HETATM    3  C   UNL     1      -9.532   7.504  67.790  1.00  0.00    -0.157 C  
HETATM    4  C   UNL     1      -7.484   7.479  67.797  1.00  0.00    -0.101 C  
HETATM    5  C   UNL     1      -8.274   8.473  67.268  1.00  0.00    -0.108 C  
HETATM    6  C   UNL     1      -8.506   5.433  68.022  1.00  0.00    -0.097 C  
HETATM    7  O   UNL     1      -6.537   8.137  68.640  1.00  0.00    -0.055 OA 
HETATM    8  C   UNL     1      -8.558   8.970  69.058  1.00  0.00    -0.134 C  
HETATM    9  C   UNL     1      -7.951   9.597  66.330  1.00  0.00    -0.108 C  
HETATM   10  C   UNL     1      -9.342   4.136  67.863  1.00  0.00    -0.210 C  
HETATM   11  H   UNL     1      -5.586   8.126  68.643  1.00  0.00     0.000 HD 
HETATM   12  C   UNL     1      -8.401   7.583  70.124  1.00  0.00    -0.134 C  
HETATM   13  C   UNL     1      -8.695   6.001  69.644  1.00  0.00    -0.133 C  
HETATM   14  C   UNL     1      -8.129   4.882  70.556  1.00  0.00    -0.084 C  
HETATM   15  C   UNL     1      -7.815   5.253  72.009  1.00  0.00    -0.108 C  
HETATM   16  C   UNL     1      -8.953   5.157  73.010  1.00  0.00    -0.119 C  
HETATM   17  C   UNL     1      -9.985   4.098  72.716  1.00  0.00    -0.151 C  
HETATM   18  O   UNL     1     -10.861   3.816  73.535  1.00  0.00    -0.195 OA 
HETATM   19  C   UNL     1      -9.980   3.408  71.404  1.00  0.00    -0.135 C  
HETATM   20  C   UNL     1      -9.131   3.750  70.419  1.00  0.00    -0.195 C  
HETATM   21  C   UNL     1      -9.202   3.127  69.034  1.00  0.00    -0.225 C  
ENDROOT
BRANCH   4  22
HETATM   22  C   UNL     1      -6.493   7.071  66.662  1.00  0.00    -0.051 C  
HETATM   23  C   UNL     1      -5.792   6.770  65.743  1.00  0.00    -0.034 C  
ENDBRANCH   4  22
TORSDOF 1
ENDMDL
MODEL      105
REMARK 921   NORMALIZED FREE ENERGY PREDICTED BY IDOCK:   -2.35 KCAL/MOL
REMARK 922        TOTAL FREE ENERGY PREDICTED BY IDOCK:   -2.50 KCAL/MOL
REMARK 923 INTER-LIGAND FREE ENERGY PREDICTED BY IDOCK:   -2.52 KCAL/MOL
REMARK 924 INTRA-LIGAND FREE ENERGY PREDICTED BY IDOCK:    0.01 KCAL/MOL
REMARK 927      BINDING AFFINITY PREDICTED BY RF-SCORE:    0.00 PKD
ROOT
HETATM    1  C   UNL     1      -8.054   7.203  66.946  1.00  0.00    -0.116 C  
HETATM    2  C   UNL     1      -8.821   6.176  66.345  1.00  0.00    -0.144 C  
HETATM    3  C   UNL     1      -9.457   6.790  67.542  1.00  0.00    -0.139 C  
HETATM    4  C   UNL     1      -8.531   8.471  68.258  1.00  0.00    -0.135 C  
HETATM    5  C   UNL     1      -9.504   8.442  67.286  1.00  0.00    -0.196 C  
HETATM    6  C   UNL     1      -7.389   6.500  68.557  1.00  0.00    -0.087 C  
HETATM    7  O   UNL     1      -8.957   9.447  69.211  1.00  0.00    -0.142 OA 
HETATM    8  C   UNL     1     -10.687   8.137  68.715  1.00  0.00    -0.074 C  
HETATM    9  C   UNL     1      -9.942   9.479  66.296  1.00  0.00    -0.344 C  
HETATM   10  C   UNL     1      -6.638   5.151  68.408  1.00  0.00    -0.045 C  
HETATM   11  H   UNL     1      -8.527  10.227  69.543  1.00  0.00     0.000 HD 
HETATM   12  C   UNL     1      -9.867   7.335  70.045  1.00  0.00    -0.175 C  
HETATM   13  C   UNL     1      -8.526   6.343  69.850  1.00  0.00    -0.131 C  
HETATM   14  C   UNL     1      -7.689   6.050  71.122  1.00  0.00    -0.109 C  
HETATM   15  C   UNL     1      -8.381   6.237  72.476  1.00  0.00    -0.113 C  
HETATM   16  C   UNL     1      -9.170   5.058  73.019  1.00  0.00    -0.130 C  
HETATM   17  C   UNL     1      -8.652   3.698  72.626  1.00  0.00    -0.090 C  
HETATM   18  O   UNL     1      -9.107   2.671  73.134  1.00  0.00    -0.080 OA 
HETATM   19  C   UNL     1      -7.608   3.580  71.581  1.00  0.00    -0.053 C  
HETATM   20  C   UNL     1      -7.156   4.647  70.898  1.00  0.00    -0.037 C  
HETATM   21  C   UNL     1      -6.173   4.515  69.745  1.00  0.00    -0.027 C  
ENDROOT
BRANCH   4  22
HETATM   22  C   UNL     1      -7.346   9.285  67.652  1.00  0.00    -0.084 C  
HETATM   23  C   UNL     1      -6.487   9.969  67.180  1.00  0.00    -0.069 C  
ENDBRANCH   4  22
TORSDOF 1
ENDMDL
MODEL      106
REMARK 921   NORMALIZED FREE ENERGY PREDICTED BY IDOCK:   -2.34 KCAL/MOL
REMARK 922        TOTAL FREE ENERGY PREDICTED BY IDOCK:   -2.49 KCAL/MOL
REMARK 923 INTER-LIGAND FREE ENERGY PREDICTED BY IDOCK:   -2.48 KCAL/MOL
REMARK 924 INTRA-LIGAND FREE ENERGY PREDICTED BY IDOCK:   -0.01 KCAL/MOL
REMARK 927      BINDING AFFINITY PREDICTED BY RF-SCORE:    0.00 PKD
ROOT
HETATM    1  C   UNL     1      -8.051   7.015  68.069  1.00  0.00    -0.119 C  
HETATM    2  C   UNL     1      -6.685   7.356  68.208  1.00  0.00    -0.054 C  
HETATM    3  C   UNL     1      -6.950   5.892  68.207  1.00  0.00    -0.072 C  
HETATM    4  C   UNL     1      -8.861   5.350  67.708  1.00  0.00    -0.105 C  
HETATM    5  C   UNL     1      -7.825   5.547  66.825  1.00  0.00    -0.101 C  
HETATM    6  C   UNL     1      -8.618   6.382  69.746  1.00  0.00    -0.138 C  
HETATM    7  O   UNL     1      -9.424   4.079  67.376  1.00  0.00    -0.170 OA 
HETATM    8  C   UNL     1      -7.208   3.881  67.437  1.00  0.00    -0.067 C  
HETATM    9  C   UNL     1      -7.817   5.731  65.337  1.00  0.00    -0.107 C  
HETATM   10  C   UNL     1      -8.320   7.342  70.928  1.00  0.00    -0.116 C  
HETATM   11  H   UNL     1     -10.311   3.828  67.144  1.00  0.00     0.000 HD 
HETATM   12  C   UNL     1      -7.743   3.581  69.083  1.00  0.00    -0.051 C  
HETATM   13  C   UNL     1      -8.081   4.800  70.188  1.00  0.00    -0.068 C  
HETATM   14  C   UNL     1      -8.916   4.397  71.431  1.00  0.00    -0.164 C  
HETATM   15  C   UNL     1      -8.933   2.914  71.815  1.00  0.00    -0.136 C  
HETATM   16  C   UNL     1      -7.810   2.417  72.710  1.00  0.00    -0.053 C  
HETATM   17  C   UNL     1      -7.258   3.433  73.677  1.00  0.00    -0.051 C  
HETATM   18  O   UNL     1      -6.464   3.106  74.561  1.00  0.00    -0.024 OA 
HETATM   19  C   UNL     1      -7.638   4.860  73.546  1.00  0.00    -0.092 C  
HETATM   20  C   UNL     1      -8.402   5.306  72.532  1.00  0.00    -0.118 C  
HETATM   21  C   UNL     1      -8.695   6.784  72.327  1.00  0.00    -0.130 C  
ENDROOT
BRANCH   4  22
HETATM   22  C   UNL     1     -10.039   6.232  67.189  1.00  0.00    -0.213 C  
HETATM   23  C   UNL     1     -10.986   6.876  66.847  1.00  0.00    -0.328 C  
ENDBRANCH   4  22
TORSDOF 1
ENDMDL
MODEL      107
REMARK 921   NORMALIZED FREE ENERGY PREDICTED BY IDOCK:   -2.33 KCAL/MOL
REMARK 922        TOTAL FREE ENERGY PREDICTED BY IDOCK:   -2.48 KCAL/MOL
REMARK 923 INTER-LIGAND FREE ENERGY PREDICTED BY IDOCK:   -2.46 KCAL/MOL
REMARK 924 INTRA-LIGAND FREE ENERGY PREDICTED BY IDOCK:   -0.01 KCAL/MOL
REMARK 927      BINDING AFFINITY PREDICTED BY RF-SCORE:    0.00 PKD
ROOT
HETATM    1  C   UNL     1      -7.160   8.998  67.781  1.00  0.00    -0.079 C  
HETATM    2  C   UNL     1      -6.335   8.062  67.113  1.00  0.00    -0.056 C  
HETATM    3  C   UNL     1      -7.634   7.506  67.579  1.00  0.00    -0.113 C  
HETATM    4  C   UNL     1      -8.977   8.886  68.277  1.00  0.00    -0.137 C  
HETATM    5  C   UNL     1      -8.843   8.486  66.968  1.00  0.00    -0.144 C  
HETATM    6  C   UNL     1      -7.133   8.530  69.602  1.00  0.00    -0.052 C  
HETATM    7  O   UNL     1     -10.369   8.777  68.580  1.00  0.00    -0.204 OA 
HETATM    8  C   UNL     1      -9.723   6.924  67.530  1.00  0.00    -0.162 C  
HETATM    9  C   UNL     1      -9.351   9.091  65.693  1.00  0.00    -0.289 C  
HETATM   10  C   UNL     1      -5.712   8.389  70.208  1.00  0.00    -0.025 C  
HETATM   11  H   UNL     1     -10.992   9.417  68.904  1.00  0.00     0.000 HD 
HETATM   12  C   UNL     1      -9.425   6.616  69.233  1.00  0.00    -0.141 C  
HETATM   13  C   UNL     1      -8.049   7.133  70.046  1.00  0.00    -0.127 C  
HETATM   14  C   UNL     1      -8.122   7.144  71.595  1.00  0.00    -0.102 C  
HETATM   15  C   UNL     1      -9.177   6.250  72.254  1.00  0.00    -0.139 C  
HETATM   16  C   UNL     1      -8.791   4.807  72.525  1.00  0.00    -0.125 C  
HETATM   17  C   UNL     1      -7.329   4.571  72.810  1.00  0.00    -0.083 C  
HETATM   18  O   UNL     1      -6.925   3.476  73.203  1.00  0.00    -0.038 OA 
HETATM   19  C   UNL     1      -6.348   5.657  72.576  1.00  0.00    -0.052 C  
HETATM   20  C   UNL     1      -6.702   6.836  72.033  1.00  0.00    -0.058 C  
HETATM   21  C   UNL     1      -5.680   7.906  71.682  1.00  0.00    -0.035 C  
ENDROOT
BRANCH   4  22
HETATM   22  C   UNL     1      -8.897  10.445  68.259  1.00  0.00    -0.135 C  
HETATM   23  C   UNL     1      -8.865  11.638  68.317  1.00  0.00    -0.167 C  
ENDBRANCH   4  22
TORSDOF 1
ENDMDL
MODEL      108
REMARK 921   NORMALIZED FREE ENERGY PREDICTED BY IDOCK:   -2.32 KCAL/MOL
REMARK 922        TOTAL FREE ENERGY PREDICTED BY IDOCK:   -2.47 KCAL/MOL
REMARK 923 INTER-LIGAND FREE ENERGY PREDICTED BY IDOCK:   -2.55 KCAL/MOL
REMARK 924 INTRA-LIGAND FREE ENERGY PREDICTED BY IDOCK:    0.08 KCAL/MOL
REMARK 927      BINDING AFFINITY PREDICTED BY RF-SCORE:    0.00 PKD
ROOT
HETATM    1  C   UNL     1      -9.193  14.312  66.906  1.00  0.00    -0.268 C  
HETATM    2  C   UNL     1      -8.337  13.921  65.848  1.00  0.00     1.808 C  
HETATM    3  C   UNL     1      -9.581  13.111  65.957  1.00  0.00    -0.169 C  
HETATM    4  C   UNL     1     -10.978  13.827  67.271  1.00  0.00    -0.292 C  
HETATM    5  C   UNL     1     -10.870  14.175  65.945  1.00  0.00    -0.294 C  
HETATM    6  C   UNL     1      -9.067  12.971  68.218  1.00  0.00    -0.179 C  
HETATM    7  O   UNL     1     -12.349  13.475  67.474  1.00  0.00    -0.290 OA 
HETATM    8  C   UNL     1     -11.630  12.489  65.613  1.00  0.00    -0.435 C  
HETATM    9  C   UNL     1     -11.463  15.315  65.171  1.00  0.00    -0.260 C  
HETATM   10  C   UNL     1      -7.619  12.640  68.661  1.00  0.00    -0.083 C  
HETATM   11  H   UNL     1     -12.997  13.808  68.084  1.00  0.00     0.000 HD 
HETATM   12  C   UNL     1     -11.248  11.365  66.907  1.00  0.00    -0.331 C  
HETATM   13  C   UNL     1      -9.877  11.484  67.870  1.00  0.00    -0.192 C  
HETATM   14  C   UNL     1      -9.892  10.684  69.199  1.00  0.00    -0.217 C  
HETATM   15  C   UNL     1     -10.863   9.504  69.297  1.00  0.00    -0.211 C  
HETATM   16  C   UNL     1     -10.379   8.162  68.778  1.00  0.00    -0.220 C  
HETATM   17  C   UNL     1      -8.896   7.920  68.898  1.00  0.00    -0.142 C  
HETATM   18  O   UNL     1      -8.409   6.813  68.664  1.00  0.00    -0.119 OA 
HETATM   19  C   UNL     1      -7.993   9.038  69.263  1.00  0.00    -0.096 C  
HETATM   20  C   UNL     1      -8.440  10.298  69.413  1.00  0.00    -0.170 C  
HETATM   21  C   UNL     1      -7.500  11.466  69.669  1.00  0.00     0.245 C  
ENDROOT
BRANCH   4  22
HETATM   22  C   UNL     1     -10.996  15.170  68.066  1.00  0.00    -0.295 C  
HETATM   23  C   UNL     1     -10.951  16.222  68.631  1.00  0.00    -0.340 C  
ENDBRANCH   4  22
TORSDOF 1
ENDMDL
MODEL      109
REMARK 921   NORMALIZED FREE ENERGY PREDICTED BY IDOCK:   -2.31 KCAL/MOL
REMARK 922        TOTAL FREE ENERGY PREDICTED BY IDOCK:   -2.46 KCAL/MOL
REMARK 923 INTER-LIGAND FREE ENERGY PREDICTED BY IDOCK:   -2.44 KCAL/MOL
REMARK 924 INTRA-LIGAND FREE ENERGY PREDICTED BY IDOCK:   -0.02 KCAL/MOL
REMARK 927      BINDING AFFINITY PREDICTED BY RF-SCORE:    0.00 PKD
ROOT
HETATM    1  C   UNL     1      -8.768   7.006  70.143  1.00  0.00    -0.141 C  
HETATM    2  C   UNL     1      -9.871   7.864  70.365  1.00  0.00    -0.183 C  
HETATM    3  C   UNL     1      -9.395   7.836  68.956  1.00  0.00    -0.150 C  
HETATM    4  C   UNL     1      -8.007   6.390  68.531  1.00  0.00    -0.106 C  
HETATM    5  C   UNL     1      -9.372   6.236  68.471  1.00  0.00    -0.121 C  
HETATM    6  C   UNL     1      -7.276   8.114  69.863  1.00  0.00    -0.060 C  
HETATM    7  O   UNL     1      -7.502   5.906  67.285  1.00  0.00    -0.079 OA 
HETATM    8  C   UNL     1      -9.248   7.226  66.879  1.00  0.00    -0.180 C  
HETATM    9  C   UNL     1     -10.225   5.004  68.400  1.00  0.00    -0.143 C  
HETATM   10  C   UNL     1      -7.044   9.172  70.974  1.00  0.00    -0.106 C  
HETATM   11  H   UNL     1      -6.858   5.236  67.088  1.00  0.00     0.000 HD 
HETATM   12  C   UNL     1      -7.857   8.299  66.917  1.00  0.00    -0.096 C  
HETATM   13  C   UNL     1      -7.193   8.912  68.333  1.00  0.00    -0.078 C  
HETATM   14  C   UNL     1      -5.759   9.494  68.230  1.00  0.00    -0.037 C  
HETATM   15  C   UNL     1      -5.273   9.923  66.843  1.00  0.00    -0.041 C  
HETATM   16  C   UNL     1      -5.615  11.334  66.395  1.00  0.00    -0.146 C  
HETATM   17  C   UNL     1      -5.718  12.355  67.499  1.00  0.00    -0.138 C  
HETATM   18  O   UNL     1      -5.827  13.556  67.249  1.00  0.00    -0.345 OA 
HETATM   19  C   UNL     1      -5.732  11.913  68.914  1.00  0.00    -0.051 C  
HETATM   20  C   UNL     1      -5.740  10.612  69.257  1.00  0.00    -0.041 C  
HETATM   21  C   UNL     1      -5.875  10.155  70.701  1.00  0.00    -0.096 C  
ENDROOT
BRANCH   4  22
HETATM   22  C   UNL     1      -7.483   5.225  69.426  1.00  0.00    -0.065 C  
HETATM   23  C   UNL     1      -7.015   4.334  70.071  1.00  0.00    -0.041 C  
ENDBRANCH   4  22
TORSDOF 1
ENDMDL
MODEL      110
REMARK 921   NORMALIZED FREE ENERGY PREDICTED BY IDOCK:   -1.75 KCAL/MOL
REMARK 922        TOTAL FREE ENERGY PREDICTED BY IDOCK:   -1.87 KCAL/MOL
REMARK 923 INTER-LIGAND FREE ENERGY PREDICTED BY IDOCK:   -1.90 KCAL/MOL
REMARK 924 INTRA-LIGAND FREE ENERGY PREDICTED BY IDOCK:    0.03 KCAL/MOL
REMARK 927      BINDING AFFINITY PREDICTED BY RF-SCORE:    0.00 PKD
ROOT
HETATM    1  C   UNL     1      -8.696  12.440  67.351  1.00  0.00    -0.183 C  
HETATM    2  C   UNL     1      -7.971  13.008  68.425  1.00  0.00    -0.135 C  
HETATM    3  C   UNL     1      -8.092  11.526  68.487  1.00  0.00    -0.146 C  
HETATM    4  C   UNL     1      -8.866  10.641  66.810  1.00  0.00    -0.139 C  
HETATM    5  C   UNL     1      -7.538  10.921  67.031  1.00  0.00    -0.122 C  
HETATM    6  C   UNL     1     -10.346  11.881  68.057  1.00  0.00    -0.209 C  
HETATM    7  O   UNL     1      -8.917   9.271  66.407  1.00  0.00    -0.142 OA 
HETATM    8  C   UNL     1      -7.589   9.438  68.185  1.00  0.00    -0.083 C  
HETATM    9  C   UNL     1      -6.369  10.968  66.093  1.00  0.00    -0.096 C  
HETATM   10  C   UNL     1     -11.118  12.979  68.834  1.00  0.00    -0.307 C  
HETATM   11  H   UNL     1      -9.276   8.861  65.628  1.00  0.00     0.000 HD 
HETATM   12  C   UNL     1      -9.205   9.208  68.836  1.00  0.00    -0.139 C  
HETATM   13  C   UNL     1     -10.316  10.452  69.029  1.00  0.00    -0.232 C  
HETATM   14  C   UNL     1     -11.797  10.035  69.222  1.00  0.00     0.113 C  
HETATM   15  C   UNL     1     -12.067   8.610  69.715  1.00  0.00     1.047 C  
HETATM   16  C   UNL     1     -12.062   8.384  71.217  1.00  0.00    -0.315 C  
HETATM   17  C   UNL     1     -12.509   9.559  72.048  1.00  0.00    -0.349 C  
HETATM   18  O   UNL     1     -12.703   9.446  73.260  1.00  0.00     0.546 OA 
HETATM   19  C   UNL     1     -12.681  10.888  71.415  1.00  0.00    -0.539 C  
HETATM   20  C   UNL     1     -12.370  11.111  70.126  1.00  0.00    -0.373 C  
HETATM   21  C   UNL     1     -12.432  12.498  69.505  1.00  0.00     0.192 C  
ENDROOT
BRANCH   4  22
HETATM   22  C   UNL     1      -9.212  11.272  65.425  1.00  0.00    -0.202 C  
HETATM   23  C   UNL     1      -9.544  11.779  64.396  1.00  0.00    -0.085 C  
ENDBRANCH   4  22
TORSDOF 1
ENDMDL
MODEL      111
REMARK 921   NORMALIZED FREE ENERGY PREDICTED BY IDOCK:   -1.74 KCAL/MOL
REMARK 922        TOTAL FREE ENERGY PREDICTED BY IDOCK:   -1.85 KCAL/MOL
REMARK 923 INTER-LIGAND FREE ENERGY PREDICTED BY IDOCK:   -1.89 KCAL/MOL
REMARK 924 INTRA-LIGAND FREE ENERGY PREDICTED BY IDOCK:    0.04 KCAL/MOL
REMARK 927      BINDING AFFINITY PREDICTED BY RF-SCORE:    0.00 PKD
ROOT
HETATM    1  C   UNL     1      -8.553  17.491  67.170  1.00  0.00    -0.238 C  
HETATM    2  C   UNL     1      -8.107  17.237  65.851  1.00  0.00    -0.036 C  
HETATM    3  C   UNL     1      -9.507  16.807  66.115  1.00  0.00    -0.295 C  
HETATM    4  C   UNL     1     -10.289  17.424  67.904  1.00  0.00    -0.369 C  
HETATM    5  C   UNL     1     -10.327  18.130  66.725  1.00  0.00    -0.376 C  
HETATM    6  C   UNL     1      -8.646  15.823  68.033  1.00  0.00    -0.163 C  
HETATM    7  O   UNL     1     -11.630  17.415  68.399  1.00  0.00     0.213 OA 
HETATM    8  C   UNL     1     -11.670  16.912  66.232  1.00  0.00     1.781 C  
HETATM    9  C   UNL     1     -10.629  19.572  66.446  1.00  0.00    -0.571 C  
HETATM   10  C   UNL     1      -7.343  14.986  67.953  1.00  0.00    -0.156 C  
HETATM   11  H   UNL     1     -11.993  17.701  69.230  1.00  0.00     0.000 HD 
HETATM   12  C   UNL     1     -11.456  15.377  67.057  1.00  0.00    -0.103 C  
HETATM   13  C   UNL     1      -9.969  14.805  67.588  1.00  0.00    -0.226 C  
HETATM   14  C   UNL     1     -10.000  13.661  68.635  1.00  0.00    -0.163 C  
HETATM   15  C   UNL     1     -11.280  12.825  68.724  1.00  0.00    -0.327 C  
HETATM   16  C   UNL     1     -11.398  11.638  67.784  1.00  0.00    -0.356 C  
HETATM   17  C   UNL     1     -10.096  10.974  67.414  1.00  0.00    -0.186 C  
HETATM   18  O   UNL     1     -10.076   9.909  66.795  1.00  0.00    -0.207 OA 
HETATM   19  C   UNL     1      -8.811  11.626  67.762  1.00  0.00    -0.159 C  
HETATM   20  C   UNL     1      -8.758  12.845  68.328  1.00  0.00    -0.168 C  
HETATM   21  C   UNL     1      -7.443  13.568  68.576  1.00  0.00    -0.122 C  
ENDROOT
BRANCH   4  22
HETATM   22  C   UNL     1      -9.689  18.396  68.967  1.00  0.00    -0.249 C  
HETATM   23  C   UNL     1      -9.263  19.200  69.742  1.00  0.00     0.585 C  
ENDBRANCH   4  22
TORSDOF 1
ENDMDL
MODEL      112
REMARK 921   NORMALIZED FREE ENERGY PREDICTED BY IDOCK:   -1.20 KCAL/MOL
REMARK 922        TOTAL FREE ENERGY PREDICTED BY IDOCK:   -1.28 KCAL/MOL
REMARK 923 INTER-LIGAND FREE ENERGY PREDICTED BY IDOCK:   -1.32 KCAL/MOL
REMARK 924 INTRA-LIGAND FREE ENERGY PREDICTED BY IDOCK:    0.04 KCAL/MOL
REMARK 927      BINDING AFFINITY PREDICTED BY RF-SCORE:    0.00 PKD
ROOT
HETATM    1  C   UNL     1      -8.963   5.096  70.320  1.00  0.00    -0.156 C  
HETATM    2  C   UNL     1      -9.975   5.691  71.110  1.00  0.00    -0.244 C  
HETATM    3  C   UNL     1      -9.621   6.465  69.890  1.00  0.00    -0.166 C  
HETATM    4  C   UNL     1      -8.388   5.500  68.570  1.00  0.00    -0.101 C  
HETATM    5  C   UNL     1      -9.761   5.427  68.586  1.00  0.00    -0.187 C  
HETATM    6  C   UNL     1      -7.419   6.144  70.551  1.00  0.00    -0.090 C  
HETATM    7  O   UNL     1      -8.027   5.807  67.221  1.00  0.00    -0.101 OA 
HETATM    8  C   UNL     1      -9.695   7.148  67.832  1.00  0.00    -0.156 C  
HETATM    9  C   UNL     1     -10.707   4.470  67.926  1.00  0.00     0.853 C  
HETATM   10  C   UNL     1      -7.016   6.375  72.031  1.00  0.00    -0.073 C  
HETATM   11  H   UNL     1      -7.454   5.359  66.609  1.00  0.00     0.000 HD 
HETATM   12  C   UNL     1      -8.228   7.986  68.315  1.00  0.00    -0.123 C  
HETATM   13  C   UNL     1      -7.404   7.672  69.744  1.00  0.00    -0.081 C  
HETATM   14  C   UNL     1      -5.943   8.186  69.829  1.00  0.00    -0.029 C  
HETATM   15  C   UNL     1      -5.543   9.323  68.884  1.00  0.00    -0.037 C  
HETATM   16  C   UNL     1      -5.813  10.742  69.355  1.00  0.00    -0.040 C  
HETATM   17  C   UNL     1      -5.746  10.952  70.846  1.00  0.00    -0.062 C  
HETATM   18  O   UNL     1      -5.784  12.083  71.333  1.00  0.00    -0.380 OA 
HETATM   19  C   UNL     1      -5.676   9.782  71.753  1.00  0.00     0.038 C  
HETATM   20  C   UNL     1      -5.754   8.518  71.298  1.00  0.00    -0.036 C  
HETATM   21  C   UNL     1      -5.802   7.320  72.234  1.00  0.00    -0.037 C  
ENDROOT
BRANCH   4  22
HETATM   22  C   UNL     1      -7.881   4.024  68.583  1.00  0.00    -0.068 C  
HETATM   23  C   UNL     1      -7.454   2.911  68.659  1.00  0.00    -0.048 C  
ENDBRANCH   4  22
TORSDOF 1
ENDMDL
MODEL      113
REMARK 921   NORMALIZED FREE ENERGY PREDICTED BY IDOCK:   -0.97 KCAL/MOL
REMARK 922        TOTAL FREE ENERGY PREDICTED BY IDOCK:   -1.04 KCAL/MOL
REMARK 923 INTER-LIGAND FREE ENERGY PREDICTED BY IDOCK:   -1.06 KCAL/MOL
REMARK 924 INTRA-LIGAND FREE ENERGY PREDICTED BY IDOCK:    0.02 KCAL/MOL
REMARK 927      BINDING AFFINITY PREDICTED BY RF-SCORE:    0.00 PKD
ROOT
HETATM    1  C   UNL     1     -11.141  15.731  69.523  1.00  0.00    -0.306 C  
HETATM    2  C   UNL     1     -11.382  16.240  68.225  1.00  0.00    -0.280 C  
HETATM    3  C   UNL     1     -11.707  14.797  68.383  1.00  0.00    -0.343 C  
HETATM    4  C   UNL     1     -11.662  14.096  70.307  1.00  0.00    -0.258 C  
HETATM    5  C   UNL     1     -12.749  14.663  69.684  1.00  0.00     0.033 C  
HETATM    6  C   UNL     1      -9.623  14.630  69.391  1.00  0.00     0.054 C  
HETATM    7  O   UNL     1     -12.128  12.871  70.874  1.00  0.00    -0.462 OA 
HETATM    8  C   UNL     1     -12.880  13.018  68.785  1.00  0.00     1.437 C  
HETATM    9  C   UNL     1     -14.035  15.201  70.237  1.00  0.00     0.876 C  
HETATM   10  C   UNL     1      -8.392  15.310  68.737  1.00  0.00    -0.179 C  
HETATM   11  H   UNL     1     -12.107  12.545  71.767  1.00  0.00     0.000 HD 
HETATM   12  C   UNL     1     -11.307  12.248  68.655  1.00  0.00    -0.339 C  
HETATM   13  C   UNL     1      -9.856  13.094  68.635  1.00  0.00    -0.089 C  
HETATM   14  C   UNL     1      -8.572  12.274  68.926  1.00  0.00     0.252 C  
HETATM   15  C   UNL     1      -8.641  10.760  68.710  1.00  0.00    -0.156 C  
HETATM   16  C   UNL     1      -8.359  10.246  67.309  1.00  0.00    -0.121 C  
HETATM   17  C   UNL     1      -7.391  11.071  66.501  1.00  0.00    -0.144 C  
HETATM   18  O   UNL     1      -6.959  10.671  65.418  1.00  0.00    -0.109 OA 
HETATM   19  C   UNL     1      -6.976  12.409  66.988  1.00  0.00    -0.006 C  
HETATM   20  C   UNL     1      -7.501  12.960  68.097  1.00  0.00    -0.126 C  
HETATM   21  C   UNL     1      -7.167  14.378  68.534  1.00  0.00    -0.119 C  
ENDROOT
BRANCH   4  22
HETATM   22  C   UNL     1     -11.478  14.880  71.644  1.00  0.00    -0.288 C  
HETATM   23  C   UNL     1     -11.415  15.471  72.681  1.00  0.00    -0.394 C  
ENDBRANCH   4  22
TORSDOF 1
ENDMDL
MODEL      114
REMARK 921   NORMALIZED FREE ENERGY PREDICTED BY IDOCK:   -0.64 KCAL/MOL
REMARK 922        TOTAL FREE ENERGY PREDICTED BY IDOCK:   -0.69 KCAL/MOL
REMARK 923 INTER-LIGAND FREE ENERGY PREDICTED BY IDOCK:   -0.67 KCAL/MOL
REMARK 924 INTRA-LIGAND FREE ENERGY PREDICTED BY IDOCK:   -0.02 KCAL/MOL
REMARK 927      BINDING AFFINITY PREDICTED BY RF-SCORE:    0.00 PKD
ROOT
HETATM    1  C   UNL     1     -11.755  16.638  69.118  1.00  0.00     0.314 C  
HETATM    2  C   UNL     1     -12.286  16.922  67.838  1.00  0.00     1.866 C  
HETATM    3  C   UNL     1     -11.304  15.804  67.855  1.00  0.00    -0.277 C  
HETATM    4  C   UNL     1     -10.742  15.164  69.718  1.00  0.00    -0.274 C  
HETATM    5  C   UNL     1     -11.824  14.705  69.003  1.00  0.00    -0.346 C  
HETATM    6  C   UNL     1      -9.974  17.240  69.104  1.00  0.00    -0.211 C  
HETATM    7  O   UNL     1     -10.027  14.000  70.138  1.00  0.00     0.424 OA 
HETATM    8  C   UNL     1     -10.546  13.776  67.985  1.00  0.00    -0.258 C  
HETATM    9  C   UNL     1     -13.019  13.904  69.425  1.00  0.00     0.973 C  
HETATM   10  C   UNL     1      -9.799  18.715  68.657  1.00  0.00    -0.427 C  
HETATM   11  H   UNL     1      -9.766  13.703  71.002  1.00  0.00     0.000 HD 
HETATM   12  C   UNL     1      -9.003  14.614  68.002  1.00  0.00    -0.174 C  
HETATM   13  C   UNL     1      -8.847  16.272  68.221  1.00  0.00    -0.188 C  
HETATM   14  C   UNL     1      -7.438  16.790  68.615  1.00  0.00    -0.219 C  
HETATM   15  C   UNL     1      -6.243  15.889  68.290  1.00  0.00    -0.115 C  
HETATM   16  C   UNL     1      -5.636  16.017  66.904  1.00  0.00     0.382 C  
HETATM   17  C   UNL     1      -5.729  17.387  66.282  1.00  0.00    -0.186 C  
HETATM   18  O   UNL     1      -5.133  17.656  65.237  1.00  0.00    -0.168 OA 
HETATM   19  C   UNL     1      -6.585  18.424  66.906  1.00  0.00    -0.206 C  
HETATM   20  C   UNL     1      -7.358  18.164  67.976  1.00  0.00    -0.235 C  
HETATM   21  C   UNL     1      -8.325  19.190  68.546  1.00  0.00    -0.399 C  
ENDROOT
BRANCH   4  22
HETATM   22  C   UNL     1     -11.297  15.574  71.117  1.00  0.00    -0.442 C  
HETATM   23  C   UNL     1     -11.657  15.857  72.221  1.00  0.00    -0.501 C  
ENDBRANCH   4  22
TORSDOF 1
ENDMDL
MODEL      115
REMARK 921   NORMALIZED FREE ENERGY PREDICTED BY IDOCK:    0.03 KCAL/MOL
REMARK 922        TOTAL FREE ENERGY PREDICTED BY IDOCK:    0.01 KCAL/MOL
REMARK 923 INTER-LIGAND FREE ENERGY PREDICTED BY IDOCK:    0.01 KCAL/MOL
REMARK 924 INTRA-LIGAND FREE ENERGY PREDICTED BY IDOCK:    0.01 KCAL/MOL
REMARK 927      BINDING AFFINITY PREDICTED BY RF-SCORE:    0.00 PKD
ROOT
HETATM    1  C   UNL     1     -12.733   8.009  70.346  1.00  0.00     0.742 C  
HETATM    2  C   UNL     1     -12.781   7.004  69.351  1.00  0.00     2.876 C  
HETATM    3  C   UNL     1     -11.990   6.632  70.555  1.00  0.00    -0.377 C  
HETATM    4  C   UNL     1     -12.144   7.925  72.136  1.00  0.00    -0.326 C  
HETATM    5  C   UNL     1     -12.976   6.859  71.886  1.00  0.00    -0.264 C  
HETATM    6  C   UNL     1     -10.990   8.713  70.312  1.00  0.00    -0.251 C  
HETATM    7  O   UNL     1     -11.740   7.796  73.501  1.00  0.00    -0.469 OA 
HETATM    8  C   UNL     1     -11.547   5.811  72.513  1.00  0.00    -0.321 C  
HETATM    9  C   UNL     1     -14.325   6.508  72.439  1.00  0.00     0.233 C  
HETATM   10  C   UNL     1     -10.516   9.183  68.912  1.00  0.00    -0.239 C  
HETATM   11  H   UNL     1     -11.811   8.396  74.234  1.00  0.00     0.000 HD 
HETATM   12  C   UNL     1     -10.011   6.616  72.233  1.00  0.00    -0.179 C  
HETATM   13  C   UNL     1      -9.752   7.721  70.996  1.00  0.00    -0.174 C  
HETATM   14  C   UNL     1      -8.502   8.630  71.130  1.00  0.00    -0.211 C  
HETATM   15  C   UNL     1      -7.374   8.143  72.044  1.00  0.00    -0.105 C  
HETATM   16  C   UNL     1      -6.336   7.218  71.432  1.00  0.00    -0.036 C  
HETATM   17  C   UNL     1      -6.068   7.430  69.964  1.00  0.00    -0.027 C  
HETATM   18  O   UNL     1      -5.136   6.856  69.397  1.00  0.00    -0.013 OA 
HETATM   19  C   UNL     1      -6.959   8.309  69.171  1.00  0.00    -0.063 C  
HETATM   20  C   UNL     1      -8.064   8.868  69.696  1.00  0.00    -0.104 C  
HETATM   21  C   UNL     1      -9.044   9.672  68.856  1.00  0.00    -0.144 C  
ENDROOT
BRANCH   4  22
HETATM   22  C   UNL     1     -13.076   9.162  72.319  1.00  0.00    -0.509 C  
HETATM   23  C   UNL     1     -13.728  10.155  72.450  1.00  0.00    -0.032 C  
ENDBRANCH   4  22
TORSDOF 1
ENDMDL
MODEL      116
REMARK 921   NORMALIZED FREE ENERGY PREDICTED BY IDOCK:    2.63 KCAL/MOL
REMARK 922        TOTAL FREE ENERGY PREDICTED BY IDOCK:    2.77 KCAL/MOL
REMARK 923 INTER-LIGAND FREE ENERGY PREDICTED BY IDOCK:    2.79 KCAL/MOL
REMARK 924 INTRA-LIGAND FREE ENERGY PREDICTED BY IDOCK:   -0.02 KCAL/MOL
REMARK 927      BINDING AFFINITY PREDICTED BY RF-SCORE:    0.00 PKD
ROOT
HETATM    1  C   UNL     1     -10.479  16.465  67.071  1.00  0.00    -0.291 C  
HETATM    2  C   UNL     1     -10.577  17.860  67.290  1.00  0.00    -0.341 C  
HETATM    3  C   UNL     1      -9.787  17.135  68.321  1.00  0.00    -0.288 C  
HETATM    4  C   UNL     1      -9.367  15.179  67.886  1.00  0.00    -0.185 C  
HETATM    5  C   UNL     1      -8.605  16.264  67.521  1.00  0.00    -0.189 C  
HETATM    6  C   UNL     1     -11.565  15.643  68.366  1.00  0.00    -0.358 C  
HETATM    7  O   UNL     1      -8.463  14.252  68.492  1.00  0.00    -0.161 OA 
HETATM    8  C   UNL     1      -8.063  16.278  69.320  1.00  0.00    -0.157 C  
HETATM    9  C   UNL     1      -7.503  16.404  66.514  1.00  0.00    -0.223 C  
HETATM   10  C   UNL     1     -13.020  16.178  68.416  1.00  0.00     2.776 C  
HETATM   11  H   UNL     1      -8.268  13.344  68.290  1.00  0.00     0.000 HD 
HETATM   12  C   UNL     1      -9.308  15.595  70.354  1.00  0.00     0.888 C  
HETATM   13  C   UNL     1     -10.945  15.617  69.979  1.00  0.00    -0.336 C  
HETATM   14  C   UNL     1     -11.850  14.637  70.769  1.00  0.00    -0.372 C  
HETATM   15  C   UNL     1     -11.323  14.122  72.112  1.00  0.00     1.651 C  
HETATM   16  C   UNL     1     -11.596  14.978  73.337  1.00  0.00    -0.068 C  
HETATM   17  C   UNL     1     -12.870  15.781  73.293  1.00  0.00    -0.542 C  
HETATM   18  O   UNL     1     -13.280  16.382  74.288  1.00  0.00    -0.531 OA 
HETATM   19  C   UNL     1     -13.630  15.891  72.025  1.00  0.00    -0.268 C  
HETATM   20  C   UNL     1     -13.179  15.363  70.873  1.00  0.00    -0.512 C  
HETATM   21  C   UNL     1     -13.895  15.575  69.548  1.00  0.00     2.808 C  
ENDROOT
BRANCH   4  22
HETATM   22  C   UNL     1      -9.626  14.377  66.572  1.00  0.00    -0.310 C  
HETATM   23  C   UNL     1      -9.808  13.697  65.607  1.00  0.00    -0.196 C  
ENDBRANCH   4  22
TORSDOF 1
ENDMDL
MODEL      117
REMARK 921   NORMALIZED FREE ENERGY PREDICTED BY IDOCK:    3.28 KCAL/MOL
REMARK 922        TOTAL FREE ENERGY PREDICTED BY IDOCK:    3.46 KCAL/MOL
REMARK 923 INTER-LIGAND FREE ENERGY PREDICTED BY IDOCK:    3.38 KCAL/MOL
REMARK 924 INTRA-LIGAND FREE ENERGY PREDICTED BY IDOCK:    0.08 KCAL/MOL
REMARK 927      BINDING AFFINITY PREDICTED BY RF-SCORE:    0.00 PKD
ROOT
HETATM    1  C   UNL     1      -6.771  15.325  69.732  1.00  0.00    -0.176 C  
HETATM    2  C   UNL     1      -5.359  15.351  69.825  1.00  0.00    -0.102 C  
HETATM    3  C   UNL     1      -5.876  15.186  68.439  1.00  0.00    -0.107 C  
HETATM    4  C   UNL     1      -7.895  15.445  68.222  1.00  0.00    -0.123 C  
HETATM    5  C   UNL     1      -6.946  16.438  68.156  1.00  0.00    -0.138 C  
HETATM    6  C   UNL     1      -7.249  13.548  69.347  1.00  0.00     0.182 C  
HETATM    7  O   UNL     1      -8.706  15.597  67.055  1.00  0.00    -0.196 OA 
HETATM    8  C   UNL     1      -6.566  15.730  66.456  1.00  0.00     1.092 C  
HETATM    9  C   UNL     1      -7.072  17.931  68.219  1.00  0.00    -0.232 C  
HETATM   10  C   UNL     1      -6.657  12.498  70.323  1.00  0.00     0.494 C  
HETATM   11  H   UNL     1      -9.643  15.718  66.954  1.00  0.00     0.000 HD 
HETATM   12  C   UNL     1      -6.958  14.019  66.389  1.00  0.00     3.046 C  
HETATM   13  C   UNL     1      -6.952  13.010  67.731  1.00  0.00    -0.143 C  
HETATM   14  C   UNL     1      -7.700  11.659  67.586  1.00  0.00    -0.133 C  
HETATM   15  C   UNL     1      -7.933  11.135  66.166  1.00  0.00    -0.090 C  
HETATM   16  C   UNL     1      -6.823  10.308  65.542  1.00  0.00    -0.134 C  
HETATM   17  C   UNL     1      -5.996   9.500  66.510  1.00  0.00    -0.059 C  
HETATM   18  O   UNL     1      -5.178   8.669  66.112  1.00  0.00    -0.030 OA 
HETATM   19  C   UNL     1      -6.133   9.731  67.968  1.00  0.00    -0.054 C  
HETATM   20  C   UNL     1      -6.915  10.705  68.468  1.00  0.00    -0.067 C  
HETATM   21  C   UNL     1      -6.965  11.022  69.954  1.00  0.00    -0.055 C  
ENDROOT
BRANCH   4  22
HETATM   22  C   UNL     1      -8.951  15.931  69.264  1.00  0.00    -0.251 C  
HETATM   23  C   UNL     1      -9.702  16.342  70.098  1.00  0.00     0.656 C  
ENDBRANCH   4  22
TORSDOF 1
ENDMDL
MODEL      118
REMARK 921   NORMALIZED FREE ENERGY PREDICTED BY IDOCK:    4.19 KCAL/MOL
REMARK 922        TOTAL FREE ENERGY PREDICTED BY IDOCK:    4.42 KCAL/MOL
REMARK 923 INTER-LIGAND FREE ENERGY PREDICTED BY IDOCK:    4.43 KCAL/MOL
REMARK 924 INTRA-LIGAND FREE ENERGY PREDICTED BY IDOCK:   -0.01 KCAL/MOL
REMARK 927      BINDING AFFINITY PREDICTED BY RF-SCORE:    0.00 PKD
ROOT
HETATM    1  C   UNL     1     -13.256  15.891  70.934  1.00  0.00     0.179 C  
HETATM    2  C   UNL     1     -14.391  15.597  70.142  1.00  0.00     2.285 C  
HETATM    3  C   UNL     1     -13.498  14.431  70.385  1.00  0.00     0.312 C  
HETATM    4  C   UNL     1     -12.017  14.737  71.765  1.00  0.00    -0.339 C  
HETATM    5  C   UNL     1     -13.292  14.300  72.039  1.00  0.00    -0.484 C  
HETATM    6  C   UNL     1     -11.774  15.863  69.777  1.00  0.00    -0.323 C  
HETATM    7  O   UNL     1     -11.139  13.821  72.423  1.00  0.00     2.411 OA 
HETATM    8  C   UNL     1     -12.699  12.658  71.344  1.00  0.00    -0.347 C  
HETATM    9  C   UNL     1     -14.053  14.218  73.328  1.00  0.00     1.586 C  
HETATM   10  C   UNL     1     -11.923  16.761  68.521  1.00  0.00     0.852 C  
HETATM   11  H   UNL     1     -10.451  13.963  73.064  1.00  0.00     0.000 HD 
HETATM   12  C   UNL     1     -11.413  12.902  70.172  1.00  0.00     0.001 C  
HETATM   13  C   UNL     1     -11.236  14.303  69.263  1.00  0.00    -0.309 C  
HETATM   14  C   UNL     1      -9.855  14.526  68.595  1.00  0.00    -0.232 C  
HETATM   15  C   UNL     1      -8.970  13.294  68.384  1.00  0.00    -0.124 C  
HETATM   16  C   UNL     1      -9.185  12.496  67.109  1.00  0.00    -0.205 C  
HETATM   17  C   UNL     1      -9.649  13.295  65.918  1.00  0.00    -0.106 C  
HETATM   18  O   UNL     1      -9.701  12.792  64.794  1.00  0.00    -0.067 OA 
HETATM   19  C   UNL     1     -10.094  14.697  66.098  1.00  0.00    -0.316 C  
HETATM   20  C   UNL     1     -10.180  15.270  67.312  1.00  0.00    -0.248 C  
HETATM   21  C   UNL     1     -10.748  16.666  67.512  1.00  0.00    -0.278 C  
ENDROOT
BRANCH   4  22
HETATM   22  C   UNL     1     -11.773  15.959  72.705  1.00  0.00    -0.527 C  
HETATM   23  C   UNL     1     -11.511  16.895  73.400  1.00  0.00     0.709 C  
ENDBRANCH   4  22
TORSDOF 1
ENDMDL
MODEL      119
REMARK 921   NORMALIZED FREE ENERGY PREDICTED BY IDOCK:    5.00 KCAL/MOL
REMARK 922        TOTAL FREE ENERGY PREDICTED BY IDOCK:    5.28 KCAL/MOL
REMARK 923 INTER-LIGAND FREE ENERGY PREDICTED BY IDOCK:    5.20 KCAL/MOL
REMARK 924 INTRA-LIGAND FREE ENERGY PREDICTED BY IDOCK:    0.08 KCAL/MOL
REMARK 927      BINDING AFFINITY PREDICTED BY RF-SCORE:    0.00 PKD
ROOT
HETATM    1  C   UNL     1      -8.659  16.319  67.682  1.00  0.00    -0.181 C  
HETATM    2  C   UNL     1      -7.951  16.778  68.818  1.00  0.00    -0.250 C  
HETATM    3  C   UNL     1      -8.277  15.327  68.850  1.00  0.00    -0.186 C  
HETATM    4  C   UNL     1      -9.029  14.562  67.105  1.00  0.00    -0.230 C  
HETATM    5  C   UNL     1      -7.696  14.656  67.433  1.00  0.00    -0.226 C  
HETATM    6  C   UNL     1     -10.421  15.988  68.249  1.00  0.00    -0.269 C  
HETATM    7  O   UNL     1      -9.234  13.213  66.679  1.00  0.00    -0.259 OA 
HETATM    8  C   UNL     1      -8.041  13.191  68.559  1.00  0.00    -0.087 C  
HETATM    9  C   UNL     1      -6.461  14.546  66.590  1.00  0.00     2.348 C  
HETATM   10  C   UNL     1     -11.095  17.179  68.979  1.00  0.00     0.132 C  
HETATM   11  H   UNL     1      -9.582  12.858  65.870  1.00  0.00     0.000 HD 
HETATM   12  C   UNL     1      -9.720  13.182  69.077  1.00  0.00     0.310 C  
HETATM   13  C   UNL     1     -10.663  14.566  69.201  1.00  0.00    -0.263 C  
HETATM   14  C   UNL     1     -12.198  14.355  69.270  1.00  0.00    -0.274 C  
HETATM   15  C   UNL     1     -12.697  12.979  69.721  1.00  0.00     0.370 C  
HETATM   16  C   UNL     1     -12.843  12.749  71.215  1.00  0.00    -0.355 C  
HETATM   17  C   UNL     1     -13.191  13.972  72.025  1.00  0.00    -0.412 C  
HETATM   18  O   UNL     1     -13.494  13.883  73.216  1.00  0.00    -0.414 OA 
HETATM   19  C   UNL     1     -13.129  15.314  71.399  1.00  0.00    -0.529 C  
HETATM   20  C   UNL     1     -12.689  15.497  70.141  1.00  0.00    -0.232 C  
HETATM   21  C   UNL     1     -12.511  16.881  69.537  1.00  0.00     3.002 C  
ENDROOT
BRANCH   4  22
HETATM   22  C   UNL     1      -9.174  15.238  65.706  1.00  0.00    -0.133 C  
HETATM   23  C   UNL     1      -9.235  15.811  64.659  1.00  0.00     3.337 C  
ENDBRANCH   4  22
TORSDOF 1
ENDMDL
MODEL      120
REMARK 921   NORMALIZED FREE ENERGY PREDICTED BY IDOCK:   10.38 KCAL/MOL
REMARK 922        TOTAL FREE ENERGY PREDICTED BY IDOCK:   10.97 KCAL/MOL
REMARK 923 INTER-LIGAND FREE ENERGY PREDICTED BY IDOCK:   10.90 KCAL/MOL
REMARK 924 INTRA-LIGAND FREE ENERGY PREDICTED BY IDOCK:    0.07 KCAL/MOL
REMARK 927      BINDING AFFINITY PREDICTED BY RF-SCORE:    0.00 PKD
ROOT
HETATM    1  C   UNL     1     -12.594   9.602  70.349  1.00  0.00     0.089 C  
HETATM    2  C   UNL     1     -13.457   8.703  69.678  1.00  0.00     4.172 C  
HETATM    3  C   UNL     1     -12.119   8.138  69.999  1.00  0.00     0.714 C  
HETATM    4  C   UNL     1     -10.954   9.291  71.227  1.00  0.00    -0.351 C  
HETATM    5  C   UNL     1     -11.870   8.351  71.638  1.00  0.00    -0.357 C  
HETATM    6  C   UNL     1     -11.280  10.110  69.105  1.00  0.00    -0.234 C  
HETATM    7  O   UNL     1      -9.745   8.995  71.929  1.00  0.00    -0.299 OA 
HETATM    8  C   UNL     1     -10.572   7.099  71.108  1.00  0.00    -0.240 C  
HETATM    9  C   UNL     1     -12.497   8.102  72.977  1.00  0.00     0.423 C  
HETATM   10  C   UNL     1     -11.840  10.649  67.763  1.00  0.00     0.412 C  
HETATM   11  H   UNL     1      -9.205   9.531  72.499  1.00  0.00     0.000 HD 
HETATM   12  C   UNL     1      -9.559   7.751  69.830  1.00  0.00    -0.164 C  
HETATM   13  C   UNL     1     -10.069   8.929  68.748  1.00  0.00    -0.215 C  
HETATM   14  C   UNL     1      -8.960   9.678  67.964  1.00  0.00    -0.122 C  
HETATM   15  C   UNL     1      -7.598   8.988  67.844  1.00  0.00    -0.093 C  
HETATM   16  C   UNL     1      -7.413   8.014  66.693  1.00  0.00    -0.089 C  
HETATM   17  C   UNL     1      -8.204   8.327  65.449  1.00  0.00    -0.145 C  
HETATM   18  O   UNL     1      -8.016   7.708  64.400  1.00  0.00    -0.136 OA 
HETATM   19  C   UNL     1      -9.260   9.367  65.488  1.00  0.00    -0.292 C  
HETATM   20  C   UNL     1      -9.603   9.996  66.626  1.00  0.00    -0.234 C  
HETATM   21  C   UNL     1     -10.764  10.976  66.694  1.00  0.00    -0.305 C  
ENDROOT
BRANCH   4  22
HETATM   22  C   UNL     1     -11.315  10.602  71.992  1.00  0.00     2.504 C  
HETATM   23  C   UNL     1     -11.661  11.576  72.593  1.00  0.00     5.864 C  
ENDBRANCH   4  22
TORSDOF 1
ENDMDL
MODEL      121
REMARK 921   NORMALIZED FREE ENERGY PREDICTED BY IDOCK:   13.40 KCAL/MOL
REMARK 922        TOTAL FREE ENERGY PREDICTED BY IDOCK:   14.17 KCAL/MOL
REMARK 923 INTER-LIGAND FREE ENERGY PREDICTED BY IDOCK:   14.09 KCAL/MOL
REMARK 924 INTRA-LIGAND FREE ENERGY PREDICTED BY IDOCK:    0.08 KCAL/MOL
REMARK 927      BINDING AFFINITY PREDICTED BY RF-SCORE:    0.00 PKD
ROOT
HETATM    1  C   UNL     1      -7.138  13.773  70.928  1.00  0.00     1.846 C  
HETATM    2  C   UNL     1      -5.723  13.751  70.881  1.00  0.00    -0.206 C  
HETATM    3  C   UNL     1      -6.380  13.590  69.556  1.00  0.00    -0.108 C  
HETATM    4  C   UNL     1      -8.401  13.916  69.536  1.00  0.00     0.790 C  
HETATM    5  C   UNL     1      -7.431  14.875  69.362  1.00  0.00    -0.174 C  
HETATM    6  C   UNL     1      -7.710  12.010  70.617  1.00  0.00     4.575 C  
HETATM    7  O   UNL     1      -9.318  14.084  68.452  1.00  0.00    -0.207 OA 
HETATM    8  C   UNL     1      -7.245  14.137  67.644  1.00  0.00    -0.195 C  
HETATM    9  C   UNL     1      -7.500  16.372  69.418  1.00  0.00    -0.122 C  
HETATM   10  C   UNL     1      -7.060  10.950  71.544  1.00  0.00     3.535 C  
HETATM   11  H   UNL     1     -10.256  14.235  68.442  1.00  0.00     0.000 HD 
HETATM   12  C   UNL     1      -7.698  12.440  67.639  1.00  0.00    -0.151 C  
HETATM   13  C   UNL     1      -7.592  11.445  68.987  1.00  0.00    -0.084 C  
HETATM   14  C   UNL     1      -8.396  10.119  68.935  1.00  0.00    -0.130 C  
HETATM   15  C   UNL     1      -8.785   9.588  67.553  1.00  0.00    -0.126 C  
HETATM   16  C   UNL     1      -7.770   8.718  66.833  1.00  0.00    -0.094 C  
HETATM   17  C   UNL     1      -6.880   7.892  67.726  1.00  0.00    -0.069 C  
HETATM   18  O   UNL     1      -6.133   7.029  67.261  1.00  0.00    -0.036 OA 
HETATM   19  C   UNL     1      -6.863   8.143  69.187  1.00  0.00    -0.055 C  
HETATM   20  C   UNL     1      -7.559   9.148  69.748  1.00  0.00    -0.079 C  
HETATM   21  C   UNL     1      -7.451   9.482  71.228  1.00  0.00     0.239 C  
ENDROOT
BRANCH   4  22
HETATM   22  C   UNL     1      -9.332  14.449  70.669  1.00  0.00     2.576 C  
HETATM   23  C   UNL     1      -9.982  14.893  71.568  1.00  0.00     2.369 C  
ENDBRANCH   4  22
TORSDOF 1
ENDMDL
MODEL      122
REMARK 921   NORMALIZED FREE ENERGY PREDICTED BY IDOCK:   30.10 KCAL/MOL
REMARK 922        TOTAL FREE ENERGY PREDICTED BY IDOCK:   31.84 KCAL/MOL
REMARK 923 INTER-LIGAND FREE ENERGY PREDICTED BY IDOCK:   31.83 KCAL/MOL
REMARK 924 INTRA-LIGAND FREE ENERGY PREDICTED BY IDOCK:    0.02 KCAL/MOL
REMARK 927      BINDING AFFINITY PREDICTED BY RF-SCORE:    0.00 PKD
ROOT
HETATM    1  C   UNL     1     -10.287  17.333  71.486  1.00  0.00     3.535 C  
HETATM    2  C   UNL     1     -10.790  18.354  70.645  1.00  0.00     2.627 C  
HETATM    3  C   UNL     1     -10.739  17.010  70.009  1.00  0.00     0.188 C  
HETATM    4  C   UNL     1     -10.308  15.459  71.275  1.00  0.00     0.782 C  
HETATM    5  C   UNL     1     -11.563  15.955  71.011  1.00  0.00    -0.465 C  
HETATM    6  C   UNL     1      -8.574  16.904  70.841  1.00  0.00     5.553 C  
HETATM    7  O   UNL     1     -10.399  14.044  71.096  1.00  0.00     1.831 OA 
HETATM    8  C   UNL     1     -11.397  15.042  69.376  1.00  0.00    -0.314 C  
HETATM    9  C   UNL     1     -12.869  15.769  71.724  1.00  0.00    -0.517 C  
HETATM   10  C   UNL     1      -7.625  18.120  70.682  1.00  0.00     3.587 C  
HETATM   11  H   UNL     1     -10.199  13.324  71.684  1.00  0.00     0.000 HD 
HETATM   12  C   UNL     1      -9.710  14.897  68.909  1.00  0.00    -0.223 C  
HETATM   13  C   UNL     1      -8.517  15.980  69.382  1.00  0.00    -0.146 C  
HETATM   14  C   UNL     1      -7.049  15.501  69.237  1.00  0.00    -0.186 C  
HETATM   15  C   UNL     1      -6.777  14.359  68.253  1.00  0.00    -0.114 C  
HETATM   16  C   UNL     1      -6.541  14.737  66.801  1.00  0.00     1.520 C  
HETATM   17  C   UNL     1      -5.897  16.082  66.580  1.00  0.00     0.829 C  
HETATM   18  O   UNL     1      -5.508  16.427  65.463  1.00  0.00     1.872 OA 
HETATM   19  C   UNL     1      -5.764  17.030  67.711  1.00  0.00    -0.140 C  
HETATM   20  C   UNL     1      -6.275  16.769  68.927  1.00  0.00    -0.162 C  
HETATM   21  C   UNL     1      -6.244  17.789  70.056  1.00  0.00    -0.028 C  
ENDROOT
BRANCH   4  22
HETATM   22  C   UNL     1     -10.167  15.456  72.829  1.00  0.00     3.888 C  
HETATM   23  C   UNL     1     -10.123  15.410  74.022  1.00  0.00     7.911 C  
ENDBRANCH   4  22
TORSDOF 1
ENDMDL
