MODEL        1
REMARK 921   NORMALIZED FREE ENERGY PREDICTED BY IDOCK:   -6.55 KCAL/MOL
REMARK 922        TOTAL FREE ENERGY PREDICTED BY IDOCK:   -7.88 KCAL/MOL
REMARK 923 INTER-LIGAND FREE ENERGY PREDICTED BY IDOCK:   -7.70 KCAL/MOL
REMARK 924 INTRA-LIGAND FREE ENERGY PREDICTED BY IDOCK:   -0.18 KCAL/MOL
REMARK 927      BINDING AFFINITY PREDICTED BY RF-SCORE:    0.00 PKD
ROOT
HETATM    1  C   UNL     1      -8.828   8.891  66.205  1.00  0.00    -0.193 C  
HETATM    2  C   UNL     1      -7.517   9.415  66.044  1.00  0.00    -0.096 C  
HETATM    3  C   UNL     1      -8.385  10.148  67.000  1.00  0.00    -0.125 C  
HETATM    4  C   UNL     1     -10.137   9.200  67.482  1.00  0.00    -0.228 C  
HETATM    5  C   UNL     1     -10.007  10.086  65.366  1.00  0.00    -0.364 C  
HETATM    6  O   UNL     1     -11.118   9.487  68.477  1.00  0.00    -0.449 OA 
HETATM    7  C   UNL     1      -8.936   9.070  68.145  1.00  0.00    -0.133 C  
HETATM    8  C   UNL     1      -9.614  10.509  63.916  1.00  0.00    -0.363 C  
HETATM    9  C   UNL     1     -10.421  11.702  63.294  1.00  0.00    -0.438 C  
HETATM   10  H   UNL     1     -11.930   9.048  68.701  1.00  0.00     0.000 HD 
HETATM   11  C   UNL     1      -9.305  10.734  68.903  1.00  0.00    -0.183 C  
HETATM   12  C   UNL     1     -10.922  12.754  64.278  1.00  0.00    -0.414 C  
HETATM   13  C   UNL     1     -10.314  11.696  67.884  1.00  0.00    -0.206 C  
HETATM   14  C   UNL     1     -10.373  11.522  66.238  1.00  0.00    -0.280 C  
HETATM   15  C   UNL     1     -11.579  12.141  65.496  1.00  0.00    -0.398 C  
HETATM   16  C   UNL     1     -12.491  13.095  66.250  1.00  0.00    -0.210 C  
HETATM   17  C   UNL     1     -12.007  14.518  66.393  1.00  0.00    -0.350 C  
HETATM   18  C   UNL     1     -11.070  15.009  65.308  1.00  0.00    -0.386 C  
HETATM   19  C   UNL     1     -10.665  14.076  64.207  1.00  0.00    -0.067 C  
ENDROOT
BRANCH   4  20
HETATM   20  C   UNL     1     -10.596   7.757  67.149  1.00  0.00    -0.401 C  
HETATM   21  C   UNL     1     -10.961   6.618  66.970  1.00  0.00    -0.463 C  
ENDBRANCH   4  20
BRANCH   7  22
HETATM   22  C   UNL     1      -8.424   8.044  69.117  1.00  0.00    -0.136 C  
HETATM   23  C   UNL     1      -6.905   8.160  69.234  1.00  0.00    -0.051 C  
ENDBRANCH   7  22
BRANCH  18  24
HETATM   24  N   UNL     1     -10.597  16.226  65.323  1.00  0.00    -0.581 NA 
HETATM   25  H   UNL     1     -10.821  17.913  64.320  1.00  0.00     0.000 HD 
HETATM   26  H   UNL     1      -9.899  16.559  65.989  1.00  0.00     0.000 HD 
HETATM   27  O   UNL     1     -11.165  17.028  64.310  1.00  0.00    -1.186 OA 
ENDBRANCH  18  24
TORSDOF 3
ENDMDL
MODEL        2
REMARK 921   NORMALIZED FREE ENERGY PREDICTED BY IDOCK:   -6.54 KCAL/MOL
REMARK 922        TOTAL FREE ENERGY PREDICTED BY IDOCK:   -7.88 KCAL/MOL
REMARK 923 INTER-LIGAND FREE ENERGY PREDICTED BY IDOCK:   -7.63 KCAL/MOL
REMARK 924 INTRA-LIGAND FREE ENERGY PREDICTED BY IDOCK:   -0.25 KCAL/MOL
REMARK 927      BINDING AFFINITY PREDICTED BY RF-SCORE:    0.00 PKD
ROOT
HETATM    1  C   UNL     1      -9.018  14.769  68.857  1.00  0.00    -0.167 C  
HETATM    2  C   UNL     1      -7.667  14.582  68.461  1.00  0.00    -0.129 C  
HETATM    3  C   UNL     1      -8.587  15.044  67.392  1.00  0.00    -0.208 C  
HETATM    4  C   UNL     1     -10.440  15.637  68.038  1.00  0.00    -0.263 C  
HETATM    5  C   UNL     1     -10.017  13.379  68.088  1.00  0.00    -0.237 C  
HETATM    6  O   UNL     1     -11.505  16.299  67.359  1.00  0.00     0.016 OA 
HETATM    7  C   UNL     1      -9.331  16.444  67.905  1.00  0.00    -0.214 C  
HETATM    8  C   UNL     1      -9.438  11.944  68.295  1.00  0.00    -0.197 C  
HETATM    9  C   UNL     1     -10.091  10.799  67.445  1.00  0.00    -0.227 C  
HETATM   10  H   UNL     1     -12.364  16.574  67.658  1.00  0.00     0.000 HD 
HETATM   11  C   UNL     1      -9.673  16.419  66.072  1.00  0.00    -0.356 C  
HETATM   12  C   UNL     1     -10.630  11.206  66.077  1.00  0.00    -0.298 C  
HETATM   13  C   UNL     1     -10.498  14.979  65.591  1.00  0.00    -0.368 C  
HETATM   14  C   UNL     1     -10.385  13.548  66.417  1.00  0.00    -0.289 C  
HETATM   15  C   UNL     1     -11.457  12.472  66.135  1.00  0.00    -0.426 C  
HETATM   16  C   UNL     1     -12.384  12.657  64.944  1.00  0.00    -0.563 C  
HETATM   17  C   UNL     1     -11.828  12.280  63.593  1.00  0.00    -0.610 C  
HETATM   18  C   UNL     1     -10.745  11.218  63.596  1.00  0.00    -0.367 C  
HETATM   19  C   UNL     1     -10.282  10.645  64.902  1.00  0.00    -0.395 C  
ENDROOT
BRANCH   4  20
HETATM   20  C   UNL     1     -10.951  15.854  69.486  1.00  0.00    -0.311 C  
HETATM   21  C   UNL     1     -11.414  16.061  70.584  1.00  0.00    -0.427 C  
ENDBRANCH   4  20
BRANCH   7  22
HETATM   22  C   UNL     1      -8.998  17.803  68.456  1.00  0.00    -0.288 C  
HETATM   23  C   UNL     1      -7.536  18.133  68.160  1.00  0.00    -0.262 C  
ENDBRANCH   7  22
BRANCH  18  24
HETATM   24  N   UNL     1     -10.200  10.805  62.485  1.00  0.00    -0.755 NA 
HETATM   25  H   UNL     1      -8.421  10.786  61.627  1.00  0.00     0.000 HD 
HETATM   26  H   UNL     1     -10.713  10.334  61.739  1.00  0.00     0.000 HD 
HETATM   27  O   UNL     1      -8.818  11.086  62.436  1.00  0.00    -0.289 OA 
ENDBRANCH  18  24
TORSDOF 3
ENDMDL
MODEL        3
REMARK 921   NORMALIZED FREE ENERGY PREDICTED BY IDOCK:   -6.44 KCAL/MOL
REMARK 922        TOTAL FREE ENERGY PREDICTED BY IDOCK:   -7.75 KCAL/MOL
REMARK 923 INTER-LIGAND FREE ENERGY PREDICTED BY IDOCK:   -7.71 KCAL/MOL
REMARK 924 INTRA-LIGAND FREE ENERGY PREDICTED BY IDOCK:   -0.04 KCAL/MOL
REMARK 927      BINDING AFFINITY PREDICTED BY RF-SCORE:    0.00 PKD
ROOT
HETATM    1  C   UNL     1      -9.824  13.092  67.073  1.00  0.00    -0.238 C  
HETATM    2  C   UNL     1      -8.545  13.285  67.660  1.00  0.00    -0.196 C  
HETATM    3  C   UNL     1      -9.502  12.486  68.465  1.00  0.00    -0.100 C  
HETATM    4  C   UNL     1     -11.208  11.924  67.477  1.00  0.00    -0.296 C  
HETATM    5  C   UNL     1     -11.040  14.147  68.037  1.00  0.00    -0.285 C  
HETATM    6  O   UNL     1     -12.250  11.021  67.839  1.00  0.00    -0.612 OA 
HETATM    7  C   UNL     1     -10.033  11.208  67.536  1.00  0.00    -0.204 C  
HETATM    8  C   UNL     1     -10.610  15.630  68.262  1.00  0.00    -0.262 C  
HETATM    9  C   UNL     1     -11.465  16.457  69.285  1.00  0.00    -0.165 C  
HETATM   10  H   UNL     1     -13.041  10.760  67.382  1.00  0.00     0.000 HD 
HETATM   11  C   UNL     1     -10.545  10.730  69.265  1.00  0.00    -0.261 C  
HETATM   12  C   UNL     1     -12.079  15.666  70.435  1.00  0.00    -0.425 C  
HETATM   13  C   UNL     1     -11.568  11.921  69.985  1.00  0.00    -0.301 C  
HETATM   14  C   UNL     1     -11.540  13.521  69.559  1.00  0.00    -0.355 C  
HETATM   15  C   UNL     1     -12.749  14.392  69.969  1.00  0.00    -0.185 C  
HETATM   16  C   UNL     1     -13.756  13.827  70.958  1.00  0.00     0.095 C  
HETATM   17  C   UNL     1     -13.374  13.890  72.417  1.00  0.00    -0.629 C  
HETATM   18  C   UNL     1     -12.423  15.004  72.804  1.00  0.00    -0.377 C  
HETATM   19  C   UNL     1     -11.907  15.933  71.746  1.00  0.00    -0.579 C  
ENDROOT
BRANCH   4  20
HETATM   20  C   UNL     1     -11.554  12.045  65.970  1.00  0.00    -0.371 C  
HETATM   21  C   UNL     1     -11.847  12.217  64.809  1.00  0.00    -0.428 C  
ENDBRANCH   4  20
BRANCH   7  22
HETATM   22  C   UNL     1      -9.499  10.071  66.711  1.00  0.00    -0.209 C  
HETATM   23  C   UNL     1      -8.241   9.505  67.368  1.00  0.00    -0.114 C  
ENDBRANCH   7  22
BRANCH  18  24
HETATM   24  N   UNL     1     -12.034  15.162  74.040  1.00  0.00    -0.470 NA 
HETATM   25  H   UNL     1     -12.140  16.528  75.463  1.00  0.00     0.000 HD 
HETATM   26  H   UNL     1     -11.509  14.463  74.566  1.00  0.00     0.000 HD 
HETATM   27  O   UNL     1     -12.424  16.413  74.564  1.00  0.00    -0.737 OA 
ENDBRANCH  18  24
TORSDOF 3
ENDMDL
MODEL        4
REMARK 921   NORMALIZED FREE ENERGY PREDICTED BY IDOCK:   -6.21 KCAL/MOL
REMARK 922        TOTAL FREE ENERGY PREDICTED BY IDOCK:   -7.48 KCAL/MOL
REMARK 923 INTER-LIGAND FREE ENERGY PREDICTED BY IDOCK:   -7.26 KCAL/MOL
REMARK 924 INTRA-LIGAND FREE ENERGY PREDICTED BY IDOCK:   -0.22 KCAL/MOL
REMARK 927      BINDING AFFINITY PREDICTED BY RF-SCORE:    0.00 PKD
ROOT
HETATM    1  C   UNL     1      -8.893   9.282  65.526  1.00  0.00    -0.224 C  
HETATM    2  C   UNL     1      -7.725   9.788  64.896  1.00  0.00    -0.127 C  
HETATM    3  C   UNL     1      -8.154  10.510  66.121  1.00  0.00    -0.145 C  
HETATM    4  C   UNL     1      -9.622   9.579  67.206  1.00  0.00    -0.150 C  
HETATM    5  C   UNL     1     -10.270  10.518  65.212  1.00  0.00    -0.352 C  
HETATM    6  O   UNL     1     -10.152   9.855  68.501  1.00  0.00    -0.157 OA 
HETATM    7  C   UNL     1      -8.264   9.411  67.368  1.00  0.00    -0.121 C  
HETATM    8  C   UNL     1     -10.437  10.973  63.728  1.00  0.00    -0.408 C  
HETATM    9  C   UNL     1     -11.387  12.196  63.475  1.00  0.00    -0.535 C  
HETATM   10  H   UNL     1     -10.833   9.424  69.005  1.00  0.00     0.000 HD 
HETATM   11  C   UNL     1      -8.280  11.061  68.240  1.00  0.00    -0.130 C  
HETATM   12  C   UNL     1     -11.456  13.230  64.594  1.00  0.00    -0.373 C  
HETATM   13  C   UNL     1      -9.573  12.066  67.690  1.00  0.00    -0.188 C  
HETATM   14  C   UNL     1     -10.247  11.936  66.184  1.00  0.00    -0.258 C  
HETATM   15  C   UNL     1     -11.626  12.595  65.958  1.00  0.00    -0.443 C  
HETATM   16  C   UNL     1     -12.165  13.544  67.016  1.00  0.00    -0.351 C  
HETATM   17  C   UNL     1     -11.627  14.954  66.994  1.00  0.00    -0.314 C  
HETATM   18  C   UNL     1     -11.151  15.459  65.646  1.00  0.00    -0.271 C  
HETATM   19  C   UNL     1     -11.211  14.548  64.456  1.00  0.00    -0.302 C  
ENDROOT
BRANCH   4  20
HETATM   20  C   UNL     1     -10.208   8.153  67.043  1.00  0.00    -0.378 C  
HETATM   21  C   UNL     1     -10.735   7.068  66.949  1.00  0.00    -0.376 C  
ENDBRANCH   4  20
BRANCH   7  22
HETATM   22  C   UNL     1      -7.452   8.352  68.060  1.00  0.00    -0.097 C  
HETATM   23  C   UNL     1      -5.966   8.587  67.792  1.00  0.00    -0.047 C  
ENDBRANCH   7  22
BRANCH  18  24
HETATM   24  N   UNL     1     -10.677  16.666  65.505  1.00  0.00    -0.432 NA 
HETATM   25  H   UNL     1     -10.862  18.194  64.267  1.00  0.00     0.000 HD 
HETATM   26  H   UNL     1     -10.002  17.092  66.141  1.00  0.00     0.000 HD 
HETATM   27  O   UNL     1     -11.207  17.315  64.370  1.00  0.00    -1.082 OA 
ENDBRANCH  18  24
TORSDOF 3
ENDMDL
MODEL        5
REMARK 921   NORMALIZED FREE ENERGY PREDICTED BY IDOCK:   -6.08 KCAL/MOL
REMARK 922        TOTAL FREE ENERGY PREDICTED BY IDOCK:   -7.33 KCAL/MOL
REMARK 923 INTER-LIGAND FREE ENERGY PREDICTED BY IDOCK:   -7.09 KCAL/MOL
REMARK 924 INTRA-LIGAND FREE ENERGY PREDICTED BY IDOCK:   -0.24 KCAL/MOL
REMARK 927      BINDING AFFINITY PREDICTED BY RF-SCORE:    0.00 PKD
ROOT
HETATM    1  C   UNL     1     -10.786  15.840  67.137  1.00  0.00    -0.312 C  
HETATM    2  C   UNL     1     -10.564  15.771  65.735  1.00  0.00    -0.369 C  
HETATM    3  C   UNL     1      -9.343  15.715  66.579  1.00  0.00    -0.305 C  
HETATM    4  C   UNL     1      -9.686  15.470  68.585  1.00  0.00    -0.208 C  
HETATM    5  C   UNL     1     -10.203  17.530  67.707  1.00  0.00    -0.349 C  
HETATM    6  O   UNL     1      -8.796  15.192  69.664  1.00  0.00    -0.411 OA 
HETATM    7  C   UNL     1      -9.510  14.461  67.663  1.00  0.00    -0.214 C  
HETATM    8  C   UNL     1     -10.731  18.738  66.872  1.00  0.00    -0.406 C  
HETATM    9  C   UNL     1     -10.055  20.126  67.148  1.00  0.00    -0.590 C  
HETATM   10  H   UNL     1      -8.955  15.078  70.594  1.00  0.00     0.000 HD 
HETATM   11  C   UNL     1      -7.690  14.863  67.742  1.00  0.00    -0.174 C  
HETATM   12  C   UNL     1      -8.590  20.083  67.571  1.00  0.00    -0.401 C  
HETATM   13  C   UNL     1      -7.414  16.513  68.172  1.00  0.00    -0.161 C  
HETATM   14  C   UNL     1      -8.502  17.725  67.873  1.00  0.00    -0.245 C  
HETATM   15  C   UNL     1      -8.328  19.051  68.646  1.00  0.00    -0.397 C  
HETATM   16  C   UNL     1      -7.041  19.282  69.422  1.00  0.00    -0.280 C  
HETATM   17  C   UNL     1      -5.845  19.735  68.621  1.00  0.00    -0.264 C  
HETATM   18  C   UNL     1      -6.152  20.502  67.350  1.00  0.00    -0.214 C  
HETATM   19  C   UNL     1      -7.580  20.732  66.957  1.00  0.00    -0.298 C  
ENDROOT
BRANCH   4  20
HETATM   20  C   UNL     1     -11.012  15.144  69.321  1.00  0.00    -0.260 C  
HETATM   21  C   UNL     1     -12.001  14.852  69.952  1.00  0.00    -0.376 C  
ENDBRANCH   4  20
BRANCH   7  22
HETATM   22  C   UNL     1      -9.822  12.991  67.702  1.00  0.00    -0.212 C  
HETATM   23  C   UNL     1      -9.631  12.388  66.311  1.00  0.00    -0.245 C  
ENDBRANCH   7  22
BRANCH  18  24
HETATM   24  N   UNL     1      -5.196  20.954  66.585  1.00  0.00    -0.175 NA 
HETATM   25  H   UNL     1      -4.934  21.486  64.701  1.00  0.00     0.000 HD 
HETATM   26  H   UNL     1      -4.246  21.137  66.908  1.00  0.00     0.000 HD 
HETATM   27  O   UNL     1      -5.630  21.158  65.258  1.00  0.00    -0.223 OA 
ENDBRANCH  18  24
TORSDOF 3
ENDMDL
MODEL        6
REMARK 921   NORMALIZED FREE ENERGY PREDICTED BY IDOCK:   -5.97 KCAL/MOL
REMARK 922        TOTAL FREE ENERGY PREDICTED BY IDOCK:   -7.20 KCAL/MOL
REMARK 923 INTER-LIGAND FREE ENERGY PREDICTED BY IDOCK:   -6.99 KCAL/MOL
REMARK 924 INTRA-LIGAND FREE ENERGY PREDICTED BY IDOCK:   -0.22 KCAL/MOL
REMARK 927      BINDING AFFINITY PREDICTED BY RF-SCORE:    0.00 PKD
ROOT
HETATM    1  C   UNL     1     -11.580  13.444  67.841  1.00  0.00    -0.374 C  
HETATM    2  C   UNL     1     -11.279  14.330  68.910  1.00  0.00    -0.289 C  
HETATM    3  C   UNL     1     -10.144  13.504  68.426  1.00  0.00    -0.240 C  
HETATM    4  C   UNL     1     -10.492  12.491  66.678  1.00  0.00    -0.233 C  
HETATM    5  C   UNL     1     -11.576  11.705  68.545  1.00  0.00    -0.379 C  
HETATM    6  O   UNL     1      -9.613  11.764  65.822  1.00  0.00    -0.233 OA 
HETATM    7  C   UNL     1      -9.967  13.760  66.789  1.00  0.00    -0.270 C  
HETATM    8  C   UNL     1     -12.411  11.508  69.850  1.00  0.00    -0.247 C  
HETATM    9  C   UNL     1     -12.211  10.149  70.608  1.00  0.00    -0.394 C  
HETATM   10  H   UNL     1      -9.774  11.294  65.012  1.00  0.00     0.000 HD 
HETATM   11  C   UNL     1      -8.367  12.933  67.273  1.00  0.00    -0.185 C  
HETATM   12  C   UNL     1     -10.827   9.519  70.495  1.00  0.00    -0.352 C  
HETATM   13  C   UNL     1      -8.636  11.394  68.011  1.00  0.00    -0.147 C  
HETATM   14  C   UNL     1     -10.029  11.003  68.815  1.00  0.00    -0.215 C  
HETATM   15  C   UNL     1     -10.312   9.506  69.072  1.00  0.00    -0.219 C  
HETATM   16  C   UNL     1      -9.198   8.500  68.828  1.00  0.00    -0.142 C  
HETATM   17  C   UNL     1      -8.164   8.364  69.918  1.00  0.00    -0.122 C  
HETATM   18  C   UNL     1      -8.630   8.705  71.319  1.00  0.00    -0.187 C  
HETATM   19  C   UNL     1     -10.039   9.173  71.532  1.00  0.00    -0.381 C  
ENDROOT
BRANCH   4  20
HETATM   20  C   UNL     1     -11.686  12.611  65.696  1.00  0.00    -0.458 C  
HETATM   21  C   UNL     1     -12.624  12.622  64.933  1.00  0.00    -0.525 C  
ENDBRANCH   4  20
BRANCH   7  22
HETATM   22  C   UNL     1      -9.811  14.880  65.797  1.00  0.00    -0.380 C  
HETATM   23  C   UNL     1      -9.296  16.129  66.510  1.00  0.00    -0.296 C  
ENDBRANCH   7  22
BRANCH  18  24
HETATM   24  N   UNL     1      -7.824   8.612  72.342  1.00  0.00    -0.353 NA 
HETATM   25  H   UNL     1      -7.937   8.517  74.312  1.00  0.00     0.000 HD 
HETATM   26  H   UNL     1      -6.808   8.566  72.265  1.00  0.00     0.000 HD 
HETATM   27  O   UNL     1      -8.524   8.584  73.567  1.00  0.00    -0.365 OA 
ENDBRANCH  18  24
TORSDOF 3
ENDMDL
MODEL        7
REMARK 921   NORMALIZED FREE ENERGY PREDICTED BY IDOCK:   -5.93 KCAL/MOL
REMARK 922        TOTAL FREE ENERGY PREDICTED BY IDOCK:   -7.15 KCAL/MOL
REMARK 923 INTER-LIGAND FREE ENERGY PREDICTED BY IDOCK:   -6.90 KCAL/MOL
REMARK 924 INTRA-LIGAND FREE ENERGY PREDICTED BY IDOCK:   -0.26 KCAL/MOL
REMARK 927      BINDING AFFINITY PREDICTED BY RF-SCORE:    0.00 PKD
ROOT
HETATM    1  C   UNL     1      -9.923   9.954  70.054  1.00  0.00    -0.302 C  
HETATM    2  C   UNL     1     -11.326  10.055  70.255  1.00  0.00    -0.376 C  
HETATM    3  C   UNL     1     -10.906   9.254  69.078  1.00  0.00    -0.136 C  
HETATM    4  C   UNL     1      -8.903   8.829  68.989  1.00  0.00    -0.137 C  
HETATM    5  C   UNL     1      -9.502  11.005  68.557  1.00  0.00    -0.188 C  
HETATM    6  O   UNL     1      -8.164   7.953  68.139  1.00  0.00    -0.121 OA 
HETATM    7  C   UNL     1      -9.869   8.058  69.598  1.00  0.00    -0.184 C  
HETATM    8  C   UNL     1     -10.088  12.451  68.567  1.00  0.00    -0.190 C  
HETATM    9  C   UNL     1      -9.986  13.255  67.223  1.00  0.00    -0.231 C  
HETATM   10  H   UNL     1      -7.236   7.756  68.097  1.00  0.00     0.000 HD 
HETATM   11  C   UNL     1     -10.345   7.503  67.881  1.00  0.00    -0.266 C  
HETATM   12  C   UNL     1     -10.042  12.427  65.944  1.00  0.00    -0.272 C  
HETATM   13  C   UNL     1      -9.963   8.695  66.691  1.00  0.00    -0.357 C  
HETATM   14  C   UNL     1      -9.866  10.314  67.025  1.00  0.00    -0.238 C  
HETATM   15  C   UNL     1      -9.138  11.214  66.000  1.00  0.00    -0.217 C  
HETATM   16  C   UNL     1      -8.794  10.638  64.636  1.00  0.00    -0.191 C  
HETATM   17  C   UNL     1      -9.909  10.597  63.621  1.00  0.00    -0.392 C  
HETATM   18  C   UNL     1     -10.994  11.643  63.788  1.00  0.00    -0.422 C  
HETATM   19  C   UNL     1     -10.915  12.607  64.933  1.00  0.00    -0.326 C  
ENDROOT
BRANCH   4  20
HETATM   20  C   UNL     1      -7.803   9.053  70.059  1.00  0.00    -0.088 C  
HETATM   21  C   UNL     1      -6.892   9.199  70.841  1.00  0.00    -0.096 C  
ENDBRANCH   4  20
BRANCH   7  22
HETATM   22  C   UNL     1      -9.788   6.948  70.608  1.00  0.00    -0.191 C  
HETATM   23  C   UNL     1     -11.189   6.613  71.117  1.00  0.00    -0.340 C  
ENDBRANCH   7  22
BRANCH  18  24
HETATM   24  N   UNL     1     -12.002  11.710  62.961  1.00  0.00    -0.902 NA 
HETATM   25  H   UNL     1     -13.946  12.053  63.022  1.00  0.00     0.000 HD 
HETATM   26  H   UNL     1     -11.923  11.568  61.954  1.00  0.00     0.000 HD 
HETATM   27  O   UNL     1     -13.212  12.004  63.624  1.00  0.00    -0.737 OA 
ENDBRANCH  18  24
TORSDOF 3
ENDMDL
MODEL        8
REMARK 921   NORMALIZED FREE ENERGY PREDICTED BY IDOCK:   -5.80 KCAL/MOL
REMARK 922        TOTAL FREE ENERGY PREDICTED BY IDOCK:   -7.00 KCAL/MOL
REMARK 923 INTER-LIGAND FREE ENERGY PREDICTED BY IDOCK:   -7.54 KCAL/MOL
REMARK 924 INTRA-LIGAND FREE ENERGY PREDICTED BY IDOCK:    0.54 KCAL/MOL
REMARK 927      BINDING AFFINITY PREDICTED BY RF-SCORE:    0.00 PKD
ROOT
HETATM    1  C   UNL     1     -11.011  13.136  67.328  1.00  0.00    -0.288 C  
HETATM    2  C   UNL     1     -12.100  13.679  68.062  1.00  0.00    -0.309 C  
HETATM    3  C   UNL     1     -11.680  14.459  66.870  1.00  0.00    -0.422 C  
HETATM    4  C   UNL     1     -10.353  13.506  65.633  1.00  0.00    -0.297 C  
HETATM    5  C   UNL     1      -9.524  14.235  67.649  1.00  0.00    -0.211 C  
HETATM    6  O   UNL     1      -9.873  13.841  64.332  1.00  0.00    -0.687 OA 
HETATM    7  C   UNL     1     -11.727  13.456  65.541  1.00  0.00    -0.366 C  
HETATM    8  C   UNL     1      -9.241  14.559  69.149  1.00  0.00     0.019 C  
HETATM    9  C   UNL     1      -8.183  15.682  69.433  1.00  0.00    -0.236 C  
HETATM   10  H   UNL     1      -9.258  13.399  63.759  1.00  0.00     0.000 HD 
HETATM   11  C   UNL     1     -11.624  15.162  64.793  1.00  0.00    -0.364 C  
HETATM   12  C   UNL     1      -8.091  16.791  68.391  1.00  0.00    -0.219 C  
HETATM   13  C   UNL     1     -10.227  16.020  65.337  1.00  0.00    -0.333 C  
HETATM   14  C   UNL     1      -9.485  15.722  66.786  1.00  0.00    -0.259 C  
HETATM   15  C   UNL     1      -8.047  16.254  66.977  1.00  0.00    -0.244 C  
HETATM   16  C   UNL     1      -7.491  17.238  65.960  1.00  0.00    -0.232 C  
HETATM   17  C   UNL     1      -7.911  18.679  66.118  1.00  0.00    -0.246 C  
HETATM   18  C   UNL     1      -8.271  19.112  67.526  1.00  0.00    -0.281 C  
HETATM   19  C   UNL     1      -8.221  18.110  68.639  1.00  0.00    -0.295 C  
ENDROOT
BRANCH   4  20
HETATM   20  C   UNL     1      -9.876  12.031  65.657  1.00  0.00    -0.265 C  
HETATM   21  C   UNL     1      -9.540  10.870  65.602  1.00  0.00    -0.268 C  
ENDBRANCH   4  20
BRANCH   7  22
HETATM   22  C   UNL     1     -12.658  12.519  64.824  1.00  0.00    -0.493 C  
HETATM   23  C   UNL     1     -12.285  12.457  63.343  1.00  0.00    -0.623 C  
ENDBRANCH   7  22
BRANCH  18  24
HETATM   24  N   UNL     1      -8.638  20.338  67.783  1.00  0.00    -0.256 NA 
HETATM   25  H   UNL     1      -7.945  22.172  67.542  1.00  0.00     0.000 HD 
HETATM   26  H   UNL     1      -9.515  20.586  68.240  1.00  0.00     0.000 HD 
HETATM   27  O   UNL     1      -7.678  21.280  67.354  1.00  0.00    -0.361 OA 
ENDBRANCH  18  24
TORSDOF 3
ENDMDL
MODEL        9
REMARK 921   NORMALIZED FREE ENERGY PREDICTED BY IDOCK:   -5.80 KCAL/MOL
REMARK 922        TOTAL FREE ENERGY PREDICTED BY IDOCK:   -7.00 KCAL/MOL
REMARK 923 INTER-LIGAND FREE ENERGY PREDICTED BY IDOCK:   -6.77 KCAL/MOL
REMARK 924 INTRA-LIGAND FREE ENERGY PREDICTED BY IDOCK:   -0.23 KCAL/MOL
REMARK 927      BINDING AFFINITY PREDICTED BY RF-SCORE:    0.00 PKD
ROOT
HETATM    1  C   UNL     1     -11.819  13.578  67.979  1.00  0.00    -0.400 C  
HETATM    2  C   UNL     1     -11.706  14.332  69.177  1.00  0.00    -0.360 C  
HETATM    3  C   UNL     1     -10.421  13.921  68.558  1.00  0.00    -0.253 C  
HETATM    4  C   UNL     1     -10.579  13.139  66.670  1.00  0.00    -0.279 C  
HETATM    5  C   UNL     1     -11.332  11.812  68.388  1.00  0.00    -0.328 C  
HETATM    6  O   UNL     1      -9.585  12.813  65.701  1.00  0.00    -0.432 OA 
HETATM    7  C   UNL     1     -10.396  14.468  66.984  1.00  0.00    -0.263 C  
HETATM    8  C   UNL     1     -12.024  11.201  69.647  1.00  0.00    -0.429 C  
HETATM    9  C   UNL     1     -11.443   9.841  70.170  1.00  0.00    -0.272 C  
HETATM   10  H   UNL     1      -9.658  12.451  64.826  1.00  0.00     0.000 HD 
HETATM   11  C   UNL     1      -8.615  14.025  67.318  1.00  0.00    -0.228 C  
HETATM   12  C   UNL     1      -9.950   9.622  69.948  1.00  0.00    -0.273 C  
HETATM   13  C   UNL     1      -8.441  12.374  67.794  1.00  0.00    -0.169 C  
HETATM   14  C   UNL     1      -9.646  11.509  68.530  1.00  0.00    -0.180 C  
HETATM   15  C   UNL     1      -9.518   9.969  68.539  1.00  0.00    -0.150 C  
HETATM   16  C   UNL     1      -8.196   9.342  68.128  1.00  0.00    -0.118 C  
HETATM   17  C   UNL     1      -7.110   9.313  69.175  1.00  0.00    -0.062 C  
HETATM   18  C   UNL     1      -7.580   9.295  70.616  1.00  0.00    -0.147 C  
HETATM   19  C   UNL     1      -9.050   9.337  70.910  1.00  0.00    -0.288 C  
ENDROOT
BRANCH   4  20
HETATM   20  C   UNL     1     -11.810  13.094  65.727  1.00  0.00    -0.442 C  
HETATM   21  C   UNL     1     -12.745  12.983  64.967  1.00  0.00    -0.475 C  
ENDBRANCH   4  20
BRANCH   7  22
HETATM   22  C   UNL     1     -10.583  15.731  66.189  1.00  0.00    -0.318 C  
HETATM   23  C   UNL     1     -10.372  16.944  67.094  1.00  0.00    -0.304 C  
ENDBRANCH   7  22
BRANCH  18  24
HETATM   24  N   UNL     1      -6.730   9.259  71.605  1.00  0.00    -0.297 NA 
HETATM   25  H   UNL     1      -5.296  10.383  72.367  1.00  0.00     0.000 HD 
HETATM   26  H   UNL     1      -6.662   8.488  72.270  1.00  0.00     0.000 HD 
HETATM   27  O   UNL     1      -5.916  10.410  71.648  1.00  0.00    -0.307 OA 
ENDBRANCH  18  24
TORSDOF 3
ENDMDL
MODEL       10
REMARK 921   NORMALIZED FREE ENERGY PREDICTED BY IDOCK:   -5.76 KCAL/MOL
REMARK 922        TOTAL FREE ENERGY PREDICTED BY IDOCK:   -6.95 KCAL/MOL
REMARK 923 INTER-LIGAND FREE ENERGY PREDICTED BY IDOCK:   -7.40 KCAL/MOL
REMARK 924 INTRA-LIGAND FREE ENERGY PREDICTED BY IDOCK:    0.44 KCAL/MOL
REMARK 927      BINDING AFFINITY PREDICTED BY RF-SCORE:    0.00 PKD
ROOT
HETATM    1  C   UNL     1     -11.032  13.687  66.164  1.00  0.00    -0.285 C  
HETATM    2  C   UNL     1     -12.377  13.398  65.808  1.00  0.00    -0.513 C  
HETATM    3  C   UNL     1     -11.970  12.969  67.170  1.00  0.00    -0.389 C  
HETATM    4  C   UNL     1     -10.156  13.685  67.800  1.00  0.00    -0.242 C  
HETATM    5  C   UNL     1     -10.102  12.057  66.179  1.00  0.00    -0.252 C  
HETATM    6  O   UNL     1      -9.524  13.651  69.078  1.00  0.00    -0.403 OA 
HETATM    7  C   UNL     1     -11.377  14.296  67.985  1.00  0.00    -0.318 C  
HETATM    8  C   UNL     1     -10.296  11.162  64.915  1.00  0.00    -0.375 C  
HETATM    9  C   UNL     1      -9.758   9.692  65.011  1.00  0.00    -0.234 C  
HETATM   10  H   UNL     1      -8.683  13.983  69.370  1.00  0.00     0.000 HD 
HETATM   11  C   UNL     1     -11.667  13.047  69.341  1.00  0.00    -0.386 C  
HETATM   12  C   UNL     1      -9.794   9.058  66.398  1.00  0.00    -0.356 C  
HETATM   13  C   UNL     1     -10.792  11.584  69.065  1.00  0.00    -0.258 C  
HETATM   14  C   UNL     1     -10.351  11.060  67.557  1.00  0.00    -0.233 C  
HETATM   15  C   UNL     1      -9.250   9.978  67.469  1.00  0.00    -0.151 C  
HETATM   16  C   UNL     1      -8.826   9.261  68.741  1.00  0.00    -0.132 C  
HETATM   17  C   UNL     1      -9.718   8.138  69.210  1.00  0.00    -0.170 C  
HETATM   18  C   UNL     1     -10.515   7.432  68.132  1.00  0.00    -0.193 C  
HETATM   19  C   UNL     1     -10.400   7.895  66.710  1.00  0.00    -0.357 C  
ENDROOT
BRANCH   4  20
HETATM   20  C   UNL     1      -9.243  14.755  67.146  1.00  0.00    -0.233 C  
HETATM   21  C   UNL     1      -8.468  15.555  66.675  1.00  0.00    -0.314 C  
ENDBRANCH   4  20
BRANCH   7  22
HETATM   22  C   UNL     1     -11.759  15.704  68.347  1.00  0.00    -0.301 C  
HETATM   23  C   UNL     1     -11.529  15.932  69.841  1.00  0.00    -0.344 C  
ENDBRANCH   7  22
BRANCH  18  24
HETATM   24  N   UNL     1     -11.311   6.438  68.420  1.00  0.00    -0.525 NA 
HETATM   25  H   UNL     1     -12.193   5.660  70.006  1.00  0.00     0.000 HD 
HETATM   26  H   UNL     1     -11.671   5.779  67.730  1.00  0.00     0.000 HD 
HETATM   27  O   UNL     1     -11.614   6.384  69.797  1.00  0.00    -0.431 OA 
ENDBRANCH  18  24
TORSDOF 3
ENDMDL
MODEL       11
REMARK 921   NORMALIZED FREE ENERGY PREDICTED BY IDOCK:   -5.73 KCAL/MOL
REMARK 922        TOTAL FREE ENERGY PREDICTED BY IDOCK:   -6.92 KCAL/MOL
REMARK 923 INTER-LIGAND FREE ENERGY PREDICTED BY IDOCK:   -7.27 KCAL/MOL
REMARK 924 INTRA-LIGAND FREE ENERGY PREDICTED BY IDOCK:    0.35 KCAL/MOL
REMARK 927      BINDING AFFINITY PREDICTED BY RF-SCORE:    0.00 PKD
ROOT
HETATM    1  C   UNL     1     -11.673   7.682  72.075  1.00  0.00    -0.340 C  
HETATM    2  C   UNL     1     -12.951   7.292  71.592  1.00  0.00    -0.417 C  
HETATM    3  C   UNL     1     -11.846   7.220  70.604  1.00  0.00    -0.290 C  
HETATM    4  C   UNL     1      -9.966   7.450  71.387  1.00  0.00    -0.186 C  
HETATM    5  C   UNL     1     -11.269   9.340  71.294  1.00  0.00    -0.425 C  
HETATM    6  O   UNL     1      -8.676   7.263  70.807  1.00  0.00    -0.143 OA 
HETATM    7  C   UNL     1     -10.639   6.258  71.233  1.00  0.00    -0.285 C  
HETATM    8  C   UNL     1     -12.393  10.419  71.391  1.00  0.00    -0.500 C  
HETATM    9  C   UNL     1     -12.199  11.710  70.521  1.00  0.00    -0.451 C  
HETATM   10  H   UNL     1      -7.805   7.370  71.169  1.00  0.00     0.000 HD 
HETATM   11  C   UNL     1     -10.201   6.376  69.423  1.00  0.00    -0.230 C  
HETATM   12  C   UNL     1     -11.441  11.524  69.211  1.00  0.00    -0.370 C  
HETATM   13  C   UNL     1      -9.997   8.015  68.917  1.00  0.00    -0.199 C  
HETATM   14  C   UNL     1     -10.741   9.294  69.658  1.00  0.00    -0.244 C  
HETATM   15  C   UNL     1     -10.179  10.707  69.382  1.00  0.00    -0.218 C  
HETATM   16  C   UNL     1      -9.171  10.887  68.259  1.00  0.00    -0.161 C  
HETATM   17  C   UNL     1      -9.730  10.972  66.860  1.00  0.00    -0.215 C  
HETATM   18  C   UNL     1     -11.146  11.500  66.745  1.00  0.00    -0.302 C  
HETATM   19  C   UNL     1     -11.898  11.865  67.989  1.00  0.00    -0.323 C  
ENDROOT
BRANCH   4  20
HETATM   20  C   UNL     1      -9.520   7.495  72.871  1.00  0.00    -0.239 C  
HETATM   21  C   UNL     1      -9.104   7.568  74.005  1.00  0.00    -0.295 C  
ENDBRANCH   4  20
BRANCH   7  22
HETATM   22  C   UNL     1     -10.433   4.895  71.833  1.00  0.00    -0.233 C  
HETATM   23  C   UNL     1     -11.318   4.739  73.069  1.00  0.00    -0.325 C  
ENDBRANCH   7  22
BRANCH  18  24
HETATM   24  N   UNL     1     -11.728  11.628  65.583  1.00  0.00    -0.240 NA 
HETATM   25  H   UNL     1     -13.067  12.794  64.719  1.00  0.00     0.000 HD 
HETATM   26  H   UNL     1     -11.542  11.022  64.783  1.00  0.00     0.000 HD 
HETATM   27  O   UNL     1     -12.643  12.701  65.564  1.00  0.00    -0.634 OA 
ENDBRANCH  18  24
TORSDOF 3
ENDMDL
MODEL       12
REMARK 921   NORMALIZED FREE ENERGY PREDICTED BY IDOCK:   -5.65 KCAL/MOL
REMARK 922        TOTAL FREE ENERGY PREDICTED BY IDOCK:   -6.82 KCAL/MOL
REMARK 923 INTER-LIGAND FREE ENERGY PREDICTED BY IDOCK:   -6.67 KCAL/MOL
REMARK 924 INTRA-LIGAND FREE ENERGY PREDICTED BY IDOCK:   -0.15 KCAL/MOL
REMARK 927      BINDING AFFINITY PREDICTED BY RF-SCORE:    0.00 PKD
ROOT
HETATM    1  C   UNL     1      -9.582  17.456  66.480  1.00  0.00    -0.292 C  
HETATM    2  C   UNL     1     -10.909  17.743  66.898  1.00  0.00    -0.048 C  
HETATM    3  C   UNL     1     -10.143  16.835  67.787  1.00  0.00    -0.281 C  
HETATM    4  C   UNL     1      -8.141  16.698  67.370  1.00  0.00    -0.167 C  
HETATM    5  C   UNL     1      -9.564  15.677  65.882  1.00  0.00    -0.385 C  
HETATM    6  O   UNL     1      -7.069  16.094  68.091  1.00  0.00    -0.125 OA 
HETATM    7  C   UNL     1      -8.730  17.599  68.229  1.00  0.00    -0.276 C  
HETATM    8  C   UNL     1     -10.694  15.296  64.875  1.00  0.00    -0.423 C  
HETATM    9  C   UNL     1     -10.871  13.768  64.569  1.00  0.00    -0.399 C  
HETATM   10  H   UNL     1      -6.141  16.030  67.897  1.00  0.00     0.000 HD 
HETATM   11  C   UNL     1      -8.856  16.186  69.441  1.00  0.00    -0.111 C  
HETATM   12  C   UNL     1     -10.521  12.814  65.707  1.00  0.00    -0.294 C  
HETATM   13  C   UNL     1      -8.945  14.658  68.640  1.00  0.00    -0.184 C  
HETATM   14  C   UNL     1      -9.540  14.470  67.107  1.00  0.00    -0.233 C  
HETATM   15  C   UNL     1      -9.201  13.157  66.364  1.00  0.00    -0.134 C  
HETATM   16  C   UNL     1      -8.588  12.010  67.150  1.00  0.00    -0.182 C  
HETATM   17  C   UNL     1      -9.539  11.162  67.957  1.00  0.00    -0.181 C  
HETATM   18  C   UNL     1     -10.965  11.098  67.446  1.00  0.00    -0.290 C  
HETATM   19  C   UNL     1     -11.344  11.881  66.225  1.00  0.00    -0.394 C  
ENDROOT
BRANCH   4  20
HETATM   20  C   UNL     1      -7.283  17.544  66.393  1.00  0.00    -0.326 C  
HETATM   21  C   UNL     1      -6.605  18.136  65.585  1.00  0.00    -0.277 C  
ENDBRANCH   4  20
BRANCH   7  22
HETATM   22  C   UNL     1      -8.245  18.890  68.829  1.00  0.00    -0.347 C  
HETATM   23  C   UNL     1      -9.439  19.785  69.157  1.00  0.00    -0.202 C  
ENDBRANCH   7  22
BRANCH  18  24
HETATM   24  N   UNL     1     -11.872  10.386  68.058  1.00  0.00    -0.681 NA 
HETATM   25  H   UNL     1     -13.126  10.571  69.572  1.00  0.00     0.000 HD 
HETATM   26  H   UNL     1     -12.121   9.432  67.794  1.00  0.00     0.000 HD 
HETATM   27  O   UNL     1     -12.467  11.089  69.127  1.00  0.00    -0.432 OA 
ENDBRANCH  18  24
TORSDOF 3
ENDMDL
MODEL       13
REMARK 921   NORMALIZED FREE ENERGY PREDICTED BY IDOCK:   -5.62 KCAL/MOL
REMARK 922        TOTAL FREE ENERGY PREDICTED BY IDOCK:   -6.79 KCAL/MOL
REMARK 923 INTER-LIGAND FREE ENERGY PREDICTED BY IDOCK:   -6.60 KCAL/MOL
REMARK 924 INTRA-LIGAND FREE ENERGY PREDICTED BY IDOCK:   -0.19 KCAL/MOL
REMARK 927      BINDING AFFINITY PREDICTED BY RF-SCORE:    0.00 PKD
ROOT
HETATM    1  C   UNL     1      -9.642   8.614  67.746  1.00  0.00    -0.178 C  
HETATM    2  C   UNL     1     -10.743   7.982  67.107  1.00  0.00    -0.285 C  
HETATM    3  C   UNL     1      -9.927   8.872  66.242  1.00  0.00    -0.337 C  
HETATM    4  C   UNL     1      -8.160   9.502  67.069  1.00  0.00    -0.113 C  
HETATM    5  C   UNL     1     -10.078  10.430  67.932  1.00  0.00    -0.200 C  
HETATM    6  O   UNL     1      -7.050  10.193  66.500  1.00  0.00    -0.095 OA 
HETATM    7  C   UNL     1      -8.341   8.364  66.313  1.00  0.00    -0.123 C  
HETATM    8  C   UNL     1     -11.483  10.723  68.546  1.00  0.00    -0.362 C  
HETATM    9  C   UNL     1     -11.984  12.207  68.464  1.00  0.00    -0.273 C  
HETATM   10  H   UNL     1      -6.231  10.485  66.883  1.00  0.00     0.000 HD 
HETATM   11  C   UNL     1      -8.369   9.494  64.829  1.00  0.00    -0.155 C  
HETATM   12  C   UNL     1     -11.505  13.008  67.258  1.00  0.00    -0.380 C  
HETATM   13  C   UNL     1      -8.920  11.079  65.237  1.00  0.00    -0.177 C  
HETATM   14  C   UNL     1      -9.926  11.391  66.514  1.00  0.00    -0.243 C  
HETATM   15  C   UNL     1     -10.020  12.851  67.012  1.00  0.00    -0.244 C  
HETATM   16  C   UNL     1      -9.416  13.955  66.159  1.00  0.00    -0.194 C  
HETATM   17  C   UNL     1     -10.243  14.431  64.990  1.00  0.00    -0.406 C  
HETATM   18  C   UNL     1     -11.744  14.273  65.134  1.00  0.00    -0.368 C  
HETATM   19  C   UNL     1     -12.301  13.643  66.375  1.00  0.00    -0.441 C  
ENDROOT
BRANCH   4  20
HETATM   20  C   UNL     1      -7.468   9.036  68.376  1.00  0.00    -0.082 C  
HETATM   21  C   UNL     1      -6.860   8.658  69.351  1.00  0.00    -0.049 C  
ENDBRANCH   4  20
BRANCH   7  22
HETATM   22  C   UNL     1      -7.508   7.126  66.135  1.00  0.00    -0.080 C  
HETATM   23  C   UNL     1      -8.273   6.108  65.290  1.00  0.00    -0.142 C  
ENDBRANCH   7  22
BRANCH  18  24
HETATM   24  N   UNL     1     -12.558  14.661  64.191  1.00  0.00    -0.816 NA 
HETATM   25  H   UNL     1     -12.988  16.310  63.192  1.00  0.00     0.000 HD 
HETATM   26  H   UNL     1     -13.234  14.048  63.733  1.00  0.00     0.000 HD 
HETATM   27  O   UNL     1     -12.395  16.027  63.878  1.00  0.00    -0.855 OA 
ENDBRANCH  18  24
TORSDOF 3
ENDMDL
MODEL       14
REMARK 921   NORMALIZED FREE ENERGY PREDICTED BY IDOCK:   -5.59 KCAL/MOL
REMARK 922        TOTAL FREE ENERGY PREDICTED BY IDOCK:   -6.76 KCAL/MOL
REMARK 923 INTER-LIGAND FREE ENERGY PREDICTED BY IDOCK:   -6.56 KCAL/MOL
REMARK 924 INTRA-LIGAND FREE ENERGY PREDICTED BY IDOCK:   -0.20 KCAL/MOL
REMARK 927      BINDING AFFINITY PREDICTED BY RF-SCORE:    0.00 PKD
ROOT
HETATM    1  C   UNL     1      -9.607  11.758  66.367  1.00  0.00    -0.234 C  
HETATM    2  C   UNL     1     -10.558  11.243  65.446  1.00  0.00    -0.312 C  
HETATM    3  C   UNL     1     -11.101  11.638  66.770  1.00  0.00    -0.366 C  
HETATM    4  C   UNL     1      -9.804  12.688  67.961  1.00  0.00    -0.218 C  
HETATM    5  C   UNL     1      -9.355  10.450  67.690  1.00  0.00    -0.161 C  
HETATM    6  O   UNL     1     -10.008  13.383  69.189  1.00  0.00    -0.416 OA 
HETATM    7  C   UNL     1     -10.690  13.228  67.055  1.00  0.00    -0.263 C  
HETATM    8  C   UNL     1      -9.082   9.007  67.163  1.00  0.00    -0.158 C  
HETATM    9  C   UNL     1      -9.137   7.854  68.225  1.00  0.00    -0.134 C  
HETATM   10  H   UNL     1      -9.408  13.870  69.741  1.00  0.00     0.000 HD 
HETATM   11  C   UNL     1     -12.016  12.888  68.323  1.00  0.00    -0.297 C  
HETATM   12  C   UNL     1     -10.101   8.063  69.388  1.00  0.00    -0.197 C  
HETATM   13  C   UNL     1     -11.601  11.561  69.348  1.00  0.00    -0.388 C  
HETATM   14  C   UNL     1     -10.588  10.337  68.883  1.00  0.00    -0.242 C  
HETATM   15  C   UNL     1      -9.986   9.446  69.993  1.00  0.00    -0.253 C  
HETATM   16  C   UNL     1     -10.549   9.551  71.401  1.00  0.00    -0.307 C  
HETATM   17  C   UNL     1     -11.833   8.805  71.671  1.00  0.00    -0.399 C  
HETATM   18  C   UNL     1     -12.082   7.584  70.808  1.00  0.00    -0.161 C  
HETATM   19  C   UNL     1     -11.086   7.216  69.749  1.00  0.00    -0.239 C  
ENDROOT
BRANCH   4  20
HETATM   20  C   UNL     1      -8.419  13.291  67.609  1.00  0.00    -0.191 C  
HETATM   21  C   UNL     1      -7.369  13.835  67.357  1.00  0.00    -0.125 C  
ENDBRANCH   4  20
BRANCH   7  22
HETATM   22  C   UNL     1     -10.779  14.584  66.412  1.00  0.00    -0.309 C  
HETATM   23  C   UNL     1     -11.717  14.522  65.208  1.00  0.00    -0.361 C  
ENDBRANCH   7  22
BRANCH  18  24
HETATM   24  N   UNL     1     -13.154   6.855  70.961  1.00  0.00    -0.414 NA 
HETATM   25  H   UNL     1     -14.935   7.000  71.800  1.00  0.00     0.000 HD 
HETATM   26  H   UNL     1     -13.255   5.908  70.596  1.00  0.00     0.000 HD 
HETATM   27  O   UNL     1     -14.155   7.531  71.689  1.00  0.00    -0.411 OA 
ENDBRANCH  18  24
TORSDOF 3
ENDMDL
MODEL       15
REMARK 921   NORMALIZED FREE ENERGY PREDICTED BY IDOCK:   -5.56 KCAL/MOL
REMARK 922        TOTAL FREE ENERGY PREDICTED BY IDOCK:   -6.72 KCAL/MOL
REMARK 923 INTER-LIGAND FREE ENERGY PREDICTED BY IDOCK:   -6.54 KCAL/MOL
REMARK 924 INTRA-LIGAND FREE ENERGY PREDICTED BY IDOCK:   -0.18 KCAL/MOL
REMARK 927      BINDING AFFINITY PREDICTED BY RF-SCORE:    0.00 PKD
ROOT
HETATM    1  C   UNL     1     -12.123  13.002  66.799  1.00  0.00    -0.366 C  
HETATM    2  C   UNL     1     -13.147  13.774  66.187  1.00  0.00     0.300 C  
HETATM    3  C   UNL     1     -11.762  14.101  65.765  1.00  0.00    -0.360 C  
HETATM    4  C   UNL     1     -10.330  12.771  66.383  1.00  0.00    -0.258 C  
HETATM    5  C   UNL     1     -11.228  14.128  68.006  1.00  0.00    -0.302 C  
HETATM    6  O   UNL     1      -8.953  12.641  66.033  1.00  0.00    -0.425 OA 
HETATM    7  C   UNL     1     -11.039  12.708  65.204  1.00  0.00    -0.329 C  
HETATM    8  C   UNL     1     -12.146  14.936  68.976  1.00  0.00    -0.248 C  
HETATM    9  C   UNL     1     -11.455  16.077  69.802  1.00  0.00    -0.318 C  
HETATM   10  H   UNL     1      -8.289  12.025  66.320  1.00  0.00     0.000 HD 
HETATM   11  C   UNL     1      -9.912  14.060  64.587  1.00  0.00     0.079 C  
HETATM   12  C   UNL     1     -10.274  16.768  69.128  1.00  0.00    -0.306 C  
HETATM   13  C   UNL     1      -9.309  15.035  65.879  1.00  0.00    -0.249 C  
HETATM   14  C   UNL     1     -10.109  15.236  67.315  1.00  0.00    -0.236 C  
HETATM   15  C   UNL     1      -9.302  15.784  68.513  1.00  0.00    -0.198 C  
HETATM   16  C   UNL     1      -7.918  16.361  68.260  1.00  0.00    -0.170 C  
HETATM   17  C   UNL     1      -7.864  17.775  67.736  1.00  0.00    -0.216 C  
HETATM   18  C   UNL     1      -9.037  18.662  68.104  1.00  0.00    -0.313 C  
HETATM   19  C   UNL     1     -10.163  18.094  68.915  1.00  0.00    -0.304 C  
ENDROOT
BRANCH   4  20
HETATM   20  C   UNL     1     -10.503  11.385  67.056  1.00  0.00    -0.271 C  
HETATM   21  C   UNL     1     -10.678  10.341  67.643  1.00  0.00    -0.339 C  
ENDBRANCH   4  20
BRANCH   7  22
HETATM   22  C   UNL     1     -11.269  11.594  64.220  1.00  0.00    -0.392 C  
HETATM   23  C   UNL     1     -12.409  11.971  63.275  1.00  0.00    -0.553 C  
ENDBRANCH   7  22
BRANCH  18  24
HETATM   24  N   UNL     1      -9.091  19.907  67.716  1.00  0.00    -0.327 NA 
HETATM   25  H   UNL     1     -10.221  21.052  66.569  1.00  0.00     0.000 HD 
HETATM   26  H   UNL     1      -8.424  20.624  68.003  1.00  0.00     0.000 HD 
HETATM   27  O   UNL     1     -10.182  20.146  66.852  1.00  0.00    -0.443 OA 
ENDBRANCH  18  24
TORSDOF 3
ENDMDL
MODEL       16
REMARK 921   NORMALIZED FREE ENERGY PREDICTED BY IDOCK:   -5.56 KCAL/MOL
REMARK 922        TOTAL FREE ENERGY PREDICTED BY IDOCK:   -6.72 KCAL/MOL
REMARK 923 INTER-LIGAND FREE ENERGY PREDICTED BY IDOCK:   -6.71 KCAL/MOL
REMARK 924 INTRA-LIGAND FREE ENERGY PREDICTED BY IDOCK:   -0.01 KCAL/MOL
REMARK 927      BINDING AFFINITY PREDICTED BY RF-SCORE:    0.00 PKD
ROOT
HETATM    1  C   UNL     1      -8.856  17.773  66.791  1.00  0.00    -0.275 C  
HETATM    2  C   UNL     1      -9.931  18.216  67.606  1.00  0.00    -0.344 C  
HETATM    3  C   UNL     1      -9.170  17.054  68.129  1.00  0.00    -0.244 C  
HETATM    4  C   UNL     1      -7.427  16.639  67.133  1.00  0.00    -0.183 C  
HETATM    5  C   UNL     1      -9.378  16.141  66.025  1.00  0.00    -0.368 C  
HETATM    6  O   UNL     1      -6.358  15.746  67.439  1.00  0.00    -0.165 OA 
HETATM    7  C   UNL     1      -7.560  17.476  68.219  1.00  0.00    -0.240 C  
HETATM    8  C   UNL     1     -10.789  16.135  65.357  1.00  0.00    -0.319 C  
HETATM    9  C   UNL     1     -11.364  14.733  64.953  1.00  0.00    -0.411 C  
HETATM   10  H   UNL     1      -5.551  15.554  66.977  1.00  0.00     0.000 HD 
HETATM   11  C   UNL     1      -7.661  15.927  69.255  1.00  0.00    -0.221 C  
HETATM   12  C   UNL     1     -10.939  13.559  65.829  1.00  0.00    -0.285 C  
HETATM   13  C   UNL     1      -8.284  14.591  68.355  1.00  0.00    -0.150 C  
HETATM   14  C   UNL     1      -9.290  14.764  67.051  1.00  0.00    -0.245 C  
HETATM   15  C   UNL     1      -9.450  13.553  66.105  1.00  0.00    -0.159 C  
HETATM   16  C   UNL     1      -8.911  12.202  66.549  1.00  0.00    -0.179 C  
HETATM   17  C   UNL     1      -9.774  11.413  67.502  1.00  0.00    -0.191 C  
HETATM   18  C   UNL     1     -11.263  11.685  67.427  1.00  0.00    -0.298 C  
HETATM   19  C   UNL     1     -11.775  12.712  66.461  1.00  0.00    -0.463 C  
ENDROOT
BRANCH   4  20
HETATM   20  C   UNL     1      -6.698  17.470  66.045  1.00  0.00    -0.256 C  
HETATM   21  C   UNL     1      -6.110  18.172  65.255  1.00  0.00    -0.150 C  
ENDBRANCH   4  20
BRANCH   7  22
HETATM   22  C   UNL     1      -6.668  18.545  68.787  1.00  0.00    -0.281 C  
HETATM   23  C   UNL     1      -7.520  19.705  69.302  1.00  0.00    -0.250 C  
ENDBRANCH   7  22
BRANCH  18  24
HETATM   24  N   UNL     1     -12.107  11.052  68.196  1.00  0.00    -0.780 NA 
HETATM   25  H   UNL     1     -12.127  10.180  69.968  1.00  0.00     0.000 HD 
HETATM   26  H   UNL     1     -13.081  10.876  67.950  1.00  0.00     0.000 HD 
HETATM   27  O   UNL     1     -11.513  10.641  69.408  1.00  0.00    -0.250 OA 
ENDBRANCH  18  24
TORSDOF 3
ENDMDL
MODEL       17
REMARK 921   NORMALIZED FREE ENERGY PREDICTED BY IDOCK:   -5.55 KCAL/MOL
REMARK 922        TOTAL FREE ENERGY PREDICTED BY IDOCK:   -6.71 KCAL/MOL
REMARK 923 INTER-LIGAND FREE ENERGY PREDICTED BY IDOCK:   -6.51 KCAL/MOL
REMARK 924 INTRA-LIGAND FREE ENERGY PREDICTED BY IDOCK:   -0.20 KCAL/MOL
REMARK 927      BINDING AFFINITY PREDICTED BY RF-SCORE:    0.00 PKD
ROOT
HETATM    1  C   UNL     1     -10.619   7.839  71.228  1.00  0.00    -0.241 C  
HETATM    2  C   UNL     1     -11.852   7.253  70.835  1.00  0.00    -0.351 C  
HETATM    3  C   UNL     1     -10.890   7.515  69.735  1.00  0.00    -0.234 C  
HETATM    4  C   UNL     1      -9.002   8.035  70.341  1.00  0.00    -0.146 C  
HETATM    5  C   UNL     1     -10.639   9.620  70.636  1.00  0.00    -0.386 C  
HETATM    6  O   UNL     1      -7.786   8.178  69.609  1.00  0.00    -0.096 OA 
HETATM    7  C   UNL     1      -9.452   6.755  70.101  1.00  0.00    -0.159 C  
HETATM    8  C   UNL     1     -11.925  10.430  70.992  1.00  0.00    -0.481 C  
HETATM    9  C   UNL     1     -12.091  11.821  70.286  1.00  0.00    -0.426 C  
HETATM   10  H   UNL     1      -6.911   8.420  69.890  1.00  0.00     0.000 HD 
HETATM   11  C   UNL     1      -9.281   7.157  68.287  1.00  0.00    -0.132 C  
HETATM   12  C   UNL     1     -11.487  11.938  68.891  1.00  0.00    -0.358 C  
HETATM   13  C   UNL     1      -9.456   8.849  67.984  1.00  0.00    -0.158 C  
HETATM   14  C   UNL     1     -10.327   9.862  68.962  1.00  0.00    -0.224 C  
HETATM   15  C   UNL     1     -10.082  11.381  68.820  1.00  0.00    -0.199 C  
HETATM   16  C   UNL     1      -9.279  11.883  67.631  1.00  0.00    -0.183 C  
HETATM   17  C   UNL     1     -10.019  12.006  66.321  1.00  0.00    -0.249 C  
HETATM   18  C   UNL     1     -11.512  12.244  66.426  1.00  0.00    -0.378 C  
HETATM   19  C   UNL     1     -12.153  12.311  67.780  1.00  0.00    -0.033 C  
ENDROOT
BRANCH   4  20
HETATM   20  C   UNL     1      -8.386   8.007  71.763  1.00  0.00    -0.159 C  
HETATM   21  C   UNL     1      -7.856   8.048  72.850  1.00  0.00    -0.190 C  
ENDBRANCH   4  20
BRANCH   7  22
HETATM   22  C   UNL     1      -8.917   5.405  70.491  1.00  0.00    -0.156 C  
HETATM   23  C   UNL     1      -9.871   4.315  70.006  1.00  0.00    -0.275 C  
ENDBRANCH   7  22
BRANCH  18  24
HETATM   24  N   UNL     1     -12.252  12.377  65.359  1.00  0.00    -0.579 NA 
HETATM   25  H   UNL     1     -13.453  13.720  64.548  1.00  0.00     0.000 HD 
HETATM   26  H   UNL     1     -12.342  11.665  64.635  1.00  0.00     0.000 HD 
HETATM   27  O   UNL     1     -12.914  13.623  65.325  1.00  0.00    -0.719 OA 
ENDBRANCH  18  24
TORSDOF 3
ENDMDL
MODEL       18
REMARK 921   NORMALIZED FREE ENERGY PREDICTED BY IDOCK:   -5.51 KCAL/MOL
REMARK 922        TOTAL FREE ENERGY PREDICTED BY IDOCK:   -6.66 KCAL/MOL
REMARK 923 INTER-LIGAND FREE ENERGY PREDICTED BY IDOCK:   -6.46 KCAL/MOL
REMARK 924 INTRA-LIGAND FREE ENERGY PREDICTED BY IDOCK:   -0.20 KCAL/MOL
REMARK 927      BINDING AFFINITY PREDICTED BY RF-SCORE:    0.00 PKD
ROOT
HETATM    1  C   UNL     1      -8.950   7.672  71.019  1.00  0.00    -0.148 C  
HETATM    2  C   UNL     1      -8.230   8.345  72.041  1.00  0.00    -0.212 C  
HETATM    3  C   UNL     1      -9.620   8.818  71.822  1.00  0.00    -0.371 C  
HETATM    4  C   UNL     1     -10.757   7.630  70.599  1.00  0.00    -0.231 C  
HETATM    5  C   UNL     1      -9.109   8.862  69.577  1.00  0.00    -0.146 C  
HETATM    6  O   UNL     1     -12.153   7.646  70.305  1.00  0.00    -0.484 OA 
HETATM    7  C   UNL     1     -10.648   7.514  71.968  1.00  0.00    -0.248 C  
HETATM    8  C   UNL     1      -7.784   9.558  69.132  1.00  0.00    -0.081 C  
HETATM    9  C   UNL     1      -7.926  10.749  68.122  1.00  0.00    -0.114 C  
HETATM   10  H   UNL     1     -12.680   7.095  69.738  1.00  0.00     0.000 HD 
HETATM   11  C   UNL     1     -11.793   8.983  72.068  1.00  0.00    -0.426 C  
HETATM   12  C   UNL     1      -9.209  11.567  68.229  1.00  0.00    -0.186 C  
HETATM   13  C   UNL     1     -11.668   9.993  70.672  1.00  0.00    -0.421 C  
HETATM   14  C   UNL     1     -10.303  10.089  69.740  1.00  0.00    -0.290 C  
HETATM   15  C   UNL     1     -10.444  10.697  68.326  1.00  0.00    -0.214 C  
HETATM   16  C   UNL     1     -11.734  11.415  67.963  1.00  0.00    -0.324 C  
HETATM   17  C   UNL     1     -11.874  12.836  68.453  1.00  0.00    -0.353 C  
HETATM   18  C   UNL     1     -10.578  13.593  68.663  1.00  0.00    -0.248 C  
HETATM   19  C   UNL     1      -9.272  12.901  68.412  1.00  0.00    -0.137 C  
ENDROOT
BRANCH   4  20
HETATM   20  C   UNL     1     -10.442   6.222  70.029  1.00  0.00    -0.274 C  
HETATM   21  C   UNL     1     -10.237   5.146  69.517  1.00  0.00    -0.318 C  
ENDBRANCH   4  20
BRANCH   7  22
HETATM   22  C   UNL     1     -10.984   6.399  72.918  1.00  0.00    -0.281 C  
HETATM   23  C   UNL     1     -10.235   6.603  74.235  1.00  0.00    -0.354 C  
ENDBRANCH   7  22
BRANCH  18  24
HETATM   24  N   UNL     1     -10.578  14.832  69.073  1.00  0.00    -0.243 NA 
HETATM   25  H   UNL     1     -11.700  16.449  68.901  1.00  0.00     0.000 HD 
HETATM   26  H   UNL     1      -9.852  15.237  69.665  1.00  0.00     0.000 HD 
HETATM   27  O   UNL     1     -11.700  15.547  68.603  1.00  0.00    -0.353 OA 
ENDBRANCH  18  24
TORSDOF 3
ENDMDL
MODEL       19
REMARK 921   NORMALIZED FREE ENERGY PREDICTED BY IDOCK:   -5.48 KCAL/MOL
REMARK 922        TOTAL FREE ENERGY PREDICTED BY IDOCK:   -6.62 KCAL/MOL
REMARK 923 INTER-LIGAND FREE ENERGY PREDICTED BY IDOCK:   -6.55 KCAL/MOL
REMARK 924 INTRA-LIGAND FREE ENERGY PREDICTED BY IDOCK:   -0.08 KCAL/MOL
REMARK 927      BINDING AFFINITY PREDICTED BY RF-SCORE:    0.00 PKD
ROOT
HETATM    1  C   UNL     1     -11.440  12.347  67.481  1.00  0.00    -0.410 C  
HETATM    2  C   UNL     1     -11.672  12.651  66.113  1.00  0.00    -0.461 C  
HETATM    3  C   UNL     1     -10.247  12.610  66.524  1.00  0.00    -0.255 C  
HETATM    4  C   UNL     1      -9.905  11.843  68.394  1.00  0.00    -0.201 C  
HETATM    5  C   UNL     1     -10.863  13.930  68.309  1.00  0.00    -0.263 C  
HETATM    6  O   UNL     1      -8.695  11.477  69.054  1.00  0.00    -0.366 OA 
HETATM    7  C   UNL     1      -9.941  11.126  67.218  1.00  0.00    -0.211 C  
HETATM    8  C   UNL     1     -11.740  15.191  68.029  1.00  0.00    -0.304 C  
HETATM    9  C   UNL     1     -11.142  16.570  68.476  1.00  0.00    -0.335 C  
HETATM   10  H   UNL     1      -8.536  11.122  69.920  1.00  0.00     0.000 HD 
HETATM   11  C   UNL     1      -8.237  11.809  66.885  1.00  0.00    -0.166 C  
HETATM   12  C   UNL     1      -9.622  16.684  68.435  1.00  0.00    -0.233 C  
HETATM   13  C   UNL     1      -7.991  13.333  67.660  1.00  0.00    -0.176 C  
HETATM   14  C   UNL     1      -9.225  14.373  68.031  1.00  0.00    -0.193 C  
HETATM   15  C   UNL     1      -8.935  15.489  69.060  1.00  0.00    -0.237 C  
HETATM   16  C   UNL     1      -7.495  15.750  69.470  1.00  0.00    -0.181 C  
HETATM   17  C   UNL     1      -6.665  16.580  68.522  1.00  0.00    -0.145 C  
HETATM   18  C   UNL     1      -7.432  17.560  67.656  1.00  0.00    -0.186 C  
HETATM   19  C   UNL     1      -8.927  17.624  67.765  1.00  0.00    -0.247 C  
ENDROOT
BRANCH   4  20
HETATM   20  C   UNL     1     -10.889  11.128  69.356  1.00  0.00    -0.264 C  
HETATM   21  C   UNL     1     -11.627  10.616  70.166  1.00  0.00    -0.414 C  
ENDBRANCH   4  20
BRANCH   7  22
HETATM   22  C   UNL     1     -10.087   9.658  66.933  1.00  0.00    -0.290 C  
HETATM   23  C   UNL     1      -9.754   9.383  65.467  1.00  0.00    -0.300 C  
ENDBRANCH   7  22
BRANCH  18  24
HETATM   24  N   UNL     1      -6.818  18.339  66.808  1.00  0.00    -0.186 NA 
HETATM   25  H   UNL     1      -7.076  19.027  64.975  1.00  0.00     0.000 HD 
HETATM   26  H   UNL     1      -5.931  18.804  67.001  1.00  0.00     0.000 HD 
HETATM   27  O   UNL     1      -7.524  18.461  65.593  1.00  0.00    -0.521 OA 
ENDBRANCH  18  24
TORSDOF 3
ENDMDL
MODEL       20
REMARK 921   NORMALIZED FREE ENERGY PREDICTED BY IDOCK:   -5.46 KCAL/MOL
REMARK 922        TOTAL FREE ENERGY PREDICTED BY IDOCK:   -6.60 KCAL/MOL
REMARK 923 INTER-LIGAND FREE ENERGY PREDICTED BY IDOCK:   -6.39 KCAL/MOL
REMARK 924 INTRA-LIGAND FREE ENERGY PREDICTED BY IDOCK:   -0.21 KCAL/MOL
REMARK 927      BINDING AFFINITY PREDICTED BY RF-SCORE:    0.00 PKD
ROOT
HETATM    1  C   UNL     1     -10.430   9.505  70.342  1.00  0.00    -0.336 C  
HETATM    2  C   UNL     1     -11.823   9.303  70.526  1.00  0.00    -0.173 C  
HETATM    3  C   UNL     1     -11.275   8.829  69.231  1.00  0.00     0.220 C  
HETATM    4  C   UNL     1      -9.229   8.809  69.111  1.00  0.00    -0.149 C  
HETATM    5  C   UNL     1     -10.231  10.877  69.077  1.00  0.00    -0.219 C  
HETATM    6  O   UNL     1      -8.350   8.261  68.131  1.00  0.00    -0.126 OA 
HETATM    7  C   UNL     1     -10.026   7.772  69.543  1.00  0.00    -0.187 C  
HETATM    8  C   UNL     1     -11.078  12.161  69.341  1.00  0.00    -0.183 C  
HETATM    9  C   UNL     1     -11.145  13.206  68.173  1.00  0.00    -0.284 C  
HETATM   10  H   UNL     1      -7.401   8.252  68.075  1.00  0.00     0.000 HD 
HETATM   11  C   UNL     1     -10.410   7.469  67.743  1.00  0.00    -0.278 C  
HETATM   12  C   UNL     1     -11.060  12.636  66.761  1.00  0.00    -0.318 C  
HETATM   13  C   UNL     1     -10.273   8.912  66.804  1.00  0.00    -0.348 C  
HETATM   14  C   UNL     1     -10.478  10.429  67.435  1.00  0.00    -0.299 C  
HETATM   15  C   UNL     1      -9.944  11.624  66.613  1.00  0.00    -0.230 C  
HETATM   16  C   UNL     1      -9.514  11.387  65.174  1.00  0.00    -0.223 C  
HETATM   17  C   UNL     1     -10.614  11.330  64.143  1.00  0.00    -0.437 C  
HETATM   18  C   UNL     1     -11.874  12.105  64.476  1.00  0.00    -0.343 C  
HETATM   19  C   UNL     1     -11.964  12.836  65.782  1.00  0.00    -0.502 C  
ENDROOT
BRANCH   4  20
HETATM   20  C   UNL     1      -8.179   9.031  70.230  1.00  0.00    -0.150 C  
HETATM   21  C   UNL     1      -7.302   9.208  71.044  1.00  0.00    -0.116 C  
ENDBRANCH   4  20
BRANCH   7  22
HETATM   22  C   UNL     1      -9.726   6.527  70.332  1.00  0.00    -0.186 C  
HETATM   23  C   UNL     1     -11.032   5.887  70.799  1.00  0.00    -0.343 C  
ENDBRANCH   7  22
BRANCH  18  24
HETATM   24  N   UNL     1     -12.886  12.137  63.653  1.00  0.00    -0.785 NA 
HETATM   25  H   UNL     1     -13.629  13.329  62.264  1.00  0.00     0.000 HD 
HETATM   26  H   UNL     1     -13.591  11.402  63.588  1.00  0.00     0.000 HD 
HETATM   27  O   UNL     1     -12.891  13.306  62.863  1.00  0.00    -0.390 OA 
ENDBRANCH  18  24
TORSDOF 3
ENDMDL
MODEL       21
REMARK 921   NORMALIZED FREE ENERGY PREDICTED BY IDOCK:   -5.37 KCAL/MOL
REMARK 922        TOTAL FREE ENERGY PREDICTED BY IDOCK:   -6.49 KCAL/MOL
REMARK 923 INTER-LIGAND FREE ENERGY PREDICTED BY IDOCK:   -6.28 KCAL/MOL
REMARK 924 INTRA-LIGAND FREE ENERGY PREDICTED BY IDOCK:   -0.21 KCAL/MOL
REMARK 927      BINDING AFFINITY PREDICTED BY RF-SCORE:    0.00 PKD
ROOT
HETATM    1  C   UNL     1     -10.067  15.576  68.193  1.00  0.00    -0.218 C  
HETATM    2  C   UNL     1      -9.438  15.961  69.407  1.00  0.00    -0.248 C  
HETATM    3  C   UNL     1      -8.932  14.707  68.795  1.00  0.00    -0.173 C  
HETATM    4  C   UNL     1      -9.595  14.342  66.890  1.00  0.00    -0.262 C  
HETATM    5  C   UNL     1     -11.138  14.082  68.574  1.00  0.00    -0.279 C  
HETATM    6  O   UNL     1      -9.199  13.367  65.927  1.00  0.00    -0.473 OA 
HETATM    7  C   UNL     1      -8.457  15.038  67.233  1.00  0.00    -0.220 C  
HETATM    8  C   UNL     1     -12.077  14.228  69.813  1.00  0.00    -0.401 C  
HETATM    9  C   UNL     1     -12.776  12.918  70.317  1.00  0.00     0.051 C  
HETATM   10  H   UNL     1      -9.507  13.198  65.045  1.00  0.00     0.000 HD 
HETATM   11  C   UNL     1      -7.683  13.375  67.579  1.00  0.00    -0.182 C  
HETATM   12  C   UNL     1     -11.998  11.623  70.108  1.00  0.00    -0.441 C  
HETATM   13  C   UNL     1      -8.864  12.197  68.025  1.00  0.00    -0.181 C  
HETATM   14  C   UNL     1     -10.311  12.582  68.730  1.00  0.00    -0.138 C  
HETATM   15  C   UNL     1     -11.425  11.511  68.711  1.00  0.00    -0.349 C  
HETATM   16  C   UNL     1     -11.067  10.091  68.303  1.00  0.00    -0.247 C  
HETATM   17  C   UNL     1     -10.427   9.228  69.363  1.00  0.00    -0.229 C  
HETATM   18  C   UNL     1     -10.770   9.577  70.797  1.00  0.00    -0.321 C  
HETATM   19  C   UNL     1     -11.672  10.742  71.075  1.00  0.00    -0.242 C  
ENDROOT
BRANCH   4  20
HETATM   20  C   UNL     1     -10.387  15.270  65.933  1.00  0.00    -0.346 C  
HETATM   21  C   UNL     1     -10.968  15.955  65.123  1.00  0.00    -0.389 C  
ENDBRANCH   4  20
BRANCH   7  22
HETATM   22  C   UNL     1      -7.578  15.982  66.460  1.00  0.00    -0.100 C  
HETATM   23  C   UNL     1      -6.648  16.721  67.421  1.00  0.00    -0.189 C  
ENDBRANCH   7  22
BRANCH  18  24
HETATM   24  N   UNL     1     -10.284   8.891  71.795  1.00  0.00    -0.330 NA 
HETATM   25  H   UNL     1     -10.938   7.720  73.245  1.00  0.00     0.000 HD 
HETATM   26  H   UNL     1      -9.291   8.846  72.025  1.00  0.00     0.000 HD 
HETATM   27  O   UNL     1     -11.292   8.219  72.518  1.00  0.00    -0.375 OA 
ENDBRANCH  18  24
TORSDOF 3
ENDMDL
MODEL       22
REMARK 921   NORMALIZED FREE ENERGY PREDICTED BY IDOCK:   -5.34 KCAL/MOL
REMARK 922        TOTAL FREE ENERGY PREDICTED BY IDOCK:   -6.46 KCAL/MOL
REMARK 923 INTER-LIGAND FREE ENERGY PREDICTED BY IDOCK:   -6.25 KCAL/MOL
REMARK 924 INTRA-LIGAND FREE ENERGY PREDICTED BY IDOCK:   -0.22 KCAL/MOL
REMARK 927      BINDING AFFINITY PREDICTED BY RF-SCORE:    0.00 PKD
ROOT
HETATM    1  C   UNL     1      -9.875   7.457  69.717  1.00  0.00    -0.171 C  
HETATM    2  C   UNL     1     -11.195   6.944  69.599  1.00  0.00    -0.289 C  
HETATM    3  C   UNL     1     -10.534   7.308  68.320  1.00  0.00    -0.239 C  
HETATM    4  C   UNL     1      -8.531   7.718  68.465  1.00  0.00    -0.129 C  
HETATM    5  C   UNL     1      -9.960   9.293  69.337  1.00  0.00    -0.184 C  
HETATM    6  O   UNL     1      -7.537   7.918  67.462  1.00  0.00    -0.100 OA 
HETATM    7  C   UNL     1      -9.090   6.483  68.220  1.00  0.00    -0.119 C  
HETATM    8  C   UNL     1     -11.070  10.084  70.096  1.00  0.00    -0.371 C  
HETATM    9  C   UNL     1     -11.343  11.549  69.605  1.00  0.00    -0.329 C  
HETATM   10  H   UNL     1      -6.609   8.108  67.529  1.00  0.00     0.000 HD 
HETATM   11  C   UNL     1      -9.369   7.082  66.475  1.00  0.00    -0.201 C  
HETATM   12  C   UNL     1     -11.112  11.809  68.120  1.00  0.00    -0.297 C  
HETATM   13  C   UNL     1      -9.533   8.800  66.404  1.00  0.00    -0.291 C  
HETATM   14  C   UNL     1     -10.075   9.714  67.674  1.00  0.00    -0.241 C  
HETATM   15  C   UNL     1      -9.800  11.235  67.629  1.00  0.00    -0.190 C  
HETATM   16  C   UNL     1      -9.305  11.850  66.331  1.00  0.00    -0.233 C  
HETATM   17  C   UNL     1     -10.349  12.134  65.279  1.00  0.00    -0.310 C  
HETATM   18  C   UNL     1     -11.752  12.389  65.791  1.00  0.00    -0.414 C  
HETATM   19  C   UNL     1     -12.021  12.317  67.265  1.00  0.00    -0.201 C  
ENDROOT
BRANCH   4  20
HETATM   20  C   UNL     1      -7.573   7.519  69.668  1.00  0.00    -0.094 C  
HETATM   21  C   UNL     1      -6.764   7.373  70.555  1.00  0.00    -0.047 C  
ENDBRANCH   4  20
BRANCH   7  22
HETATM   22  C   UNL     1      -8.539   5.087  68.316  1.00  0.00    -0.103 C  
HETATM   23  C   UNL     1      -9.660   4.075  68.083  1.00  0.00    -0.189 C  
ENDBRANCH   7  22
BRANCH  18  24
HETATM   24  N   UNL     1     -12.733  12.657  64.973  1.00  0.00    -0.771 NA 
HETATM   25  H   UNL     1     -14.066  14.083  64.676  1.00  0.00     0.000 HD 
HETATM   26  H   UNL     1     -13.018  12.046  64.207  1.00  0.00     0.000 HD 
HETATM   27  O   UNL     1     -13.352  13.889  65.271  1.00  0.00    -0.732 OA 
ENDBRANCH  18  24
TORSDOF 3
ENDMDL
MODEL       23
REMARK 921   NORMALIZED FREE ENERGY PREDICTED BY IDOCK:   -5.34 KCAL/MOL
REMARK 922        TOTAL FREE ENERGY PREDICTED BY IDOCK:   -6.46 KCAL/MOL
REMARK 923 INTER-LIGAND FREE ENERGY PREDICTED BY IDOCK:   -6.28 KCAL/MOL
REMARK 924 INTRA-LIGAND FREE ENERGY PREDICTED BY IDOCK:   -0.18 KCAL/MOL
REMARK 927      BINDING AFFINITY PREDICTED BY RF-SCORE:    0.00 PKD
ROOT
HETATM    1  C   UNL     1      -8.920  14.445  67.539  1.00  0.00    -0.192 C  
HETATM    2  C   UNL     1      -8.655  14.128  68.898  1.00  0.00     0.011 C  
HETATM    3  C   UNL     1      -9.278  15.455  68.662  1.00  0.00    -0.199 C  
HETATM    4  C   UNL     1      -9.966  15.763  66.756  1.00  0.00    -0.252 C  
HETATM    5  C   UNL     1      -7.684  15.761  67.028  1.00  0.00    -0.267 C  
HETATM    6  O   UNL     1     -10.767  16.805  66.202  1.00  0.00    -0.240 OA 
HETATM    7  C   UNL     1     -10.687  15.230  67.802  1.00  0.00    -0.286 C  
HETATM    8  C   UNL     1      -6.194  15.454  67.379  1.00  0.00    -0.035 C  
HETATM    9  C   UNL     1      -5.180  16.640  67.214  1.00  0.00    -0.159 C  
HETATM   10  H   UNL     1     -11.086  16.948  65.319  1.00  0.00     0.000 HD 
HETATM   11  C   UNL     1     -10.840  16.978  68.436  1.00  0.00    -0.333 C  
HETATM   12  C   UNL     1      -5.741  18.037  67.456  1.00  0.00    -0.147 C  
HETATM   13  C   UNL     1      -9.517  17.965  67.927  1.00  0.00    -0.272 C  
HETATM   14  C   UNL     1      -8.019  17.360  67.564  1.00  0.00    -0.205 C  
HETATM   15  C   UNL     1      -7.061  18.261  66.751  1.00  0.00    -0.232 C  
HETATM   16  C   UNL     1      -7.419  19.726  66.562  1.00  0.00    -0.284 C  
HETATM   17  C   UNL     1      -7.109  20.649  67.715  1.00  0.00    -0.325 C  
HETATM   18  C   UNL     1      -5.966  20.222  68.614  1.00  0.00    -0.292 C  
HETATM   19  C   UNL     1      -5.251  18.934  68.335  1.00  0.00    -0.181 C  
ENDROOT
BRANCH   4  20
HETATM   20  C   UNL     1     -10.105  14.752  65.588  1.00  0.00    -0.393 C  
HETATM   21  C   UNL     1     -10.293  13.957  64.696  1.00  0.00    -0.366 C  
ENDBRANCH   4  20
BRANCH   7  22
HETATM   22  C   UNL     1     -11.964  14.439  67.850  1.00  0.00    -0.348 C  
HETATM   23  C   UNL     1     -12.242  13.997  69.286  1.00  0.00    -0.319 C  
ENDBRANCH   7  22
BRANCH  18  24
HETATM   24  N   UNL     1      -5.601  20.949  69.635  1.00  0.00    -0.407 NA 
HETATM   25  H   UNL     1      -6.012  21.109  71.561  1.00  0.00     0.000 HD 
HETATM   26  H   UNL     1      -4.908  21.696  69.585  1.00  0.00     0.000 HD 
HETATM   27  O   UNL     1      -6.277  20.580  70.817  1.00  0.00    -0.554 OA 
ENDBRANCH  18  24
TORSDOF 3
ENDMDL
MODEL       24
REMARK 921   NORMALIZED FREE ENERGY PREDICTED BY IDOCK:   -5.26 KCAL/MOL
REMARK 922        TOTAL FREE ENERGY PREDICTED BY IDOCK:   -6.36 KCAL/MOL
REMARK 923 INTER-LIGAND FREE ENERGY PREDICTED BY IDOCK:   -6.16 KCAL/MOL
REMARK 924 INTRA-LIGAND FREE ENERGY PREDICTED BY IDOCK:   -0.20 KCAL/MOL
REMARK 927      BINDING AFFINITY PREDICTED BY RF-SCORE:    0.00 PKD
ROOT
HETATM    1  C   UNL     1      -9.705  11.978  66.323  1.00  0.00    -0.251 C  
HETATM    2  C   UNL     1     -10.586  11.288  65.448  1.00  0.00    -0.312 C  
HETATM    3  C   UNL     1     -11.093  11.501  66.827  1.00  0.00    -0.361 C  
HETATM    4  C   UNL     1      -9.977  12.782  67.973  1.00  0.00    -0.225 C  
HETATM    5  C   UNL     1      -9.051  10.721  67.554  1.00  0.00    -0.143 C  
HETATM    6  O   UNL     1     -10.232  13.369  69.247  1.00  0.00    -0.417 OA 
HETATM    7  C   UNL     1     -11.035  13.132  67.163  1.00  0.00    -0.289 C  
HETATM    8  C   UNL     1      -8.500   9.399  66.933  1.00  0.00    -0.128 C  
HETATM    9  C   UNL     1      -8.202   8.229  67.935  1.00  0.00    -0.128 C  
HETATM   10  H   UNL     1      -9.715  13.962  69.779  1.00  0.00     0.000 HD 
HETATM   11  C   UNL     1     -12.138  12.451  68.505  1.00  0.00    -0.126 C  
HETATM   12  C   UNL     1      -9.088   8.169  69.174  1.00  0.00    -0.148 C  
HETATM   13  C   UNL     1     -11.347  11.223  69.426  1.00  0.00    -0.360 C  
HETATM   14  C   UNL     1     -10.123  10.283  68.825  1.00  0.00    -0.198 C  
HETATM   15  C   UNL     1      -9.243   9.519  69.841  1.00  0.00    -0.242 C  
HETATM   16  C   UNL     1      -9.697   9.443  71.290  1.00  0.00    -0.210 C  
HETATM   17  C   UNL     1     -10.749   8.411  71.613  1.00  0.00    -0.333 C  
HETATM   18  C   UNL     1     -10.782   7.195  70.708  1.00  0.00    -0.231 C  
HETATM   19  C   UNL     1      -9.820   7.105  69.561  1.00  0.00    -0.162 C  
ENDROOT
BRANCH   4  20
HETATM   20  C   UNL     1      -8.801  13.702  67.553  1.00  0.00    -0.205 C  
HETATM   21  C   UNL     1      -7.927  14.483  67.254  1.00  0.00    -0.216 C  
ENDBRANCH   4  20
BRANCH   7  22
HETATM   22  C   UNL     1     -11.484  14.452  66.600  1.00  0.00    -0.372 C  
HETATM   23  C   UNL     1     -12.447  14.214  65.437  1.00  0.00    -0.488 C  
ENDBRANCH   7  22
BRANCH  18  24
HETATM   24  N   UNL     1     -11.643   6.233  70.900  1.00  0.00    -0.318 NA 
HETATM   25  H   UNL     1     -13.452   5.993  71.653  1.00  0.00     0.000 HD 
HETATM   26  H   UNL     1     -11.478   5.261  70.637  1.00  0.00     0.000 HD 
HETATM   27  O   UNL     1     -12.827   6.694  71.513  1.00  0.00    -0.299 OA 
ENDBRANCH  18  24
TORSDOF 3
ENDMDL
MODEL       25
REMARK 921   NORMALIZED FREE ENERGY PREDICTED BY IDOCK:   -5.22 KCAL/MOL
REMARK 922        TOTAL FREE ENERGY PREDICTED BY IDOCK:   -6.32 KCAL/MOL
REMARK 923 INTER-LIGAND FREE ENERGY PREDICTED BY IDOCK:   -6.15 KCAL/MOL
REMARK 924 INTRA-LIGAND FREE ENERGY PREDICTED BY IDOCK:   -0.17 KCAL/MOL
REMARK 927      BINDING AFFINITY PREDICTED BY RF-SCORE:    0.00 PKD
ROOT
HETATM    1  C   UNL     1      -8.862   8.596  67.480  1.00  0.00    -0.139 C  
HETATM    2  C   UNL     1      -7.723   9.444  67.438  1.00  0.00    -0.095 C  
HETATM    3  C   UNL     1      -8.393   9.338  68.759  1.00  0.00    -0.117 C  
HETATM    4  C   UNL     1      -9.811   7.864  68.897  1.00  0.00    -0.173 C  
HETATM    5  C   UNL     1     -10.370   9.702  67.636  1.00  0.00    -0.290 C  
HETATM    6  O   UNL     1     -10.518   7.342  70.020  1.00  0.00    -0.215 OA 
HETATM    7  C   UNL     1      -8.470   7.728  69.183  1.00  0.00    -0.138 C  
HETATM    8  C   UNL     1     -10.440  10.888  66.623  1.00  0.00    -0.307 C  
HETATM    9  C   UNL     1     -11.533  11.978  66.899  1.00  0.00    -0.402 C  
HETATM   10  H   UNL     1     -11.175   6.659  70.084  1.00  0.00     0.000 HD 
HETATM   11  C   UNL     1      -8.838   8.616  70.782  1.00  0.00    -0.206 C  
HETATM   12  C   UNL     1     -11.887  12.214  68.364  1.00  0.00    -0.360 C  
HETATM   13  C   UNL     1     -10.202   9.666  70.635  1.00  0.00    -0.346 C  
HETATM   14  C   UNL     1     -10.676  10.345  69.201  1.00  0.00    -0.266 C  
HETATM   15  C   UNL     1     -12.107  10.922  69.121  1.00  0.00    -0.292 C  
HETATM   16  C   UNL     1     -12.901  11.089  70.407  1.00  0.00    -0.221 C  
HETATM   17  C   UNL     1     -12.589  12.310  71.238  1.00  0.00    -0.336 C  
HETATM   18  C   UNL     1     -12.050  13.506  70.479  1.00  0.00    -0.335 C  
HETATM   19  C   UNL     1     -11.835  13.402  68.998  1.00  0.00    -0.378 C  
ENDROOT
BRANCH   4  20
HETATM   20  C   UNL     1     -10.147   6.730  67.895  1.00  0.00    -0.189 C  
HETATM   21  C   UNL     1     -10.425   5.796  67.178  1.00  0.00    -0.337 C  
ENDBRANCH   4  20
BRANCH   7  22
HETATM   22  C   UNL     1      -7.585   6.522  69.333  1.00  0.00    -0.096 C  
HETATM   23  C   UNL     1      -6.130   6.919  69.088  1.00  0.00    -0.026 C  
ENDBRANCH   7  22
BRANCH  18  24
HETATM   24  N   UNL     1     -11.756  14.620  71.092  1.00  0.00    -0.449 NA 
HETATM   25  H   UNL     1     -12.399  16.486  71.162  1.00  0.00     0.000 HD 
HETATM   26  H   UNL     1     -10.995  14.716  71.765  1.00  0.00     0.000 HD 
HETATM   27  O   UNL     1     -12.614  15.675  70.716  1.00  0.00    -0.434 OA 
ENDBRANCH  18  24
TORSDOF 3
ENDMDL
MODEL       26
REMARK 921   NORMALIZED FREE ENERGY PREDICTED BY IDOCK:   -5.22 KCAL/MOL
REMARK 922        TOTAL FREE ENERGY PREDICTED BY IDOCK:   -6.31 KCAL/MOL
REMARK 923 INTER-LIGAND FREE ENERGY PREDICTED BY IDOCK:   -6.09 KCAL/MOL
REMARK 924 INTRA-LIGAND FREE ENERGY PREDICTED BY IDOCK:   -0.22 KCAL/MOL
REMARK 927      BINDING AFFINITY PREDICTED BY RF-SCORE:    0.00 PKD
ROOT
HETATM    1  C   UNL     1     -11.029   6.174  70.796  1.00  0.00    -0.365 C  
HETATM    2  C   UNL     1      -9.831   5.414  70.870  1.00  0.00    -0.249 C  
HETATM    3  C   UNL     1      -9.655   6.888  70.889  1.00  0.00    -0.166 C  
HETATM    4  C   UNL     1     -11.383   7.965  71.127  1.00  0.00    -0.266 C  
HETATM    5  C   UNL     1     -11.089   6.947  69.087  1.00  0.00    -0.205 C  
HETATM    6  O   UNL     1     -11.600   9.353  71.374  1.00  0.00    -0.323 OA 
HETATM    7  C   UNL     1     -10.565   7.511  72.138  1.00  0.00    -0.262 C  
HETATM    8  C   UNL     1     -10.825   5.970  67.899  1.00  0.00    -0.378 C  
HETATM    9  C   UNL     1     -10.600   6.626  66.492  1.00  0.00    -0.096 C  
HETATM   10  H   UNL     1     -12.401   9.852  71.484  1.00  0.00     0.000 HD 
HETATM   11  C   UNL     1      -9.423   8.917  71.690  1.00  0.00    -0.351 C  
HETATM   12  C   UNL     1      -9.946   8.005  66.496  1.00  0.00    -0.283 C  
HETATM   13  C   UNL     1      -9.581   9.369  70.030  1.00  0.00    -0.256 C  
HETATM   14  C   UNL     1     -10.090   8.327  68.849  1.00  0.00    -0.208 C  
HETATM   15  C   UNL     1     -10.568   8.937  67.512  1.00  0.00    -0.307 C  
HETATM   16  C   UNL     1     -10.300  10.409  67.244  1.00  0.00    -0.278 C  
HETATM   17  C   UNL     1      -8.913  10.765  66.766  1.00  0.00    -0.157 C  
HETATM   18  C   UNL     1      -8.172   9.676  66.017  1.00  0.00    -0.119 C  
HETATM   19  C   UNL     1      -8.825   8.339  65.827  1.00  0.00    -0.194 C  
ENDROOT
BRANCH   4  20
HETATM   20  C   UNL     1     -12.808   7.466  71.480  1.00  0.00    -0.416 C  
HETATM   21  C   UNL     1     -13.949   7.131  71.700  1.00  0.00    -0.438 C  
ENDBRANCH   4  20
BRANCH   7  22
HETATM   22  C   UNL     1     -10.785   7.338  73.616  1.00  0.00    -0.282 C  
HETATM   23  C   UNL     1      -9.590   6.610  74.231  1.00  0.00    -0.296 C  
ENDBRANCH   7  22
BRANCH  18  24
HETATM   24  N   UNL     1      -6.970   9.875  65.548  1.00  0.00    -0.103 NA 
HETATM   25  H   UNL     1      -5.546  11.238  65.657  1.00  0.00     0.000 HD 
HETATM   26  H   UNL     1      -6.486   9.225  64.928  1.00  0.00     0.000 HD 
HETATM   27  O   UNL     1      -6.420  11.093  65.999  1.00  0.00    -0.092 OA 
ENDBRANCH  18  24
TORSDOF 3
ENDMDL
MODEL       27
REMARK 921   NORMALIZED FREE ENERGY PREDICTED BY IDOCK:   -5.20 KCAL/MOL
REMARK 922        TOTAL FREE ENERGY PREDICTED BY IDOCK:   -6.29 KCAL/MOL
REMARK 923 INTER-LIGAND FREE ENERGY PREDICTED BY IDOCK:   -6.16 KCAL/MOL
REMARK 924 INTRA-LIGAND FREE ENERGY PREDICTED BY IDOCK:   -0.13 KCAL/MOL
REMARK 927      BINDING AFFINITY PREDICTED BY RF-SCORE:    0.00 PKD
ROOT
HETATM    1  C   UNL     1      -9.597  14.479  68.799  1.00  0.00    -0.193 C  
HETATM    2  C   UNL     1      -8.295  14.996  68.566  1.00  0.00    -0.161 C  
HETATM    3  C   UNL     1      -9.191  14.965  67.383  1.00  0.00    -0.198 C  
HETATM    4  C   UNL     1     -11.155  14.546  67.793  1.00  0.00    -0.285 C  
HETATM    5  C   UNL     1      -9.680  12.794  67.976  1.00  0.00    -0.220 C  
HETATM    6  O   UNL     1     -12.321  14.609  66.974  1.00  0.00    -0.507 OA 
HETATM    7  C   UNL     1     -10.584  15.800  67.756  1.00  0.00    -0.292 C  
HETATM    8  C   UNL     1      -8.495  11.831  68.301  1.00  0.00    -0.161 C  
HETATM    9  C   UNL     1      -8.392  10.532  67.427  1.00  0.00    -0.121 C  
HETATM   10  H   UNL     1     -13.231  14.415  67.164  1.00  0.00     0.000 HD 
HETATM   11  C   UNL     1     -10.652  15.650  65.898  1.00  0.00    -0.354 C  
HETATM   12  C   UNL     1      -8.897  10.651  65.993  1.00  0.00    -0.187 C  
HETATM   13  C   UNL     1     -10.594  14.003  65.382  1.00  0.00    -0.351 C  
HETATM   14  C   UNL     1      -9.885  12.798  66.269  1.00  0.00    -0.269 C  
HETATM   15  C   UNL     1     -10.243  11.338  65.909  1.00  0.00    -0.298 C  
HETATM   16  C   UNL     1     -10.994  11.068  64.615  1.00  0.00    -0.150 C  
HETATM   17  C   UNL     1     -10.170  11.046  63.351  1.00  0.00    -0.404 C  
HETATM   18  C   UNL     1      -8.714  10.661  63.516  1.00  0.00    -0.154 C  
HETATM   19  C   UNL     1      -8.183  10.364  64.886  1.00  0.00    -0.145 C  
ENDROOT
BRANCH   4  20
HETATM   20  C   UNL     1     -11.871  14.448  69.165  1.00  0.00    -0.359 C  
HETATM   21  C   UNL     1     -12.377  14.311  70.255  1.00  0.00    -0.418 C  
ENDBRANCH   4  20
BRANCH   7  22
HETATM   22  C   UNL     1     -11.034  17.132  68.288  1.00  0.00    -0.229 C  
HETATM   23  C   UNL     1      -9.987  18.196  67.961  1.00  0.00    -0.353 C  
ENDBRANCH   7  22
BRANCH  18  24
HETATM   24  N   UNL     1      -7.910  10.599  62.490  1.00  0.00    -0.238 NA 
HETATM   25  H   UNL     1      -6.102   9.926  62.064  1.00  0.00     0.000 HD 
HETATM   26  H   UNL     1      -8.139  10.960  61.564  1.00  0.00     0.000 HD 
HETATM   27  O   UNL     1      -6.687   9.972  62.811  1.00  0.00    -0.114 OA 
ENDBRANCH  18  24
TORSDOF 3
ENDMDL
MODEL       28
REMARK 921   NORMALIZED FREE ENERGY PREDICTED BY IDOCK:   -5.18 KCAL/MOL
REMARK 922        TOTAL FREE ENERGY PREDICTED BY IDOCK:   -6.28 KCAL/MOL
REMARK 923 INTER-LIGAND FREE ENERGY PREDICTED BY IDOCK:   -6.14 KCAL/MOL
REMARK 924 INTRA-LIGAND FREE ENERGY PREDICTED BY IDOCK:   -0.14 KCAL/MOL
REMARK 927      BINDING AFFINITY PREDICTED BY RF-SCORE:    0.00 PKD
ROOT
HETATM    1  C   UNL     1      -9.110   9.956  66.813  1.00  0.00    -0.164 C  
HETATM    2  C   UNL     1      -9.912   9.098  66.014  1.00  0.00    -0.293 C  
HETATM    3  C   UNL     1     -10.591   9.692  67.193  1.00  0.00    -0.298 C  
HETATM    4  C   UNL     1      -9.545  11.181  68.137  1.00  0.00    -0.179 C  
HETATM    5  C   UNL     1      -8.747   9.043  68.412  1.00  0.00    -0.130 C  
HETATM    6  O   UNL     1      -9.930  12.095  69.162  1.00  0.00    -0.411 OA 
HETATM    7  C   UNL     1     -10.444  11.349  67.107  1.00  0.00    -0.259 C  
HETATM    8  C   UNL     1      -8.226   7.581  68.246  1.00  0.00    -0.125 C  
HETATM    9  C   UNL     1      -8.173   6.708  69.548  1.00  0.00    -0.130 C  
HETATM   10  H   UNL     1      -9.445  12.785  69.599  1.00  0.00     0.000 HD 
HETATM   11  C   UNL     1     -11.780  11.098  68.384  1.00  0.00    -0.349 C  
HETATM   12  C   UNL     1      -9.229   7.018  70.604  1.00  0.00    -0.158 C  
HETATM   13  C   UNL     1     -11.235  10.125  69.703  1.00  0.00    -0.310 C  
HETATM   14  C   UNL     1     -10.022   9.007  69.566  1.00  0.00    -0.193 C  
HETATM   15  C   UNL     1      -9.363   8.502  70.869  1.00  0.00    -0.214 C  
HETATM   16  C   UNL     1     -10.024   8.833  72.198  1.00  0.00    -0.359 C  
HETATM   17  C   UNL     1     -11.194   7.971  72.602  1.00  0.00    -0.462 C  
HETATM   18  C   UNL     1     -11.201   6.561  72.044  1.00  0.00    -0.273 C  
HETATM   19  C   UNL     1     -10.096   6.128  71.128  1.00  0.00    -0.231 C  
ENDROOT
BRANCH   4  20
HETATM   20  C   UNL     1      -8.248  11.904  67.690  1.00  0.00    -0.148 C  
HETATM   21  C   UNL     1      -7.284  12.521  67.301  1.00  0.00    -0.114 C  
ENDBRANCH   4  20
BRANCH   7  22
HETATM   22  C   UNL     1     -10.696  12.491  66.161  1.00  0.00    -0.290 C  
HETATM   23  C   UNL     1     -11.450  11.984  64.933  1.00  0.00    -0.352 C  
ENDBRANCH   7  22
BRANCH  18  24
HETATM   24  N   UNL     1     -12.158   5.723  72.336  1.00  0.00    -0.383 NA 
HETATM   25  H   UNL     1     -12.425   4.108  73.441  1.00  0.00     0.000 HD 
HETATM   26  H   UNL     1     -13.104   5.787  71.962  1.00  0.00     0.000 HD 
HETATM   27  O   UNL     1     -11.729   4.719  73.229  1.00  0.00    -0.312 OA 
ENDBRANCH  18  24
TORSDOF 3
ENDMDL
MODEL       29
REMARK 921   NORMALIZED FREE ENERGY PREDICTED BY IDOCK:   -5.12 KCAL/MOL
REMARK 922        TOTAL FREE ENERGY PREDICTED BY IDOCK:   -6.21 KCAL/MOL
REMARK 923 INTER-LIGAND FREE ENERGY PREDICTED BY IDOCK:   -6.24 KCAL/MOL
REMARK 924 INTRA-LIGAND FREE ENERGY PREDICTED BY IDOCK:    0.04 KCAL/MOL
REMARK 927      BINDING AFFINITY PREDICTED BY RF-SCORE:    0.00 PKD
ROOT
HETATM    1  C   UNL     1     -10.106  10.498  66.844  1.00  0.00    -0.265 C  
HETATM    2  C   UNL     1      -9.846  10.535  65.448  1.00  0.00    -0.335 C  
HETATM    3  C   UNL     1      -8.883  11.280  66.297  1.00  0.00    -0.194 C  
HETATM    4  C   UNL     1      -9.061  10.943  68.311  1.00  0.00    -0.158 C  
HETATM    5  C   UNL     1     -10.719  12.202  67.338  1.00  0.00    -0.268 C  
HETATM    6  O   UNL     1      -8.225  11.317  69.404  1.00  0.00    -0.376 OA 
HETATM    7  C   UNL     1      -8.266  10.233  67.437  1.00  0.00    -0.114 C  
HETATM    8  C   UNL     1     -11.859  12.788  66.447  1.00  0.00    -0.472 C  
HETATM    9  C   UNL     1     -12.202  14.304  66.661  1.00  0.00    -0.411 C  
HETATM   10  H   UNL     1      -8.307  11.161  70.338  1.00  0.00     0.000 HD 
HETATM   11  C   UNL     1      -7.096  11.684  67.503  1.00  0.00    -0.111 C  
HETATM   12  C   UNL     1     -11.042  15.197  67.090  1.00  0.00    -0.335 C  
HETATM   13  C   UNL     1      -7.920  13.160  67.858  1.00  0.00    -0.158 C  
HETATM   14  C   UNL     1      -9.515  13.419  67.500  1.00  0.00    -0.219 C  
HETATM   15  C   UNL     1     -10.228  14.590  68.212  1.00  0.00    -0.234 C  
HETATM   16  C   UNL     1      -9.389  15.599  68.980  1.00  0.00    -0.243 C  
HETATM   17  C   UNL     1      -8.711  16.671  68.163  1.00  0.00    -0.201 C  
HETATM   18  C   UNL     1      -9.389  17.036  66.857  1.00  0.00    -0.251 C  
HETATM   19  C   UNL     1     -10.637  16.312  66.450  1.00  0.00    -0.253 C  
ENDROOT
BRANCH   4  20
HETATM   20  C   UNL     1      -9.917   9.888  69.057  1.00  0.00    -0.193 C  
HETATM   21  C   UNL     1     -10.650   9.114  69.629  1.00  0.00    -0.237 C  
ENDBRANCH   4  20
BRANCH   7  22
HETATM   22  C   UNL     1      -7.597   8.891  67.542  1.00  0.00    -0.093 C  
HETATM   23  C   UNL     1      -7.808   8.109  66.246  1.00  0.00    -0.095 C  
ENDBRANCH   7  22
BRANCH  18  24
HETATM   24  N   UNL     1      -8.898  17.959  66.075  1.00  0.00    -0.507 NA 
HETATM   25  H   UNL     1      -7.229  18.326  65.086  1.00  0.00     0.000 HD 
HETATM   26  H   UNL     1      -9.405  18.800  65.800  1.00  0.00     0.000 HD 
HETATM   27  O   UNL     1      -7.586  17.655  65.655  1.00  0.00    -0.521 OA 
ENDBRANCH  18  24
TORSDOF 3
ENDMDL
MODEL       30
REMARK 921   NORMALIZED FREE ENERGY PREDICTED BY IDOCK:   -5.10 KCAL/MOL
REMARK 922        TOTAL FREE ENERGY PREDICTED BY IDOCK:   -6.18 KCAL/MOL
REMARK 923 INTER-LIGAND FREE ENERGY PREDICTED BY IDOCK:   -5.94 KCAL/MOL
REMARK 924 INTRA-LIGAND FREE ENERGY PREDICTED BY IDOCK:   -0.25 KCAL/MOL
REMARK 927      BINDING AFFINITY PREDICTED BY RF-SCORE:    0.00 PKD
ROOT
HETATM    1  C   UNL     1      -9.268   9.031  66.091  1.00  0.00    -0.272 C  
HETATM    2  C   UNL     1      -8.149   9.691  65.517  1.00  0.00    -0.122 C  
HETATM    3  C   UNL     1      -8.404   9.995  66.948  1.00  0.00    -0.125 C  
HETATM    4  C   UNL     1      -9.794   8.792  67.855  1.00  0.00    -0.169 C  
HETATM    5  C   UNL     1     -10.603  10.326  66.347  1.00  0.00    -0.177 C  
HETATM    6  O   UNL     1     -10.165   8.652  69.224  1.00  0.00    -0.201 OA 
HETATM    7  C   UNL     1      -8.437   8.559  67.792  1.00  0.00    -0.130 C  
HETATM    8  C   UNL     1     -10.905  11.231  65.111  1.00  0.00    -0.268 C  
HETATM    9  C   UNL     1     -11.809  12.486  65.370  1.00  0.00    -0.479 C  
HETATM   10  H   UNL     1     -10.809   8.094  69.645  1.00  0.00     0.000 HD 
HETATM   11  C   UNL     1      -8.270   9.846  69.132  1.00  0.00    -0.128 C  
HETATM   12  C   UNL     1     -11.702  13.112  66.756  1.00  0.00    -0.439 C  
HETATM   13  C   UNL     1      -9.559  10.996  69.084  1.00  0.00    -0.081 C  
HETATM   14  C   UNL     1     -10.398  11.362  67.704  1.00  0.00    -0.209 C  
HETATM   15  C   UNL     1     -11.757  12.081  67.863  1.00  0.00    -0.393 C  
HETATM   16  C   UNL     1     -12.127  12.654  69.222  1.00  0.00    -0.218 C  
HETATM   17  C   UNL     1     -11.519  13.989  69.577  1.00  0.00    -0.331 C  
HETATM   18  C   UNL     1     -11.166  14.887  68.409  1.00  0.00    -0.292 C  
HETATM   19  C   UNL     1     -11.403  14.402  67.010  1.00  0.00    -0.357 C  
ENDROOT
BRANCH   4  20
HETATM   20  C   UNL     1     -10.470   7.501  67.324  1.00  0.00    -0.391 C  
HETATM   21  C   UNL     1     -11.020   6.478  66.987  1.00  0.00    -0.466 C  
ENDBRANCH   4  20
BRANCH   7  22
HETATM   22  C   UNL     1      -7.613   7.321  68.015  1.00  0.00    -0.115 C  
HETATM   23  C   UNL     1      -6.180   7.567  67.544  1.00  0.00    -0.049 C  
ENDBRANCH   7  22
BRANCH  18  24
HETATM   24  N   UNL     1     -10.646  16.069  68.598  1.00  0.00    -0.252 NA 
HETATM   25  H   UNL     1      -9.887  17.542  67.522  1.00  0.00     0.000 HD 
HETATM   26  H   UNL     1     -10.528  16.500  69.515  1.00  0.00     0.000 HD 
HETATM   27  O   UNL     1     -10.266  16.681  67.384  1.00  0.00    -0.273 OA 
ENDBRANCH  18  24
TORSDOF 3
ENDMDL
MODEL       31
REMARK 921   NORMALIZED FREE ENERGY PREDICTED BY IDOCK:   -5.09 KCAL/MOL
REMARK 922        TOTAL FREE ENERGY PREDICTED BY IDOCK:   -6.17 KCAL/MOL
REMARK 923 INTER-LIGAND FREE ENERGY PREDICTED BY IDOCK:   -5.96 KCAL/MOL
REMARK 924 INTRA-LIGAND FREE ENERGY PREDICTED BY IDOCK:   -0.21 KCAL/MOL
REMARK 927      BINDING AFFINITY PREDICTED BY RF-SCORE:    0.00 PKD
ROOT
HETATM    1  C   UNL     1      -9.597  12.063  66.066  1.00  0.00    -0.247 C  
HETATM    2  C   UNL     1     -10.425  11.366  65.147  1.00  0.00    -0.351 C  
HETATM    3  C   UNL     1     -10.930  11.428  66.542  1.00  0.00    -0.328 C  
HETATM    4  C   UNL     1      -9.915  12.712  67.775  1.00  0.00    -0.218 C  
HETATM    5  C   UNL     1      -8.818  10.779  67.192  1.00  0.00    -0.135 C  
HETATM    6  O   UNL     1     -10.204  13.176  69.092  1.00  0.00    -0.432 OA 
HETATM    7  C   UNL     1     -11.012  13.027  67.002  1.00  0.00    -0.289 C  
HETATM    8  C   UNL     1      -8.161   9.563  66.468  1.00  0.00    -0.112 C  
HETATM    9  C   UNL     1      -7.746   8.352  67.375  1.00  0.00    -0.098 C  
HETATM   10  H   UNL     1      -9.734  13.771  69.664  1.00  0.00     0.000 HD 
HETATM   11  C   UNL     1     -12.031  12.151  68.295  1.00  0.00    -0.248 C  
HETATM   12  C   UNL     1      -8.606   8.119  68.612  1.00  0.00    -0.127 C  
HETATM   13  C   UNL     1     -11.122  10.931  69.114  1.00  0.00    -0.301 C  
HETATM   14  C   UNL     1      -9.828  10.153  68.434  1.00  0.00    -0.164 C  
HETATM   15  C   UNL     1      -8.871   9.396  69.381  1.00  0.00    -0.159 C  
HETATM   16  C   UNL     1      -9.296   9.170  70.823  1.00  0.00    -0.325 C  
HETATM   17  C   UNL     1     -10.248   8.026  71.074  1.00  0.00    -0.217 C  
HETATM   18  C   UNL     1     -10.186   6.885  70.078  1.00  0.00    -0.196 C  
HETATM   19  C   UNL     1      -9.236   6.968  68.921  1.00  0.00    -0.136 C  
ENDROOT
BRANCH   4  20
HETATM   20  C   UNL     1      -8.831  13.763  67.419  1.00  0.00    -0.211 C  
HETATM   21  C   UNL     1      -7.978  14.597  67.222  1.00  0.00    -0.223 C  
ENDBRANCH   4  20
BRANCH   7  22
HETATM   22  C   UNL     1     -11.584  14.340  66.546  1.00  0.00    -0.390 C  
HETATM   23  C   UNL     1     -12.511  14.110  65.353  1.00  0.00    -0.488 C  
ENDBRANCH   7  22
BRANCH  18  24
HETATM   24  N   UNL     1     -10.955   5.837  70.202  1.00  0.00    -0.324 NA 
HETATM   25  H   UNL     1     -10.786   3.870  70.220  1.00  0.00     0.000 HD 
HETATM   26  H   UNL     1     -11.966   5.885  70.335  1.00  0.00     0.000 HD 
HETATM   27  O   UNL     1     -10.225   4.632  70.130  1.00  0.00    -0.240 OA 
ENDBRANCH  18  24
TORSDOF 3
ENDMDL
MODEL       32
REMARK 921   NORMALIZED FREE ENERGY PREDICTED BY IDOCK:   -5.05 KCAL/MOL
REMARK 922        TOTAL FREE ENERGY PREDICTED BY IDOCK:   -6.12 KCAL/MOL
REMARK 923 INTER-LIGAND FREE ENERGY PREDICTED BY IDOCK:   -5.91 KCAL/MOL
REMARK 924 INTRA-LIGAND FREE ENERGY PREDICTED BY IDOCK:   -0.21 KCAL/MOL
REMARK 927      BINDING AFFINITY PREDICTED BY RF-SCORE:    0.00 PKD
ROOT
HETATM    1  C   UNL     1      -8.495   7.179  69.599  1.00  0.00    -0.134 C  
HETATM    2  C   UNL     1      -7.353   8.023  69.602  1.00  0.00    -0.085 C  
HETATM    3  C   UNL     1      -8.294   8.219  70.733  1.00  0.00    -0.127 C  
HETATM    4  C   UNL     1      -9.746   6.783  70.911  1.00  0.00    -0.178 C  
HETATM    5  C   UNL     1      -9.972   8.248  69.155  1.00  0.00    -0.196 C  
HETATM    6  O   UNL     1     -10.693   6.527  71.946  1.00  0.00    -0.212 OA 
HETATM    7  C   UNL     1      -8.503   6.757  71.504  1.00  0.00    -0.119 C  
HETATM    8  C   UNL     1      -9.790   9.154  67.897  1.00  0.00    -0.204 C  
HETATM    9  C   UNL     1     -10.889  10.248  67.659  1.00  0.00    -0.363 C  
HETATM   10  H   UNL     1     -11.366   5.862  72.029  1.00  0.00     0.000 HD 
HETATM   11  C   UNL     1      -9.185   7.992  72.724  1.00  0.00    -0.318 C  
HETATM   12  C   UNL     1     -11.544  10.819  68.912  1.00  0.00    -0.361 C  
HETATM   13  C   UNL     1     -10.457   8.939  72.038  1.00  0.00    -0.383 C  
HETATM   14  C   UNL     1     -10.592   9.239  70.416  1.00  0.00    -0.298 C  
HETATM   15  C   UNL     1     -11.957   9.741  69.892  1.00  0.00     0.071 C  
HETATM   16  C   UNL     1     -13.005  10.190  70.896  1.00  0.00    -0.432 C  
HETATM   17  C   UNL     1     -12.849  11.583  71.457  1.00  0.00    -0.485 C  
HETATM   18  C   UNL     1     -12.128  12.576  70.567  1.00  0.00    -0.274 C  
HETATM   19  C   UNL     1     -11.600  12.126  69.238  1.00  0.00    -0.377 C  
ENDROOT
BRANCH   4  20
HETATM   20  C   UNL     1      -9.887   5.433  70.163  1.00  0.00    -0.273 C  
HETATM   21  C   UNL     1     -10.016   4.344  69.651  1.00  0.00    -0.209 C  
ENDBRANCH   4  20
BRANCH   7  22
HETATM   22  C   UNL     1      -7.703   5.647  72.127  1.00  0.00    -0.102 C  
HETATM   23  C   UNL     1      -6.261   6.107  72.337  1.00  0.00    -0.049 C  
ENDBRANCH   7  22
BRANCH  18  24
HETATM   24  N   UNL     1     -11.945  13.812  70.944  1.00  0.00    -0.502 NA 
HETATM   25  H   UNL     1     -12.021  15.625  70.163  1.00  0.00     0.000 HD 
HETATM   26  H   UNL     1     -11.681  14.087  71.890  1.00  0.00     0.000 HD 
HETATM   27  O   UNL     1     -12.155  14.725  69.888  1.00  0.00    -0.303 OA 
ENDBRANCH  18  24
TORSDOF 3
ENDMDL
MODEL       33
REMARK 921   NORMALIZED FREE ENERGY PREDICTED BY IDOCK:   -5.04 KCAL/MOL
REMARK 922        TOTAL FREE ENERGY PREDICTED BY IDOCK:   -6.11 KCAL/MOL
REMARK 923 INTER-LIGAND FREE ENERGY PREDICTED BY IDOCK:   -5.99 KCAL/MOL
REMARK 924 INTRA-LIGAND FREE ENERGY PREDICTED BY IDOCK:   -0.12 KCAL/MOL
REMARK 927      BINDING AFFINITY PREDICTED BY RF-SCORE:    0.00 PKD
ROOT
HETATM    1  C   UNL     1      -8.702  11.539  66.681  1.00  0.00    -0.182 C  
HETATM    2  C   UNL     1      -8.791  10.367  65.884  1.00  0.00    -0.179 C  
HETATM    3  C   UNL     1     -10.080  10.879  66.412  1.00  0.00    -0.280 C  
HETATM    4  C   UNL     1      -9.989  12.741  67.264  1.00  0.00    -0.219 C  
HETATM    5  C   UNL     1      -9.030  11.027  68.457  1.00  0.00    -0.163 C  
HETATM    6  O   UNL     1     -11.018  13.626  67.703  1.00  0.00    -0.259 OA 
HETATM    7  C   UNL     1     -10.248  12.468  65.939  1.00  0.00    -0.280 C  
HETATM    8  C   UNL     1      -8.215   9.795  68.961  1.00  0.00    -0.121 C  
HETATM    9  C   UNL     1      -8.658   9.179  70.334  1.00  0.00    -0.236 C  
HETATM   10  H   UNL     1     -10.976  14.489  68.098  1.00  0.00     0.000 HD 
HETATM   11  C   UNL     1     -11.967  11.996  66.491  1.00  0.00    -0.090 C  
HETATM   12  C   UNL     1     -10.143   9.290  70.667  1.00  0.00    -0.339 C  
HETATM   13  C   UNL     1     -11.987  11.443  68.128  1.00  0.00    -0.201 C  
HETATM   14  C   UNL     1     -10.677  10.757  68.871  1.00  0.00    -0.259 C  
HETATM   15  C   UNL     1     -10.690  10.678  70.415  1.00  0.00     0.053 C  
HETATM   16  C   UNL     1     -11.987  10.972  71.151  1.00  0.00    -0.242 C  
HETATM   17  C   UNL     1     -12.997   9.853  71.209  1.00  0.00    -0.488 C  
HETATM   18  C   UNL     1     -12.433   8.448  71.129  1.00  0.00    -0.173 C  
HETATM   19  C   UNL     1     -10.954   8.257  70.971  1.00  0.00    -0.280 C  
ENDROOT
BRANCH   4  20
HETATM   20  C   UNL     1      -8.823  13.763  67.266  1.00  0.00    -0.225 C  
HETATM   21  C   UNL     1      -7.863  14.499  67.247  1.00  0.00    -0.199 C  
ENDBRANCH   4  20
BRANCH   7  22
HETATM   22  C   UNL     1     -10.207  13.324  64.703  1.00  0.00    -0.334 C  
HETATM   23  C   UNL     1     -10.503  12.466  63.474  1.00  0.00    -0.430 C  
ENDBRANCH   7  22
BRANCH  18  24
HETATM   24  N   UNL     1     -13.212   7.402  71.181  1.00  0.00    -0.585 NA 
HETATM   25  H   UNL     1     -13.256   5.631  72.054  1.00  0.00     0.000 HD 
HETATM   26  H   UNL     1     -14.096   7.324  70.678  1.00  0.00     0.000 HD 
HETATM   27  O   UNL     1     -12.689   6.392  72.017  1.00  0.00    -0.281 OA 
ENDBRANCH  18  24
TORSDOF 3
ENDMDL
MODEL       34
REMARK 921   NORMALIZED FREE ENERGY PREDICTED BY IDOCK:   -5.00 KCAL/MOL
REMARK 922        TOTAL FREE ENERGY PREDICTED BY IDOCK:   -6.05 KCAL/MOL
REMARK 923 INTER-LIGAND FREE ENERGY PREDICTED BY IDOCK:   -6.55 KCAL/MOL
REMARK 924 INTRA-LIGAND FREE ENERGY PREDICTED BY IDOCK:    0.50 KCAL/MOL
REMARK 927      BINDING AFFINITY PREDICTED BY RF-SCORE:    0.00 PKD
ROOT
HETATM    1  C   UNL     1     -11.168  14.010  66.061  1.00  0.00    -0.310 C  
HETATM    2  C   UNL     1     -12.507  13.599  65.826  1.00  0.00    -0.524 C  
HETATM    3  C   UNL     1     -11.909  13.127  67.100  1.00  0.00    -0.424 C  
HETATM    4  C   UNL     1     -10.118  13.996  67.591  1.00  0.00    -0.241 C  
HETATM    5  C   UNL     1     -10.080  12.495  65.850  1.00  0.00    -0.270 C  
HETATM    6  O   UNL     1      -9.346  13.946  68.789  1.00  0.00    -0.354 OA 
HETATM    7  C   UNL     1     -11.367  14.454  67.950  1.00  0.00    -0.322 C  
HETATM    8  C   UNL     1     -10.322  11.671  64.547  1.00  0.00    -0.349 C  
HETATM    9  C   UNL     1      -9.629  10.266  64.471  1.00  0.00    -0.378 C  
HETATM   10  H   UNL     1      -8.516  14.348  69.016  1.00  0.00     0.000 HD 
HETATM   11  C   UNL     1     -11.372  13.093  69.226  1.00  0.00    -0.312 C  
HETATM   12  C   UNL     1      -9.443   9.540  65.800  1.00  0.00    -0.314 C  
HETATM   13  C   UNL     1     -10.388  11.757  68.746  1.00  0.00    -0.198 C  
HETATM   14  C   UNL     1     -10.068  11.386  67.165  1.00  0.00    -0.226 C  
HETATM   15  C   UNL     1      -8.880  10.442  66.877  1.00  0.00    -0.141 C  
HETATM   16  C   UNL     1      -8.244   9.693  68.037  1.00  0.00    -0.110 C  
HETATM   17  C   UNL     1      -8.957   8.449  68.508  1.00  0.00    -0.136 C  
HETATM   18  C   UNL     1      -9.794   7.733  67.467  1.00  0.00    -0.171 C  
HETATM   19  C   UNL     1      -9.888   8.299  66.082  1.00  0.00    -0.138 C  
ENDROOT
BRANCH   4  20
HETATM   20  C   UNL     1      -9.399  15.201  66.931  1.00  0.00    -0.251 C  
HETATM   21  C   UNL     1      -8.798  16.087  66.369  1.00  0.00    -0.363 C  
ENDBRANCH   4  20
BRANCH   7  22
HETATM   22  C   UNL     1     -11.848  15.784  68.460  1.00  0.00    -0.233 C  
HETATM   23  C   UNL     1     -12.156  15.682  69.953  1.00  0.00    -0.360 C  
ENDBRANCH   7  22
BRANCH  18  24
HETATM   24  N   UNL     1     -10.446   6.640  67.758  1.00  0.00    -0.197 NA 
HETATM   25  H   UNL     1     -11.693   5.383  66.883  1.00  0.00     0.000 HD 
HETATM   26  H   UNL     1     -10.402   6.175  68.664  1.00  0.00     0.000 HD 
HETATM   27  O   UNL     1     -11.218   6.178  66.671  1.00  0.00    -0.232 OA 
ENDBRANCH  18  24
TORSDOF 3
ENDMDL
MODEL       35
REMARK 921   NORMALIZED FREE ENERGY PREDICTED BY IDOCK:   -4.99 KCAL/MOL
REMARK 922        TOTAL FREE ENERGY PREDICTED BY IDOCK:   -6.05 KCAL/MOL
REMARK 923 INTER-LIGAND FREE ENERGY PREDICTED BY IDOCK:   -5.82 KCAL/MOL
REMARK 924 INTRA-LIGAND FREE ENERGY PREDICTED BY IDOCK:   -0.23 KCAL/MOL
REMARK 927      BINDING AFFINITY PREDICTED BY RF-SCORE:    0.00 PKD
ROOT
HETATM    1  C   UNL     1      -9.873  13.786  67.198  1.00  0.00    -0.242 C  
HETATM    2  C   UNL     1      -8.781  13.210  67.900  1.00  0.00    -0.192 C  
HETATM    3  C   UNL     1      -9.557  14.228  68.652  1.00  0.00    -0.192 C  
HETATM    4  C   UNL     1     -11.318  14.799  67.772  1.00  0.00    -0.330 C  
HETATM    5  C   UNL     1      -9.390  15.549  66.772  1.00  0.00    -0.267 C  
HETATM    6  O   UNL     1     -12.399  15.591  68.260  1.00  0.00    -0.410 OA 
HETATM    7  C   UNL     1     -11.157  13.764  68.667  1.00  0.00    -0.293 C  
HETATM    8  C   UNL     1      -7.987  15.717  66.107  1.00  0.00     0.441 C  
HETATM    9  C   UNL     1      -7.443  17.183  65.988  1.00  0.00    -0.178 C  
HETATM   10  H   UNL     1     -13.215  15.856  67.853  1.00  0.00     0.000 HD 
HETATM   11  C   UNL     1     -11.072  15.075  69.992  1.00  0.00    -0.290 C  
HETATM   12  C   UNL     1      -7.879  18.149  67.086  1.00  0.00    -0.230 C  
HETATM   13  C   UNL     1     -10.484  16.577  69.374  1.00  0.00    -0.320 C  
HETATM   14  C   UNL     1      -9.491  16.690  68.054  1.00  0.00    -0.224 C  
HETATM   15  C   UNL     1      -9.364  18.069  67.369  1.00  0.00    -0.254 C  
HETATM   16  C   UNL     1      -9.922  19.292  68.079  1.00  0.00    -0.473 C  
HETATM   17  C   UNL     1      -9.062  19.891  69.165  1.00  0.00     0.052 C  
HETATM   18  C   UNL     1      -7.570  19.670  69.024  1.00  0.00    -0.285 C  
HETATM   19  C   UNL     1      -7.050  18.868  67.868  1.00  0.00    -0.253 C  
ENDROOT
BRANCH   4  20
HETATM   20  C   UNL     1     -12.045  14.189  66.546  1.00  0.00    -0.481 C  
HETATM   21  C   UNL     1     -12.682  13.718  65.632  1.00  0.00    -0.523 C  
ENDBRANCH   4  20
BRANCH   7  22
HETATM   22  C   UNL     1     -12.022  12.585  69.016  1.00  0.00    -0.280 C  
HETATM   23  C   UNL     1     -11.234  11.609  69.888  1.00  0.00    -0.140 C  
ENDBRANCH   7  22
BRANCH  18  24
HETATM   24  N   UNL     1      -6.729  20.153  69.898  1.00  0.00    -0.260 NA 
HETATM   25  H   UNL     1      -5.322  19.495  71.119  1.00  0.00     0.000 HD 
HETATM   26  H   UNL     1      -6.655  21.143  70.131  1.00  0.00     0.000 HD 
HETATM   27  O   UNL     1      -5.934  19.144  70.482  1.00  0.00    -0.198 OA 
ENDBRANCH  18  24
TORSDOF 3
ENDMDL
MODEL       36
REMARK 921   NORMALIZED FREE ENERGY PREDICTED BY IDOCK:   -4.98 KCAL/MOL
REMARK 922        TOTAL FREE ENERGY PREDICTED BY IDOCK:   -6.03 KCAL/MOL
REMARK 923 INTER-LIGAND FREE ENERGY PREDICTED BY IDOCK:   -5.84 KCAL/MOL
REMARK 924 INTRA-LIGAND FREE ENERGY PREDICTED BY IDOCK:   -0.20 KCAL/MOL
REMARK 927      BINDING AFFINITY PREDICTED BY RF-SCORE:    0.00 PKD
ROOT
HETATM    1  C   UNL     1      -8.496  10.224  68.259  1.00  0.00    -0.121 C  
HETATM    2  C   UNL     1      -7.903  10.118  69.545  1.00  0.00    -0.165 C  
HETATM    3  C   UNL     1      -9.357  10.415  69.535  1.00  0.00    -0.150 C  
HETATM    4  C   UNL     1     -10.268  10.228  67.709  1.00  0.00    -0.187 C  
HETATM    5  C   UNL     1      -8.879  12.039  67.974  1.00  0.00    -0.179 C  
HETATM    6  O   UNL     1     -11.645  10.246  67.339  1.00  0.00    -0.454 OA 
HETATM    7  C   UNL     1     -10.130   9.233  68.651  1.00  0.00    -0.207 C  
HETATM    8  C   UNL     1      -7.705  13.026  68.267  1.00  0.00    -0.141 C  
HETATM    9  C   UNL     1      -8.068  14.552  68.302  1.00  0.00    -0.140 C  
HETATM   10  H   UNL     1     -12.068  10.159  66.492  1.00  0.00     0.000 HD 
HETATM   11  C   UNL     1     -11.523  10.068  69.570  1.00  0.00    -0.176 C  
HETATM   12  C   UNL     1      -9.478  14.892  68.775  1.00  0.00    -0.214 C  
HETATM   13  C   UNL     1     -11.593  11.760  69.232  1.00  0.00    -0.378 C  
HETATM   14  C   UNL     1     -10.275  12.650  68.771  1.00  0.00    -0.094 C  
HETATM   15  C   UNL     1     -10.533  14.027  68.120  1.00  0.00    -0.243 C  
HETATM   16  C   UNL     1     -11.935  14.613  68.180  1.00  0.00    -0.281 C  
HETATM   17  C   UNL     1     -12.327  15.289  69.471  1.00  0.00    -0.210 C  
HETATM   18  C   UNL     1     -11.189  15.873  70.284  1.00  0.00    -0.380 C  
HETATM   19  C   UNL     1      -9.781  15.724  69.792  1.00  0.00    -0.187 C  
ENDROOT
BRANCH   4  20
HETATM   20  C   UNL     1      -9.706   9.641  66.388  1.00  0.00    -0.285 C  
HETATM   21  C   UNL     1      -9.329   9.221  65.318  1.00  0.00    -0.269 C  
ENDBRANCH   4  20
BRANCH   7  22
HETATM   22  C   UNL     1     -10.251   7.737  68.567  1.00  0.00    -0.227 C  
HETATM   23  C   UNL     1      -9.994   7.122  69.942  1.00  0.00    -0.184 C  
ENDBRANCH   7  22
BRANCH  18  24
HETATM   24  N   UNL     1     -11.412  16.490  71.413  1.00  0.00    -0.513 NA 
HETATM   25  H   UNL     1     -12.700  16.423  72.908  1.00  0.00     0.000 HD 
HETATM   26  H   UNL     1     -10.838  17.256  71.766  1.00  0.00     0.000 HD 
HETATM   27  O   UNL     1     -12.538  15.973  72.087  1.00  0.00    -0.453 OA 
ENDBRANCH  18  24
TORSDOF 3
ENDMDL
MODEL       37
REMARK 921   NORMALIZED FREE ENERGY PREDICTED BY IDOCK:   -4.85 KCAL/MOL
REMARK 922        TOTAL FREE ENERGY PREDICTED BY IDOCK:   -5.89 KCAL/MOL
REMARK 923 INTER-LIGAND FREE ENERGY PREDICTED BY IDOCK:   -5.67 KCAL/MOL
REMARK 924 INTRA-LIGAND FREE ENERGY PREDICTED BY IDOCK:   -0.22 KCAL/MOL
REMARK 927      BINDING AFFINITY PREDICTED BY RF-SCORE:    0.00 PKD
ROOT
HETATM    1  C   UNL     1      -9.749   9.095  70.833  1.00  0.00    -0.352 C  
HETATM    2  C   UNL     1     -10.349  10.011  69.928  1.00  0.00    -0.315 C  
HETATM    3  C   UNL     1     -10.901   8.633  69.902  1.00  0.00    -0.210 C  
HETATM    4  C   UNL     1     -10.276   7.420  71.431  1.00  0.00    -0.187 C  
HETATM    5  C   UNL     1      -8.719   7.903  69.812  1.00  0.00    -0.137 C  
HETATM    6  O   UNL     1     -10.715   6.128  71.846  1.00  0.00    -0.217 OA 
HETATM    7  C   UNL     1     -11.389   8.233  71.444  1.00  0.00    -0.309 C  
HETATM    8  C   UNL     1      -7.759   8.566  68.775  1.00  0.00    -0.102 C  
HETATM    9  C   UNL     1      -7.092   7.606  67.729  1.00  0.00    -0.085 C  
HETATM   10  H   UNL     1     -10.426   5.565  72.554  1.00  0.00     0.000 HD 
HETATM   11  C   UNL     1     -12.207   6.937  70.381  1.00  0.00    -0.175 C  
HETATM   12  C   UNL     1      -7.912   6.384  67.326  1.00  0.00    -0.112 C  
HETATM   13  C   UNL     1     -11.056   6.051  69.446  1.00  0.00    -0.445 C  
HETATM   14  C   UNL     1      -9.588   6.667  68.991  1.00  0.00    -0.133 C  
HETATM   15  C   UNL     1      -8.507   5.668  68.519  1.00  0.00    -0.105 C  
HETATM   16  C   UNL     1      -8.914   4.231  68.236  1.00  0.00    -0.151 C  
HETATM   17  C   UNL     1      -9.565   3.966  66.901  1.00  0.00    -0.226 C  
HETATM   18  C   UNL     1      -9.191   4.918  65.782  1.00  0.00    -0.154 C  
HETATM   19  C   UNL     1      -8.250   6.051  66.065  1.00  0.00    -0.125 C  
ENDROOT
BRANCH   4  20
HETATM   20  C   UNL     1      -9.471   7.783  72.705  1.00  0.00    -0.274 C  
HETATM   21  C   UNL     1      -8.899   8.027  73.743  1.00  0.00    -0.313 C  
ENDBRANCH   4  20
BRANCH   7  22
HETATM   22  C   UNL     1     -12.249   8.751  72.563  1.00  0.00    -0.347 C  
HETATM   23  C   UNL     1     -13.197   9.823  72.029  1.00  0.00    -0.557 C  
ENDBRANCH   7  22
BRANCH  18  24
HETATM   24  N   UNL     1      -9.684   4.778  64.582  1.00  0.00    -0.366 NA 
HETATM   25  H   UNL     1     -11.219   3.897  63.705  1.00  0.00     0.000 HD 
HETATM   26  H   UNL     1      -9.267   5.185  63.744  1.00  0.00     0.000 HD 
HETATM   27  O   UNL     1     -10.860   3.999  64.579  1.00  0.00    -0.273 OA 
ENDBRANCH  18  24
TORSDOF 3
ENDMDL
MODEL       38
REMARK 921   NORMALIZED FREE ENERGY PREDICTED BY IDOCK:   -4.85 KCAL/MOL
REMARK 922        TOTAL FREE ENERGY PREDICTED BY IDOCK:   -5.89 KCAL/MOL
REMARK 923 INTER-LIGAND FREE ENERGY PREDICTED BY IDOCK:   -5.69 KCAL/MOL
REMARK 924 INTRA-LIGAND FREE ENERGY PREDICTED BY IDOCK:   -0.19 KCAL/MOL
REMARK 927      BINDING AFFINITY PREDICTED BY RF-SCORE:    0.00 PKD
ROOT
HETATM    1  C   UNL     1      -9.287  11.383  67.618  1.00  0.00    -0.159 C  
HETATM    2  C   UNL     1      -8.569  12.172  68.556  1.00  0.00    -0.079 C  
HETATM    3  C   UNL     1      -8.326  10.709  68.633  1.00  0.00    -0.137 C  
HETATM    4  C   UNL     1      -9.089   9.620  67.074  1.00  0.00    -0.135 C  
HETATM    5  C   UNL     1     -10.615  10.461  68.572  1.00  0.00    -0.237 C  
HETATM    6  O   UNL     1      -8.908   8.255  66.703  1.00  0.00    -0.132 OA 
HETATM    7  C   UNL     1      -7.831  10.178  67.133  1.00  0.00    -0.099 C  
HETATM    8  C   UNL     1     -11.480  11.336  69.532  1.00  0.00    -0.376 C  
HETATM    9  C   UNL     1     -12.406  10.565  70.536  1.00  0.00    -0.432 C  
HETATM   10  H   UNL     1      -9.263   7.750  65.980  1.00  0.00     0.000 HD 
HETATM   11  C   UNL     1      -7.382   8.764  68.264  1.00  0.00    -0.087 C  
HETATM   12  C   UNL     1     -11.895   9.207  71.007  1.00  0.00    -0.354 C  
HETATM   13  C   UNL     1      -8.757   8.165  69.122  1.00  0.00    -0.140 C  
HETATM   14  C   UNL     1     -10.087   9.089  69.464  1.00  0.00    -0.199 C  
HETATM   15  C   UNL     1     -11.386   8.353  69.866  1.00  0.00     0.062 C  
HETATM   16  C   UNL     1     -11.315   6.869  70.190  1.00  0.00    -0.364 C  
HETATM   17  C   UNL     1     -10.828   6.504  71.570  1.00  0.00    -0.288 C  
HETATM   18  C   UNL     1     -11.066   7.540  72.651  1.00  0.00    -0.347 C  
HETATM   19  C   UNL     1     -11.722   8.840  72.292  1.00  0.00    -0.398 C  
ENDROOT
BRANCH   4  20
HETATM   20  C   UNL     1      -9.710  10.116  65.742  1.00  0.00    -0.307 C  
HETATM   21  C   UNL     1     -10.123  10.484  64.666  1.00  0.00    -0.408 C  
ENDBRANCH   4  20
BRANCH   7  22
HETATM   22  C   UNL     1      -6.806  10.475  66.074  1.00  0.00    -0.134 C  
HETATM   23  C   UNL     1      -5.727  11.394  66.647  1.00  0.00    -0.142 C  
ENDBRANCH   7  22
BRANCH  18  24
HETATM   24  N   UNL     1     -10.698   7.327  73.885  1.00  0.00    -0.556 NA 
HETATM   25  H   UNL     1      -9.027   7.202  74.930  1.00  0.00     0.000 HD 
HETATM   26  H   UNL     1     -11.348   7.159  74.653  1.00  0.00     0.000 HD 
HETATM   27  O   UNL     1      -9.295   7.358  74.032  1.00  0.00    -0.250 OA 
ENDBRANCH  18  24
TORSDOF 3
ENDMDL
MODEL       39
REMARK 921   NORMALIZED FREE ENERGY PREDICTED BY IDOCK:   -4.78 KCAL/MOL
REMARK 922        TOTAL FREE ENERGY PREDICTED BY IDOCK:   -5.80 KCAL/MOL
REMARK 923 INTER-LIGAND FREE ENERGY PREDICTED BY IDOCK:   -5.56 KCAL/MOL
REMARK 924 INTRA-LIGAND FREE ENERGY PREDICTED BY IDOCK:   -0.24 KCAL/MOL
REMARK 927      BINDING AFFINITY PREDICTED BY RF-SCORE:    0.00 PKD
ROOT
HETATM    1  C   UNL     1      -9.663   9.420  70.498  1.00  0.00    -0.331 C  
HETATM    2  C   UNL     1     -11.018   9.830  70.608  1.00  0.00    -0.398 C  
HETATM    3  C   UNL     1     -10.730   8.864  69.519  1.00  0.00    -0.206 C  
HETATM    4  C   UNL     1      -8.863   8.020  69.579  1.00  0.00    -0.144 C  
HETATM    5  C   UNL     1      -8.963  10.230  68.956  1.00  0.00    -0.175 C  
HETATM    6  O   UNL     1      -8.294   6.941  68.840  1.00  0.00    -0.120 OA 
HETATM    7  C   UNL     1      -9.997   7.523  70.184  1.00  0.00    -0.192 C  
HETATM    8  C   UNL     1      -9.224  11.763  68.827  1.00  0.00    -0.009 C  
HETATM    9  C   UNL     1      -8.895  12.412  67.437  1.00  0.00    -0.188 C  
HETATM   10  H   UNL     1      -7.429   6.550  68.868  1.00  0.00     0.000 HD 
HETATM   11  C   UNL     1     -10.508   6.941  68.487  1.00  0.00    -0.229 C  
HETATM   12  C   UNL     1      -9.073  11.511  66.220  1.00  0.00    -0.215 C  
HETATM   13  C   UNL     1      -9.829   7.922  67.239  1.00  0.00    -0.256 C  
HETATM   14  C   UNL     1      -9.401   9.506  67.459  1.00  0.00    -0.146 C  
HETATM   15  C   UNL     1      -8.454  10.143  66.418  1.00  0.00    -0.133 C  
HETATM   16  C   UNL     1      -8.183   9.396  65.122  1.00  0.00    -0.136 C  
HETATM   17  C   UNL     1      -9.237   9.507  64.048  1.00  0.00    -0.116 C  
HETATM   18  C   UNL     1     -10.078  10.768  64.074  1.00  0.00    -0.345 C  
HETATM   19  C   UNL     1      -9.843  11.787  65.149  1.00  0.00    -0.263 C  
ENDROOT
BRANCH   4  20
HETATM   20  C   UNL     1      -7.788   8.096  70.694  1.00  0.00    -0.091 C  
HETATM   21  C   UNL     1      -6.893   8.162  71.505  1.00  0.00    -0.060 C  
ENDBRANCH   4  20
BRANCH   7  22
HETATM   22  C   UNL     1     -10.199   6.509  71.276  1.00  0.00    -0.223 C  
HETATM   23  C   UNL     1     -11.635   6.591  71.794  1.00  0.00    -0.359 C  
ENDBRANCH   7  22
BRANCH  18  24
HETATM   24  N   UNL     1     -11.012  10.977  63.186  1.00  0.00    -0.765 NA 
HETATM   25  H   UNL     1     -12.719  11.959  63.036  1.00  0.00     0.000 HD 
HETATM   26  H   UNL     1     -11.000  10.586  62.244  1.00  0.00     0.000 HD 
HETATM   27  O   UNL     1     -12.039  11.808  63.682  1.00  0.00    -0.458 OA 
ENDBRANCH  18  24
TORSDOF 3
ENDMDL
MODEL       40
REMARK 921   NORMALIZED FREE ENERGY PREDICTED BY IDOCK:   -4.77 KCAL/MOL
REMARK 922        TOTAL FREE ENERGY PREDICTED BY IDOCK:   -5.79 KCAL/MOL
REMARK 923 INTER-LIGAND FREE ENERGY PREDICTED BY IDOCK:   -5.65 KCAL/MOL
REMARK 924 INTRA-LIGAND FREE ENERGY PREDICTED BY IDOCK:   -0.14 KCAL/MOL
REMARK 927      BINDING AFFINITY PREDICTED BY RF-SCORE:    0.00 PKD
ROOT
HETATM    1  C   UNL     1      -8.630   8.070  69.868  1.00  0.00    -0.135 C  
HETATM    2  C   UNL     1      -7.656   8.780  70.619  1.00  0.00    -0.090 C  
HETATM    3  C   UNL     1      -9.035   9.327  70.682  1.00  0.00    -0.296 C  
HETATM    4  C   UNL     1     -10.484   8.116  69.885  1.00  0.00    -0.226 C  
HETATM    5  C   UNL     1      -9.071   9.135  68.387  1.00  0.00    -0.132 C  
HETATM    6  O   UNL     1     -11.907   8.203  69.924  1.00  0.00    -0.319 OA 
HETATM    7  C   UNL     1     -10.058   8.116  71.196  1.00  0.00    -0.222 C  
HETATM    8  C   UNL     1      -7.859   9.694  67.578  1.00  0.00    -0.095 C  
HETATM    9  C   UNL     1      -8.182  10.797  66.510  1.00  0.00    -0.148 C  
HETATM   10  H   UNL     1     -12.579   7.642  69.554  1.00  0.00     0.000 HD 
HETATM   11  C   UNL     1     -11.077   9.664  71.407  1.00  0.00    -0.397 C  
HETATM   12  C   UNL     1      -9.362  11.709  66.828  1.00  0.00    -0.193 C  
HETATM   13  C   UNL     1     -11.241  10.534  69.923  1.00  0.00    -0.374 C  
HETATM   14  C   UNL     1     -10.134  10.451  68.695  1.00  0.00    -0.188 C  
HETATM   15  C   UNL     1     -10.578  10.939  67.297  1.00  0.00    -0.296 C  
HETATM   16  C   UNL     1     -11.882  11.709  67.172  1.00  0.00    -0.090 C  
HETATM   17  C   UNL     1     -11.836  13.174  67.531  1.00  0.00    -0.409 C  
HETATM   18  C   UNL     1     -10.494  13.856  67.356  1.00  0.00    -0.263 C  
HETATM   19  C   UNL     1      -9.318  13.055  66.881  1.00  0.00    -0.241 C  
ENDROOT
BRANCH   4  20
HETATM   20  C   UNL     1     -10.379   6.645  69.406  1.00  0.00    -0.228 C  
HETATM   21  C   UNL     1     -10.233   5.489  69.082  1.00  0.00    -0.309 C  
ENDBRANCH   4  20
BRANCH   7  22
HETATM   22  C   UNL     1     -10.210   7.117  72.308  1.00  0.00    -0.213 C  
HETATM   23  C   UNL     1      -9.397   7.569  73.521  1.00  0.00    -0.316 C  
ENDBRANCH   7  22
BRANCH  18  24
HETATM   24  N   UNL     1     -10.339  15.124  67.625  1.00  0.00    -0.246 NA 
HETATM   25  H   UNL     1     -10.620  16.362  69.138  1.00  0.00     0.000 HD 
HETATM   26  H   UNL     1      -9.975  15.807  66.960  1.00  0.00     0.000 HD 
HETATM   27  O   UNL     1     -10.732  15.439  68.943  1.00  0.00    -0.228 OA 
ENDBRANCH  18  24
TORSDOF 3
ENDMDL
MODEL       41
REMARK 921   NORMALIZED FREE ENERGY PREDICTED BY IDOCK:   -4.70 KCAL/MOL
REMARK 922        TOTAL FREE ENERGY PREDICTED BY IDOCK:   -5.71 KCAL/MOL
REMARK 923 INTER-LIGAND FREE ENERGY PREDICTED BY IDOCK:   -5.49 KCAL/MOL
REMARK 924 INTRA-LIGAND FREE ENERGY PREDICTED BY IDOCK:   -0.21 KCAL/MOL
REMARK 927      BINDING AFFINITY PREDICTED BY RF-SCORE:    0.00 PKD
ROOT
HETATM    1  C   UNL     1      -9.307  13.226  68.032  1.00  0.00    -0.218 C  
HETATM    2  C   UNL     1      -8.132  13.527  67.292  1.00  0.00    -0.141 C  
HETATM    3  C   UNL     1      -9.107  12.639  66.610  1.00  0.00    -0.193 C  
HETATM    4  C   UNL     1     -10.933  12.487  67.529  1.00  0.00    -0.251 C  
HETATM    5  C   UNL     1      -9.177  11.432  68.570  1.00  0.00    -0.174 C  
HETATM    6  O   UNL     1     -12.157  11.898  67.096  1.00  0.00    -0.590 OA 
HETATM    7  C   UNL     1     -10.583  13.411  66.568  1.00  0.00    -0.287 C  
HETATM    8  C   UNL     1      -7.826  11.030  69.240  1.00  0.00    -0.056 C  
HETATM    9  C   UNL     1      -7.582   9.495  69.452  1.00  0.00    -0.091 C  
HETATM   10  H   UNL     1     -13.003  11.827  67.522  1.00  0.00     0.000 HD 
HETATM   11  C   UNL     1     -10.782  12.029  65.331  1.00  0.00    -0.330 C  
HETATM   12  C   UNL     1      -8.218   8.569  68.420  1.00  0.00    -0.123 C  
HETATM   13  C   UNL     1     -10.494  10.482  66.043  1.00  0.00    -0.226 C  
HETATM   14  C   UNL     1      -9.522  10.256  67.364  1.00  0.00    -0.174 C  
HETATM   15  C   UNL     1      -9.662   8.925  68.136  1.00  0.00    -0.180 C  
HETATM   16  C   UNL     1     -10.463   7.796  67.508  1.00  0.00    -0.338 C  
HETATM   17  C   UNL     1      -9.757   6.971  66.461  1.00  0.00    -0.189 C  
HETATM   18  C   UNL     1      -8.248   6.898  66.583  1.00  0.00    -0.115 C  
HETATM   19  C   UNL     1      -7.562   7.651  67.683  1.00  0.00    -0.109 C  
ENDROOT
BRANCH   4  20
HETATM   20  C   UNL     1     -11.505  13.306  68.715  1.00  0.00    -0.346 C  
HETATM   21  C   UNL     1     -12.026  13.928  69.612  1.00  0.00    -0.399 C  
ENDBRANCH   4  20
BRANCH   7  22
HETATM   22  C   UNL     1     -11.202  14.715  66.147  1.00  0.00    -0.341 C  
HETATM   23  C   UNL     1     -10.319  15.387  65.096  1.00  0.00    -0.405 C  
ENDBRANCH   7  22
BRANCH  18  24
HETATM   24  N   UNL     1      -7.534   6.204  65.740  1.00  0.00    -0.080 NA 
HETATM   25  H   UNL     1      -7.814   5.047  64.163  1.00  0.00     0.000 HD 
HETATM   26  H   UNL     1      -6.516   6.139  65.772  1.00  0.00     0.000 HD 
HETATM   27  O   UNL     1      -8.334   5.553  64.777  1.00  0.00    -0.133 OA 
ENDBRANCH  18  24
TORSDOF 3
ENDMDL
MODEL       42
REMARK 921   NORMALIZED FREE ENERGY PREDICTED BY IDOCK:   -4.67 KCAL/MOL
REMARK 922        TOTAL FREE ENERGY PREDICTED BY IDOCK:   -5.67 KCAL/MOL
REMARK 923 INTER-LIGAND FREE ENERGY PREDICTED BY IDOCK:   -5.51 KCAL/MOL
REMARK 924 INTRA-LIGAND FREE ENERGY PREDICTED BY IDOCK:   -0.16 KCAL/MOL
REMARK 927      BINDING AFFINITY PREDICTED BY RF-SCORE:    0.00 PKD
ROOT
HETATM    1  C   UNL     1     -10.777   7.054  72.131  1.00  0.00    -0.247 C  
HETATM    2  C   UNL     1     -11.841   6.389  71.465  1.00  0.00    -0.355 C  
HETATM    3  C   UNL     1     -10.611   6.592  70.660  1.00  0.00    -0.268 C  
HETATM    4  C   UNL     1      -8.978   7.235  71.718  1.00  0.00    -0.127 C  
HETATM    5  C   UNL     1     -10.652   8.775  71.393  1.00  0.00    -0.349 C  
HETATM    6  O   UNL     1      -7.607   7.361  71.346  1.00  0.00    -0.080 OA 
HETATM    7  C   UNL     1      -9.326   5.923  71.483  1.00  0.00    -0.160 C  
HETATM    8  C   UNL     1     -11.996   9.564  71.298  1.00  0.00    -0.445 C  
HETATM    9  C   UNL     1     -11.973  10.881  70.446  1.00  0.00    -0.453 C  
HETATM   10  H   UNL     1      -6.850   7.659  71.837  1.00  0.00     0.000 HD 
HETATM   11  C   UNL     1      -8.655   6.173  69.760  1.00  0.00    -0.132 C  
HETATM   12  C   UNL     1     -11.002  10.900  69.271  1.00  0.00    -0.295 C  
HETATM   13  C   UNL     1      -8.759   7.824  69.263  1.00  0.00    -0.139 C  
HETATM   14  C   UNL     1      -9.883   8.883  69.859  1.00  0.00    -0.190 C  
HETATM   15  C   UNL     1      -9.626  10.393  69.649  1.00  0.00    -0.142 C  
HETATM   16  C   UNL     1      -8.527  10.821  68.690  1.00  0.00    -0.143 C  
HETATM   17  C   UNL     1      -8.869  10.801  67.221  1.00  0.00    -0.133 C  
HETATM   18  C   UNL     1     -10.334  10.990  66.880  1.00  0.00    -0.235 C  
HETATM   19  C   UNL     1     -11.332  11.149  67.988  1.00  0.00    -0.380 C  
ENDROOT
BRANCH   4  20
HETATM   20  C   UNL     1      -8.788   7.354  73.252  1.00  0.00    -0.201 C  
HETATM   21  C   UNL     1      -8.694   7.508  74.448  1.00  0.00    -0.224 C  
ENDBRANCH   4  20
BRANCH   7  22
HETATM   22  C   UNL     1      -8.906   4.633  72.131  1.00  0.00    -0.135 C  
HETATM   23  C   UNL     1      -9.868   3.517  71.727  1.00  0.00    -0.230 C  
ENDBRANCH   7  22
BRANCH  18  24
HETATM   24  N   UNL     1     -10.744  11.002  65.641  1.00  0.00    -0.195 NA 
HETATM   25  H   UNL     1     -10.331  11.943  63.954  1.00  0.00     0.000 HD 
HETATM   26  H   UNL     1     -11.492  10.408  65.283  1.00  0.00     0.000 HD 
HETATM   27  O   UNL     1     -10.032  11.934  64.856  1.00  0.00    -0.253 OA 
ENDBRANCH  18  24
TORSDOF 3
ENDMDL
MODEL       43
REMARK 921   NORMALIZED FREE ENERGY PREDICTED BY IDOCK:   -4.66 KCAL/MOL
REMARK 922        TOTAL FREE ENERGY PREDICTED BY IDOCK:   -5.66 KCAL/MOL
REMARK 923 INTER-LIGAND FREE ENERGY PREDICTED BY IDOCK:   -5.44 KCAL/MOL
REMARK 924 INTRA-LIGAND FREE ENERGY PREDICTED BY IDOCK:   -0.22 KCAL/MOL
REMARK 927      BINDING AFFINITY PREDICTED BY RF-SCORE:    0.00 PKD
ROOT
HETATM    1  C   UNL     1     -11.640  12.486  67.444  1.00  0.00    -0.434 C  
HETATM    2  C   UNL     1     -11.871  12.088  68.787  1.00  0.00    -0.358 C  
HETATM    3  C   UNL     1     -10.516  12.624  68.504  1.00  0.00    -0.249 C  
HETATM    4  C   UNL     1     -10.299  13.507  66.667  1.00  0.00    -0.271 C  
HETATM    5  C   UNL     1     -10.487  11.217  66.681  1.00  0.00    -0.292 C  
HETATM    6  O   UNL     1      -9.236  14.282  66.116  1.00  0.00    -0.479 OA 
HETATM    7  C   UNL     1     -10.680  14.140  67.831  1.00  0.00    -0.245 C  
HETATM    8  C   UNL     1     -10.899   9.726  66.890  1.00  0.00    -0.120 C  
HETATM    9  C   UNL     1      -9.828   8.646  66.506  1.00  0.00    -0.348 C  
HETATM   10  H   UNL     1      -9.136  14.691  65.265  1.00  0.00     0.000 HD 
HETATM   11  C   UNL     1      -8.880  14.074  68.319  1.00  0.00    -0.184 C  
HETATM   12  C   UNL     1      -8.370   9.059  66.683  1.00  0.00    -0.118 C  
HETATM   13  C   UNL     1      -8.061  12.745  67.579  1.00  0.00    -0.180 C  
HETATM   14  C   UNL     1      -8.826  11.356  67.106  1.00  0.00    -0.156 C  
HETATM   15  C   UNL     1      -8.084  10.432  66.114  1.00  0.00    -0.139 C  
HETATM   16  C   UNL     1      -6.612  10.690  65.836  1.00  0.00    -0.118 C  
HETATM   17  C   UNL     1      -5.633  10.170  66.860  1.00  0.00    -0.046 C  
HETATM   18  C   UNL     1      -6.088   8.966  67.660  1.00  0.00    -0.047 C  
HETATM   19  C   UNL     1      -7.454   8.397  67.419  1.00  0.00    -0.093 C  
ENDROOT
BRANCH   4  20
HETATM   20  C   UNL     1     -11.383  13.866  65.618  1.00  0.00    -0.310 C  
HETATM   21  C   UNL     1     -12.179  14.113  64.741  1.00  0.00    -0.457 C  
ENDBRANCH   4  20
BRANCH   7  22
HETATM   22  C   UNL     1     -11.345  15.462  68.092  1.00  0.00    -0.353 C  
HETATM   23  C   UNL     1     -11.894  15.489  69.518  1.00  0.00    -0.390 C  
ENDBRANCH   7  22
BRANCH  18  24
HETATM   24  N   UNL     1      -5.319   8.425  68.565  1.00  0.00    -0.032 NA 
HETATM   25  H   UNL     1      -5.182   6.730  69.570  1.00  0.00     0.000 HD 
HETATM   26  H   UNL     1      -4.507   8.888  68.973  1.00  0.00     0.000 HD 
HETATM   27  O   UNL     1      -5.742   7.124  68.911  1.00  0.00    -0.018 OA 
ENDBRANCH  18  24
TORSDOF 3
ENDMDL
MODEL       44
REMARK 921   NORMALIZED FREE ENERGY PREDICTED BY IDOCK:   -4.65 KCAL/MOL
REMARK 922        TOTAL FREE ENERGY PREDICTED BY IDOCK:   -5.65 KCAL/MOL
REMARK 923 INTER-LIGAND FREE ENERGY PREDICTED BY IDOCK:   -5.88 KCAL/MOL
REMARK 924 INTRA-LIGAND FREE ENERGY PREDICTED BY IDOCK:    0.24 KCAL/MOL
REMARK 927      BINDING AFFINITY PREDICTED BY RF-SCORE:    0.00 PKD
ROOT
HETATM    1  C   UNL     1      -8.637   6.436  66.945  1.00  0.00    -0.110 C  
HETATM    2  C   UNL     1      -9.731   5.772  66.329  1.00  0.00    -0.148 C  
HETATM    3  C   UNL     1     -10.013   7.143  66.824  1.00  0.00    -0.278 C  
HETATM    4  C   UNL     1      -8.362   8.215  67.395  1.00  0.00    -0.122 C  
HETATM    5  C   UNL     1      -8.994   6.499  68.787  1.00  0.00    -0.124 C  
HETATM    6  O   UNL     1      -8.207   9.590  67.738  1.00  0.00    -0.113 OA 
HETATM    7  C   UNL     1      -8.914   8.188  66.133  1.00  0.00    -0.218 C  
HETATM    8  C   UNL     1      -9.423   5.144  69.434  1.00  0.00    -0.198 C  
HETATM    9  C   UNL     1      -9.986   5.217  70.896  1.00  0.00    -0.280 C  
HETATM   10  H   UNL     1      -7.442  10.087  68.003  1.00  0.00     0.000 HD 
HETATM   11  C   UNL     1     -10.229   9.325  66.809  1.00  0.00    -0.325 C  
HETATM   12  C   UNL     1     -10.729   6.497  71.263  1.00  0.00    -0.280 C  
HETATM   13  C   UNL     1     -10.456   9.109  68.508  1.00  0.00    -0.238 C  
HETATM   14  C   UNL     1     -10.125   7.691  69.295  1.00  0.00    -0.190 C  
HETATM   15  C   UNL     1      -9.984   7.742  70.833  1.00  0.00    -0.190 C  
HETATM   16  C   UNL     1     -10.415   9.002  71.565  1.00  0.00    -0.410 C  
HETATM   17  C   UNL     1     -11.894   9.160  71.821  1.00  0.00    -0.453 C  
HETATM   18  C   UNL     1     -12.688   7.873  71.924  1.00  0.00    -0.316 C  
HETATM   19  C   UNL     1     -11.988   6.560  71.742  1.00  0.00    -0.394 C  
ENDROOT
BRANCH   4  20
HETATM   20  C   UNL     1      -6.860   7.877  67.207  1.00  0.00    -0.070 C  
HETATM   21  C   UNL     1      -5.671   7.687  67.093  1.00  0.00    -0.032 C  
ENDBRANCH   4  20
BRANCH   7  22
HETATM   22  C   UNL     1      -8.379   8.589  64.786  1.00  0.00    -0.163 C  
HETATM   23  C   UNL     1      -8.034   7.339  63.977  1.00  0.00    -0.087 C  
ENDBRANCH   7  22
BRANCH  18  24
HETATM   24  N   UNL     1     -13.973   7.888  72.154  1.00  0.00    -0.550 NA 
HETATM   25  H   UNL     1     -15.312   9.069  72.996  1.00  0.00     0.000 HD 
HETATM   26  H   UNL     1     -14.609   7.140  71.879  1.00  0.00     0.000 HD 
HETATM   27  O   UNL     1     -14.377   9.059  72.828  1.00  0.00    -0.596 OA 
ENDBRANCH  18  24
TORSDOF 3
ENDMDL
MODEL       45
REMARK 921   NORMALIZED FREE ENERGY PREDICTED BY IDOCK:   -4.63 KCAL/MOL
REMARK 922        TOTAL FREE ENERGY PREDICTED BY IDOCK:   -5.63 KCAL/MOL
REMARK 923 INTER-LIGAND FREE ENERGY PREDICTED BY IDOCK:   -5.40 KCAL/MOL
REMARK 924 INTRA-LIGAND FREE ENERGY PREDICTED BY IDOCK:   -0.23 KCAL/MOL
REMARK 927      BINDING AFFINITY PREDICTED BY RF-SCORE:    0.00 PKD
ROOT
HETATM    1  C   UNL     1      -8.000   8.990  69.248  1.00  0.00    -0.096 C  
HETATM    2  C   UNL     1      -7.535   9.517  70.482  1.00  0.00    -0.159 C  
HETATM    3  C   UNL     1      -8.993   9.654  70.239  1.00  0.00    -0.263 C  
HETATM    4  C   UNL     1      -9.707   8.598  68.634  1.00  0.00    -0.163 C  
HETATM    5  C   UNL     1      -8.434  10.449  68.151  1.00  0.00    -0.121 C  
HETATM    6  O   UNL     1     -11.039   8.332  68.201  1.00  0.00    -0.439 OA 
HETATM    7  C   UNL     1      -9.619   8.141  69.930  1.00  0.00    -0.175 C  
HETATM    8  C   UNL     1      -7.341  11.560  68.049  1.00  0.00    -0.091 C  
HETATM    9  C   UNL     1      -7.775  12.905  67.368  1.00  0.00    -0.160 C  
HETATM   10  H   UNL     1     -11.370   7.842  67.457  1.00  0.00     0.000 HD 
HETATM   11  C   UNL     1     -11.133   9.175  70.276  1.00  0.00    -0.272 C  
HETATM   12  C   UNL     1      -9.238  13.298  67.538  1.00  0.00    -0.213 C  
HETATM   13  C   UNL     1     -11.245  10.528  69.208  1.00  0.00    -0.320 C  
HETATM   14  C   UNL     1      -9.929  11.229  68.488  1.00  0.00    -0.206 C  
HETATM   15  C   UNL     1     -10.182  12.146  67.271  1.00  0.00    -0.216 C  
HETATM   16  C   UNL     1     -11.608  12.576  66.963  1.00  0.00    -0.437 C  
HETATM   17  C   UNL     1     -12.158  13.718  67.781  1.00  0.00    -0.325 C  
HETATM   18  C   UNL     1     -11.135  14.698  68.322  1.00  0.00    -0.271 C  
HETATM   19  C   UNL     1      -9.679  14.466  68.048  1.00  0.00    -0.221 C  
ENDROOT
BRANCH   4  20
HETATM   20  C   UNL     1      -8.990   7.535  67.761  1.00  0.00    -0.131 C  
HETATM   21  C   UNL     1      -8.455   6.748  67.014  1.00  0.00    -0.114 C  
ENDBRANCH   4  20
BRANCH   7  22
HETATM   22  C   UNL     1      -9.664   6.759  70.520  1.00  0.00    -0.184 C  
HETATM   23  C   UNL     1      -9.134   6.794  71.953  1.00  0.00    -0.142 C  
ENDBRANCH   7  22
BRANCH  18  24
HETATM   24  N   UNL     1     -11.497  15.731  69.033  1.00  0.00    -0.367 NA 
HETATM   25  H   UNL     1     -10.966  16.635  70.707  1.00  0.00     0.000 HD 
HETATM   26  H   UNL     1     -12.264  16.354  68.782  1.00  0.00     0.000 HD 
HETATM   27  O   UNL     1     -10.703  15.883  70.189  1.00  0.00    -0.311 OA 
ENDBRANCH  18  24
TORSDOF 3
ENDMDL
MODEL       46
REMARK 921   NORMALIZED FREE ENERGY PREDICTED BY IDOCK:   -4.61 KCAL/MOL
REMARK 922        TOTAL FREE ENERGY PREDICTED BY IDOCK:   -5.60 KCAL/MOL
REMARK 923 INTER-LIGAND FREE ENERGY PREDICTED BY IDOCK:   -6.07 KCAL/MOL
REMARK 924 INTRA-LIGAND FREE ENERGY PREDICTED BY IDOCK:    0.47 KCAL/MOL
REMARK 927      BINDING AFFINITY PREDICTED BY RF-SCORE:    0.00 PKD
ROOT
HETATM    1  C   UNL     1      -8.808  16.713  66.136  1.00  0.00    -0.323 C  
HETATM    2  C   UNL     1      -9.954  16.971  65.339  1.00  0.00     0.208 C  
HETATM    3  C   UNL     1      -9.979  17.559  66.702  1.00  0.00    -0.314 C  
HETATM    4  C   UNL     1      -8.199  17.476  67.714  1.00  0.00    -0.219 C  
HETATM    5  C   UNL     1      -9.320  15.486  67.461  1.00  0.00    -0.207 C  
HETATM    6  O   UNL     1      -7.783  18.082  68.937  1.00  0.00    -0.278 OA 
HETATM    7  C   UNL     1      -8.618  18.501  66.894  1.00  0.00    -0.281 C  
HETATM    8  C   UNL     1     -10.092  14.230  66.950  1.00  0.00    -0.264 C  
HETATM    9  C   UNL     1     -10.766  13.331  68.044  1.00  0.00    -0.254 C  
HETATM   10  H   UNL     1      -6.958  18.044  69.406  1.00  0.00     0.000 HD 
HETATM   11  C   UNL     1      -9.715  19.029  68.308  1.00  0.00    -0.419 C  
HETATM   12  C   UNL     1     -11.246  14.054  69.299  1.00  0.00    -0.304 C  
HETATM   13  C   UNL     1     -10.147  17.698  69.320  1.00  0.00    -0.147 C  
HETATM   14  C   UNL     1     -10.209  16.133  68.784  1.00  0.00    -0.238 C  
HETATM   15  C   UNL     1     -10.210  15.011  69.847  1.00  0.00    -0.101 C  
HETATM   16  C   UNL     1     -10.427  15.386  71.305  1.00  0.00     0.474 C  
HETATM   17  C   UNL     1     -11.855  15.623  71.733  1.00  0.00    -0.524 C  
HETATM   18  C   UNL     1     -12.915  14.887  70.939  1.00  0.00    -0.380 C  
HETATM   19  C   UNL     1     -12.502  14.018  69.789  1.00  0.00    -0.255 C  
ENDROOT
BRANCH   4  20
HETATM   20  C   UNL     1      -6.795  17.069  67.197  1.00  0.00    -0.214 C  
HETATM   21  C   UNL     1      -5.683  16.723  66.869  1.00  0.00    -0.168 C  
ENDBRANCH   4  20
BRANCH   7  22
HETATM   22  C   UNL     1      -7.881  19.628  66.226  1.00  0.00    -0.331 C  
HETATM   23  C   UNL     1      -7.187  20.486  67.283  1.00  0.00    -0.367 C  
ENDBRANCH   7  22
BRANCH  18  24
HETATM   24  N   UNL     1     -14.182  15.008  71.227  1.00  0.00    -0.651 NA 
HETATM   25  H   UNL     1     -15.316  15.929  72.556  1.00  0.00     0.000 HD 
HETATM   26  H   UNL     1     -14.931  14.553  70.706  1.00  0.00     0.000 HD 
HETATM   27  O   UNL     1     -14.394  15.842  72.346  1.00  0.00    -0.514 OA 
ENDBRANCH  18  24
TORSDOF 3
ENDMDL
MODEL       47
REMARK 921   NORMALIZED FREE ENERGY PREDICTED BY IDOCK:   -4.60 KCAL/MOL
REMARK 922        TOTAL FREE ENERGY PREDICTED BY IDOCK:   -5.59 KCAL/MOL
REMARK 923 INTER-LIGAND FREE ENERGY PREDICTED BY IDOCK:   -5.45 KCAL/MOL
REMARK 924 INTRA-LIGAND FREE ENERGY PREDICTED BY IDOCK:   -0.14 KCAL/MOL
REMARK 927      BINDING AFFINITY PREDICTED BY RF-SCORE:    0.00 PKD
ROOT
HETATM    1  C   UNL     1      -9.082  10.993  67.370  1.00  0.00    -0.143 C  
HETATM    2  C   UNL     1      -8.153  11.536  68.296  1.00  0.00    -0.148 C  
HETATM    3  C   UNL     1      -8.063  10.069  68.088  1.00  0.00    -0.108 C  
HETATM    4  C   UNL     1      -9.162   9.348  66.515  1.00  0.00    -0.159 C  
HETATM    5  C   UNL     1     -10.350  10.026  68.362  1.00  0.00    -0.218 C  
HETATM    6  O   UNL     1      -9.188   8.063  65.897  1.00  0.00    -0.321 OA 
HETATM    7  C   UNL     1      -7.854   9.780  66.460  1.00  0.00    -0.109 C  
HETATM    8  C   UNL     1     -10.964  10.781  69.582  1.00  0.00    -0.320 C  
HETATM    9  C   UNL     1     -11.812   9.918  70.581  1.00  0.00    -0.386 C  
HETATM   10  H   UNL     1      -9.697   7.728  65.168  1.00  0.00     0.000 HD 
HETATM   11  C   UNL     1      -7.404   8.152  67.251  1.00  0.00    -0.089 C  
HETATM   12  C   UNL     1     -11.391   8.460  70.729  1.00  0.00    -0.290 C  
HETATM   13  C   UNL     1      -8.695   7.522  68.210  1.00  0.00    -0.123 C  
HETATM   14  C   UNL     1      -9.852   8.476  68.914  1.00  0.00    -0.181 C  
HETATM   15  C   UNL     1     -11.150   7.789  69.394  1.00  0.00     0.040 C  
HETATM   16  C   UNL     1     -11.197   6.270  69.450  1.00  0.00    -0.489 C  
HETATM   17  C   UNL     1     -10.557   5.621  70.653  1.00  0.00    -0.347 C  
HETATM   18  C   UNL     1     -10.519   6.460  71.915  1.00  0.00    -0.209 C  
HETATM   19  C   UNL     1     -11.073   7.853  71.890  1.00  0.00    -0.317 C  
ENDROOT
BRANCH   4  20
HETATM   20  C   UNL     1      -9.912  10.127  65.404  1.00  0.00    -0.377 C  
HETATM   21  C   UNL     1     -10.492  10.802  64.584  1.00  0.00    -0.346 C  
ENDBRANCH   4  20
BRANCH   7  22
HETATM   22  C   UNL     1      -6.969  10.179  65.313  1.00  0.00    -0.137 C  
HETATM   23  C   UNL     1      -5.666  10.771  65.851  1.00  0.00    -0.145 C  
ENDBRANCH   7  22
BRANCH  18  24
HETATM   24  N   UNL     1     -10.000   5.996  73.019  1.00  0.00    -0.172 NA 
HETATM   25  H   UNL     1     -10.133   6.313  74.964  1.00  0.00     0.000 HD 
HETATM   26  H   UNL     1      -9.305   5.250  73.053  1.00  0.00     0.000 HD 
HETATM   27  O   UNL     1     -10.511   6.649  74.160  1.00  0.00    -0.353 OA 
ENDBRANCH  18  24
TORSDOF 3
ENDMDL
MODEL       48
REMARK 921   NORMALIZED FREE ENERGY PREDICTED BY IDOCK:   -4.54 KCAL/MOL
REMARK 922        TOTAL FREE ENERGY PREDICTED BY IDOCK:   -5.52 KCAL/MOL
REMARK 923 INTER-LIGAND FREE ENERGY PREDICTED BY IDOCK:   -5.44 KCAL/MOL
REMARK 924 INTRA-LIGAND FREE ENERGY PREDICTED BY IDOCK:   -0.08 KCAL/MOL
REMARK 927      BINDING AFFINITY PREDICTED BY RF-SCORE:    0.00 PKD
ROOT
HETATM    1  C   UNL     1     -11.171   7.540  72.565  1.00  0.00    -0.381 C  
HETATM    2  C   UNL     1     -10.026   8.208  73.074  1.00  0.00    -0.303 C  
HETATM    3  C   UNL     1      -9.841   7.530  71.766  1.00  0.00    -0.192 C  
HETATM    4  C   UNL     1     -11.567   6.868  70.881  1.00  0.00    -0.337 C  
HETATM    5  C   UNL     1     -10.854   5.697  72.725  1.00  0.00    -0.303 C  
HETATM    6  O   UNL     1     -11.815   6.352  69.575  1.00  0.00    -0.592 OA 
HETATM    7  C   UNL     1     -10.990   8.107  70.707  1.00  0.00    -0.261 C  
HETATM    8  C   UNL     1     -10.353   5.222  74.125  1.00  0.00    -0.308 C  
HETATM    9  C   UNL     1      -9.824   3.748  74.213  1.00  0.00    -0.162 C  
HETATM   10  H   UNL     1     -12.615   6.045  69.164  1.00  0.00     0.000 HD 
HETATM   11  C   UNL     1      -9.762   7.253  69.592  1.00  0.00    -0.159 C  
HETATM   12  C   UNL     1      -9.170   3.196  72.951  1.00  0.00    -0.120 C  
HETATM   13  C   UNL     1      -9.555   5.591  70.017  1.00  0.00    -0.218 C  
HETATM   14  C   UNL     1      -9.811   5.006  71.545  1.00  0.00    -0.241 C  
HETATM   15  C   UNL     1      -9.984   3.479  71.707  1.00  0.00    -0.202 C  
HETATM   16  C   UNL     1      -9.647   2.576  70.531  1.00  0.00    -0.138 C  
HETATM   17  C   UNL     1      -8.186   2.262  70.320  1.00  0.00    -0.063 C  
HETATM   18  C   UNL     1      -7.315   2.307  71.559  1.00  0.00    -0.036 C  
HETATM   19  C   UNL     1      -7.927   2.679  72.876  1.00  0.00    -0.058 C  
ENDROOT
BRANCH   4  20
HETATM   20  C   UNL     1     -13.040   7.140  71.280  1.00  0.00    -0.361 C  
HETATM   21  C   UNL     1     -14.210   7.342  71.512  1.00  0.00    -0.571 C  
ENDBRANCH   4  20
BRANCH   7  22
HETATM   22  C   UNL     1     -11.523   9.404  70.164  1.00  0.00    -0.175 C  
HETATM   23  C   UNL     1     -10.370  10.382  69.943  1.00  0.00    -0.231 C  
ENDBRANCH   7  22
BRANCH  18  24
HETATM   24  N   UNL     1      -6.038   2.042  71.498  1.00  0.00    -0.014 NA 
HETATM   25  H   UNL     1      -4.483   2.502  70.371  1.00  0.00     0.000 HD 
HETATM   26  H   UNL     1      -5.550   1.434  72.156  1.00  0.00     0.000 HD 
HETATM   27  O   UNL     1      -5.412   2.696  70.416  1.00  0.00    -0.011 OA 
ENDBRANCH  18  24
TORSDOF 3
ENDMDL
MODEL       49
REMARK 921   NORMALIZED FREE ENERGY PREDICTED BY IDOCK:   -4.50 KCAL/MOL
REMARK 922        TOTAL FREE ENERGY PREDICTED BY IDOCK:   -5.47 KCAL/MOL
REMARK 923 INTER-LIGAND FREE ENERGY PREDICTED BY IDOCK:   -5.28 KCAL/MOL
REMARK 924 INTRA-LIGAND FREE ENERGY PREDICTED BY IDOCK:   -0.19 KCAL/MOL
REMARK 927      BINDING AFFINITY PREDICTED BY RF-SCORE:    0.00 PKD
ROOT
HETATM    1  C   UNL     1      -8.842   8.884  69.317  1.00  0.00    -0.139 C  
HETATM    2  C   UNL     1      -8.252   9.229  70.563  1.00  0.00    -0.219 C  
HETATM    3  C   UNL     1      -9.425  10.046  70.163  1.00  0.00    -0.124 C  
HETATM    4  C   UNL     1     -10.471   9.332  68.551  1.00  0.00    -0.206 C  
HETATM    5  C   UNL     1      -8.412  10.251  68.104  1.00  0.00    -0.123 C  
HETATM    6  O   UNL     1     -11.727   9.721  67.998  1.00  0.00    -0.391 OA 
HETATM    7  C   UNL     1     -10.707   9.021  69.872  1.00  0.00    -0.240 C  
HETATM    8  C   UNL     1      -6.906  10.657  68.058  1.00  0.00    -0.072 C  
HETATM    9  C   UNL     1      -6.560  11.966  67.265  1.00  0.00    -0.141 C  
HETATM   10  H   UNL     1     -12.211   9.391  67.250  1.00  0.00     0.000 HD 
HETATM   11  C   UNL     1     -11.514  10.698  70.004  1.00  0.00    -0.404 C  
HETATM   12  C   UNL     1      -7.635  13.048  67.262  1.00  0.00    -0.097 C  
HETATM   13  C   UNL     1     -10.863  11.817  68.860  1.00  0.00    -0.265 C  
HETATM   14  C   UNL     1      -9.330  11.698  68.244  1.00  0.00    -0.191 C  
HETATM   15  C   UNL     1      -9.011  12.496  66.960  1.00  0.00    -0.211 C  
HETATM   16  C   UNL     1     -10.005  13.544  66.484  1.00  0.00    -0.287 C  
HETATM   17  C   UNL     1      -9.956  14.883  67.179  1.00  0.00    -0.231 C  
HETATM   18  C   UNL     1      -8.616  15.273  67.770  1.00  0.00    -0.158 C  
HETATM   19  C   UNL     1      -7.460  14.324  67.661  1.00  0.00    -0.194 C  
ENDROOT
BRANCH   4  20
HETATM   20  C   UNL     1     -10.332   7.974  67.815  1.00  0.00    -0.294 C  
HETATM   21  C   UNL     1     -10.304   6.919  67.225  1.00  0.00    -0.320 C  
ENDBRANCH   4  20
BRANCH   7  22
HETATM   22  C   UNL     1     -11.477   7.909  70.527  1.00  0.00    -0.204 C  
HETATM   23  C   UNL     1     -11.426   8.073  72.046  1.00  0.00    -0.364 C  
ENDBRANCH   7  22
BRANCH  18  24
HETATM   24  N   UNL     1      -8.453  16.413  68.384  1.00  0.00    -0.195 NA 
HETATM   25  H   UNL     1      -7.148  17.270  69.593  1.00  0.00     0.000 HD 
HETATM   26  H   UNL     1      -9.107  17.193  68.320  1.00  0.00     0.000 HD 
HETATM   27  O   UNL     1      -7.266  16.440  69.146  1.00  0.00    -0.205 OA 
ENDBRANCH  18  24
TORSDOF 3
ENDMDL
MODEL       50
REMARK 921   NORMALIZED FREE ENERGY PREDICTED BY IDOCK:   -4.44 KCAL/MOL
REMARK 922        TOTAL FREE ENERGY PREDICTED BY IDOCK:   -5.40 KCAL/MOL
REMARK 923 INTER-LIGAND FREE ENERGY PREDICTED BY IDOCK:   -5.18 KCAL/MOL
REMARK 924 INTRA-LIGAND FREE ENERGY PREDICTED BY IDOCK:   -0.22 KCAL/MOL
REMARK 927      BINDING AFFINITY PREDICTED BY RF-SCORE:    0.00 PKD
ROOT
HETATM    1  C   UNL     1      -7.302   8.709  68.146  1.00  0.00    -0.091 C  
HETATM    2  C   UNL     1      -7.468   8.921  69.541  1.00  0.00    -0.075 C  
HETATM    3  C   UNL     1      -8.723   8.864  68.750  1.00  0.00    -0.137 C  
HETATM    4  C   UNL     1      -8.501   8.222  66.816  1.00  0.00    -0.122 C  
HETATM    5  C   UNL     1      -7.710  10.327  67.288  1.00  0.00    -0.095 C  
HETATM    6  O   UNL     1      -9.465   7.865  65.827  1.00  0.00    -0.415 OA 
HETATM    7  C   UNL     1      -8.752   7.425  67.911  1.00  0.00    -0.123 C  
HETATM    8  C   UNL     1      -7.008  11.592  67.873  1.00  0.00    -0.080 C  
HETATM    9  C   UNL     1      -7.530  12.980  67.362  1.00  0.00    -0.136 C  
HETATM   10  H   UNL     1      -9.362   7.568  64.931  1.00  0.00     0.000 HD 
HETATM   11  C   UNL     1     -10.514   8.026  67.801  1.00  0.00    -0.280 C  
HETATM   12  C   UNL     1      -9.007  13.042  66.988  1.00  0.00    -0.225 C  
HETATM   13  C   UNL     1     -10.616   9.593  67.081  1.00  0.00    -0.298 C  
HETATM   14  C   UNL     1      -9.382  10.696  67.128  1.00  0.00    -0.172 C  
HETATM   15  C   UNL     1      -9.435  11.873  66.127  1.00  0.00    -0.243 C  
HETATM   16  C   UNL     1     -10.720  12.116  65.352  1.00  0.00    -0.323 C  
HETATM   17  C   UNL     1     -11.818  12.849  66.082  1.00  0.00    -0.487 C  
HETATM   18  C   UNL     1     -11.368  13.789  67.183  1.00  0.00    -0.324 C  
HETATM   19  C   UNL     1      -9.906  13.909  67.495  1.00  0.00    -0.236 C  
ENDROOT
BRANCH   4  20
HETATM   20  C   UNL     1      -7.257   7.609  66.123  1.00  0.00    -0.070 C  
HETATM   21  C   UNL     1      -6.337   7.089  65.534  1.00  0.00    -0.043 C  
ENDBRANCH   4  20
BRANCH   7  22
HETATM   22  C   UNL     1      -8.615   5.945  68.137  1.00  0.00    -0.113 C  
HETATM   23  C   UNL     1      -8.832   5.628  69.616  1.00  0.00    -0.121 C  
ENDBRANCH   7  22
BRANCH  18  24
HETATM   24  N   UNL     1     -12.229  14.484  67.873  1.00  0.00    -0.622 NA 
HETATM   25  H   UNL     1     -12.352  16.259  68.731  1.00  0.00     0.000 HD 
HETATM   26  H   UNL     1     -13.159  14.150  68.127  1.00  0.00     0.000 HD 
HETATM   27  O   UNL     1     -11.724  15.753  68.228  1.00  0.00    -0.345 OA 
ENDBRANCH  18  24
TORSDOF 3
ENDMDL
MODEL       51
REMARK 921   NORMALIZED FREE ENERGY PREDICTED BY IDOCK:   -4.43 KCAL/MOL
REMARK 922        TOTAL FREE ENERGY PREDICTED BY IDOCK:   -5.39 KCAL/MOL
REMARK 923 INTER-LIGAND FREE ENERGY PREDICTED BY IDOCK:   -5.57 KCAL/MOL
REMARK 924 INTRA-LIGAND FREE ENERGY PREDICTED BY IDOCK:    0.19 KCAL/MOL
REMARK 927      BINDING AFFINITY PREDICTED BY RF-SCORE:    0.00 PKD
ROOT
HETATM    1  C   UNL     1     -11.119  13.730  65.852  1.00  0.00    -0.286 C  
HETATM    2  C   UNL     1     -12.378  13.076  65.793  1.00  0.00    -0.477 C  
HETATM    3  C   UNL     1     -11.393  12.480  66.730  1.00  0.00    -0.390 C  
HETATM    4  C   UNL     1      -9.719  13.615  67.065  1.00  0.00    -0.251 C  
HETATM    5  C   UNL     1      -9.874  12.611  65.004  1.00  0.00    -0.090 C  
HETATM    6  O   UNL     1      -8.663  13.476  68.014  1.00  0.00    -0.164 OA 
HETATM    7  C   UNL     1     -10.890  13.665  67.789  1.00  0.00    -0.266 C  
HETATM    8  C   UNL     1     -10.301  12.076  63.600  1.00  0.00    -0.482 C  
HETATM    9  C   UNL     1      -9.415  10.934  62.990  1.00  0.00    -0.369 C  
HETATM   10  H   UNL     1      -7.887  14.002  68.169  1.00  0.00     0.000 HD 
HETATM   11  C   UNL     1     -10.320  12.086  68.602  1.00  0.00    -0.211 C  
HETATM   12  C   UNL     1      -8.762   9.988  63.992  1.00  0.00    -0.222 C  
HETATM   13  C   UNL     1      -9.277  11.172  67.572  1.00  0.00    -0.155 C  
HETATM   14  C   UNL     1      -9.323  11.264  65.920  1.00  0.00    -0.240 C  
HETATM   15  C   UNL     1      -8.104  10.724  65.139  1.00  0.00     0.004 C  
HETATM   16  C   UNL     1      -7.064   9.902  65.883  1.00  0.00    -0.107 C  
HETATM   17  C   UNL     1      -7.398   8.450  66.121  1.00  0.00    -0.084 C  
HETATM   18  C   UNL     1      -8.339   7.815  65.117  1.00  0.00    -0.106 C  
HETATM   19  C   UNL     1      -8.891   8.646  63.998  1.00  0.00     0.197 C  
ENDROOT
BRANCH   4  20
HETATM   20  C   UNL     1      -9.423  15.076  66.638  1.00  0.00    -0.288 C  
HETATM   21  C   UNL     1      -9.112  16.201  66.320  1.00  0.00    -0.373 C  
ENDBRANCH   4  20
BRANCH   7  22
HETATM   22  C   UNL     1     -11.447  14.687  68.740  1.00  0.00    -0.322 C  
HETATM   23  C   UNL     1     -12.280  13.988  69.815  1.00  0.00    -0.396 C  
ENDBRANCH   7  22
BRANCH  18  24
HETATM   24  N   UNL     1      -8.688   6.561  65.216  1.00  0.00    -0.348 NA 
HETATM   25  H   UNL     1      -9.451   5.339  66.568  1.00  0.00     0.000 HD 
HETATM   26  H   UNL     1      -8.603   5.884  64.458  1.00  0.00     0.000 HD 
HETATM   27  O   UNL     1      -9.198   6.252  66.495  1.00  0.00    -0.147 OA 
ENDBRANCH  18  24
TORSDOF 3
ENDMDL
MODEL       52
REMARK 921   NORMALIZED FREE ENERGY PREDICTED BY IDOCK:   -4.37 KCAL/MOL
REMARK 922        TOTAL FREE ENERGY PREDICTED BY IDOCK:   -5.32 KCAL/MOL
REMARK 923 INTER-LIGAND FREE ENERGY PREDICTED BY IDOCK:   -5.40 KCAL/MOL
REMARK 924 INTRA-LIGAND FREE ENERGY PREDICTED BY IDOCK:    0.07 KCAL/MOL
REMARK 927      BINDING AFFINITY PREDICTED BY RF-SCORE:    0.00 PKD
ROOT
HETATM    1  C   UNL     1      -9.974  12.023  65.922  1.00  0.00    -0.260 C  
HETATM    2  C   UNL     1     -11.084  11.785  65.068  1.00  0.00    -0.343 C  
HETATM    3  C   UNL     1     -11.137  11.107  66.388  1.00  0.00    -0.204 C  
HETATM    4  C   UNL     1      -9.719  11.720  67.735  1.00  0.00    -0.183 C  
HETATM    5  C   UNL     1      -8.970  10.438  65.980  1.00  0.00    -0.178 C  
HETATM    6  O   UNL     1      -9.564  11.449  69.126  1.00  0.00    -0.404 OA 
HETATM    7  C   UNL     1     -10.976  12.260  67.579  1.00  0.00    -0.298 C  
HETATM    8  C   UNL     1      -8.640   9.803  64.593  1.00  0.00    -0.199 C  
HETATM    9  C   UNL     1      -8.045   8.352  64.614  1.00  0.00    -0.156 C  
HETATM   10  H   UNL     1      -8.907  11.733  69.751  1.00  0.00     0.000 HD 
HETATM   11  C   UNL     1     -11.607  10.767  68.503  1.00  0.00    -0.325 C  
HETATM   12  C   UNL     1      -8.502   7.460  65.764  1.00  0.00    -0.149 C  
HETATM   13  C   UNL     1     -10.569   9.401  68.303  1.00  0.00    -0.256 C  
HETATM   14  C   UNL     1      -9.593   9.188  66.983  1.00  0.00    -0.223 C  
HETATM   15  C   UNL     1      -8.441   8.164  67.102  1.00  0.00    -0.124 C  
HETATM   16  C   UNL     1      -8.421   7.222  68.295  1.00  0.00    -0.124 C  
HETATM   17  C   UNL     1      -9.320   6.013  68.213  1.00  0.00    -0.116 C  
HETATM   18  C   UNL     1      -9.634   5.516  66.816  1.00  0.00    -0.146 C  
HETATM   19  C   UNL     1      -9.077   6.248  65.632  1.00  0.00     0.019 C  
ENDROOT
BRANCH   4  20
HETATM   20  C   UNL     1      -8.732  12.912  67.645  1.00  0.00    -0.185 C  
HETATM   21  C   UNL     1      -7.977  13.858  67.654  1.00  0.00    -0.181 C  
ENDBRANCH   4  20
BRANCH   7  22
HETATM   22  C   UNL     1     -11.578  13.565  68.023  1.00  0.00    -0.372 C  
HETATM   23  C   UNL     1     -12.153  14.303  66.815  1.00  0.00    -0.446 C  
ENDBRANCH   7  22
BRANCH  18  24
HETATM   24  N   UNL     1     -10.392   4.471  66.625  1.00  0.00    -0.287 NA 
HETATM   25  H   UNL     1     -11.585   3.743  65.229  1.00  0.00     0.000 HD 
HETATM   26  H   UNL     1     -10.508   3.718  67.304  1.00  0.00     0.000 HD 
HETATM   27  O   UNL     1     -11.033   4.503  65.368  1.00  0.00    -0.256 OA 
ENDBRANCH  18  24
TORSDOF 3
ENDMDL
MODEL       53
REMARK 921   NORMALIZED FREE ENERGY PREDICTED BY IDOCK:   -4.37 KCAL/MOL
REMARK 922        TOTAL FREE ENERGY PREDICTED BY IDOCK:   -5.32 KCAL/MOL
REMARK 923 INTER-LIGAND FREE ENERGY PREDICTED BY IDOCK:   -5.08 KCAL/MOL
REMARK 924 INTRA-LIGAND FREE ENERGY PREDICTED BY IDOCK:   -0.24 KCAL/MOL
REMARK 927      BINDING AFFINITY PREDICTED BY RF-SCORE:    0.00 PKD
ROOT
HETATM    1  C   UNL     1      -9.381   9.757  70.038  1.00  0.00    -0.274 C  
HETATM    2  C   UNL     1      -7.961   9.776  70.046  1.00  0.00    -0.196 C  
HETATM    3  C   UNL     1      -8.590   9.570  68.717  1.00  0.00    -0.123 C  
HETATM    4  C   UNL     1     -10.614   9.883  68.658  1.00  0.00    -0.217 C  
HETATM    5  C   UNL     1      -9.909   7.981  69.737  1.00  0.00    -0.183 C  
HETATM    6  O   UNL     1     -11.521   9.965  67.560  1.00  0.00    -0.462 OA 
HETATM    7  C   UNL     1      -9.640  10.831  68.430  1.00  0.00    -0.177 C  
HETATM    8  C   UNL     1      -9.217   6.913  70.641  1.00  0.00    -0.158 C  
HETATM    9  C   UNL     1      -9.429   5.413  70.236  1.00  0.00    -0.214 C  
HETATM   10  H   UNL     1     -12.460  10.110  67.533  1.00  0.00     0.000 HD 
HETATM   11  C   UNL     1      -9.433  10.048  66.750  1.00  0.00    -0.209 C  
HETATM   12  C   UNL     1      -9.602   5.141  68.745  1.00  0.00    -0.198 C  
HETATM   13  C   UNL     1      -9.872   8.378  66.759  1.00  0.00    -0.329 C  
HETATM   14  C   UNL     1      -9.800   7.427  68.113  1.00  0.00    -0.174 C  
HETATM   15  C   UNL     1     -10.582   6.094  68.094  1.00  0.00    -0.328 C  
HETATM   16  C   UNL     1     -11.143   5.594  66.773  1.00  0.00    -0.010 C  
HETATM   17  C   UNL     1     -10.174   4.895  65.852  1.00  0.00    -0.251 C  
HETATM   18  C   UNL     1      -9.000   4.211  66.523  1.00  0.00    -0.125 C  
HETATM   19  C   UNL     1      -8.855   4.292  68.013  1.00  0.00    -0.129 C  
ENDROOT
BRANCH   4  20
HETATM   20  C   UNL     1     -11.546  10.485  69.742  1.00  0.00    -0.368 C  
HETATM   21  C   UNL     1     -12.333  10.911  70.555  1.00  0.00    -0.463 C  
ENDBRANCH   4  20
BRANCH   7  22
HETATM   22  C   UNL     1      -9.676  12.334  68.415  1.00  0.00    -0.191 C  
HETATM   23  C   UNL     1      -8.254  12.880  68.289  1.00  0.00    -0.153 C  
ENDBRANCH   7  22
BRANCH  18  24
HETATM   24  N   UNL     1      -8.104   3.565  65.826  1.00  0.00    -0.093 NA 
HETATM   25  H   UNL     1      -6.283   2.840  66.065  1.00  0.00     0.000 HD 
HETATM   26  H   UNL     1      -8.235   3.278  64.856  1.00  0.00     0.000 HD 
HETATM   27  O   UNL     1      -6.934   3.310  66.573  1.00  0.00    -0.052 OA 
ENDBRANCH  18  24
TORSDOF 3
ENDMDL
MODEL       54
REMARK 921   NORMALIZED FREE ENERGY PREDICTED BY IDOCK:   -4.36 KCAL/MOL
REMARK 922        TOTAL FREE ENERGY PREDICTED BY IDOCK:   -5.31 KCAL/MOL
REMARK 923 INTER-LIGAND FREE ENERGY PREDICTED BY IDOCK:   -5.10 KCAL/MOL
REMARK 924 INTRA-LIGAND FREE ENERGY PREDICTED BY IDOCK:   -0.21 KCAL/MOL
REMARK 927      BINDING AFFINITY PREDICTED BY RF-SCORE:    0.00 PKD
ROOT
HETATM    1  C   UNL     1      -9.502  10.191  69.195  1.00  0.00    -0.215 C  
HETATM    2  C   UNL     1      -8.274  10.011  69.886  1.00  0.00    -0.175 C  
HETATM    3  C   UNL     1      -8.322   9.450  68.513  1.00  0.00    -0.118 C  
HETATM    4  C   UNL     1      -9.955  10.005  67.405  1.00  0.00    -0.197 C  
HETATM    5  C   UNL     1     -10.340   8.513  69.110  1.00  0.00    -0.227 C  
HETATM    6  O   UNL     1     -10.257   9.830  66.022  1.00  0.00    -0.259 OA 
HETATM    7  C   UNL     1      -8.749  10.669  67.460  1.00  0.00    -0.125 C  
HETATM    8  C   UNL     1     -10.424   7.737  70.462  1.00  0.00    -0.217 C  
HETATM    9  C   UNL     1     -10.867   6.234  70.377  1.00  0.00    -0.360 C  
HETATM   10  H   UNL     1     -11.014  10.087  65.509  1.00  0.00     0.000 HD 
HETATM   11  C   UNL     1      -8.093   9.334  66.334  1.00  0.00    -0.107 C  
HETATM   12  C   UNL     1     -10.473   5.493  69.104  1.00  0.00    -0.315 C  
HETATM   13  C   UNL     1      -8.953   7.848  66.529  1.00  0.00    -0.192 C  
HETATM   14  C   UNL     1      -9.727   7.423  67.930  1.00  0.00    -0.166 C  
HETATM   15  C   UNL     1     -10.775   6.290  67.853  1.00  0.00    -0.380 C  
HETATM   16  C   UNL     1     -10.851   5.449  66.589  1.00  0.00    -0.220 C  
HETATM   17  C   UNL     1      -9.830   4.345  66.452  1.00  0.00    -0.245 C  
HETATM   18  C   UNL     1      -9.292   3.777  67.751  1.00  0.00    -0.189 C  
HETATM   19  C   UNL     1      -9.766   4.346  69.055  1.00  0.00    -0.223 C  
ENDROOT
BRANCH   4  20
HETATM   20  C   UNL     1     -11.038  11.069  67.720  1.00  0.00    -0.356 C  
HETATM   21  C   UNL     1     -11.895  11.906  67.885  1.00  0.00    -0.308 C  
ENDBRANCH   4  20
BRANCH   7  22
HETATM   22  C   UNL     1      -8.344  12.063  67.070  1.00  0.00    -0.178 C  
HETATM   23  C   UNL     1      -6.908  12.327  67.522  1.00  0.00    -0.135 C  
ENDBRANCH   7  22
BRANCH  18  24
HETATM   24  N   UNL     1      -8.414   2.812  67.754  1.00  0.00    -0.081 NA 
HETATM   25  H   UNL     1      -8.345   0.872  67.386  1.00  0.00     0.000 HD 
HETATM   26  H   UNL     1      -7.431   2.937  67.996  1.00  0.00     0.000 HD 
HETATM   27  O   UNL     1      -8.984   1.575  67.383  1.00  0.00    -0.111 OA 
ENDBRANCH  18  24
TORSDOF 3
ENDMDL
MODEL       55
REMARK 921   NORMALIZED FREE ENERGY PREDICTED BY IDOCK:   -4.28 KCAL/MOL
REMARK 922        TOTAL FREE ENERGY PREDICTED BY IDOCK:   -5.21 KCAL/MOL
REMARK 923 INTER-LIGAND FREE ENERGY PREDICTED BY IDOCK:   -5.01 KCAL/MOL
REMARK 924 INTRA-LIGAND FREE ENERGY PREDICTED BY IDOCK:   -0.20 KCAL/MOL
REMARK 927      BINDING AFFINITY PREDICTED BY RF-SCORE:    0.00 PKD
ROOT
HETATM    1  C   UNL     1      -9.415  12.050  68.884  1.00  0.00     0.132 C  
HETATM    2  C   UNL     1      -8.143  12.261  68.289  1.00  0.00    -0.166 C  
HETATM    3  C   UNL     1      -9.117  11.507  67.461  1.00  0.00    -0.166 C  
HETATM    4  C   UNL     1     -11.039  11.503  68.173  1.00  0.00    -0.246 C  
HETATM    5  C   UNL     1      -9.519  10.231  69.336  1.00  0.00    -0.225 C  
HETATM    6  O   UNL     1     -12.260  11.061  67.583  1.00  0.00    -0.360 OA 
HETATM    7  C   UNL     1     -10.498  12.427  67.306  1.00  0.00    -0.237 C  
HETATM    8  C   UNL     1      -8.296   9.664  70.123  1.00  0.00    -0.221 C  
HETATM    9  C   UNL     1      -8.226   8.105  70.276  1.00  0.00    -0.122 C  
HETATM   10  H   UNL     1     -13.151  11.059  67.913  1.00  0.00     0.000 HD 
HETATM   11  C   UNL     1     -10.692  11.126  65.982  1.00  0.00    -0.272 C  
HETATM   12  C   UNL     1      -8.832   7.294  69.135  1.00  0.00    -0.136 C  
HETATM   13  C   UNL     1     -10.635   9.529  66.637  1.00  0.00    -0.174 C  
HETATM   14  C   UNL     1      -9.842   9.149  68.039  1.00  0.00    -0.197 C  
HETATM   15  C   UNL     1     -10.194   7.807  68.720  1.00  0.00    -0.212 C  
HETATM   16  C   UNL     1     -11.026   6.793  67.951  1.00  0.00    -0.309 C  
HETATM   17  C   UNL     1     -10.292   5.946  66.942  1.00  0.00    -0.304 C  
HETATM   18  C   UNL     1      -8.820   5.715  67.218  1.00  0.00    -0.106 C  
HETATM   19  C   UNL     1      -8.190   6.346  68.423  1.00  0.00    -0.113 C  
ENDROOT
BRANCH   4  20
HETATM   20  C   UNL     1     -11.657  12.324  69.335  1.00  0.00    -0.378 C  
HETATM   21  C   UNL     1     -12.127  12.899  70.289  1.00  0.00    -0.377 C  
ENDBRANCH   4  20
BRANCH   7  22
HETATM   22  C   UNL     1     -10.938  13.804  66.892  1.00  0.00    -0.296 C  
HETATM   23  C   UNL     1      -9.806  14.499  66.137  1.00  0.00    -0.339 C  
ENDBRANCH   7  22
BRANCH  18  24
HETATM   24  N   UNL     1      -8.088   4.988  66.419  1.00  0.00    -0.107 NA 
HETATM   25  H   UNL     1      -7.004   5.219  64.784  1.00  0.00     0.000 HD 
HETATM   26  H   UNL     1      -7.931   3.987  66.541  1.00  0.00     0.000 HD 
HETATM   27  O   UNL     1      -7.537   5.748  65.366  1.00  0.00    -0.079 OA 
ENDBRANCH  18  24
TORSDOF 3
ENDMDL
MODEL       56
REMARK 921   NORMALIZED FREE ENERGY PREDICTED BY IDOCK:   -4.23 KCAL/MOL
REMARK 922        TOTAL FREE ENERGY PREDICTED BY IDOCK:   -5.16 KCAL/MOL
REMARK 923 INTER-LIGAND FREE ENERGY PREDICTED BY IDOCK:   -5.21 KCAL/MOL
REMARK 924 INTRA-LIGAND FREE ENERGY PREDICTED BY IDOCK:    0.05 KCAL/MOL
REMARK 927      BINDING AFFINITY PREDICTED BY RF-SCORE:    0.00 PKD
ROOT
HETATM    1  C   UNL     1      -9.755   7.547  71.553  1.00  0.00    -0.184 C  
HETATM    2  C   UNL     1      -9.755   8.171  72.829  1.00  0.00    -0.351 C  
HETATM    3  C   UNL     1     -10.286   8.996  71.714  1.00  0.00    -0.407 C  
HETATM    4  C   UNL     1     -10.601   7.983  69.960  1.00  0.00    -0.242 C  
HETATM    5  C   UNL     1      -8.410   8.369  70.535  1.00  0.00    -0.126 C  
HETATM    6  O   UNL     1     -11.257   8.371  68.755  1.00  0.00    -0.357 OA 
HETATM    7  C   UNL     1     -11.518   8.151  70.975  1.00  0.00    -0.301 C  
HETATM    8  C   UNL     1      -7.020   8.492  71.234  1.00  0.00    -0.075 C  
HETATM    9  C   UNL     1      -5.960   9.406  70.526  1.00  0.00    -0.055 C  
HETATM   10  H   UNL     1     -11.403   7.902  67.942  1.00  0.00     0.000 HD 
HETATM   11  C   UNL     1     -11.737   9.889  70.333  1.00  0.00    -0.333 C  
HETATM   12  C   UNL     1      -6.517  10.589  69.741  1.00  0.00    -0.102 C  
HETATM   13  C   UNL     1     -10.316  10.465  69.537  1.00  0.00    -0.264 C  
HETATM   14  C   UNL     1      -8.795   9.913  69.882  1.00  0.00    -0.222 C  
HETATM   15  C   UNL     1      -7.678  10.198  68.852  1.00  0.00    -0.093 C  
HETATM   16  C   UNL     1      -7.955  11.185  67.729  1.00  0.00    -0.116 C  
HETATM   17  C   UNL     1      -7.838  12.649  68.075  1.00  0.00    -0.149 C  
HETATM   18  C   UNL     1      -6.893  12.986  69.211  1.00  0.00    -0.019 C  
HETATM   19  C   UNL     1      -6.175  11.880  69.924  1.00  0.00    -0.139 C  
ENDROOT
BRANCH   4  20
HETATM   20  C   UNL     1     -10.549   6.458  69.685  1.00  0.00    -0.309 C  
HETATM   21  C   UNL     1     -10.487   5.285  69.394  1.00  0.00    -0.284 C  
ENDBRANCH   4  20
BRANCH   7  22
HETATM   22  C   UNL     1     -12.803   7.444  71.303  1.00  0.00    -0.365 C  
HETATM   23  C   UNL     1     -13.669   8.337  72.191  1.00  0.00    -0.329 C  
ENDBRANCH   7  22
BRANCH  18  24
HETATM   24  N   UNL     1      -6.704  14.221  69.589  1.00  0.00    -0.208 NA 
HETATM   25  H   UNL     1      -7.674  15.942  69.566  1.00  0.00     0.000 HD 
HETATM   26  H   UNL     1      -5.855  14.553  70.047  1.00  0.00     0.000 HD 
HETATM   27  O   UNL     1      -7.812  15.043  69.291  1.00  0.00    -0.176 OA 
ENDBRANCH  18  24
TORSDOF 3
ENDMDL
MODEL       57
REMARK 921   NORMALIZED FREE ENERGY PREDICTED BY IDOCK:   -4.22 KCAL/MOL
REMARK 922        TOTAL FREE ENERGY PREDICTED BY IDOCK:   -5.14 KCAL/MOL
REMARK 923 INTER-LIGAND FREE ENERGY PREDICTED BY IDOCK:   -4.91 KCAL/MOL
REMARK 924 INTRA-LIGAND FREE ENERGY PREDICTED BY IDOCK:   -0.23 KCAL/MOL
REMARK 927      BINDING AFFINITY PREDICTED BY RF-SCORE:    0.00 PKD
ROOT
HETATM    1  C   UNL     1     -11.099  10.940  67.285  1.00  0.00    -0.350 C  
HETATM    2  C   UNL     1     -11.858  11.262  68.442  1.00  0.00    -0.331 C  
HETATM    3  C   UNL     1     -10.430  11.667  68.481  1.00  0.00    -0.236 C  
HETATM    4  C   UNL     1      -9.435  11.512  66.696  1.00  0.00    -0.193 C  
HETATM    5  C   UNL     1      -9.945   9.536  67.753  1.00  0.00    -0.216 C  
HETATM    6  O   UNL     1      -8.144  11.967  66.297  1.00  0.00    -0.384 OA 
HETATM    7  C   UNL     1     -10.116  12.620  67.151  1.00  0.00    -0.224 C  
HETATM    8  C   UNL     1     -10.616   8.332  68.486  1.00  0.00    -0.143 C  
HETATM    9  C   UNL     1      -9.648   7.278  69.127  1.00  0.00    -0.155 C  
HETATM   10  H   UNL     1      -7.682  11.895  65.470  1.00  0.00     0.000 HD 
HETATM   11  C   UNL     1      -8.647  12.925  68.260  1.00  0.00    -0.170 C  
HETATM   12  C   UNL     1      -8.311   7.815  69.627  1.00  0.00    -0.129 C  
HETATM   13  C   UNL     1      -7.817  11.460  68.646  1.00  0.00    -0.139 C  
HETATM   14  C   UNL     1      -8.551   9.976  68.659  1.00  0.00    -0.123 C  
HETATM   15  C   UNL     1      -7.642   8.727  68.621  1.00  0.00    -0.097 C  
HETATM   16  C   UNL     1      -6.149   8.903  68.846  1.00  0.00    -0.044 C  
HETATM   17  C   UNL     1      -5.695   9.036  70.279  1.00  0.00    -0.033 C  
HETATM   18  C   UNL     1      -6.580   8.375  71.317  1.00  0.00    -0.053 C  
HETATM   19  C   UNL     1      -7.832   7.676  70.879  1.00  0.00    -0.090 C  
ENDROOT
BRANCH   4  20
HETATM   20  C   UNL     1      -9.998  11.220  65.281  1.00  0.00    -0.301 C  
HETATM   21  C   UNL     1     -10.363  11.008  64.148  1.00  0.00    -0.434 C  
ENDBRANCH   4  20
BRANCH   7  22
HETATM   22  C   UNL     1     -10.631  13.847  66.452  1.00  0.00    -0.280 C  
HETATM   23  C   UNL     1     -11.639  14.564  67.350  1.00  0.00    -0.406 C  
ENDBRANCH   7  22
BRANCH  18  24
HETATM   24  N   UNL     1      -6.279   8.416  72.587  1.00  0.00    -0.075 NA 
HETATM   25  H   UNL     1      -5.475   9.676  73.878  1.00  0.00     0.000 HD 
HETATM   26  H   UNL     1      -6.448   7.648  73.237  1.00  0.00     0.000 HD 
HETATM   27  O   UNL     1      -5.694   9.646  72.954  1.00  0.00    -0.304 OA 
ENDBRANCH  18  24
TORSDOF 3
ENDMDL
MODEL       58
REMARK 921   NORMALIZED FREE ENERGY PREDICTED BY IDOCK:   -4.19 KCAL/MOL
REMARK 922        TOTAL FREE ENERGY PREDICTED BY IDOCK:   -5.11 KCAL/MOL
REMARK 923 INTER-LIGAND FREE ENERGY PREDICTED BY IDOCK:   -4.87 KCAL/MOL
REMARK 924 INTRA-LIGAND FREE ENERGY PREDICTED BY IDOCK:   -0.24 KCAL/MOL
REMARK 927      BINDING AFFINITY PREDICTED BY RF-SCORE:    0.00 PKD
ROOT
HETATM    1  C   UNL     1     -10.388   9.642  70.790  1.00  0.00    -0.356 C  
HETATM    2  C   UNL     1     -11.423  10.356  70.131  1.00  0.00    -0.396 C  
HETATM    3  C   UNL     1     -11.172   8.984  69.625  1.00  0.00     0.007 C  
HETATM    4  C   UNL     1      -9.928   7.844  70.789  1.00  0.00    -0.184 C  
HETATM    5  C   UNL     1      -8.938   9.545  69.601  1.00  0.00    -0.198 C  
HETATM    6  O   UNL     1      -9.603   6.457  70.739  1.00  0.00    -0.177 OA 
HETATM    7  C   UNL     1     -11.299   7.920  70.901  1.00  0.00    -0.290 C  
HETATM    8  C   UNL     1      -8.522  10.897  68.941  1.00  0.00    -0.142 C  
HETATM    9  C   UNL     1      -7.504  10.807  67.750  1.00  0.00    -0.094 C  
HETATM   10  H   UNL     1      -9.026   5.928  71.278  1.00  0.00     0.000 HD 
HETATM   11  C   UNL     1     -11.369   6.810  69.404  1.00  0.00    -0.255 C  
HETATM   12  C   UNL     1      -7.581   9.543  66.900  1.00  0.00    -0.095 C  
HETATM   13  C   UNL     1      -9.973   6.992  68.403  1.00  0.00    -0.160 C  
HETATM   14  C   UNL     1      -9.071   8.379  68.345  1.00  0.00    -0.135 C  
HETATM   15  C   UNL     1      -7.652   8.285  67.739  1.00  0.00    -0.102 C  
HETATM   16  C   UNL     1      -7.259   7.022  66.990  1.00  0.00    -0.081 C  
HETATM   17  C   UNL     1      -7.740   6.907  65.565  1.00  0.00    -0.101 C  
HETATM   18  C   UNL     1      -7.977   8.216  64.839  1.00  0.00    -0.145 C  
HETATM   19  C   UNL     1      -7.758   9.509  65.564  1.00  0.00    -0.105 C  
ENDROOT
BRANCH   4  20
HETATM   20  C   UNL     1      -9.370   8.137  72.206  1.00  0.00    -0.290 C  
HETATM   21  C   UNL     1      -8.899   8.291  73.309  1.00  0.00    -0.283 C  
ENDBRANCH   4  20
BRANCH   7  22
HETATM   22  C   UNL     1     -12.245   7.535  72.004  1.00  0.00    -0.314 C  
HETATM   23  C   UNL     1     -13.610   8.178  71.758  1.00  0.00    -0.397 C  
ENDBRANCH   7  22
BRANCH  18  24
HETATM   24  N   UNL     1      -8.383   8.237  63.598  1.00  0.00    -0.370 NA 
HETATM   25  H   UNL     1      -9.334   9.460  62.373  1.00  0.00     0.000 HD 
HETATM   26  H   UNL     1      -8.243   7.472  62.939  1.00  0.00     0.000 HD 
HETATM   27  O   UNL     1      -9.039   9.445  63.276  1.00  0.00    -0.204 OA 
ENDBRANCH  18  24
TORSDOF 3
ENDMDL
MODEL       59
REMARK 921   NORMALIZED FREE ENERGY PREDICTED BY IDOCK:   -4.18 KCAL/MOL
REMARK 922        TOTAL FREE ENERGY PREDICTED BY IDOCK:   -5.09 KCAL/MOL
REMARK 923 INTER-LIGAND FREE ENERGY PREDICTED BY IDOCK:   -4.88 KCAL/MOL
REMARK 924 INTRA-LIGAND FREE ENERGY PREDICTED BY IDOCK:   -0.21 KCAL/MOL
REMARK 927      BINDING AFFINITY PREDICTED BY RF-SCORE:    0.00 PKD
ROOT
HETATM    1  C   UNL     1      -9.241   5.135  71.427  1.00  0.00    -0.180 C  
HETATM    2  C   UNL     1      -7.931   4.985  70.899  1.00  0.00    -0.092 C  
HETATM    3  C   UNL     1      -8.252   6.330  71.439  1.00  0.00    -0.122 C  
HETATM    4  C   UNL     1     -10.003   6.443  72.500  1.00  0.00    -0.171 C  
HETATM    5  C   UNL     1     -10.204   6.205  70.223  1.00  0.00    -0.254 C  
HETATM    6  O   UNL     1     -10.546   7.484  73.309  1.00  0.00    -0.356 OA 
HETATM    7  C   UNL     1      -8.758   6.156  73.017  1.00  0.00    -0.121 C  
HETATM    8  C   UNL     1     -10.117   5.775  68.725  1.00  0.00    -0.231 C  
HETATM    9  C   UNL     1     -10.679   6.793  67.672  1.00  0.00    -0.357 C  
HETATM   10  H   UNL     1     -11.358   7.536  73.800  1.00  0.00     0.000 HD 
HETATM   11  C   UNL     1      -8.405   7.982  72.874  1.00  0.00    -0.229 C  
HETATM   12  C   UNL     1     -10.563   8.268  68.042  1.00  0.00    -0.188 C  
HETATM   13  C   UNL     1      -9.328   8.720  71.614  1.00  0.00    -0.345 C  
HETATM   14  C   UNL     1      -9.883   7.893  70.292  1.00  0.00    -0.184 C  
HETATM   15  C   UNL     1     -11.011   8.546  69.461  1.00  0.00    -0.057 C  
HETATM   16  C   UNL     1     -11.363  10.002  69.722  1.00  0.00    -0.281 C  
HETATM   17  C   UNL     1     -10.466  11.036  69.087  1.00  0.00    -0.238 C  
HETATM   18  C   UNL     1      -9.760  10.608  67.816  1.00  0.00    -0.161 C  
HETATM   19  C   UNL     1      -9.962   9.216  67.295  1.00  0.00    -0.270 C  
ENDROOT
BRANCH   4  20
HETATM   20  C   UNL     1     -10.934   5.300  72.979  1.00  0.00    -0.354 C  
HETATM   21  C   UNL     1     -11.656   4.440  73.429  1.00  0.00    -0.225 C  
ENDBRANCH   4  20
BRANCH   7  22
HETATM   22  C   UNL     1      -8.322   5.540  74.317  1.00  0.00    -0.110 C  
HETATM   23  C   UNL     1      -6.875   5.061  74.199  1.00  0.00    -0.076 C  
ENDBRANCH   7  22
BRANCH  18  24
HETATM   24  N   UNL     1      -8.969  11.423  67.174  1.00  0.00    -0.159 NA 
HETATM   25  H   UNL     1      -7.090  11.494  66.570  1.00  0.00     0.000 HD 
HETATM   26  H   UNL     1      -9.259  12.333  66.814  1.00  0.00     0.000 HD 
HETATM   27  O   UNL     1      -7.666  10.900  67.036  1.00  0.00    -0.117 OA 
ENDBRANCH  18  24
TORSDOF 3
ENDMDL
MODEL       60
REMARK 921   NORMALIZED FREE ENERGY PREDICTED BY IDOCK:   -4.15 KCAL/MOL
REMARK 922        TOTAL FREE ENERGY PREDICTED BY IDOCK:   -5.06 KCAL/MOL
REMARK 923 INTER-LIGAND FREE ENERGY PREDICTED BY IDOCK:   -4.93 KCAL/MOL
REMARK 924 INTRA-LIGAND FREE ENERGY PREDICTED BY IDOCK:   -0.13 KCAL/MOL
REMARK 927      BINDING AFFINITY PREDICTED BY RF-SCORE:    0.00 PKD
ROOT
HETATM    1  C   UNL     1      -8.605   6.593  70.834  1.00  0.00    -0.134 C  
HETATM    2  C   UNL     1      -8.041   7.496  71.774  1.00  0.00    -0.107 C  
HETATM    3  C   UNL     1      -9.298   7.950  71.127  1.00  0.00    -0.171 C  
HETATM    4  C   UNL     1     -10.281   6.517  70.041  1.00  0.00    -0.184 C  
HETATM    5  C   UNL     1      -8.334   7.330  69.129  1.00  0.00    -0.132 C  
HETATM    6  O   UNL     1     -11.576   6.512  69.445  1.00  0.00    -0.619 OA 
HETATM    7  C   UNL     1     -10.468   6.791  71.378  1.00  0.00    -0.238 C  
HETATM    8  C   UNL     1      -6.879   7.808  68.828  1.00  0.00    -0.059 C  
HETATM    9  C   UNL     1      -6.681   8.667  67.531  1.00  0.00    -0.066 C  
HETATM   10  H   UNL     1     -12.032   5.848  68.941  1.00  0.00     0.000 HD 
HETATM   11  C   UNL     1     -11.444   8.279  70.818  1.00  0.00    -0.268 C  
HETATM   12  C   UNL     1      -7.863   9.540  67.121  1.00  0.00    -0.095 C  
HETATM   13  C   UNL     1     -10.926   8.842  69.270  1.00  0.00    -0.026 C  
HETATM   14  C   UNL     1      -9.397   8.605  68.682  1.00  0.00    -0.142 C  
HETATM   15  C   UNL     1      -9.177   8.791  67.163  1.00  0.00    -0.167 C  
HETATM   16  C   UNL     1     -10.280   9.435  66.338  1.00  0.00    -0.300 C  
HETATM   17  C   UNL     1     -10.364  10.941  66.384  1.00  0.00    -0.306 C  
HETATM   18  C   UNL     1      -9.065  11.667  66.673  1.00  0.00    -0.194 C  
HETATM   19  C   UNL     1      -7.818  10.872  66.920  1.00  0.00    -0.135 C  
ENDROOT
BRANCH   4  20
HETATM   20  C   UNL     1     -10.009   4.992  69.956  1.00  0.00    -0.324 C  
HETATM   21  C   UNL     1      -9.726   3.817  69.929  1.00  0.00    -0.200 C  
ENDBRANCH   4  20
BRANCH   7  22
HETATM   22  C   UNL     1     -11.111   6.010  72.491  1.00  0.00    -0.321 C  
HETATM   23  C   UNL     1     -10.777   6.659  73.834  1.00  0.00    -0.141 C  
ENDBRANCH   7  22
BRANCH  18  24
HETATM   24  N   UNL     1      -9.016  12.970  66.725  1.00  0.00    -0.335 NA 
HETATM   25  H   UNL     1      -9.836  14.520  65.817  1.00  0.00     0.000 HD 
HETATM   26  H   UNL     1      -8.427  13.492  67.374  1.00  0.00     0.000 HD 
HETATM   27  O   UNL     1      -9.872  13.571  65.779  1.00  0.00    -0.268 OA 
ENDBRANCH  18  24
TORSDOF 3
ENDMDL
MODEL       61
REMARK 921   NORMALIZED FREE ENERGY PREDICTED BY IDOCK:   -4.07 KCAL/MOL
REMARK 922        TOTAL FREE ENERGY PREDICTED BY IDOCK:   -4.97 KCAL/MOL
REMARK 923 INTER-LIGAND FREE ENERGY PREDICTED BY IDOCK:   -4.78 KCAL/MOL
REMARK 924 INTRA-LIGAND FREE ENERGY PREDICTED BY IDOCK:   -0.19 KCAL/MOL
REMARK 927      BINDING AFFINITY PREDICTED BY RF-SCORE:    0.00 PKD
ROOT
HETATM    1  C   UNL     1      -8.462   6.512  72.330  1.00  0.00    -0.118 C  
HETATM    2  C   UNL     1      -9.298   7.254  73.207  1.00  0.00    -0.226 C  
HETATM    3  C   UNL     1      -9.944   6.781  71.956  1.00  0.00    -0.183 C  
HETATM    4  C   UNL     1      -8.845   5.435  70.869  1.00  0.00    -0.138 C  
HETATM    5  C   UNL     1      -8.100   7.609  70.851  1.00  0.00    -0.103 C  
HETATM    6  O   UNL     1      -9.189   4.633  69.741  1.00  0.00    -0.104 OA 
HETATM    7  C   UNL     1      -9.753   5.128  71.858  1.00  0.00    -0.211 C  
HETATM    8  C   UNL     1      -7.622   9.056  71.189  1.00  0.00    -0.130 C  
HETATM    9  C   UNL     1      -7.574  10.072  69.996  1.00  0.00    -0.182 C  
HETATM   10  H   UNL     1      -8.680   4.009  69.237  1.00  0.00     0.000 HD 
HETATM   11  C   UNL     1     -11.077   5.488  70.594  1.00  0.00    -0.094 C  
HETATM   12  C   UNL     1      -8.606   9.857  68.893  1.00  0.00    -0.135 C  
HETATM   13  C   UNL     1     -10.540   6.618  69.403  1.00  0.00    -0.279 C  
HETATM   14  C   UNL     1      -9.359   7.744  69.687  1.00  0.00    -0.153 C  
HETATM   15  C   UNL     1      -8.695   8.410  68.460  1.00  0.00    -0.136 C  
HETATM   16  C   UNL     1      -9.327   8.214  67.091  1.00  0.00    -0.183 C  
HETATM   17  C   UNL     1     -10.514   9.087  66.766  1.00  0.00    -0.270 C  
HETATM   18  C   UNL     1     -10.567  10.423  67.479  1.00  0.00    -0.262 C  
HETATM   19  C   UNL     1      -9.488  10.778  68.458  1.00  0.00    -0.181 C  
ENDROOT
BRANCH   4  20
HETATM   20  C   UNL     1      -7.535   4.699  71.254  1.00  0.00    -0.075 C  
HETATM   21  C   UNL     1      -6.560   4.067  71.591  1.00  0.00    -0.019 C  
ENDBRANCH   4  20
BRANCH   7  22
HETATM   22  C   UNL     1      -9.988   3.881  72.664  1.00  0.00    -0.217 C  
HETATM   23  C   UNL     1     -10.967   4.179  73.799  1.00  0.00    -0.331 C  
ENDBRANCH   7  22
BRANCH  18  24
HETATM   24  N   UNL     1     -11.542  11.265  67.267  1.00  0.00    -0.543 NA 
HETATM   25  H   UNL     1     -13.091  12.012  68.239  1.00  0.00     0.000 HD 
HETATM   26  H   UNL     1     -11.681  11.767  66.390  1.00  0.00     0.000 HD 
HETATM   27  O   UNL     1     -12.381  11.400  68.394  1.00  0.00    -0.505 OA 
ENDBRANCH  18  24
TORSDOF 3
ENDMDL
MODEL       62
REMARK 921   NORMALIZED FREE ENERGY PREDICTED BY IDOCK:   -4.04 KCAL/MOL
REMARK 922        TOTAL FREE ENERGY PREDICTED BY IDOCK:   -4.93 KCAL/MOL
REMARK 923 INTER-LIGAND FREE ENERGY PREDICTED BY IDOCK:   -4.71 KCAL/MOL
REMARK 924 INTRA-LIGAND FREE ENERGY PREDICTED BY IDOCK:   -0.22 KCAL/MOL
REMARK 927      BINDING AFFINITY PREDICTED BY RF-SCORE:    0.00 PKD
ROOT
HETATM    1  C   UNL     1      -9.304   8.786  67.765  1.00  0.00    -0.157 C  
HETATM    2  C   UNL     1     -10.608   8.457  67.309  1.00  0.00    -0.328 C  
HETATM    3  C   UNL     1     -10.515   8.875  68.731  1.00  0.00    -0.223 C  
HETATM    4  C   UNL     1      -8.708   9.670  69.284  1.00  0.00    -0.159 C  
HETATM    5  C   UNL     1      -8.752   7.403  68.907  1.00  0.00    -0.132 C  
HETATM    6  O   UNL     1      -8.300  10.337  70.476  1.00  0.00    -0.335 OA 
HETATM    7  C   UNL     1      -9.786  10.372  68.793  1.00  0.00    -0.190 C  
HETATM    8  C   UNL     1      -8.936   5.957  68.348  1.00  0.00    -0.112 C  
HETATM    9  C   UNL     1      -8.742   4.783  69.370  1.00  0.00    -0.107 C  
HETATM   10  H   UNL     1      -7.462  10.705  70.733  1.00  0.00     0.000 HD 
HETATM   11  C   UNL     1     -10.536  10.184  70.491  1.00  0.00    -0.243 C  
HETATM   12  C   UNL     1      -9.122   5.087  70.816  1.00  0.00    -0.174 C  
HETATM   13  C   UNL     1      -9.959   8.769  71.296  1.00  0.00    -0.333 C  
HETATM   14  C   UNL     1      -9.414   7.427  70.494  1.00  0.00    -0.161 C  
HETATM   15  C   UNL     1      -8.566   6.411  71.294  1.00  0.00    -0.127 C  
HETATM   16  C   UNL     1      -8.502   6.543  72.807  1.00  0.00    -0.120 C  
HETATM   17  C   UNL     1      -9.671   5.987  73.581  1.00  0.00    -0.165 C  
HETATM   18  C   UNL     1     -10.426   4.853  72.916  1.00  0.00    -0.204 C  
HETATM   19  C   UNL     1     -10.001   4.384  71.557  1.00  0.00    -0.250 C  
ENDROOT
BRANCH   4  20
HETATM   20  C   UNL     1      -7.501  10.072  68.397  1.00  0.00    -0.082 C  
HETATM   21  C   UNL     1      -6.540  10.442  67.763  1.00  0.00    -0.065 C  
ENDBRANCH   4  20
BRANCH   7  22
HETATM   22  C   UNL     1      -9.913  11.752  68.208  1.00  0.00    -0.200 C  
HETATM   23  C   UNL     1     -11.287  11.911  67.558  1.00  0.00    -0.381 C  
ENDBRANCH   7  22
BRANCH  18  24
HETATM   24  N   UNL     1     -11.448   4.287  73.499  1.00  0.00    -0.235 NA 
HETATM   25  H   UNL     1     -12.046   2.475  74.006  1.00  0.00     0.000 HD 
HETATM   26  H   UNL     1     -12.257   4.798  73.852  1.00  0.00     0.000 HD 
HETATM   27  O   UNL     1     -11.302   2.886  73.583  1.00  0.00    -0.228 OA 
ENDBRANCH  18  24
TORSDOF 3
ENDMDL
MODEL       63
REMARK 921   NORMALIZED FREE ENERGY PREDICTED BY IDOCK:   -4.01 KCAL/MOL
REMARK 922        TOTAL FREE ENERGY PREDICTED BY IDOCK:   -4.90 KCAL/MOL
REMARK 923 INTER-LIGAND FREE ENERGY PREDICTED BY IDOCK:   -5.41 KCAL/MOL
REMARK 924 INTRA-LIGAND FREE ENERGY PREDICTED BY IDOCK:    0.51 KCAL/MOL
REMARK 927      BINDING AFFINITY PREDICTED BY RF-SCORE:    0.00 PKD
ROOT
HETATM    1  C   UNL     1     -10.415   6.903  72.329  1.00  0.00    -0.233 C  
HETATM    2  C   UNL     1     -11.835   6.845  72.317  1.00  0.00    -0.274 C  
HETATM    3  C   UNL     1     -11.143   5.650  71.771  1.00  0.00    -0.265 C  
HETATM    4  C   UNL     1      -9.121   5.593  72.103  1.00  0.00    -0.140 C  
HETATM    5  C   UNL     1      -9.856   7.119  70.550  1.00  0.00    -0.181 C  
HETATM    6  O   UNL     1      -8.165   4.553  71.904  1.00  0.00    -0.099 OA 
HETATM    7  C   UNL     1     -10.093   5.075  72.931  1.00  0.00    -0.206 C  
HETATM    8  C   UNL     1     -10.578   8.250  69.753  1.00  0.00    -0.228 C  
HETATM    9  C   UNL     1     -10.332   8.279  68.204  1.00  0.00    -0.253 C  
HETATM   10  H   UNL     1      -7.228   4.526  72.057  1.00  0.00     0.000 HD 
HETATM   11  C   UNL     1     -10.214   3.664  71.716  1.00  0.00    -0.077 C  
HETATM   12  C   UNL     1     -10.087   6.927  67.542  1.00  0.00    -0.222 C  
HETATM   13  C   UNL     1      -9.759   4.147  70.121  1.00  0.00    -0.278 C  
HETATM   14  C   UNL     1      -9.884   5.704  69.573  1.00  0.00    -0.238 C  
HETATM   15  C   UNL     1      -9.088   6.083  68.304  1.00  0.00    -0.111 C  
HETATM   16  C   UNL     1      -8.461   4.972  67.476  1.00  0.00    -0.105 C  
HETATM   17  C   UNL     1      -9.379   4.237  66.530  1.00  0.00    -0.174 C  
HETATM   18  C   UNL     1     -10.576   5.020  66.028  1.00  0.00    -0.232 C  
HETATM   19  C   UNL     1     -10.791   6.424  66.508  1.00  0.00    -0.101 C  
ENDROOT
BRANCH   4  20
HETATM   20  C   UNL     1      -8.247   6.509  72.998  1.00  0.00    -0.111 C  
HETATM   21  C   UNL     1      -7.563   7.277  73.634  1.00  0.00    -0.119 C  
ENDBRANCH   4  20
BRANCH   7  22
HETATM   22  C   UNL     1     -10.072   4.652  74.373  1.00  0.00    -0.255 C  
HETATM   23  C   UNL     1      -9.186   3.418  74.534  1.00  0.00    -0.108 C  
ENDBRANCH   7  22
BRANCH  18  24
HETATM   24  N   UNL     1     -11.431   4.489  65.198  1.00  0.00    -1.109 NA 
HETATM   25  H   UNL     1     -11.418   3.522  63.476  1.00  0.00     0.000 HD 
HETATM   26  H   UNL     1     -12.442   4.493  65.339  1.00  0.00     0.000 HD 
HETATM   27  O   UNL     1     -10.795   3.907  64.081  1.00  0.00    -0.287 OA 
ENDBRANCH  18  24
TORSDOF 3
ENDMDL
MODEL       64
REMARK 921   NORMALIZED FREE ENERGY PREDICTED BY IDOCK:   -4.01 KCAL/MOL
REMARK 922        TOTAL FREE ENERGY PREDICTED BY IDOCK:   -4.89 KCAL/MOL
REMARK 923 INTER-LIGAND FREE ENERGY PREDICTED BY IDOCK:   -4.70 KCAL/MOL
REMARK 924 INTRA-LIGAND FREE ENERGY PREDICTED BY IDOCK:   -0.19 KCAL/MOL
REMARK 927      BINDING AFFINITY PREDICTED BY RF-SCORE:    0.00 PKD
ROOT
HETATM    1  C   UNL     1      -8.327   5.621  65.533  1.00  0.00    -0.139 C  
HETATM    2  C   UNL     1      -7.069   6.248  65.741  1.00  0.00    -0.069 C  
HETATM    3  C   UNL     1      -7.584   5.454  66.885  1.00  0.00    -0.089 C  
HETATM    4  C   UNL     1      -9.213   4.283  66.464  1.00  0.00    -0.149 C  
HETATM    5  C   UNL     1      -9.586   6.548  66.570  1.00  0.00    -0.184 C  
HETATM    6  O   UNL     1      -9.862   3.266  67.225  1.00  0.00    -0.336 OA 
HETATM    7  C   UNL     1      -7.892   3.905  66.353  1.00  0.00    -0.090 C  
HETATM    8  C   UNL     1      -9.566   8.102  66.420  1.00  0.00    -0.286 C  
HETATM    9  C   UNL     1     -10.409   8.915  67.463  1.00  0.00    -0.328 C  
HETATM   10  H   UNL     1     -10.617   2.724  67.030  1.00  0.00     0.000 HD 
HETATM   11  C   UNL     1      -7.904   3.737  68.211  1.00  0.00    -0.072 C  
HETATM   12  C   UNL     1     -10.537   8.292  68.849  1.00  0.00    -0.160 C  
HETATM   13  C   UNL     1      -9.068   4.781  68.944  1.00  0.00    -0.156 C  
HETATM   14  C   UNL     1      -9.584   6.195  68.253  1.00  0.00    -0.122 C  
HETATM   15  C   UNL     1     -10.889   6.821  68.792  1.00  0.00    -0.280 C  
HETATM   16  C   UNL     1     -11.482   6.279  70.083  1.00  0.00    -0.452 C  
HETATM   17  C   UNL     1     -10.862   6.771  71.368  1.00  0.00    -0.269 C  
HETATM   18  C   UNL     1     -10.215   8.140  71.307  1.00  0.00    -0.195 C  
HETATM   19  C   UNL     1     -10.201   8.891  70.009  1.00  0.00    -0.214 C  
ENDROOT
BRANCH   4  20
HETATM   20  C   UNL     1      -9.861   3.961  65.093  1.00  0.00    -0.184 C  
HETATM   21  C   UNL     1     -10.427   3.763  64.042  1.00  0.00    -0.271 C  
ENDBRANCH   4  20
BRANCH   7  22
HETATM   22  C   UNL     1      -7.223   2.769  65.632  1.00  0.00    -0.066 C  
HETATM   23  C   UNL     1      -5.706   2.909  65.747  1.00  0.00    -0.018 C  
ENDBRANCH   7  22
BRANCH  18  24
HETATM   24  N   UNL     1      -9.658   8.672  72.361  1.00  0.00    -0.279 NA 
HETATM   25  H   UNL     1      -9.568   8.353  74.308  1.00  0.00     0.000 HD 
HETATM   26  H   UNL     1      -9.064   9.501  72.334  1.00  0.00     0.000 HD 
HETATM   27  O   UNL     1      -9.973   7.966  73.541  1.00  0.00    -0.296 OA 
ENDBRANCH  18  24
TORSDOF 3
ENDMDL
MODEL       65
REMARK 921   NORMALIZED FREE ENERGY PREDICTED BY IDOCK:   -4.00 KCAL/MOL
REMARK 922        TOTAL FREE ENERGY PREDICTED BY IDOCK:   -4.89 KCAL/MOL
REMARK 923 INTER-LIGAND FREE ENERGY PREDICTED BY IDOCK:   -4.86 KCAL/MOL
REMARK 924 INTRA-LIGAND FREE ENERGY PREDICTED BY IDOCK:   -0.02 KCAL/MOL
REMARK 927      BINDING AFFINITY PREDICTED BY RF-SCORE:    0.00 PKD
ROOT
HETATM    1  C   UNL     1      -8.191  17.505  67.504  1.00  0.00    -0.213 C  
HETATM    2  C   UNL     1      -9.189  17.763  68.481  1.00  0.00    -0.281 C  
HETATM    3  C   UNL     1      -8.097  16.853  68.908  1.00  0.00    -0.219 C  
HETATM    4  C   UNL     1      -6.498  16.757  67.630  1.00  0.00    -0.149 C  
HETATM    5  C   UNL     1      -8.432  15.738  66.921  1.00  0.00    -0.281 C  
HETATM    6  O   UNL     1      -5.212  16.158  67.776  1.00  0.00    -0.115 OA 
HETATM    7  C   UNL     1      -6.642  17.633  68.683  1.00  0.00    -0.209 C  
HETATM    8  C   UNL     1      -9.892  15.356  66.523  1.00  0.00    -0.288 C  
HETATM    9  C   UNL     1     -10.177  13.830  66.294  1.00  0.00    -0.298 C  
HETATM   10  H   UNL     1      -4.471  16.113  67.183  1.00  0.00     0.000 HD 
HETATM   11  C   UNL     1      -6.198  16.197  69.789  1.00  0.00    -0.184 C  
HETATM   12  C   UNL     1      -9.345  12.863  67.130  1.00  0.00    -0.229 C  
HETATM   13  C   UNL     1      -6.628  14.682  69.079  1.00  0.00    -0.102 C  
HETATM   14  C   UNL     1      -7.850  14.510  67.975  1.00  0.00    -0.138 C  
HETATM   15  C   UNL     1      -7.873  13.217  67.129  1.00  0.00    -0.061 C  
HETATM   16  C   UNL     1      -6.963  12.066  67.527  1.00  0.00    -0.130 C  
HETATM   17  C   UNL     1      -7.442  11.188  68.657  1.00  0.00    -0.119 C  
HETATM   18  C   UNL     1      -8.944  11.110  68.842  1.00  0.00    -0.081 C  
HETATM   19  C   UNL     1      -9.839  11.907  67.942  1.00  0.00    -0.190 C  
ENDROOT
BRANCH   4  20
HETATM   20  C   UNL     1      -6.179  17.633  66.391  1.00  0.00    -0.255 C  
HETATM   21  C   UNL     1      -5.964  18.259  65.379  1.00  0.00    -0.241 C  
ENDBRANCH   4  20
BRANCH   7  22
HETATM   22  C   UNL     1      -5.948  18.921  69.030  1.00  0.00    -0.240 C  
HETATM   23  C   UNL     1      -6.960  19.913  69.601  1.00  0.00    -0.226 C  
ENDBRANCH   7  22
BRANCH  18  24
HETATM   24  N   UNL     1      -9.472  10.372  69.781  1.00  0.00    -0.415 NA 
HETATM   25  H   UNL     1      -8.876   9.213  71.265  1.00  0.00     0.000 HD 
HETATM   26  H   UNL     1     -10.477  10.258  69.918  1.00  0.00     0.000 HD 
HETATM   27  O   UNL     1      -8.491   9.751  70.582  1.00  0.00    -0.200 OA 
ENDBRANCH  18  24
TORSDOF 3
ENDMDL
MODEL       66
REMARK 921   NORMALIZED FREE ENERGY PREDICTED BY IDOCK:   -3.95 KCAL/MOL
REMARK 922        TOTAL FREE ENERGY PREDICTED BY IDOCK:   -4.82 KCAL/MOL
REMARK 923 INTER-LIGAND FREE ENERGY PREDICTED BY IDOCK:   -4.80 KCAL/MOL
REMARK 924 INTRA-LIGAND FREE ENERGY PREDICTED BY IDOCK:   -0.02 KCAL/MOL
REMARK 927      BINDING AFFINITY PREDICTED BY RF-SCORE:    0.00 PKD
ROOT
HETATM    1  C   UNL     1      -8.012  17.292  67.311  1.00  0.00    -0.207 C  
HETATM    2  C   UNL     1      -7.119  17.205  66.209  1.00  0.00    -0.280 C  
HETATM    3  C   UNL     1      -8.554  16.997  65.887  1.00  0.00    -0.027 C  
HETATM    4  C   UNL     1      -9.858  17.458  67.400  1.00  0.00    -0.281 C  
HETATM    5  C   UNL     1      -8.607  15.550  67.679  1.00  0.00    -0.175 C  
HETATM    6  O   UNL     1     -11.280  17.567  67.415  1.00  0.00    -0.027 OA 
HETATM    7  C   UNL     1      -9.411  18.321  66.423  1.00  0.00    -0.290 C  
HETATM    8  C   UNL     1      -7.488  14.469  67.792  1.00  0.00    -0.182 C  
HETATM    9  C   UNL     1      -7.963  12.974  67.827  1.00  0.00    -0.164 C  
HETATM   10  H   UNL     1     -11.884  17.780  68.116  1.00  0.00     0.000 HD 
HETATM   11  C   UNL     1     -10.609  17.463  65.279  1.00  0.00     0.061 C  
HETATM   12  C   UNL     1      -9.240  12.661  67.055  1.00  0.00    -0.212 C  
HETATM   13  C   UNL     1     -10.904  15.831  65.763  1.00  0.00    -0.286 C  
HETATM   14  C   UNL     1      -9.818  14.930  66.628  1.00  0.00    -0.272 C  
HETATM   15  C   UNL     1     -10.344  13.659  67.334  1.00  0.00    -0.244 C  
HETATM   16  C   UNL     1     -11.735  13.153  66.988  1.00  0.00    -0.431 C  
HETATM   17  C   UNL     1     -11.862  12.349  65.718  1.00  0.00    -0.467 C  
HETATM   18  C   UNL     1     -10.617  11.605  65.278  1.00  0.00    -0.281 C  
HETATM   19  C   UNL     1      -9.361  11.730  66.088  1.00  0.00    -0.236 C  
ENDROOT
BRANCH   4  20
HETATM   20  C   UNL     1      -9.582  18.169  68.750  1.00  0.00    -0.304 C  
HETATM   21  C   UNL     1      -9.444  18.750  69.802  1.00  0.00     0.674 C  
ENDBRANCH   4  20
BRANCH   7  22
HETATM   22  C   UNL     1      -9.419  19.821  66.318  1.00  0.00    -0.493 C  
HETATM   23  C   UNL     1      -8.069  20.307  65.793  1.00  0.00    -0.003 C  
ENDBRANCH   7  22
BRANCH  18  24
HETATM   24  N   UNL     1     -10.614  10.868  64.201  1.00  0.00    -0.441 NA 
HETATM   25  H   UNL     1      -9.326   9.832  63.119  1.00  0.00     0.000 HD 
HETATM   26  H   UNL     1     -11.444  10.676  63.639  1.00  0.00     0.000 HD 
HETATM   27  O   UNL     1      -9.328  10.368  63.904  1.00  0.00    -0.232 OA 
ENDBRANCH  18  24
TORSDOF 3
ENDMDL
MODEL       67
REMARK 921   NORMALIZED FREE ENERGY PREDICTED BY IDOCK:   -3.92 KCAL/MOL
REMARK 922        TOTAL FREE ENERGY PREDICTED BY IDOCK:   -4.79 KCAL/MOL
REMARK 923 INTER-LIGAND FREE ENERGY PREDICTED BY IDOCK:   -4.61 KCAL/MOL
REMARK 924 INTRA-LIGAND FREE ENERGY PREDICTED BY IDOCK:   -0.18 KCAL/MOL
REMARK 927      BINDING AFFINITY PREDICTED BY RF-SCORE:    0.00 PKD
ROOT
HETATM    1  C   UNL     1      -8.953  10.007  67.725  1.00  0.00    -0.133 C  
HETATM    2  C   UNL     1      -8.054  10.189  68.809  1.00  0.00    -0.111 C  
HETATM    3  C   UNL     1      -7.773   9.022  67.936  1.00  0.00    -0.097 C  
HETATM    4  C   UNL     1      -8.854   8.961  66.196  1.00  0.00    -0.161 C  
HETATM    5  C   UNL     1     -10.011   8.510  68.130  1.00  0.00    -0.214 C  
HETATM    6  O   UNL     1      -8.739   8.125  65.046  1.00  0.00    -0.354 OA 
HETATM    7  C   UNL     1      -7.626   9.561  66.367  1.00  0.00    -0.097 C  
HETATM    8  C   UNL     1     -10.649   8.505  69.555  1.00  0.00    -0.215 C  
HETATM    9  C   UNL     1     -11.306   7.160  70.020  1.00  0.00    -0.242 C  
HETATM   10  H   UNL     1      -9.240   8.097  64.240  1.00  0.00     0.000 HD 
HETATM   11  C   UNL     1      -6.905   7.842  66.304  1.00  0.00    -0.062 C  
HETATM   12  C   UNL     1     -10.678   5.884  69.470  1.00  0.00    -0.414 C  
HETATM   13  C   UNL     1      -8.036   6.650  66.838  1.00  0.00    -0.113 C  
HETATM   14  C   UNL     1      -9.269   6.977  67.894  1.00  0.00    -0.125 C  
HETATM   15  C   UNL     1     -10.428   5.958  67.979  1.00  0.00    -0.294 C  
HETATM   16  C   UNL     1     -10.259   4.601  67.314  1.00  0.00    -0.119 C  
HETATM   17  C   UNL     1      -9.463   3.572  68.077  1.00  0.00    -0.217 C  
HETATM   18  C   UNL     1      -9.465   3.719  69.586  1.00  0.00    -0.188 C  
HETATM   19  C   UNL     1     -10.209   4.861  70.212  1.00  0.00    -0.299 C  
ENDROOT
BRANCH   4  20
HETATM   20  C   UNL     1      -9.772  10.045  65.573  1.00  0.00    -0.355 C  
HETATM   21  C   UNL     1     -10.431  10.901  65.028  1.00  0.00    -0.331 C  
ENDBRANCH   4  20
BRANCH   7  22
HETATM   22  C   UNL     1      -6.876  10.578  65.552  1.00  0.00    -0.100 C  
HETATM   23  C   UNL     1      -5.684  11.101  66.354  1.00  0.00    -0.146 C  
ENDBRANCH   7  22
BRANCH  18  24
HETATM   24  N   UNL     1      -8.820   2.879  70.348  1.00  0.00    -0.075 NA 
HETATM   25  H   UNL     1      -9.215   1.570  71.774  1.00  0.00     0.000 HD 
HETATM   26  H   UNL     1      -7.810   2.742  70.319  1.00  0.00     0.000 HD 
HETATM   27  O   UNL     1      -9.685   2.181  71.218  1.00  0.00    -0.145 OA 
ENDBRANCH  18  24
TORSDOF 3
ENDMDL
MODEL       68
REMARK 921   NORMALIZED FREE ENERGY PREDICTED BY IDOCK:   -3.91 KCAL/MOL
REMARK 922        TOTAL FREE ENERGY PREDICTED BY IDOCK:   -4.77 KCAL/MOL
REMARK 923 INTER-LIGAND FREE ENERGY PREDICTED BY IDOCK:   -4.66 KCAL/MOL
REMARK 924 INTRA-LIGAND FREE ENERGY PREDICTED BY IDOCK:   -0.12 KCAL/MOL
REMARK 927      BINDING AFFINITY PREDICTED BY RF-SCORE:    0.00 PKD
ROOT
HETATM    1  C   UNL     1     -10.037   6.699  67.058  1.00  0.00    -0.247 C  
HETATM    2  C   UNL     1     -10.170   8.111  66.991  1.00  0.00    -0.378 C  
HETATM    3  C   UNL     1      -8.956   7.617  67.688  1.00  0.00    -0.127 C  
HETATM    4  C   UNL     1      -8.597   5.609  67.484  1.00  0.00    -0.108 C  
HETATM    5  C   UNL     1     -10.358   6.196  68.838  1.00  0.00    -0.258 C  
HETATM    6  O   UNL     1      -7.465   4.815  67.837  1.00  0.00    -0.076 OA 
HETATM    7  C   UNL     1      -8.131   6.604  66.653  1.00  0.00    -0.110 C  
HETATM    8  C   UNL     1     -11.651   6.791  69.480  1.00  0.00    -0.183 C  
HETATM    9  C   UNL     1     -11.805   6.614  71.031  1.00  0.00    -0.427 C  
HETATM   10  H   UNL     1      -7.299   3.885  67.743  1.00  0.00     0.000 HD 
HETATM   11  C   UNL     1      -6.880   6.974  67.987  1.00  0.00    -0.074 C  
HETATM   12  C   UNL     1     -10.507   6.588  71.832  1.00  0.00    -0.233 C  
HETATM   13  C   UNL     1      -7.459   6.530  69.553  1.00  0.00    -0.093 C  
HETATM   14  C   UNL     1      -9.067   6.464  69.942  1.00  0.00    -0.142 C  
HETATM   15  C   UNL     1      -9.464   5.682  71.214  1.00  0.00    -0.179 C  
HETATM   16  C   UNL     1      -8.371   5.253  72.180  1.00  0.00    -0.125 C  
HETATM   17  C   UNL     1      -7.865   6.306  73.135  1.00  0.00    -0.106 C  
HETATM   18  C   UNL     1      -8.846   7.405  73.488  1.00  0.00    -0.187 C  
HETATM   19  C   UNL     1     -10.210   7.401  72.865  1.00  0.00    -0.310 C  
ENDROOT
BRANCH   4  20
HETATM   20  C   UNL     1      -9.292   4.577  66.559  1.00  0.00    -0.155 C  
HETATM   21  C   UNL     1      -9.761   3.753  65.808  1.00  0.00    -0.140 C  
ENDBRANCH   4  20
BRANCH   7  22
HETATM   22  C   UNL     1      -7.563   6.576  65.261  1.00  0.00    -0.088 C  
HETATM   23  C   UNL     1      -7.916   7.875  64.536  1.00  0.00    -0.140 C  
ENDBRANCH   7  22
BRANCH  18  24
HETATM   24  N   UNL     1      -8.522   8.362  74.314  1.00  0.00    -0.378 NA 
HETATM   25  H   UNL     1      -7.026   9.617  74.611  1.00  0.00     0.000 HD 
HETATM   26  H   UNL     1      -9.110   8.670  75.089  1.00  0.00     0.000 HD 
HETATM   27  O   UNL     1      -7.262   8.921  74.009  1.00  0.00    -0.393 OA 
ENDBRANCH  18  24
TORSDOF 3
ENDMDL
MODEL       69
REMARK 921   NORMALIZED FREE ENERGY PREDICTED BY IDOCK:   -3.77 KCAL/MOL
REMARK 922        TOTAL FREE ENERGY PREDICTED BY IDOCK:   -4.61 KCAL/MOL
REMARK 923 INTER-LIGAND FREE ENERGY PREDICTED BY IDOCK:   -4.69 KCAL/MOL
REMARK 924 INTRA-LIGAND FREE ENERGY PREDICTED BY IDOCK:    0.08 KCAL/MOL
REMARK 927      BINDING AFFINITY PREDICTED BY RF-SCORE:    0.00 PKD
ROOT
HETATM    1  C   UNL     1      -9.582   5.601  71.267  1.00  0.00    -0.198 C  
HETATM    2  C   UNL     1      -8.213   5.443  71.612  1.00  0.00    -0.118 C  
HETATM    3  C   UNL     1      -8.474   6.226  70.379  1.00  0.00    -0.134 C  
HETATM    4  C   UNL     1     -10.435   6.739  70.075  1.00  0.00    -0.210 C  
HETATM    5  C   UNL     1      -9.900   4.526  69.761  1.00  0.00    -0.295 C  
HETATM    6  O   UNL     1     -11.042   7.621  69.133  1.00  0.00    -0.430 OA 
HETATM    7  C   UNL     1      -9.499   7.483  70.760  1.00  0.00    -0.163 C  
HETATM    8  C   UNL     1      -9.388   3.055  69.867  1.00  0.00    -0.221 C  
HETATM    9  C   UNL     1      -9.393   2.218  68.540  1.00  0.00    -0.250 C  
HETATM   10  H   UNL     1     -11.951   7.858  68.992  1.00  0.00     0.000 HD 
HETATM   11  C   UNL     1      -8.827   7.964  69.088  1.00  0.00    -0.142 C  
HETATM   12  C   UNL     1      -9.170   3.004  67.253  1.00  0.00    -0.214 C  
HETATM   13  C   UNL     1      -9.144   6.756  67.895  1.00  0.00    -0.114 C  
HETATM   14  C   UNL     1      -9.351   5.154  68.257  1.00  0.00    -0.152 C  
HETATM   15  C   UNL     1     -10.015   4.258  67.187  1.00  0.00    -0.152 C  
HETATM   16  C   UNL     1     -10.193   4.808  65.781  1.00  0.00    -0.251 C  
HETATM   17  C   UNL     1      -8.980   4.768  64.884  1.00  0.00    -0.151 C  
HETATM   18  C   UNL     1      -7.970   3.680  65.186  1.00  0.00    -0.090 C  
HETATM   19  C   UNL     1      -8.209   2.754  66.341  1.00  0.00    -0.086 C  
ENDROOT
BRANCH   4  20
HETATM   20  C   UNL     1     -11.646   6.596  71.034  1.00  0.00    -0.399 C  
HETATM   21  C   UNL     1     -12.549   6.529  71.836  1.00  0.00    -0.238 C  
ENDBRANCH   4  20
BRANCH   7  22
HETATM   22  C   UNL     1      -9.628   8.625  71.729  1.00  0.00    -0.360 C  
HETATM   23  C   UNL     1      -8.706   8.391  72.925  1.00  0.00    -0.240 C  
ENDBRANCH   7  22
BRANCH  18  24
HETATM   24  N   UNL     1      -6.888   3.543  64.468  1.00  0.00    -0.047 NA 
HETATM   25  H   UNL     1      -5.961   4.476  62.995  1.00  0.00     0.000 HD 
HETATM   26  H   UNL     1      -6.223   2.778  64.581  1.00  0.00     0.000 HD 
HETATM   27  O   UNL     1      -6.748   4.576  63.518  1.00  0.00    -0.040 OA 
ENDBRANCH  18  24
TORSDOF 3
ENDMDL
MODEL       70
REMARK 921   NORMALIZED FREE ENERGY PREDICTED BY IDOCK:   -3.76 KCAL/MOL
REMARK 922        TOTAL FREE ENERGY PREDICTED BY IDOCK:   -4.61 KCAL/MOL
REMARK 923 INTER-LIGAND FREE ENERGY PREDICTED BY IDOCK:   -4.90 KCAL/MOL
REMARK 924 INTRA-LIGAND FREE ENERGY PREDICTED BY IDOCK:    0.29 KCAL/MOL
REMARK 927      BINDING AFFINITY PREDICTED BY RF-SCORE:    0.00 PKD
ROOT
HETATM    1  C   UNL     1      -8.947  11.653  68.067  1.00  0.00    -0.176 C  
HETATM    2  C   UNL     1      -9.828  11.638  69.181  1.00  0.00     0.144 C  
HETATM    3  C   UNL     1     -10.313  12.385  67.993  1.00  0.00    -0.220 C  
HETATM    4  C   UNL     1      -9.205  12.118  66.290  1.00  0.00    -0.183 C  
HETATM    5  C   UNL     1      -8.240  13.388  67.944  1.00  0.00    -0.162 C  
HETATM    6  O   UNL     1      -9.450  12.504  64.939  1.00  0.00    -0.456 OA 
HETATM    7  C   UNL     1     -10.287  11.359  66.680  1.00  0.00    -0.272 C  
HETATM    8  C   UNL     1      -7.671  13.975  69.273  1.00  0.00     0.148 C  
HETATM    9  C   UNL     1      -7.326  15.506  69.268  1.00  0.00    -0.202 C  
HETATM   10  H   UNL     1      -8.936  12.381  64.149  1.00  0.00     0.000 HD 
HETATM   11  C   UNL     1     -11.348  12.780  66.100  1.00  0.00    -0.371 C  
HETATM   12  C   UNL     1      -8.186  16.381  68.363  1.00  0.00    -0.190 C  
HETATM   13  C   UNL     1     -10.510  14.288  66.194  1.00  0.00    -0.294 C  
HETATM   14  C   UNL     1      -9.277  14.577  67.259  1.00  0.00    -0.213 C  
HETATM   15  C   UNL     1      -8.360  15.789  66.981  1.00  0.00    -0.259 C  
HETATM   16  C   UNL     1      -8.783  16.799  65.926  1.00  0.00    -0.082 C  
HETATM   17  C   UNL     1      -9.804  17.827  66.350  1.00  0.00    -0.328 C  
HETATM   18  C   UNL     1      -9.827  18.167  67.827  1.00  0.00    -0.310 C  
HETATM   19  C   UNL     1      -8.885  17.464  68.758  1.00  0.00    -0.220 C  
ENDROOT
BRANCH   4  20
HETATM   20  C   UNL     1      -8.060  11.110  66.012  1.00  0.00    -0.064 C  
HETATM   21  C   UNL     1      -7.221  10.277  65.758  1.00  0.00    -0.133 C  
ENDBRANCH   4  20
BRANCH   7  22
HETATM   22  C   UNL     1     -10.778  10.003  66.254  1.00  0.00    -0.018 C  
HETATM   23  C   UNL     1     -10.470   8.978  67.344  1.00  0.00    -0.338 C  
ENDBRANCH   7  22
BRANCH  18  24
HETATM   24  N   UNL     1     -10.661  19.050  68.305  1.00  0.00    -0.382 NA 
HETATM   25  H   UNL     1     -11.135  20.946  68.017  1.00  0.00     0.000 HD 
HETATM   26  H   UNL     1     -11.329  18.857  69.051  1.00  0.00     0.000 HD 
HETATM   27  O   UNL     1     -10.529  20.303  67.669  1.00  0.00    -0.311 OA 
ENDBRANCH  18  24
TORSDOF 3
ENDMDL
MODEL       71
REMARK 921   NORMALIZED FREE ENERGY PREDICTED BY IDOCK:   -3.74 KCAL/MOL
REMARK 922        TOTAL FREE ENERGY PREDICTED BY IDOCK:   -4.58 KCAL/MOL
REMARK 923 INTER-LIGAND FREE ENERGY PREDICTED BY IDOCK:   -4.37 KCAL/MOL
REMARK 924 INTRA-LIGAND FREE ENERGY PREDICTED BY IDOCK:   -0.21 KCAL/MOL
REMARK 927      BINDING AFFINITY PREDICTED BY RF-SCORE:    0.00 PKD
ROOT
HETATM    1  C   UNL     1      -8.476   7.143  68.714  1.00  0.00    -0.126 C  
HETATM    2  C   UNL     1      -7.545   7.076  69.785  1.00  0.00    -0.104 C  
HETATM    3  C   UNL     1      -8.462   8.243  69.808  1.00  0.00    -0.128 C  
HETATM    4  C   UNL     1     -10.011   8.155  68.469  1.00  0.00    -0.190 C  
HETATM    5  C   UNL     1      -7.924   8.539  67.589  1.00  0.00    -0.107 C  
HETATM    6  O   UNL     1     -11.173   8.970  68.321  1.00  0.00    -0.459 OA 
HETATM    7  C   UNL     1     -10.030   7.682  69.763  1.00  0.00    -0.184 C  
HETATM    8  C   UNL     1      -6.417   8.518  67.183  1.00  0.00    -0.058 C  
HETATM    9  C   UNL     1      -5.866   9.804  66.474  1.00  0.00    -0.054 C  
HETATM   10  H   UNL     1     -11.891   8.929  67.700  1.00  0.00     0.000 HD 
HETATM   11  C   UNL     1     -10.221   9.461  70.290  1.00  0.00    -0.295 C  
HETATM   12  C   UNL     1      -6.520  11.121  66.880  1.00  0.00    -0.117 C  
HETATM   13  C   UNL     1      -9.527  10.550  69.143  1.00  0.00    -0.205 C  
HETATM   14  C   UNL     1      -8.288  10.131  68.128  1.00  0.00    -0.117 C  
HETATM   15  C   UNL     1      -8.031  11.035  66.901  1.00  0.00    -0.143 C  
HETATM   16  C   UNL     1      -8.727  12.384  66.828  1.00  0.00    -0.160 C  
HETATM   17  C   UNL     1      -8.108  13.505  67.626  1.00  0.00    -0.180 C  
HETATM   18  C   UNL     1      -6.616  13.396  67.873  1.00  0.00    -0.149 C  
HETATM   19  C   UNL     1      -5.870  12.203  67.354  1.00  0.00    -0.137 C  
ENDROOT
BRANCH   4  20
HETATM   20  C   UNL     1     -10.473   6.972  67.579  1.00  0.00    -0.320 C  
HETATM   21  C   UNL     1     -10.802   6.090  66.820  1.00  0.00    -0.356 C  
ENDBRANCH   4  20
BRANCH   7  22
HETATM   22  C   UNL     1     -10.943   6.722  70.475  1.00  0.00    -0.327 C  
HETATM   23  C   UNL     1     -10.376   6.405  71.859  1.00  0.00    -0.228 C  
ENDBRANCH   7  22
BRANCH  18  24
HETATM   24  N   UNL     1      -5.972  14.313  68.542  1.00  0.00    -0.086 NA 
HETATM   25  H   UNL     1      -6.002  15.130  70.339  1.00  0.00     0.000 HD 
HETATM   26  H   UNL     1      -5.199  14.858  68.161  1.00  0.00     0.000 HD 
HETATM   27  O   UNL     1      -6.471  14.462  69.853  1.00  0.00    -0.142 OA 
ENDBRANCH  18  24
TORSDOF 3
ENDMDL
MODEL       72
REMARK 921   NORMALIZED FREE ENERGY PREDICTED BY IDOCK:   -3.66 KCAL/MOL
REMARK 922        TOTAL FREE ENERGY PREDICTED BY IDOCK:   -4.49 KCAL/MOL
REMARK 923 INTER-LIGAND FREE ENERGY PREDICTED BY IDOCK:   -4.27 KCAL/MOL
REMARK 924 INTRA-LIGAND FREE ENERGY PREDICTED BY IDOCK:   -0.22 KCAL/MOL
REMARK 927      BINDING AFFINITY PREDICTED BY RF-SCORE:    0.00 PKD
ROOT
HETATM    1  C   UNL     1      -9.781   6.335  70.550  1.00  0.00    -0.196 C  
HETATM    2  C   UNL     1     -11.191   6.282  70.390  1.00  0.00    -0.439 C  
HETATM    3  C   UNL     1     -10.484   4.983  70.259  1.00  0.00    -0.243 C  
HETATM    4  C   UNL     1      -8.514   5.008  70.826  1.00  0.00    -0.115 C  
HETATM    5  C   UNL     1      -9.021   6.074  68.854  1.00  0.00    -0.123 C  
HETATM    6  O   UNL     1      -7.577   3.950  71.017  1.00  0.00    -0.046 OA 
HETATM    7  C   UNL     1      -9.588   4.730  71.642  1.00  0.00    -0.216 C  
HETATM    8  C   UNL     1      -9.613   6.958  67.711  1.00  0.00    -0.134 C  
HETATM    9  C   UNL     1      -9.196   6.576  66.248  1.00  0.00    -0.160 C  
HETATM   10  H   UNL     1      -6.664   3.962  71.279  1.00  0.00     0.000 HD 
HETATM   11  C   UNL     1      -9.621   3.049  70.833  1.00  0.00    -0.215 C  
HETATM   12  C   UNL     1      -8.924   5.097  65.995  1.00  0.00    -0.140 C  
HETATM   13  C   UNL     1      -8.976   3.094  69.231  1.00  0.00    -0.178 C  
HETATM   14  C   UNL     1      -8.988   4.452  68.284  1.00  0.00    -0.149 C  
HETATM   15  C   UNL     1      -8.045   4.480  67.061  1.00  0.00    -0.102 C  
HETATM   16  C   UNL     1      -7.368   3.189  66.630  1.00  0.00    -0.074 C  
HETATM   17  C   UNL     1      -8.199   2.233  65.810  1.00  0.00    -0.088 C  
HETATM   18  C   UNL     1      -9.307   2.860  64.986  1.00  0.00    -0.133 C  
HETATM   19  C   UNL     1      -9.526   4.342  65.054  1.00  0.00    -0.171 C  
ENDROOT
BRANCH   4  20
HETATM   20  C   UNL     1      -7.714   6.125  71.545  1.00  0.00    -0.101 C  
HETATM   21  C   UNL     1      -7.077   6.944  72.167  1.00  0.00    -0.074 C  
ENDBRANCH   4  20
BRANCH   7  22
HETATM   22  C   UNL     1      -9.742   4.702  73.137  1.00  0.00    -0.158 C  
HETATM   23  C   UNL     1     -11.225   4.681  73.502  1.00  0.00    -0.400 C  
ENDBRANCH   7  22
BRANCH  18  24
HETATM   24  N   UNL     1     -10.082   2.131  64.230  1.00  0.00    -0.338 NA 
HETATM   25  H   UNL     1     -11.677   2.362  63.088  1.00  0.00     0.000 HD 
HETATM   26  H   UNL     1      -9.957   1.130  64.083  1.00  0.00     0.000 HD 
HETATM   27  O   UNL     1     -11.113   2.892  63.639  1.00  0.00    -0.278 OA 
ENDBRANCH  18  24
TORSDOF 3
ENDMDL
MODEL       73
REMARK 921   NORMALIZED FREE ENERGY PREDICTED BY IDOCK:   -3.65 KCAL/MOL
REMARK 922        TOTAL FREE ENERGY PREDICTED BY IDOCK:   -4.47 KCAL/MOL
REMARK 923 INTER-LIGAND FREE ENERGY PREDICTED BY IDOCK:   -4.78 KCAL/MOL
REMARK 924 INTRA-LIGAND FREE ENERGY PREDICTED BY IDOCK:    0.31 KCAL/MOL
REMARK 927      BINDING AFFINITY PREDICTED BY RF-SCORE:    0.00 PKD
ROOT
HETATM    1  C   UNL     1     -10.816   7.044  71.442  1.00  0.00    -0.253 C  
HETATM    2  C   UNL     1     -11.955   6.510  70.782  1.00  0.00    -0.351 C  
HETATM    3  C   UNL     1     -10.642   6.073  70.244  1.00  0.00    -0.338 C  
HETATM    4  C   UNL     1      -9.024   6.566  71.402  1.00  0.00    -0.140 C  
HETATM    5  C   UNL     1     -10.039   8.296  70.280  1.00  0.00    -0.195 C  
HETATM    6  O   UNL     1      -7.656   6.173  71.321  1.00  0.00    -0.091 OA 
HETATM    7  C   UNL     1      -9.759   5.405  71.490  1.00  0.00    -0.209 C  
HETATM    8  C   UNL     1     -11.023   9.340  69.664  1.00  0.00    -0.192 C  
HETATM    9  C   UNL     1     -10.463  10.219  68.491  1.00  0.00    -0.217 C  
HETATM   10  H   UNL     1      -6.905   6.402  71.857  1.00  0.00     0.000 HD 
HETATM   11  C   UNL     1      -8.846   4.846  69.962  1.00  0.00    -0.126 C  
HETATM   12  C   UNL     1      -9.411   9.560  67.606  1.00  0.00    -0.141 C  
HETATM   13  C   UNL     1      -8.335   6.182  68.993  1.00  0.00    -0.112 C  
HETATM   14  C   UNL     1      -9.104   7.648  68.990  1.00  0.00    -0.144 C  
HETATM   15  C   UNL     1      -8.337   8.858  68.410  1.00  0.00    -0.125 C  
HETATM   16  C   UNL     1      -7.053   8.606  67.635  1.00  0.00    -0.080 C  
HETATM   17  C   UNL     1      -7.208   8.173  66.198  1.00  0.00    -0.066 C  
HETATM   18  C   UNL     1      -8.475   8.628  65.503  1.00  0.00    -0.165 C  
HETATM   19  C   UNL     1      -9.486   9.430  66.267  1.00  0.00    -0.273 C  
ENDROOT
BRANCH   4  20
HETATM   20  C   UNL     1      -8.986   7.153  72.836  1.00  0.00    -0.156 C  
HETATM   21  C   UNL     1      -9.036   7.589  73.964  1.00  0.00    -0.292 C  
ENDBRANCH   4  20
BRANCH   7  22
HETATM   22  C   UNL     1      -9.872   4.358  72.563  1.00  0.00    -0.213 C  
HETATM   23  C   UNL     1     -11.241   4.455  73.234  1.00  0.00    -0.364 C  
ENDBRANCH   7  22
BRANCH  18  24
HETATM   24  N   UNL     1      -8.710   8.322  64.256  1.00  0.00    -0.392 NA 
HETATM   25  H   UNL     1      -8.241   8.984  62.456  1.00  0.00     0.000 HD 
HETATM   26  H   UNL     1      -9.288   7.534  63.962  1.00  0.00     0.000 HD 
HETATM   27  O   UNL     1      -8.070   9.207  63.363  1.00  0.00    -0.144 OA 
ENDBRANCH  18  24
TORSDOF 3
ENDMDL
MODEL       74
REMARK 921   NORMALIZED FREE ENERGY PREDICTED BY IDOCK:   -3.59 KCAL/MOL
REMARK 922        TOTAL FREE ENERGY PREDICTED BY IDOCK:   -4.40 KCAL/MOL
REMARK 923 INTER-LIGAND FREE ENERGY PREDICTED BY IDOCK:   -4.86 KCAL/MOL
REMARK 924 INTRA-LIGAND FREE ENERGY PREDICTED BY IDOCK:    0.45 KCAL/MOL
REMARK 927      BINDING AFFINITY PREDICTED BY RF-SCORE:    0.00 PKD
ROOT
HETATM    1  C   UNL     1     -10.490   6.773  72.084  1.00  0.00    -0.231 C  
HETATM    2  C   UNL     1      -9.270   7.062  72.753  1.00  0.00    -0.157 C  
HETATM    3  C   UNL     1      -9.224   7.156  71.272  1.00  0.00    -0.151 C  
HETATM    4  C   UNL     1     -11.048   7.076  70.341  1.00  0.00    -0.287 C  
HETATM    5  C   UNL     1     -10.278   5.108  71.243  1.00  0.00    -0.292 C  
HETATM    6  O   UNL     1     -11.423   7.314  68.985  1.00  0.00    -0.420 OA 
HETATM    7  C   UNL     1     -10.409   8.217  70.775  1.00  0.00    -0.217 C  
HETATM    8  C   UNL     1      -9.707   3.969  72.145  1.00  0.00    -0.221 C  
HETATM    9  C   UNL     1      -9.266   2.654  71.413  1.00  0.00    -0.189 C  
HETATM   10  H   UNL     1     -12.268   7.276  68.554  1.00  0.00     0.000 HD 
HETATM   11  C   UNL     1      -9.322   8.043  69.268  1.00  0.00    -0.151 C  
HETATM   12  C   UNL     1      -8.742   2.825  69.991  1.00  0.00    -0.126 C  
HETATM   13  C   UNL     1      -9.189   6.398  68.758  1.00  0.00    -0.127 C  
HETATM   14  C   UNL     1      -9.369   5.111  69.783  1.00  0.00    -0.182 C  
HETATM   15  C   UNL     1      -9.626   3.723  69.153  1.00  0.00    -0.195 C  
HETATM   16  C   UNL     1      -9.433   3.554  67.654  1.00  0.00    -0.233 C  
HETATM   17  C   UNL     1      -8.014   3.371  67.175  1.00  0.00    -0.079 C  
HETATM   18  C   UNL     1      -7.053   2.755  68.171  1.00  0.00    -0.049 C  
HETATM   19  C   UNL     1      -7.543   2.401  69.544  1.00  0.00    -0.043 C  
ENDROOT
BRANCH   4  20
HETATM   20  C   UNL     1     -12.469   7.125  70.960  1.00  0.00    -0.359 C  
HETATM   21  C   UNL     1     -13.597   7.101  71.395  1.00  0.00    -0.368 C  
ENDBRANCH   4  20
BRANCH   7  22
HETATM   22  C   UNL     1     -10.898   9.615  71.028  1.00  0.00    -0.412 C  
HETATM   23  C   UNL     1     -11.352  10.248  69.713  1.00  0.00    -0.334 C  
ENDBRANCH   7  22
BRANCH  18  24
HETATM   24  N   UNL     1      -5.803   2.539  67.862  1.00  0.00    -0.022 NA 
HETATM   25  H   UNL     1      -4.268   3.536  67.120  1.00  0.00     0.000 HD 
HETATM   26  H   UNL     1      -5.334   1.641  67.980  1.00  0.00     0.000 HD 
HETATM   27  O   UNL     1      -5.178   3.693  67.346  1.00  0.00    -0.010 OA 
ENDBRANCH  18  24
TORSDOF 3
ENDMDL
MODEL       75
REMARK 921   NORMALIZED FREE ENERGY PREDICTED BY IDOCK:   -3.53 KCAL/MOL
REMARK 922        TOTAL FREE ENERGY PREDICTED BY IDOCK:   -4.33 KCAL/MOL
REMARK 923 INTER-LIGAND FREE ENERGY PREDICTED BY IDOCK:   -4.12 KCAL/MOL
REMARK 924 INTRA-LIGAND FREE ENERGY PREDICTED BY IDOCK:   -0.21 KCAL/MOL
REMARK 927      BINDING AFFINITY PREDICTED BY RF-SCORE:    0.00 PKD
ROOT
HETATM    1  C   UNL     1      -7.613   7.952  69.663  1.00  0.00    -0.098 C  
HETATM    2  C   UNL     1      -8.107   8.735  70.740  1.00  0.00    -0.156 C  
HETATM    3  C   UNL     1      -9.088   8.433  69.668  1.00  0.00    -0.153 C  
HETATM    4  C   UNL     1      -8.477   7.031  68.303  1.00  0.00    -0.123 C  
HETATM    5  C   UNL     1      -7.459   9.088  68.177  1.00  0.00    -0.084 C  
HETATM    6  O   UNL     1      -9.186   6.356  67.267  1.00  0.00    -0.119 OA 
HETATM    7  C   UNL     1      -9.161   6.779  69.472  1.00  0.00    -0.141 C  
HETATM    8  C   UNL     1      -6.716  10.436  68.438  1.00  0.00    -0.060 C  
HETATM    9  C   UNL     1      -6.808  11.514  67.303  1.00  0.00    -0.118 C  
HETATM   10  H   UNL     1      -8.903   5.707  66.634  1.00  0.00     0.000 HD 
HETATM   11  C   UNL     1     -10.681   7.389  68.579  1.00  0.00    -0.138 C  
HETATM   12  C   UNL     1      -8.090  11.506  66.476  1.00  0.00    -0.112 C  
HETATM   13  C   UNL     1     -10.285   8.517  67.332  1.00  0.00    -0.329 C  
HETATM   14  C   UNL     1      -8.925   9.460  67.358  1.00  0.00    -0.134 C  
HETATM   15  C   UNL     1      -8.482  10.114  66.030  1.00  0.00    -0.136 C  
HETATM   16  C   UNL     1      -9.439  10.092  64.849  1.00  0.00    -0.349 C  
HETATM   17  C   UNL     1     -10.534  11.130  64.851  1.00  0.00    -0.372 C  
HETATM   18  C   UNL     1     -10.229  12.412  65.599  1.00  0.00    -0.262 C  
HETATM   19  C   UNL     1      -8.911  12.560  66.298  1.00  0.00    -0.009 C  
ENDROOT
BRANCH   4  20
HETATM   20  C   UNL     1      -7.230   6.109  68.335  1.00  0.00    -0.084 C  
HETATM   21  C   UNL     1      -6.301   5.335  68.317  1.00  0.00    -0.035 C  
ENDBRANCH   4  20
BRANCH   7  22
HETATM   22  C   UNL     1      -9.372   5.522  70.270  1.00  0.00    -0.194 C  
HETATM   23  C   UNL     1      -9.813   5.881  71.688  1.00  0.00    -0.197 C  
ENDBRANCH   7  22
BRANCH  18  24
HETATM   24  N   UNL     1     -11.098  13.385  65.657  1.00  0.00    -0.285 NA 
HETATM   25  H   UNL     1     -12.985  13.715  65.176  1.00  0.00     0.000 HD 
HETATM   26  H   UNL     1     -10.895  14.309  66.037  1.00  0.00     0.000 HD 
HETATM   27  O   UNL     1     -12.353  13.007  65.134  1.00  0.00    -0.433 OA 
ENDBRANCH  18  24
TORSDOF 3
ENDMDL
MODEL       76
REMARK 921   NORMALIZED FREE ENERGY PREDICTED BY IDOCK:   -3.49 KCAL/MOL
REMARK 922        TOTAL FREE ENERGY PREDICTED BY IDOCK:   -4.29 KCAL/MOL
REMARK 923 INTER-LIGAND FREE ENERGY PREDICTED BY IDOCK:   -4.38 KCAL/MOL
REMARK 924 INTRA-LIGAND FREE ENERGY PREDICTED BY IDOCK:    0.09 KCAL/MOL
REMARK 927      BINDING AFFINITY PREDICTED BY RF-SCORE:    0.00 PKD
ROOT
HETATM    1  C   UNL     1      -8.226   8.329  64.688  1.00  0.00    -0.145 C  
HETATM    2  C   UNL     1      -7.287   8.900  63.787  1.00  0.00    -0.101 C  
HETATM    3  C   UNL     1      -7.188   9.367  65.193  1.00  0.00    -0.101 C  
HETATM    4  C   UNL     1      -8.303   8.299  66.541  1.00  0.00    -0.112 C  
HETATM    5  C   UNL     1      -9.470   9.668  65.111  1.00  0.00    -0.332 C  
HETATM    6  O   UNL     1      -8.328   8.321  67.967  1.00  0.00    -0.126 OA 
HETATM    7  C   UNL     1      -7.001   8.036  66.178  1.00  0.00    -0.058 C  
HETATM    8  C   UNL     1     -10.073  10.434  63.892  1.00  0.00    -0.172 C  
HETATM    9  C   UNL     1     -10.900  11.726  64.218  1.00  0.00    -0.404 C  
HETATM   10  H   UNL     1      -8.845   7.826  68.592  1.00  0.00     0.000 HD 
HETATM   11  C   UNL     1      -6.525   9.462  67.281  1.00  0.00    -0.070 C  
HETATM   12  C   UNL     1     -10.464  12.503  65.457  1.00  0.00    -0.305 C  
HETATM   13  C   UNL     1      -7.798  10.622  67.418  1.00  0.00    -0.110 C  
HETATM   14  C   UNL     1      -8.951  10.846  66.252  1.00  0.00    -0.188 C  
HETATM   15  C   UNL     1     -10.237  11.604  66.653  1.00  0.00    -0.249 C  
HETATM   16  C   UNL     1     -10.270  12.333  67.987  1.00  0.00    -0.206 C  
HETATM   17  C   UNL     1      -9.607  13.688  68.030  1.00  0.00    -0.216 C  
HETATM   18  C   UNL     1      -9.558  14.442  66.717  1.00  0.00    -0.268 C  
HETATM   19  C   UNL     1     -10.124  13.807  65.482  1.00  0.00    -0.303 C  
ENDROOT
BRANCH   4  20
HETATM   20  C   UNL     1      -9.076   6.970  66.341  1.00  0.00    -0.189 C  
HETATM   21  C   UNL     1      -9.616   5.894  66.222  1.00  0.00    -0.148 C  
ENDBRANCH   4  20
BRANCH   7  22
HETATM   22  C   UNL     1      -6.135   6.816  66.332  1.00  0.00    -0.033 C  
HETATM   23  C   UNL     1      -5.460   6.493  65.000  1.00  0.00    -0.022 C  
ENDBRANCH   7  22
BRANCH  18  24
HETATM   24  N   UNL     1      -9.019  15.628  66.638  1.00  0.00    -0.258 NA 
HETATM   25  H   UNL     1      -9.598  17.510  66.484  1.00  0.00     0.000 HD 
HETATM   26  H   UNL     1      -8.013  15.799  66.644  1.00  0.00     0.000 HD 
HETATM   27  O   UNL     1      -9.991  16.647  66.542  1.00  0.00    -0.258 OA 
ENDBRANCH  18  24
TORSDOF 3
ENDMDL
MODEL       77
REMARK 921   NORMALIZED FREE ENERGY PREDICTED BY IDOCK:   -3.44 KCAL/MOL
REMARK 922        TOTAL FREE ENERGY PREDICTED BY IDOCK:   -4.23 KCAL/MOL
REMARK 923 INTER-LIGAND FREE ENERGY PREDICTED BY IDOCK:   -4.03 KCAL/MOL
REMARK 924 INTRA-LIGAND FREE ENERGY PREDICTED BY IDOCK:   -0.20 KCAL/MOL
REMARK 927      BINDING AFFINITY PREDICTED BY RF-SCORE:    0.00 PKD
ROOT
HETATM    1  C   UNL     1     -10.750  10.058  67.474  1.00  0.00    -0.339 C  
HETATM    2  C   UNL     1     -11.421  10.491  68.649  1.00  0.00    -0.290 C  
HETATM    3  C   UNL     1      -9.947  10.356  68.768  1.00  0.00    -0.196 C  
HETATM    4  C   UNL     1      -8.957  10.067  66.997  1.00  0.00    -0.138 C  
HETATM    5  C   UNL     1     -10.191   8.292  67.776  1.00  0.00    -0.282 C  
HETATM    6  O   UNL     1      -7.565  10.079  66.685  1.00  0.00    -0.101 OA 
HETATM    7  C   UNL     1      -9.236  11.284  67.581  1.00  0.00    -0.156 C  
HETATM    8  C   UNL     1     -11.286   7.328  68.331  1.00  0.00     0.195 C  
HETATM    9  C   UNL     1     -10.790   5.932  68.846  1.00  0.00    -0.373 C  
HETATM   10  H   UNL     1      -7.106   9.944  65.864  1.00  0.00     0.000 HD 
HETATM   11  C   UNL     1      -7.827  10.917  68.747  1.00  0.00    -0.132 C  
HETATM   12  C   UNL     1      -9.384   5.899  69.437  1.00  0.00    -0.150 C  
HETATM   13  C   UNL     1      -7.587   9.219  68.952  1.00  0.00    -0.075 C  
HETATM   14  C   UNL     1      -8.792   8.101  68.757  1.00  0.00    -0.138 C  
HETATM   15  C   UNL     1      -8.376   6.624  68.572  1.00  0.00    -0.122 C  
HETATM   16  C   UNL     1      -6.933   6.232  68.846  1.00  0.00    -0.076 C  
HETATM   17  C   UNL     1      -6.553   6.028  70.292  1.00  0.00    -0.044 C  
HETATM   18  C   UNL     1      -7.677   5.608  71.218  1.00  0.00    -0.109 C  
HETATM   19  C   UNL     1      -9.064   5.454  70.669  1.00  0.00    -0.172 C  
ENDROOT
BRANCH   4  20
HETATM   20  C   UNL     1      -9.495  10.161  65.546  1.00  0.00    -0.286 C  
HETATM   21  C   UNL     1      -9.890  10.312  64.412  1.00  0.00    -0.374 C  
ENDBRANCH   4  20
BRANCH   7  22
HETATM   22  C   UNL     1      -9.244  12.687  67.040  1.00  0.00    -0.212 C  
HETATM   23  C   UNL     1      -9.928  13.619  68.040  1.00  0.00    -0.247 C  
ENDBRANCH   7  22
BRANCH  18  24
HETATM   24  N   UNL     1      -7.463   5.391  72.487  1.00  0.00    -0.095 NA 
HETATM   25  H   UNL     1      -8.400   5.633  74.209  1.00  0.00     0.000 HD 
HETATM   26  H   UNL     1      -6.606   4.982  72.859  1.00  0.00     0.000 HD 
HETATM   27  O   UNL     1      -8.557   5.790  73.285  1.00  0.00    -0.119 OA 
ENDBRANCH  18  24
TORSDOF 3
ENDMDL
MODEL       78
REMARK 921   NORMALIZED FREE ENERGY PREDICTED BY IDOCK:   -3.37 KCAL/MOL
REMARK 922        TOTAL FREE ENERGY PREDICTED BY IDOCK:   -4.14 KCAL/MOL
REMARK 923 INTER-LIGAND FREE ENERGY PREDICTED BY IDOCK:   -4.53 KCAL/MOL
REMARK 924 INTRA-LIGAND FREE ENERGY PREDICTED BY IDOCK:    0.39 KCAL/MOL
REMARK 927      BINDING AFFINITY PREDICTED BY RF-SCORE:    0.00 PKD
ROOT
HETATM    1  C   UNL     1      -8.127   5.906  66.756  1.00  0.00    -0.102 C  
HETATM    2  C   UNL     1      -6.972   6.088  67.562  1.00  0.00    -0.069 C  
HETATM    3  C   UNL     1      -8.221   6.693  68.089  1.00  0.00    -0.114 C  
HETATM    4  C   UNL     1      -9.934   6.140  67.108  1.00  0.00    -0.154 C  
HETATM    5  C   UNL     1      -8.529   7.567  65.980  1.00  0.00    -0.152 C  
HETATM    6  O   UNL     1     -11.308   6.355  67.422  1.00  0.00    -0.662 OA 
HETATM    7  C   UNL     1      -9.380   5.501  68.195  1.00  0.00    -0.123 C  
HETATM    8  C   UNL     1      -7.329   8.296  65.299  1.00  0.00    -0.081 C  
HETATM    9  C   UNL     1      -7.564   9.791  64.885  1.00  0.00    -0.128 C  
HETATM   10  H   UNL     1     -12.102   6.099  66.967  1.00  0.00     0.000 HD 
HETATM   11  C   UNL     1     -10.088   6.886  69.225  1.00  0.00    -0.178 C  
HETATM   12  C   UNL     1      -8.529  10.582  65.762  1.00  0.00    -0.177 C  
HETATM   13  C   UNL     1     -10.251   8.345  68.316  1.00  0.00    -0.244 C  
HETATM   14  C   UNL     1      -9.309   8.708  67.003  1.00  0.00    -0.202 C  
HETATM   15  C   UNL     1      -9.805   9.820  66.052  1.00  0.00    -0.342 C  
HETATM   16  C   UNL     1     -10.961  10.701  66.497  1.00  0.00    -0.098 C  
HETATM   17  C   UNL     1     -10.624  11.830  67.440  1.00  0.00    -0.258 C  
HETATM   18  C   UNL     1      -9.209  12.366  67.351  1.00  0.00    -0.184 C  
HETATM   19  C   UNL     1      -8.247  11.744  66.384  1.00  0.00    -0.006 C  
ENDROOT
BRANCH   4  20
HETATM   20  C   UNL     1     -10.136   5.044  66.030  1.00  0.00    -0.234 C  
HETATM   21  C   UNL     1     -10.319   4.139  65.249  1.00  0.00    -0.184 C  
ENDBRANCH   4  20
BRANCH   7  22
HETATM   22  C   UNL     1      -9.587   4.129  68.775  1.00  0.00    -0.210 C  
HETATM   23  C   UNL     1      -9.693   4.224  70.296  1.00  0.00    -0.280 C  
ENDBRANCH   7  22
BRANCH  18  24
HETATM   24  N   UNL     1      -8.809  13.349  68.110  1.00  0.00    -0.176 NA 
HETATM   25  H   UNL     1      -8.726  15.322  68.057  1.00  0.00     0.000 HD 
HETATM   26  H   UNL     1      -8.395  13.224  69.034  1.00  0.00     0.000 HD 
HETATM   27  O   UNL     1      -9.017  14.606  67.504  1.00  0.00    -0.176 OA 
ENDBRANCH  18  24
TORSDOF 3
ENDMDL
MODEL       79
REMARK 921   NORMALIZED FREE ENERGY PREDICTED BY IDOCK:   -3.36 KCAL/MOL
REMARK 922        TOTAL FREE ENERGY PREDICTED BY IDOCK:   -4.13 KCAL/MOL
REMARK 923 INTER-LIGAND FREE ENERGY PREDICTED BY IDOCK:   -3.90 KCAL/MOL
REMARK 924 INTRA-LIGAND FREE ENERGY PREDICTED BY IDOCK:   -0.23 KCAL/MOL
REMARK 927      BINDING AFFINITY PREDICTED BY RF-SCORE:    0.00 PKD
ROOT
HETATM    1  C   UNL     1      -8.972   5.523  65.717  1.00  0.00    -0.158 C  
HETATM    2  C   UNL     1      -8.453   6.845  65.727  1.00  0.00    -0.150 C  
HETATM    3  C   UNL     1      -7.794   5.893  66.657  1.00  0.00    -0.101 C  
HETATM    4  C   UNL     1      -8.311   3.927  66.394  1.00  0.00    -0.105 C  
HETATM    5  C   UNL     1      -9.914   5.286  67.323  1.00  0.00    -0.207 C  
HETATM    6  O   UNL     1      -7.769   2.730  66.949  1.00  0.00    -0.073 OA 
HETATM    7  C   UNL     1      -7.265   4.580  65.778  1.00  0.00    -0.075 C  
HETATM    8  C   UNL     1     -10.931   6.416  67.676  1.00  0.00    -0.441 C  
HETATM    9  C   UNL     1     -11.529   6.389  69.126  1.00  0.00    -0.265 C  
HETATM   10  H   UNL     1      -8.008   1.819  66.827  1.00  0.00     0.000 HD 
HETATM   11  C   UNL     1      -6.357   4.412  67.399  1.00  0.00    -0.041 C  
HETATM   12  C   UNL     1     -10.620   5.824  70.213  1.00  0.00    -0.369 C  
HETATM   13  C   UNL     1      -7.442   4.333  68.740  1.00  0.00    -0.056 C  
HETATM   14  C   UNL     1      -8.958   5.000  68.723  1.00  0.00    -0.126 C  
HETATM   15  C   UNL     1      -9.961   4.526  69.799  1.00  0.00    -0.268 C  
HETATM   16  C   UNL     1      -9.445   3.697  70.964  1.00  0.00    -0.234 C  
HETATM   17  C   UNL     1      -8.786   4.455  72.090  1.00  0.00    -0.132 C  
HETATM   18  C   UNL     1      -9.242   5.888  72.279  1.00  0.00    -0.144 C  
HETATM   19  C   UNL     1     -10.266   6.463  71.346  1.00  0.00    -0.228 C  
ENDROOT
BRANCH   4  20
HETATM   20  C   UNL     1      -9.132   3.273  65.253  1.00  0.00    -0.147 C  
HETATM   21  C   UNL     1      -9.772   2.693  64.406  1.00  0.00    -0.112 C  
ENDBRANCH   4  20
BRANCH   7  22
HETATM   22  C   UNL     1      -6.439   4.248  64.566  1.00  0.00    -0.042 C  
HETATM   23  C   UNL     1      -5.614   5.468  64.157  1.00  0.00    -0.013 C  
ENDBRANCH   7  22
BRANCH  18  24
HETATM   24  N   UNL     1      -8.749   6.636  73.228  1.00  0.00    -0.123 NA 
HETATM   25  H   UNL     1      -9.347   8.079  74.437  1.00  0.00     0.000 HD 
HETATM   26  H   UNL     1      -7.786   6.577  73.558  1.00  0.00     0.000 HD 
HETATM   27  O   UNL     1      -9.706   7.535  73.746  1.00  0.00    -0.284 OA 
ENDBRANCH  18  24
TORSDOF 3
ENDMDL
MODEL       80
REMARK 921   NORMALIZED FREE ENERGY PREDICTED BY IDOCK:   -3.35 KCAL/MOL
REMARK 922        TOTAL FREE ENERGY PREDICTED BY IDOCK:   -4.12 KCAL/MOL
REMARK 923 INTER-LIGAND FREE ENERGY PREDICTED BY IDOCK:   -4.19 KCAL/MOL
REMARK 924 INTRA-LIGAND FREE ENERGY PREDICTED BY IDOCK:    0.06 KCAL/MOL
REMARK 927      BINDING AFFINITY PREDICTED BY RF-SCORE:    0.00 PKD
ROOT
HETATM    1  C   UNL     1      -9.866  14.119  66.917  1.00  0.00    -0.265 C  
HETATM    2  C   UNL     1      -9.038  14.234  65.768  1.00  0.00     0.392 C  
HETATM    3  C   UNL     1      -9.637  12.894  65.992  1.00  0.00    -0.172 C  
HETATM    4  C   UNL     1     -11.087  12.823  67.438  1.00  0.00    -0.275 C  
HETATM    5  C   UNL     1      -8.926  13.090  68.174  1.00  0.00    -0.198 C  
HETATM    6  O   UNL     1     -12.001  11.791  67.804  1.00  0.00    -0.586 OA 
HETATM    7  C   UNL     1     -11.291  13.067  66.098  1.00  0.00    -0.349 C  
HETATM    8  C   UNL     1      -7.453  13.533  68.436  1.00  0.00    -0.124 C  
HETATM    9  C   UNL     1      -6.564  12.543  69.267  1.00  0.00    -0.089 C  
HETATM   10  H   UNL     1     -12.673  11.758  68.475  1.00  0.00     0.000 HD 
HETATM   11  C   UNL     1     -11.062  11.233  65.847  1.00  0.00    -0.168 C  
HETATM   12  C   UNL     1      -6.891  11.061  69.112  1.00  0.00    -0.094 C  
HETATM   13  C   UNL     1     -10.060  10.536  67.069  1.00  0.00    -0.259 C  
HETATM   14  C   UNL     1      -8.912  11.393  67.899  1.00  0.00    -0.153 C  
HETATM   15  C   UNL     1      -8.375  10.782  69.214  1.00  0.00    -0.072 C  
HETATM   16  C   UNL     1      -8.710   9.335  69.538  1.00  0.00    -0.146 C  
HETATM   17  C   UNL     1      -7.874   8.281  68.854  1.00  0.00    -0.111 C  
HETATM   18  C   UNL     1      -6.472   8.701  68.461  1.00  0.00    -0.055 C  
HETATM   19  C   UNL     1      -6.019  10.103  68.738  1.00  0.00    -0.040 C  
ENDROOT
BRANCH   4  20
HETATM   20  C   UNL     1     -11.780  13.989  68.191  1.00  0.00    -0.387 C  
HETATM   21  C   UNL     1     -12.373  14.903  68.715  1.00  0.00    -0.007 C  
ENDBRANCH   4  20
BRANCH   7  22
HETATM   22  C   UNL     1     -12.449  13.657  65.342  1.00  0.00    -0.537 C  
HETATM   23  C   UNL     1     -12.342  13.283  63.864  1.00  0.00    -0.422 C  
ENDBRANCH   7  22
BRANCH  18  24
HETATM   24  N   UNL     1      -5.656   7.868  67.874  1.00  0.00    -0.032 NA 
HETATM   25  H   UNL     1      -5.312   7.163  66.061  1.00  0.00     0.000 HD 
HETATM   26  H   UNL     1      -4.923   7.350  68.359  1.00  0.00     0.000 HD 
HETATM   27  O   UNL     1      -5.906   7.769  66.489  1.00  0.00    -0.038 OA 
ENDBRANCH  18  24
TORSDOF 3
ENDMDL
MODEL       81
REMARK 921   NORMALIZED FREE ENERGY PREDICTED BY IDOCK:   -3.28 KCAL/MOL
REMARK 922        TOTAL FREE ENERGY PREDICTED BY IDOCK:   -4.04 KCAL/MOL
REMARK 923 INTER-LIGAND FREE ENERGY PREDICTED BY IDOCK:   -4.37 KCAL/MOL
REMARK 924 INTRA-LIGAND FREE ENERGY PREDICTED BY IDOCK:    0.32 KCAL/MOL
REMARK 927      BINDING AFFINITY PREDICTED BY RF-SCORE:    0.00 PKD
ROOT
HETATM    1  C   UNL     1      -8.467   5.106  66.228  1.00  0.00    -0.114 C  
HETATM    2  C   UNL     1      -9.744   4.836  65.666  1.00  0.00    -0.188 C  
HETATM    3  C   UNL     1      -9.467   6.263  65.967  1.00  0.00    -0.028 C  
HETATM    4  C   UNL     1      -7.521   6.687  66.451  1.00  0.00    -0.085 C  
HETATM    5  C   UNL     1      -8.740   5.548  68.032  1.00  0.00    -0.106 C  
HETATM    6  O   UNL     1      -6.843   7.930  66.617  1.00  0.00    -0.067 OA 
HETATM    7  C   UNL     1      -8.064   6.704  65.184  1.00  0.00    -0.133 C  
HETATM    8  C   UNL     1      -9.645   4.561  68.834  1.00  0.00    -0.235 C  
HETATM    9  C   UNL     1     -10.111   5.039  70.254  1.00  0.00    -0.339 C  
HETATM   10  H   UNL     1      -5.941   8.126  66.841  1.00  0.00     0.000 HD 
HETATM   11  C   UNL     1      -8.828   8.339  65.659  1.00  0.00    -0.172 C  
HETATM   12  C   UNL     1     -10.298   6.544  70.424  1.00  0.00    -0.237 C  
HETATM   13  C   UNL     1      -9.089   8.456  67.362  1.00  0.00    -0.152 C  
HETATM   14  C   UNL     1      -9.316   7.139  68.339  1.00  0.00    -0.135 C  
HETATM   15  C   UNL     1      -9.138   7.338  69.862  1.00  0.00    -0.141 C  
HETATM   16  C   UNL     1      -9.038   8.753  70.407  1.00  0.00    -0.198 C  
HETATM   17  C   UNL     1     -10.338   9.498  70.587  1.00  0.00    -0.369 C  
HETATM   18  C   UNL     1     -11.564   8.641  70.830  1.00  0.00    -0.242 C  
HETATM   19  C   UNL     1     -11.426   7.148  70.845  1.00  0.00    -0.333 C  
ENDROOT
BRANCH   4  20
HETATM   20  C   UNL     1      -6.268   5.777  66.362  1.00  0.00    -0.034 C  
HETATM   21  C   UNL     1      -5.341   5.006  66.271  1.00  0.00    -0.009 C  
ENDBRANCH   4  20
BRANCH   7  22
HETATM   22  C   UNL     1      -7.440   6.685  63.817  1.00  0.00    -0.090 C  
HETATM   23  C   UNL     1      -7.647   5.313  63.176  1.00  0.00    -0.068 C  
ENDBRANCH   7  22
BRANCH  18  24
HETATM   24  N   UNL     1     -12.740   9.178  71.011  1.00  0.00    -0.502 NA 
HETATM   25  H   UNL     1     -13.650  10.342  72.322  1.00  0.00     0.000 HD 
HETATM   26  H   UNL     1     -13.528   9.053  70.374  1.00  0.00     0.000 HD 
HETATM   27  O   UNL     1     -12.794   9.951  72.190  1.00  0.00    -0.392 OA 
ENDBRANCH  18  24
TORSDOF 3
ENDMDL
MODEL       82
REMARK 921   NORMALIZED FREE ENERGY PREDICTED BY IDOCK:   -3.26 KCAL/MOL
REMARK 922        TOTAL FREE ENERGY PREDICTED BY IDOCK:   -4.02 KCAL/MOL
REMARK 923 INTER-LIGAND FREE ENERGY PREDICTED BY IDOCK:   -4.21 KCAL/MOL
REMARK 924 INTRA-LIGAND FREE ENERGY PREDICTED BY IDOCK:    0.19 KCAL/MOL
REMARK 927      BINDING AFFINITY PREDICTED BY RF-SCORE:    0.00 PKD
ROOT
HETATM    1  C   UNL     1     -10.429   9.775  67.141  1.00  0.00    -0.316 C  
HETATM    2  C   UNL     1     -10.483   9.663  68.555  1.00  0.00    -0.241 C  
HETATM    3  C   UNL     1      -9.130   9.540  67.957  1.00  0.00    -0.126 C  
HETATM    4  C   UNL     1      -9.011  10.041  65.973  1.00  0.00    -0.148 C  
HETATM    5  C   UNL     1     -10.072   8.062  66.463  1.00  0.00    -0.270 C  
HETATM    6  O   UNL     1      -7.886  10.226  65.116  1.00  0.00    -0.138 OA 
HETATM    7  C   UNL     1      -8.837  10.898  67.037  1.00  0.00    -0.141 C  
HETATM    8  C   UNL     1     -10.975   6.918  67.023  1.00  0.00    -0.404 C  
HETATM    9  C   UNL     1     -10.530   5.451  66.688  1.00  0.00    -0.356 C  
HETATM   10  H   UNL     1      -7.831  10.458  64.196  1.00  0.00     0.000 HD 
HETATM   11  C   UNL     1      -7.147  10.131  67.230  1.00  0.00    -0.088 C  
HETATM   12  C   UNL     1      -9.029   5.225  66.543  1.00  0.00    -0.120 C  
HETATM   13  C   UNL     1      -7.106   8.508  66.640  1.00  0.00    -0.077 C  
HETATM   14  C   UNL     1      -8.440   7.530  66.577  1.00  0.00    -0.131 C  
HETATM   15  C   UNL     1      -8.367   6.276  65.678  1.00  0.00    -0.147 C  
HETATM   16  C   UNL     1      -7.017   5.854  65.120  1.00  0.00    -0.059 C  
HETATM   17  C   UNL     1      -6.113   5.086  66.052  1.00  0.00    -0.030 C  
HETATM   18  C   UNL     1      -6.808   4.284  67.135  1.00  0.00    -0.052 C  
HETATM   19  C   UNL     1      -8.303   4.323  67.234  1.00  0.00    -0.100 C  
ENDROOT
BRANCH   4  20
HETATM   20  C   UNL     1     -10.076  10.706  65.063  1.00  0.00    -0.388 C  
HETATM   21  C   UNL     1     -10.869  11.296  64.366  1.00  0.00    -0.373 C  
ENDBRANCH   4  20
BRANCH   7  22
HETATM   22  C   UNL     1      -8.853  12.398  67.140  1.00  0.00    -0.197 C  
HETATM   23  C   UNL     1     -10.056  12.844  67.970  1.00  0.00    -0.235 C  
ENDBRANCH   7  22
BRANCH  18  24
HETATM   24  N   UNL     1      -6.127   3.571  67.991  1.00  0.00    -0.031 NA 
HETATM   25  H   UNL     1      -6.340   2.850  69.817  1.00  0.00     0.000 HD 
HETATM   26  H   UNL     1      -5.193   3.204  67.811  1.00  0.00     0.000 HD 
HETATM   27  O   UNL     1      -6.836   3.368  69.194  1.00  0.00    -0.040 OA 
ENDBRANCH  18  24
TORSDOF 3
ENDMDL
MODEL       83
REMARK 921   NORMALIZED FREE ENERGY PREDICTED BY IDOCK:   -3.25 KCAL/MOL
REMARK 922        TOTAL FREE ENERGY PREDICTED BY IDOCK:   -4.00 KCAL/MOL
REMARK 923 INTER-LIGAND FREE ENERGY PREDICTED BY IDOCK:   -5.93 KCAL/MOL
REMARK 924 INTRA-LIGAND FREE ENERGY PREDICTED BY IDOCK:    1.93 KCAL/MOL
REMARK 927      BINDING AFFINITY PREDICTED BY RF-SCORE:    0.00 PKD
ROOT
HETATM    1  C   UNL     1      -8.944  19.466  66.123  1.00  0.00    -0.307 C  
HETATM    2  C   UNL     1     -10.080  20.059  66.735  1.00  0.00    -0.607 C  
HETATM    3  C   UNL     1      -9.251  19.204  67.622  1.00  0.00    -0.349 C  
HETATM    4  C   UNL     1      -7.445  18.637  66.836  1.00  0.00    -0.218 C  
HETATM    5  C   UNL     1      -9.307  17.635  65.937  1.00  0.00     0.050 C  
HETATM    6  O   UNL     1      -6.321  17.991  67.431  1.00  0.00    -0.157 OA 
HETATM    7  C   UNL     1      -7.684  19.770  67.582  1.00  0.00    -0.317 C  
HETATM    8  C   UNL     1     -10.687  17.287  65.295  1.00  0.00    -0.019 C  
HETATM    9  C   UNL     1     -11.135  15.785  65.374  1.00  0.00    -0.232 C  
HETATM   10  H   UNL     1      -5.484  17.727  67.067  1.00  0.00     0.000 HD 
HETATM   11  C   UNL     1      -7.702  18.647  69.071  1.00  0.00    -0.202 C  
HETATM   12  C   UNL     1     -10.652  15.007  66.594  1.00  0.00    -0.301 C  
HETATM   13  C   UNL     1      -8.184  17.040  68.659  1.00  0.00    -0.261 C  
HETATM   14  C   UNL     1      -9.150  16.686  67.363  1.00  0.00    -0.206 C  
HETATM   15  C   UNL     1      -9.179  15.221  66.870  1.00  0.00    -0.255 C  
HETATM   16  C   UNL     1      -8.553  14.144  67.742  1.00  0.00    -0.184 C  
HETATM   17  C   UNL     1      -9.387  13.642  68.895  1.00  0.00     0.145 C  
HETATM   18  C   UNL     1     -10.889  13.744  68.719  1.00  0.00    -0.259 C  
HETATM   19  C   UNL     1     -11.443  14.347  67.463  1.00  0.00    -0.370 C  
ENDROOT
BRANCH   4  20
HETATM   20  C   UNL     1      -6.742  19.122  65.541  1.00  0.00    -0.300 C  
HETATM   21  C   UNL     1      -6.148  19.550  64.579  1.00  0.00    -0.288 C  
ENDBRANCH   4  20
BRANCH   7  22
HETATM   22  C   UNL     1      -6.901  21.039  67.771  1.00  0.00    -0.315 C  
HETATM   23  C   UNL     1      -5.630  20.991  66.923  1.00  0.00    -0.283 C  
ENDBRANCH   7  22
BRANCH  18  24
HETATM   24  N   UNL     1     -11.708  13.330  69.646  1.00  0.00    -0.354 NA 
HETATM   25  H   UNL     1     -13.053  14.086  70.880  1.00  0.00     0.000 HD 
HETATM   26  H   UNL     1     -11.797  12.355  69.934  1.00  0.00     0.000 HD 
HETATM   27  O   UNL     1     -12.456  14.388  70.204  1.00  0.00    -0.342 OA 
ENDBRANCH  18  24
TORSDOF 3
ENDMDL
MODEL       84
REMARK 921   NORMALIZED FREE ENERGY PREDICTED BY IDOCK:   -3.09 KCAL/MOL
REMARK 922        TOTAL FREE ENERGY PREDICTED BY IDOCK:   -3.82 KCAL/MOL
REMARK 923 INTER-LIGAND FREE ENERGY PREDICTED BY IDOCK:   -3.58 KCAL/MOL
REMARK 924 INTRA-LIGAND FREE ENERGY PREDICTED BY IDOCK:   -0.24 KCAL/MOL
REMARK 927      BINDING AFFINITY PREDICTED BY RF-SCORE:    0.00 PKD
ROOT
HETATM    1  C   UNL     1      -9.397   9.017  70.865  1.00  0.00    -0.326 C  
HETATM    2  C   UNL     1      -8.284   8.899  71.740  1.00  0.00    -0.057 C  
HETATM    3  C   UNL     1      -8.058   8.424  70.352  1.00  0.00    -0.109 C  
HETATM    4  C   UNL     1      -9.538   8.907  69.018  1.00  0.00    -0.158 C  
HETATM    5  C   UNL     1     -10.048   7.283  70.562  1.00  0.00    -0.195 C  
HETATM    6  O   UNL     1      -9.597   8.795  67.598  1.00  0.00    -0.139 OA 
HETATM    7  C   UNL     1      -8.424   9.666  69.303  1.00  0.00    -0.150 C  
HETATM    8  C   UNL     1     -10.275   6.419  71.842  1.00  0.00    -0.219 C  
HETATM    9  C   UNL     1     -10.555   4.892  71.613  1.00  0.00    -0.143 C  
HETATM   10  H   UNL     1     -10.283   9.018  66.980  1.00  0.00     0.000 HD 
HETATM   11  C   UNL     1      -7.474   8.465  68.238  1.00  0.00    -0.096 C  
HETATM   12  C   UNL     1      -9.894   4.269  70.387  1.00  0.00    -0.268 C  
HETATM   13  C   UNL     1      -8.211   6.903  68.216  1.00  0.00    -0.123 C  
HETATM   14  C   UNL     1      -9.155   6.326  69.447  1.00  0.00    -0.139 C  
HETATM   15  C   UNL     1     -10.066   5.115  69.144  1.00  0.00    -0.274 C  
HETATM   16  C   UNL     1      -9.859   4.352  67.846  1.00  0.00    -0.141 C  
HETATM   17  C   UNL     1      -8.731   3.350  67.826  1.00  0.00    -0.132 C  
HETATM   18  C   UNL     1      -8.356   2.749  69.165  1.00  0.00    -0.059 C  
HETATM   19  C   UNL     1      -9.083   3.192  70.400  1.00  0.00    -0.192 C  
ENDROOT
BRANCH   4  20
HETATM   20  C   UNL     1     -10.753   9.853  69.202  1.00  0.00    -0.247 C  
HETATM   21  C   UNL     1     -11.740  10.547  69.288  1.00  0.00    -0.281 C  
ENDBRANCH   4  20
BRANCH   7  22
HETATM   22  C   UNL     1      -8.094  11.112  69.054  1.00  0.00    -0.078 C  
HETATM   23  C   UNL     1      -6.827  11.490  69.820  1.00  0.00     0.010 C  
ENDBRANCH   7  22
BRANCH  18  24
HETATM   24  N   UNL     1      -7.403   1.863  69.267  1.00  0.00    -0.043 NA 
HETATM   25  H   UNL     1      -5.478   1.707  68.856  1.00  0.00     0.000 HD 
HETATM   26  H   UNL     1      -7.533   0.927  69.651  1.00  0.00     0.000 HD 
HETATM   27  O   UNL     1      -6.171   2.352  68.782  1.00  0.00    -0.024 OA 
ENDBRANCH  18  24
TORSDOF 3
ENDMDL
MODEL       85
REMARK 921   NORMALIZED FREE ENERGY PREDICTED BY IDOCK:   -3.08 KCAL/MOL
REMARK 922        TOTAL FREE ENERGY PREDICTED BY IDOCK:   -3.80 KCAL/MOL
REMARK 923 INTER-LIGAND FREE ENERGY PREDICTED BY IDOCK:   -3.63 KCAL/MOL
REMARK 924 INTRA-LIGAND FREE ENERGY PREDICTED BY IDOCK:   -0.17 KCAL/MOL
REMARK 927      BINDING AFFINITY PREDICTED BY RF-SCORE:    0.00 PKD
ROOT
HETATM    1  C   UNL     1      -7.937  10.994  66.250  1.00  0.00    -0.148 C  
HETATM    2  C   UNL     1      -7.407  10.094  65.288  1.00  0.00    -0.141 C  
HETATM    3  C   UNL     1      -8.717   9.708  65.870  1.00  0.00    -0.163 C  
HETATM    4  C   UNL     1      -9.631  11.163  66.989  1.00  0.00    -0.181 C  
HETATM    5  C   UNL     1      -7.786  10.164  67.927  1.00  0.00    -0.089 C  
HETATM    6  O   UNL     1     -10.943  11.239  67.541  1.00  0.00    -0.230 OA 
HETATM    7  C   UNL     1      -9.788  10.963  65.635  1.00  0.00    -0.292 C  
HETATM    8  C   UNL     1      -6.382   9.564  68.253  1.00  0.00    -0.053 C  
HETATM    9  C   UNL     1      -6.297   8.635  69.515  1.00  0.00    -0.040 C  
HETATM   10  H   UNL     1     -11.367  11.913  68.060  1.00  0.00     0.000 HD 
HETATM   11  C   UNL     1     -10.893   9.531  66.090  1.00  0.00     0.496 C  
HETATM   12  C   UNL     1      -7.555   7.837  69.842  1.00  0.00    -0.090 C  
HETATM   13  C   UNL     1     -10.476   8.861  67.627  1.00  0.00    -0.320 C  
HETATM   14  C   UNL     1      -8.956   8.954  68.277  1.00  0.00    -0.137 C  
HETATM   15  C   UNL     1      -8.808   8.685  69.792  1.00  0.00    -0.137 C  
HETATM   16  C   UNL     1      -9.985   8.091  70.548  1.00  0.00    -0.193 C  
HETATM   17  C   UNL     1     -10.179   6.599  70.428  1.00  0.00    -0.215 C  
HETATM   18  C   UNL     1      -8.928   5.790  70.148  1.00  0.00    -0.140 C  
HETATM   19  C   UNL     1      -7.617   6.497  69.981  1.00  0.00    -0.100 C  
ENDROOT
BRANCH   4  20
HETATM   20  C   UNL     1      -9.249  12.657  67.155  1.00  0.00    -0.214 C  
HETATM   21  C   UNL     1      -9.022  13.841  67.246  1.00  0.00    -0.227 C  
ENDBRANCH   4  20
BRANCH   7  22
HETATM   22  C   UNL     1     -10.329  11.840  64.540  1.00  0.00    -0.340 C  
HETATM   23  C   UNL     1      -9.824  11.343  63.186  1.00  0.00    -0.413 C  
ENDBRANCH   7  22
BRANCH  18  24
HETATM   24  N   UNL     1      -8.974   4.490  70.036  1.00  0.00    -0.089 NA 
HETATM   25  H   UNL     1      -9.955   2.970  70.827  1.00  0.00     0.000 HD 
HETATM   26  H   UNL     1      -8.393   3.953  69.392  1.00  0.00     0.000 HD 
HETATM   27  O   UNL     1      -9.922   3.916  70.909  1.00  0.00    -0.176 OA 
ENDBRANCH  18  24
TORSDOF 3
ENDMDL
MODEL       86
REMARK 921   NORMALIZED FREE ENERGY PREDICTED BY IDOCK:   -2.77 KCAL/MOL
REMARK 922        TOTAL FREE ENERGY PREDICTED BY IDOCK:   -3.44 KCAL/MOL
REMARK 923 INTER-LIGAND FREE ENERGY PREDICTED BY IDOCK:   -3.98 KCAL/MOL
REMARK 924 INTRA-LIGAND FREE ENERGY PREDICTED BY IDOCK:    0.54 KCAL/MOL
REMARK 927      BINDING AFFINITY PREDICTED BY RF-SCORE:    0.00 PKD
ROOT
HETATM    1  C   UNL     1      -9.650   7.132  68.086  1.00  0.00    -0.134 C  
HETATM    2  C   UNL     1     -10.679   7.083  67.108  1.00  0.00    -0.433 C  
HETATM    3  C   UNL     1      -9.437   7.782  66.693  1.00  0.00    -0.263 C  
HETATM    4  C   UNL     1      -7.847   7.554  67.967  1.00  0.00    -0.121 C  
HETATM    5  C   UNL     1      -9.557   8.903  68.702  1.00  0.00    -0.158 C  
HETATM    6  O   UNL     1      -6.472   7.905  67.827  1.00  0.00    -0.050 OA 
HETATM    7  C   UNL     1      -8.153   6.739  66.899  1.00  0.00    -0.109 C  
HETATM    8  C   UNL     1     -10.920   9.543  69.112  1.00  0.00    -0.148 C  
HETATM    9  C   UNL     1     -10.915  11.091  69.368  1.00  0.00    -0.301 C  
HETATM   10  H   UNL     1      -5.735   7.800  68.418  1.00  0.00     0.000 HD 
HETATM   11  C   UNL     1      -7.449   8.087  65.818  1.00  0.00    -0.081 C  
HETATM   12  C   UNL     1      -9.917  11.901  68.547  1.00  0.00    -0.196 C  
HETATM   13  C   UNL     1      -7.588   9.642  66.556  1.00  0.00    -0.098 C  
HETATM   14  C   UNL     1      -8.756  10.019  67.668  1.00  0.00    -0.121 C  
HETATM   15  C   UNL     1      -8.537  11.279  68.536  1.00  0.00    -0.156 C  
HETATM   16  C   UNL     1      -7.428  12.246  68.155  1.00  0.00    -0.112 C  
HETATM   17  C   UNL     1      -7.735  13.218  67.043  1.00  0.00     0.105 C  
HETATM   18  C   UNL     1      -9.196  13.579  66.864  1.00  0.00    -0.249 C  
HETATM   19  C   UNL     1     -10.224  12.947  67.754  1.00  0.00    -0.224 C  
ENDROOT
BRANCH   4  20
HETATM   20  C   UNL     1      -7.697   6.611  69.189  1.00  0.00    -0.106 C  
HETATM   21  C   UNL     1      -7.660   5.860  70.137  1.00  0.00    -0.090 C  
ENDBRANCH   4  20
BRANCH   7  22
HETATM   22  C   UNL     1      -7.711   5.351  66.527  1.00  0.00    -0.099 C  
HETATM   23  C   UNL     1      -6.208   5.346  66.253  1.00  0.00    -0.034 C  
ENDBRANCH   7  22
BRANCH  18  24
HETATM   24  N   UNL     1      -9.578  14.420  65.941  1.00  0.00    -0.481 NA 
HETATM   25  H   UNL     1     -11.086  15.645  65.587  1.00  0.00     0.000 HD 
HETATM   26  H   UNL     1      -9.049  14.610  65.090  1.00  0.00     0.000 HD 
HETATM   27  O   UNL     1     -10.808  15.034  66.259  1.00  0.00    -0.321 OA 
ENDBRANCH  18  24
TORSDOF 3
ENDMDL
MODEL       87
REMARK 921   NORMALIZED FREE ENERGY PREDICTED BY IDOCK:   -2.70 KCAL/MOL
REMARK 922        TOTAL FREE ENERGY PREDICTED BY IDOCK:   -3.36 KCAL/MOL
REMARK 923 INTER-LIGAND FREE ENERGY PREDICTED BY IDOCK:   -5.38 KCAL/MOL
REMARK 924 INTRA-LIGAND FREE ENERGY PREDICTED BY IDOCK:    2.02 KCAL/MOL
REMARK 927      BINDING AFFINITY PREDICTED BY RF-SCORE:    0.00 PKD
ROOT
HETATM    1  C   UNL     1     -11.659  14.739  67.211  1.00  0.00    -0.385 C  
HETATM    2  C   UNL     1     -11.923  14.663  65.818  1.00  0.00    -0.236 C  
HETATM    3  C   UNL     1     -10.581  14.189  66.240  1.00  0.00    -0.284 C  
HETATM    4  C   UNL     1     -10.333  13.980  68.264  1.00  0.00    -0.247 C  
HETATM    5  C   UNL     1     -10.428  16.133  67.466  1.00  0.00    -0.302 C  
HETATM    6  O   UNL     1      -9.282  13.389  69.027  1.00  0.00    -0.373 OA 
HETATM    7  C   UNL     1     -10.781  13.007  67.398  1.00  0.00    -0.256 C  
HETATM    8  C   UNL     1     -10.786  17.481  66.765  1.00  0.00     0.009 C  
HETATM    9  C   UNL     1      -9.659  18.571  66.731  1.00  0.00    -0.329 C  
HETATM   10  H   UNL     1      -9.167  13.293  69.965  1.00  0.00     0.000 HD 
HETATM   11  C   UNL     1      -8.999  12.810  66.880  1.00  0.00    -0.213 C  
HETATM   12  C   UNL     1      -8.227  18.049  66.677  1.00  0.00    -0.285 C  
HETATM   13  C   UNL     1      -8.100  14.269  67.100  1.00  0.00    -0.154 C  
HETATM   14  C   UNL     1      -8.791  15.773  67.081  1.00  0.00    -0.224 C  
HETATM   15  C   UNL     1      -7.976  16.943  67.678  1.00  0.00    -0.186 C  
HETATM   16  C   UNL     1      -6.506  16.721  67.998  1.00  0.00    -0.152 C  
HETATM   17  C   UNL     1      -5.545  16.808  66.838  1.00  0.00    -0.152 C  
HETATM   18  C   UNL     1      -5.980  17.686  65.682  1.00  0.00     0.007 C  
HETATM   19  C   UNL     1      -7.313  18.371  65.740  1.00  0.00    -0.176 C  
ENDROOT
BRANCH   4  20
HETATM   20  C   UNL     1     -11.391  14.059  69.395  1.00  0.00    -0.317 C  
HETATM   21  C   UNL     1     -12.173  14.183  70.310  1.00  0.00    -0.416 C  
ENDBRANCH   4  20
BRANCH   7  22
HETATM   22  C   UNL     1     -11.508  11.711  67.622  1.00  0.00    -0.373 C  
HETATM   23  C   UNL     1     -12.153  11.716  69.008  1.00  0.00    -0.288 C  
ENDBRANCH   7  22
BRANCH  18  24
HETATM   24  N   UNL     1      -5.224  17.844  64.630  1.00  0.00     0.136 NA 
HETATM   25  H   UNL     1      -4.631  19.303  63.439  1.00  0.00     0.000 HD 
HETATM   26  H   UNL     1      -4.722  17.084  64.170  1.00  0.00     0.000 HD 
HETATM   27  O   UNL     1      -5.181  19.189  64.205  1.00  0.00    -0.183 OA 
ENDBRANCH  18  24
TORSDOF 3
ENDMDL
MODEL       88
REMARK 921   NORMALIZED FREE ENERGY PREDICTED BY IDOCK:   -2.66 KCAL/MOL
REMARK 922        TOTAL FREE ENERGY PREDICTED BY IDOCK:   -3.31 KCAL/MOL
REMARK 923 INTER-LIGAND FREE ENERGY PREDICTED BY IDOCK:   -3.24 KCAL/MOL
REMARK 924 INTRA-LIGAND FREE ENERGY PREDICTED BY IDOCK:   -0.07 KCAL/MOL
REMARK 927      BINDING AFFINITY PREDICTED BY RF-SCORE:    0.00 PKD
ROOT
HETATM    1  C   UNL     1      -8.139   7.612  68.996  1.00  0.00    -0.126 C  
HETATM    2  C   UNL     1      -9.051   7.838  70.062  1.00  0.00    -0.150 C  
HETATM    3  C   UNL     1      -9.151   8.786  68.923  1.00  0.00    -0.141 C  
HETATM    4  C   UNL     1      -8.082   8.255  67.257  1.00  0.00    -0.109 C  
HETATM    5  C   UNL     1      -6.860   8.984  69.062  1.00  0.00    -0.055 C  
HETATM    6  O   UNL     1      -8.071   8.793  65.936  1.00  0.00    -0.103 OA 
HETATM    7  C   UNL     1      -9.387   7.908  67.527  1.00  0.00    -0.166 C  
HETATM    8  C   UNL     1      -6.222   9.240  70.463  1.00  0.00    -0.058 C  
HETATM    9  C   UNL     1      -5.362  10.543  70.611  1.00  0.00    -0.075 C  
HETATM   10  H   UNL     1      -7.576   8.547  65.163  1.00  0.00     0.000 HD 
HETATM   11  C   UNL     1      -9.833   9.649  67.026  1.00  0.00    -0.249 C  
HETATM   12  C   UNL     1      -5.788  11.726  69.748  1.00  0.00    -0.114 C  
HETATM   13  C   UNL     1      -8.529  10.750  67.294  1.00  0.00    -0.124 C  
HETATM   14  C   UNL     1      -7.356  10.508  68.438  1.00  0.00    -0.086 C  
HETATM   15  C   UNL     1      -6.053  11.329  68.312  1.00  0.00    -0.045 C  
HETATM   16  C   UNL     1      -6.013  12.492  67.333  1.00  0.00    -0.147 C  
HETATM   17  C   UNL     1      -6.637  13.785  67.798  1.00  0.00    -0.181 C  
HETATM   18  C   UNL     1      -6.650  14.012  69.296  1.00  0.00    -0.120 C  
HETATM   19  C   UNL     1      -6.089  12.958  70.205  1.00  0.00    -0.092 C  
ENDROOT
BRANCH   4  20
HETATM   20  C   UNL     1      -7.346   6.926  66.945  1.00  0.00    -0.082 C  
HETATM   21  C   UNL     1      -6.833   5.872  66.649  1.00  0.00    -0.059 C  
ENDBRANCH   4  20
BRANCH   7  22
HETATM   22  C   UNL     1     -10.290   6.849  66.958  1.00  0.00    -0.348 C  
HETATM   23  C   UNL     1     -11.205   6.310  68.057  1.00  0.00    -0.223 C  
ENDBRANCH   7  22
BRANCH  18  24
HETATM   24  N   UNL     1      -7.153  15.100  69.812  1.00  0.00    -0.188 NA 
HETATM   25  H   UNL     1      -8.911  15.987  69.971  1.00  0.00     0.000 HD 
HETATM   26  H   UNL     1      -6.605  15.800  70.311  1.00  0.00     0.000 HD 
HETATM   27  O   UNL     1      -8.544  15.195  69.596  1.00  0.00    -0.198 OA 
ENDBRANCH  18  24
TORSDOF 3
ENDMDL
MODEL       89
REMARK 921   NORMALIZED FREE ENERGY PREDICTED BY IDOCK:   -2.56 KCAL/MOL
REMARK 922        TOTAL FREE ENERGY PREDICTED BY IDOCK:   -3.19 KCAL/MOL
REMARK 923 INTER-LIGAND FREE ENERGY PREDICTED BY IDOCK:   -3.67 KCAL/MOL
REMARK 924 INTRA-LIGAND FREE ENERGY PREDICTED BY IDOCK:    0.48 KCAL/MOL
REMARK 927      BINDING AFFINITY PREDICTED BY RF-SCORE:    0.00 PKD
ROOT
HETATM    1  C   UNL     1     -10.006  12.715  66.271  1.00  0.00    -0.266 C  
HETATM    2  C   UNL     1     -11.184  11.997  65.933  1.00  0.00    -0.385 C  
HETATM    3  C   UNL     1     -10.598  11.675  67.258  1.00  0.00    -0.265 C  
HETATM    4  C   UNL     1      -9.114  12.944  67.882  1.00  0.00    -0.201 C  
HETATM    5  C   UNL     1      -8.573  11.506  66.173  1.00  0.00    -0.094 C  
HETATM    6  O   UNL     1      -8.454  13.074  69.139  1.00  0.00    -0.233 OA 
HETATM    7  C   UNL     1     -10.461  13.088  68.131  1.00  0.00    -0.252 C  
HETATM    8  C   UNL     1      -8.503  10.655  64.866  1.00  0.00    -0.116 C  
HETATM    9  C   UNL     1      -7.490   9.456  64.868  1.00  0.00    -0.107 C  
HETATM   10  H   UNL     1      -7.766  13.662  69.428  1.00  0.00     0.000 HD 
HETATM   11  C   UNL     1     -10.248  11.759  69.422  1.00  0.00     0.285 C  
HETATM   12  C   UNL     1      -7.247   8.789  66.218  1.00  0.00    -0.086 C  
HETATM   13  C   UNL     1      -8.937  10.699  69.044  1.00  0.00    -0.165 C  
HETATM   14  C   UNL     1      -8.407  10.425  67.499  1.00  0.00    -0.114 C  
HETATM   15  C   UNL     1      -7.007   9.793  67.324  1.00  0.00    -0.084 C  
HETATM   16  C   UNL     1      -6.310   9.212  68.544  1.00  0.00    -0.053 C  
HETATM   17  C   UNL     1      -6.742   7.831  68.972  1.00  0.00    -0.049 C  
HETATM   18  C   UNL     1      -7.294   6.941  67.877  1.00  0.00    -0.097 C  
HETATM   19  C   UNL     1      -7.405   7.477  66.480  1.00  0.00    -0.084 C  
ENDROOT
BRANCH   4  20
HETATM   20  C   UNL     1      -8.651  14.290  67.265  1.00  0.00    -0.229 C  
HETATM   21  C   UNL     1      -8.223  15.301  66.758  1.00  0.00    -0.215 C  
ENDBRANCH   4  20
BRANCH   7  22
HETATM   22  C   UNL     1     -11.287  14.262  68.579  1.00  0.00    -0.309 C  
HETATM   23  C   UNL     1     -11.682  14.083  70.044  1.00  0.00    -0.349 C  
ENDBRANCH   7  22
BRANCH  18  24
HETATM   24  N   UNL     1      -7.688   5.723  68.129  1.00  0.00    -0.095 NA 
HETATM   25  H   UNL     1      -9.039   4.438  67.475  1.00  0.00     0.000 HD 
HETATM   26  H   UNL     1      -7.276   5.128  68.848  1.00  0.00     0.000 HD 
HETATM   27  O   UNL     1      -8.752   5.325  67.291  1.00  0.00    -0.109 OA 
ENDBRANCH  18  24
TORSDOF 3
ENDMDL
MODEL       90
REMARK 921   NORMALIZED FREE ENERGY PREDICTED BY IDOCK:   -2.50 KCAL/MOL
REMARK 922        TOTAL FREE ENERGY PREDICTED BY IDOCK:   -3.12 KCAL/MOL
REMARK 923 INTER-LIGAND FREE ENERGY PREDICTED BY IDOCK:   -2.93 KCAL/MOL
REMARK 924 INTRA-LIGAND FREE ENERGY PREDICTED BY IDOCK:   -0.19 KCAL/MOL
REMARK 927      BINDING AFFINITY PREDICTED BY RF-SCORE:    0.00 PKD
ROOT
HETATM    1  C   UNL     1      -8.509  10.934  67.365  1.00  0.00    -0.120 C  
HETATM    2  C   UNL     1      -9.218  11.757  68.280  1.00  0.00    -0.188 C  
HETATM    3  C   UNL     1      -8.129  10.939  68.870  1.00  0.00    -0.144 C  
HETATM    4  C   UNL     1      -6.898  10.025  67.509  1.00  0.00    -0.081 C  
HETATM    5  C   UNL     1      -9.018   9.160  67.706  1.00  0.00    -0.132 C  
HETATM    6  O   UNL     1      -5.664   9.329  67.676  1.00  0.00    -0.041 OA 
HETATM    7  C   UNL     1      -6.716  11.277  68.054  1.00  0.00    -0.062 C  
HETATM    8  C   UNL     1     -10.556   8.910  67.798  1.00  0.00    -0.266 C  
HETATM    9  C   UNL     1     -11.003   7.510  68.346  1.00  0.00     0.062 C  
HETATM   10  H   UNL     1      -5.094   8.905  67.045  1.00  0.00     0.000 HD 
HETATM   11  C   UNL     1      -6.129  10.397  69.591  1.00  0.00    -0.052 C  
HETATM   12  C   UNL     1     -10.071   6.862  69.364  1.00  0.00    -0.176 C  
HETATM   13  C   UNL     1      -6.832   8.827  69.741  1.00  0.00    -0.046 C  
HETATM   14  C   UNL     1      -8.294   8.419  69.079  1.00  0.00    -0.119 C  
HETATM   15  C   UNL     1      -8.620   6.915  68.936  1.00  0.00    -0.131 C  
HETATM   16  C   UNL     1      -7.731   5.904  69.642  1.00  0.00    -0.096 C  
HETATM   17  C   UNL     1      -7.989   5.692  71.113  1.00  0.00    -0.112 C  
HETATM   18  C   UNL     1      -9.403   5.967  71.583  1.00  0.00    -0.148 C  
HETATM   19  C   UNL     1     -10.426   6.448  70.597  1.00  0.00    -0.269 C  
ENDROOT
BRANCH   4  20
HETATM   20  C   UNL     1      -6.821  10.217  65.972  1.00  0.00    -0.112 C  
HETATM   21  C   UNL     1      -6.831  10.324  64.767  1.00  0.00    -0.087 C  
ENDBRANCH   4  20
BRANCH   7  22
HETATM   22  C   UNL     1      -5.862  12.444  67.643  1.00  0.00    -0.127 C  
HETATM   23  C   UNL     1      -6.207  13.661  68.500  1.00  0.00    -0.091 C  
ENDBRANCH   7  22
BRANCH  18  24
HETATM   24  N   UNL     1      -9.744   5.807  72.833  1.00  0.00    -0.155 NA 
HETATM   25  H   UNL     1     -10.293   6.917  74.372  1.00  0.00     0.000 HD 
HETATM   26  H   UNL     1      -9.788   4.901  73.300  1.00  0.00     0.000 HD 
HETATM   27  O   UNL     1     -10.045   7.034  73.462  1.00  0.00    -0.240 OA 
ENDBRANCH  18  24
TORSDOF 3
ENDMDL
MODEL       91
REMARK 921   NORMALIZED FREE ENERGY PREDICTED BY IDOCK:   -2.26 KCAL/MOL
REMARK 922        TOTAL FREE ENERGY PREDICTED BY IDOCK:   -2.84 KCAL/MOL
REMARK 923 INTER-LIGAND FREE ENERGY PREDICTED BY IDOCK:   -2.66 KCAL/MOL
REMARK 924 INTRA-LIGAND FREE ENERGY PREDICTED BY IDOCK:   -0.18 KCAL/MOL
REMARK 927      BINDING AFFINITY PREDICTED BY RF-SCORE:    0.00 PKD
ROOT
HETATM    1  C   UNL     1      -9.632   5.377  70.463  1.00  0.00    -0.232 C  
HETATM    2  C   UNL     1      -9.776   3.964  70.466  1.00  0.00    -0.247 C  
HETATM    3  C   UNL     1      -8.453   4.471  70.021  1.00  0.00    -0.088 C  
HETATM    4  C   UNL     1      -8.138   6.470  70.341  1.00  0.00    -0.117 C  
HETATM    5  C   UNL     1      -9.616   5.927  68.668  1.00  0.00    -0.145 C  
HETATM    6  O   UNL     1      -6.961   7.267  70.226  1.00  0.00    -0.058 OA 
HETATM    7  C   UNL     1      -7.835   5.451  71.218  1.00  0.00    -0.109 C  
HETATM    8  C   UNL     1     -10.767   5.356  67.781  1.00  0.00    -0.109 C  
HETATM    9  C   UNL     1     -10.629   5.573  66.234  1.00  0.00    -0.222 C  
HETATM   10  H   UNL     1      -6.814   8.194  70.374  1.00  0.00     0.000 HD 
HETATM   11  C   UNL     1      -6.358   5.110  70.131  1.00  0.00    -0.026 C  
HETATM   12  C   UNL     1      -9.205   5.614  65.689  1.00  0.00    -0.070 C  
HETATM   13  C   UNL     1      -6.635   5.598  68.497  1.00  0.00    -0.052 C  
HETATM   14  C   UNL     1      -8.142   5.682  67.817  1.00  0.00    -0.101 C  
HETATM   15  C   UNL     1      -8.295   6.498  66.514  1.00  0.00    -0.116 C  
HETATM   16  C   UNL     1      -7.041   6.947  65.781  1.00  0.00    -0.072 C  
HETATM   17  C   UNL     1      -6.366   5.917  64.909  1.00  0.00    -0.037 C  
HETATM   18  C   UNL     1      -7.265   4.832  64.350  1.00  0.00    -0.055 C  
HETATM   19  C   UNL     1      -8.721   4.826  64.708  1.00  0.00    -0.153 C  
ENDROOT
BRANCH   4  20
HETATM   20  C   UNL     1      -8.994   7.481  71.148  1.00  0.00    -0.144 C  
HETATM   21  C   UNL     1      -9.615   8.253  71.842  1.00  0.00    -0.288 C  
ENDBRANCH   4  20
BRANCH   7  22
HETATM   22  C   UNL     1      -7.537   5.440  72.691  1.00  0.00    -0.098 C  
HETATM   23  C   UNL     1      -7.423   3.998  73.182  1.00  0.00    -0.074 C  
ENDBRANCH   7  22
BRANCH  18  24
HETATM   24  N   UNL     1      -6.792   3.895  63.574  1.00  0.00    -0.042 NA 
HETATM   25  H   UNL     1      -5.220   2.703  63.481  1.00  0.00     0.000 HD 
HETATM   26  H   UNL     1      -7.256   3.569  62.726  1.00  0.00     0.000 HD 
HETATM   27  O   UNL     1      -5.564   3.385  64.046  1.00  0.00    -0.009 OA 
ENDBRANCH  18  24
TORSDOF 3
ENDMDL
MODEL       92
REMARK 921   NORMALIZED FREE ENERGY PREDICTED BY IDOCK:   -2.20 KCAL/MOL
REMARK 922        TOTAL FREE ENERGY PREDICTED BY IDOCK:   -2.77 KCAL/MOL
REMARK 923 INTER-LIGAND FREE ENERGY PREDICTED BY IDOCK:   -2.75 KCAL/MOL
REMARK 924 INTRA-LIGAND FREE ENERGY PREDICTED BY IDOCK:   -0.02 KCAL/MOL
REMARK 927      BINDING AFFINITY PREDICTED BY RF-SCORE:    0.00 PKD
ROOT
HETATM    1  C   UNL     1      -8.253   9.245  66.440  1.00  0.00    -0.111 C  
HETATM    2  C   UNL     1      -7.651   8.427  67.433  1.00  0.00    -0.098 C  
HETATM    3  C   UNL     1      -8.546   9.496  67.943  1.00  0.00    -0.119 C  
HETATM    4  C   UNL     1      -9.668  10.442  66.512  1.00  0.00    -0.194 C  
HETATM    5  C   UNL     1      -7.421  10.925  66.529  1.00  0.00    -0.142 C  
HETATM    6  O   UNL     1     -10.749  11.366  66.624  1.00  0.00    -0.247 OA 
HETATM    7  C   UNL     1     -10.038   9.321  67.222  1.00  0.00    -0.291 C  
HETATM    8  C   UNL     1      -5.861  10.902  66.541  1.00  0.00    -0.106 C  
HETATM    9  C   UNL     1      -5.145  12.254  66.886  1.00  0.00     0.089 C  
HETATM   10  H   UNL     1     -11.269  11.805  65.961  1.00  0.00     0.000 HD 
HETATM   11  C   UNL     1     -10.377  10.476  68.647  1.00  0.00    -0.201 C  
HETATM   12  C   UNL     1      -5.893  13.181  67.838  1.00  0.00    -0.132 C  
HETATM   13  C   UNL     1      -9.401  11.899  68.569  1.00  0.00    -0.142 C  
HETATM   14  C   UNL     1      -7.929  11.950  67.814  1.00  0.00    -0.144 C  
HETATM   15  C   UNL     1      -7.351  13.340  67.465  1.00  0.00    -0.159 C  
HETATM   16  C   UNL     1      -8.008  14.575  68.059  1.00  0.00    -0.136 C  
HETATM   17  C   UNL     1      -7.639  14.916  69.482  1.00  0.00    -0.137 C  
HETATM   18  C   UNL     1      -6.272  14.449  69.940  1.00  0.00    -0.149 C  
HETATM   19  C   UNL     1      -5.404  13.673  68.995  1.00  0.00    -0.070 C  
ENDROOT
BRANCH   4  20
HETATM   20  C   UNL     1      -9.860  10.079  65.017  1.00  0.00    -0.374 C  
HETATM   21  C   UNL     1      -9.974   9.867  63.831  1.00  0.00     0.434 C  
ENDBRANCH   4  20
BRANCH   7  22
HETATM   22  C   UNL     1     -11.105   8.287  66.994  1.00  0.00     0.487 C  
HETATM   23  C   UNL     1     -10.550   6.898  67.306  1.00  0.00    -0.393 C  
ENDBRANCH   7  22
BRANCH  18  24
HETATM   24  N   UNL     1      -5.841  14.698  71.147  1.00  0.00    -0.114 NA 
HETATM   25  H   UNL     1      -5.670  13.765  72.879  1.00  0.00     0.000 HD 
HETATM   26  H   UNL     1      -5.448  15.593  71.439  1.00  0.00     0.000 HD 
HETATM   27  O   UNL     1      -5.983  13.584  72.001  1.00  0.00    -0.302 OA 
ENDBRANCH  18  24
TORSDOF 3
ENDMDL
MODEL       93
REMARK 921   NORMALIZED FREE ENERGY PREDICTED BY IDOCK:   -2.02 KCAL/MOL
REMARK 922        TOTAL FREE ENERGY PREDICTED BY IDOCK:   -2.56 KCAL/MOL
REMARK 923 INTER-LIGAND FREE ENERGY PREDICTED BY IDOCK:   -3.09 KCAL/MOL
REMARK 924 INTRA-LIGAND FREE ENERGY PREDICTED BY IDOCK:    0.53 KCAL/MOL
REMARK 927      BINDING AFFINITY PREDICTED BY RF-SCORE:    0.00 PKD
ROOT
HETATM    1  C   UNL     1      -9.459  11.316  66.313  1.00  0.00    -0.227 C  
HETATM    2  C   UNL     1     -10.504  10.739  65.543  1.00  0.00    -0.264 C  
HETATM    3  C   UNL     1      -9.956   9.879  66.622  1.00  0.00    -0.277 C  
HETATM    4  C   UNL     1      -8.701  10.830  67.935  1.00  0.00    -0.129 C  
HETATM    5  C   UNL     1      -7.869  10.446  65.828  1.00  0.00    -0.150 C  
HETATM    6  O   UNL     1      -8.139  10.403  69.174  1.00  0.00    -0.129 OA 
HETATM    7  C   UNL     1     -10.068  10.707  68.063  1.00  0.00    -0.181 C  
HETATM    8  C   UNL     1      -7.606  10.336  64.293  1.00  0.00    -0.089 C  
HETATM    9  C   UNL     1      -6.438   9.386  63.851  1.00  0.00    -0.095 C  
HETATM   10  H   UNL     1      -7.558  10.844  69.783  1.00  0.00     0.000 HD 
HETATM   11  C   UNL     1      -9.744   8.949  68.597  1.00  0.00    -0.169 C  
HETATM   12  C   UNL     1      -6.182   8.181  64.750  1.00  0.00    -0.049 C  
HETATM   13  C   UNL     1      -8.279   8.331  67.922  1.00  0.00    -0.128 C  
HETATM   14  C   UNL     1      -7.629   8.882  66.503  1.00  0.00    -0.092 C  
HETATM   15  C   UNL     1      -6.147   8.549  66.217  1.00  0.00    -0.052 C  
HETATM   16  C   UNL     1      -5.446   7.525  67.094  1.00  0.00    -0.030 C  
HETATM   17  C   UNL     1      -5.705   6.073  66.772  1.00  0.00    -0.017 C  
HETATM   18  C   UNL     1      -6.064   5.769  65.332  1.00  0.00    -0.029 C  
HETATM   19  C   UNL     1      -6.169   6.894  64.346  1.00  0.00    -0.036 C  
ENDROOT
BRANCH   4  20
HETATM   20  C   UNL     1      -8.397  12.343  68.079  1.00  0.00    -0.170 C  
HETATM   21  C   UNL     1      -8.165  13.530  68.110  1.00  0.00    -0.162 C  
ENDBRANCH   4  20
BRANCH   7  22
HETATM   22  C   UNL     1     -11.073  11.437  68.910  1.00  0.00    -0.290 C  
HETATM   23  C   UNL     1     -11.157  10.783  70.288  1.00  0.00    -0.248 C  
ENDBRANCH   7  22
BRANCH  18  24
HETATM   24  N   UNL     1      -6.298   4.547  64.936  1.00  0.00    -0.034 NA 
HETATM   25  H   UNL     1      -7.355   3.616  63.552  1.00  0.00     0.000 HD 
HETATM   26  H   UNL     1      -5.887   3.720  65.369  1.00  0.00     0.000 HD 
HETATM   27  O   UNL     1      -7.185   4.505  63.840  1.00  0.00    -0.049 OA 
ENDBRANCH  18  24
TORSDOF 3
ENDMDL
MODEL       94
REMARK 921   NORMALIZED FREE ENERGY PREDICTED BY IDOCK:   -1.97 KCAL/MOL
REMARK 922        TOTAL FREE ENERGY PREDICTED BY IDOCK:   -2.50 KCAL/MOL
REMARK 923 INTER-LIGAND FREE ENERGY PREDICTED BY IDOCK:   -2.92 KCAL/MOL
REMARK 924 INTRA-LIGAND FREE ENERGY PREDICTED BY IDOCK:    0.42 KCAL/MOL
REMARK 927      BINDING AFFINITY PREDICTED BY RF-SCORE:    0.00 PKD
ROOT
HETATM    1  C   UNL     1      -9.716   9.663  67.267  1.00  0.00    -0.213 C  
HETATM    2  C   UNL     1     -10.601   8.809  66.556  1.00  0.00    -0.019 C  
HETATM    3  C   UNL     1     -10.224   8.348  67.916  1.00  0.00    -0.273 C  
HETATM    4  C   UNL     1      -9.234   9.734  69.058  1.00  0.00    -0.165 C  
HETATM    5  C   UNL     1      -8.046   8.808  67.322  1.00  0.00    -0.101 C  
HETATM    6  O   UNL     1      -8.882   9.734  70.440  1.00  0.00    -0.293 OA 
HETATM    7  C   UNL     1     -10.599   9.553  69.004  1.00  0.00    -0.238 C  
HETATM    8  C   UNL     1      -7.523   8.271  65.953  1.00  0.00    -0.081 C  
HETATM    9  C   UNL     1      -6.275   7.323  66.006  1.00  0.00    -0.041 C  
HETATM   10  H   UNL     1      -8.423  10.376  70.969  1.00  0.00     0.000 HD 
HETATM   11  C   UNL     1     -10.329   8.059  70.088  1.00  0.00    -0.215 C  
HETATM   12  C   UNL     1      -6.146   6.458  67.256  1.00  0.00    -0.025 C  
HETATM   13  C   UNL     1      -8.756   7.381  69.868  1.00  0.00    -0.141 C  
HETATM   14  C   UNL     1      -7.888   7.536  68.467  1.00  0.00    -0.122 C  
HETATM   15  C   UNL     1      -6.371   7.244  68.530  1.00  0.00    -0.036 C  
HETATM   16  C   UNL     1      -5.805   6.579  69.773  1.00  0.00    -0.015 C  
HETATM   17  C   UNL     1      -5.970   5.082  69.870  1.00  0.00    -0.021 C  
HETATM   18  C   UNL     1      -6.071   4.341  68.552  1.00  0.00    -0.031 C  
HETATM   19  C   UNL     1      -6.034   5.115  67.268  1.00  0.00    -0.026 C  
ENDROOT
BRANCH   4  20
HETATM   20  C   UNL     1      -8.996  11.241  68.782  1.00  0.00    -0.116 C  
HETATM   21  C   UNL     1      -8.755  12.416  68.629  1.00  0.00     0.034 C  
ENDBRANCH   4  20
BRANCH   7  22
HETATM   22  C   UNL     1     -11.751  10.424  69.422  1.00  0.00    -0.231 C  
HETATM   23  C   UNL     1     -11.847  10.452  70.947  1.00  0.00    -0.475 C  
ENDBRANCH   7  22
BRANCH  18  24
HETATM   24  N   UNL     1      -6.205   3.043  68.514  1.00  0.00    -0.028 NA 
HETATM   25  H   UNL     1      -7.374   1.699  67.660  1.00  0.00     0.000 HD 
HETATM   26  H   UNL     1      -5.605   2.393  69.022  1.00  0.00     0.000 HD 
HETATM   27  O   UNL     1      -7.277   2.644  67.687  1.00  0.00    -0.051 OA 
ENDBRANCH  18  24
TORSDOF 3
ENDMDL
MODEL       95
REMARK 921   NORMALIZED FREE ENERGY PREDICTED BY IDOCK:   -1.87 KCAL/MOL
REMARK 922        TOTAL FREE ENERGY PREDICTED BY IDOCK:   -2.38 KCAL/MOL
REMARK 923 INTER-LIGAND FREE ENERGY PREDICTED BY IDOCK:   -2.90 KCAL/MOL
REMARK 924 INTRA-LIGAND FREE ENERGY PREDICTED BY IDOCK:    0.53 KCAL/MOL
REMARK 927      BINDING AFFINITY PREDICTED BY RF-SCORE:    0.00 PKD
ROOT
HETATM    1  C   UNL     1      -9.618   8.715  68.982  1.00  0.00    -0.163 C  
HETATM    2  C   UNL     1      -9.552   7.990  70.202  1.00  0.00    -0.175 C  
HETATM    3  C   UNL     1      -8.324   7.951  69.368  1.00  0.00    -0.132 C  
HETATM    4  C   UNL     1      -8.303   9.264  67.794  1.00  0.00    -0.116 C  
HETATM    5  C   UNL     1      -9.706   7.455  67.594  1.00  0.00    -0.178 C  
HETATM    6  O   UNL     1      -7.258   9.647  66.903  1.00  0.00    -0.089 OA 
HETATM    7  C   UNL     1      -7.842   9.518  69.068  1.00  0.00    -0.077 C  
HETATM    8  C   UNL     1     -10.771   6.328  67.777  1.00  0.00    -0.383 C  
HETATM    9  C   UNL     1     -10.686   5.120  66.781  1.00  0.00    -0.187 C  
HETATM   10  H   UNL     1      -7.248  10.255  66.173  1.00  0.00     0.000 HD 
HETATM   11  C   UNL     1      -6.345   8.507  68.604  1.00  0.00    -0.053 C  
HETATM   12  C   UNL     1      -9.290   4.765  66.278  1.00  0.00    -0.149 C  
HETATM   13  C   UNL     1      -6.711   7.335  67.389  1.00  0.00    -0.068 C  
HETATM   14  C   UNL     1      -8.223   6.696  67.170  1.00  0.00    -0.113 C  
HETATM   15  C   UNL     1      -8.510   5.982  65.829  1.00  0.00    -0.146 C  
HETATM   16  C   UNL     1      -7.346   5.663  64.906  1.00  0.00    -0.071 C  
HETATM   17  C   UNL     1      -6.537   4.434  65.244  1.00  0.00    -0.047 C  
HETATM   18  C   UNL     1      -7.273   3.344  65.997  1.00  0.00    -0.067 C  
HETATM   19  C   UNL     1      -8.707   3.554  66.379  1.00  0.00    -0.124 C  
ENDROOT
BRANCH   4  20
HETATM   20  C   UNL     1      -9.289  10.415  67.464  1.00  0.00    -0.163 C  
HETATM   21  C   UNL     1     -10.081  11.311  67.285  1.00  0.00    -0.214 C  
ENDBRANCH   4  20
BRANCH   7  22
HETATM   22  C   UNL     1      -7.527  10.797  69.793  1.00  0.00    -0.028 C  
HETATM   23  C   UNL     1      -6.164  11.321  69.343  1.00  0.00    -0.083 C  
ENDBRANCH   7  22
BRANCH  18  24
HETATM   24  N   UNL     1      -6.677   2.232  66.331  1.00  0.00    -0.038 NA 
HETATM   25  H   UNL     1      -6.530   1.046  67.903  1.00  0.00     0.000 HD 
HETATM   26  H   UNL     1      -6.074   1.698  65.705  1.00  0.00     0.000 HD 
HETATM   27  O   UNL     1      -6.965   1.855  67.660  1.00  0.00    -0.038 OA 
ENDBRANCH  18  24
TORSDOF 3
ENDMDL
MODEL       96
REMARK 921   NORMALIZED FREE ENERGY PREDICTED BY IDOCK:   -1.83 KCAL/MOL
REMARK 922        TOTAL FREE ENERGY PREDICTED BY IDOCK:   -2.33 KCAL/MOL
REMARK 923 INTER-LIGAND FREE ENERGY PREDICTED BY IDOCK:   -2.99 KCAL/MOL
REMARK 924 INTRA-LIGAND FREE ENERGY PREDICTED BY IDOCK:    0.66 KCAL/MOL
REMARK 927      BINDING AFFINITY PREDICTED BY RF-SCORE:    0.00 PKD
ROOT
HETATM    1  C   UNL     1      -8.061   8.849  71.483  1.00  0.00    -0.128 C  
HETATM    2  C   UNL     1      -7.448   8.794  72.763  1.00  0.00     0.138 C  
HETATM    3  C   UNL     1      -7.079   7.699  71.831  1.00  0.00    -0.064 C  
HETATM    4  C   UNL     1      -7.689   7.967  69.893  1.00  0.00    -0.099 C  
HETATM    5  C   UNL     1      -9.334   7.471  71.419  1.00  0.00    -0.151 C  
HETATM    6  O   UNL     1      -7.376   7.251  68.700  1.00  0.00    -0.094 OA 
HETATM    7  C   UNL     1      -6.488   8.378  70.429  1.00  0.00    -0.035 C  
HETATM    8  C   UNL     1     -10.306   7.399  72.638  1.00  0.00    -0.292 C  
HETATM    9  C   UNL     1     -11.194   6.110  72.748  1.00  0.00    -0.278 C  
HETATM   10  H   UNL     1      -7.659   7.375  67.802  1.00  0.00     0.000 HD 
HETATM   11  C   UNL     1      -5.955   6.594  70.305  1.00  0.00    -0.023 C  
HETATM   12  C   UNL     1     -10.581   4.828  72.194  1.00  0.00    -0.204 C  
HETATM   13  C   UNL     1      -7.300   5.513  70.390  1.00  0.00    -0.071 C  
HETATM   14  C   UNL     1      -8.718   5.887  71.159  1.00  0.00    -0.132 C  
HETATM   15  C   UNL     1      -9.959   5.027  70.829  1.00  0.00    -0.291 C  
HETATM   16  C   UNL     1      -9.769   3.739  70.045  1.00  0.00    -0.211 C  
HETATM   17  C   UNL     1      -9.299   2.537  70.828  1.00  0.00    -0.213 C  
HETATM   18  C   UNL     1      -9.665   2.522  72.298  1.00  0.00    -0.135 C  
HETATM   19  C   UNL     1     -10.421   3.679  72.880  1.00  0.00    -0.239 C  
ENDROOT
BRANCH   4  20
HETATM   20  C   UNL     1      -8.305   9.223  69.223  1.00  0.00    -0.124 C  
HETATM   21  C   UNL     1      -8.830  10.214  68.769  1.00  0.00    -0.146 C  
ENDBRANCH   4  20
BRANCH   7  22
HETATM   22  C   UNL     1      -5.458   9.367  69.961  1.00  0.00    -0.031 C  
HETATM   23  C   UNL     1      -5.255   9.223  68.453  1.00  0.00    -0.034 C  
ENDBRANCH   7  22
BRANCH  18  24
HETATM   24  N   UNL     1      -9.322   1.527  73.071  1.00  0.00    -0.065 NA 
HETATM   25  H   UNL     1      -8.754   1.231  74.939  1.00  0.00     0.000 HD 
HETATM   26  H   UNL     1      -9.287   0.555  72.765  1.00  0.00     0.000 HD 
HETATM   27  O   UNL     1      -9.004   1.955  74.377  1.00  0.00    -0.060 OA 
ENDBRANCH  18  24
TORSDOF 3
ENDMDL
MODEL       97
REMARK 921   NORMALIZED FREE ENERGY PREDICTED BY IDOCK:   -1.59 KCAL/MOL
REMARK 922        TOTAL FREE ENERGY PREDICTED BY IDOCK:   -2.05 KCAL/MOL
REMARK 923 INTER-LIGAND FREE ENERGY PREDICTED BY IDOCK:   -2.12 KCAL/MOL
REMARK 924 INTRA-LIGAND FREE ENERGY PREDICTED BY IDOCK:    0.08 KCAL/MOL
REMARK 927      BINDING AFFINITY PREDICTED BY RF-SCORE:    0.00 PKD
ROOT
HETATM    1  C   UNL     1      -9.354   4.877  70.368  1.00  0.00    -0.213 C  
HETATM    2  C   UNL     1      -9.443   3.772  69.480  1.00  0.00    -0.257 C  
HETATM    3  C   UNL     1      -8.270   4.660  69.279  1.00  0.00    -0.077 C  
HETATM    4  C   UNL     1      -7.962   6.040  70.763  1.00  0.00    -0.114 C  
HETATM    5  C   UNL     1      -9.754   6.418  69.374  1.00  0.00    -0.160 C  
HETATM    6  O   UNL     1      -6.869   6.919  71.018  1.00  0.00    -0.056 OA 
HETATM    7  C   UNL     1      -7.438   4.766  70.719  1.00  0.00    -0.064 C  
HETATM    8  C   UNL     1     -11.050   6.341  68.509  1.00  0.00    -0.397 C  
HETATM    9  C   UNL     1     -11.265   7.495  67.468  1.00  0.00     0.243 C  
HETATM   10  H   UNL     1      -6.726   7.558  71.706  1.00  0.00     0.000 HD 
HETATM   11  C   UNL     1      -6.226   5.433  69.467  1.00  0.00    -0.029 C  
HETATM   12  C   UNL     1      -9.999   8.106  66.878  1.00  0.00    -0.343 C  
HETATM   13  C   UNL     1      -6.874   6.777  68.597  1.00  0.00    -0.066 C  
HETATM   14  C   UNL     1      -8.496   7.011  68.362  1.00  0.00    -0.123 C  
HETATM   15  C   UNL     1      -8.961   8.421  67.934  1.00  0.00    -0.138 C  
HETATM   16  C   UNL     1      -7.917   9.432  67.489  1.00  0.00    -0.102 C  
HETATM   17  C   UNL     1      -7.415   9.303  66.072  1.00  0.00    -0.095 C  
HETATM   18  C   UNL     1      -8.376   8.672  65.085  1.00  0.00    -0.168 C  
HETATM   19  C   UNL     1      -9.716   8.198  65.563  1.00  0.00     0.586 C  
ENDROOT
BRANCH   4  20
HETATM   20  C   UNL     1      -8.655   6.164  72.145  1.00  0.00    -0.127 C  
HETATM   21  C   UNL     1      -9.240   6.322  73.192  1.00  0.00    -0.131 C  
ENDBRANCH   4  20
BRANCH   7  22
HETATM   22  C   UNL     1      -6.821   3.890  71.774  1.00  0.00    -0.026 C  
HETATM   23  C   UNL     1      -7.515   2.528  71.779  1.00  0.00    -0.040 C  
ENDBRANCH   7  22
BRANCH  18  24
HETATM   24  N   UNL     1      -8.053   8.520  63.829  1.00  0.00    -0.175 NA 
HETATM   25  H   UNL     1      -7.983   7.076  62.483  1.00  0.00     0.000 HD 
HETATM   26  H   UNL     1      -7.720   9.276  63.231  1.00  0.00     0.000 HD 
HETATM   27  O   UNL     1      -8.218   7.187  63.397  1.00  0.00    -0.048 OA 
ENDBRANCH  18  24
TORSDOF 3
ENDMDL
MODEL       98
REMARK 921   NORMALIZED FREE ENERGY PREDICTED BY IDOCK:   -1.51 KCAL/MOL
REMARK 922        TOTAL FREE ENERGY PREDICTED BY IDOCK:   -1.96 KCAL/MOL
REMARK 923 INTER-LIGAND FREE ENERGY PREDICTED BY IDOCK:   -2.46 KCAL/MOL
REMARK 924 INTRA-LIGAND FREE ENERGY PREDICTED BY IDOCK:    0.50 KCAL/MOL
REMARK 927      BINDING AFFINITY PREDICTED BY RF-SCORE:    0.00 PKD
ROOT
HETATM    1  C   UNL     1      -7.995   7.353  64.834  1.00  0.00    -0.128 C  
HETATM    2  C   UNL     1      -7.259   8.172  63.937  1.00  0.00    -0.091 C  
HETATM    3  C   UNL     1      -6.593   7.884  65.233  1.00  0.00    -0.044 C  
HETATM    4  C   UNL     1      -7.497   6.438  66.369  1.00  0.00    -0.086 C  
HETATM    5  C   UNL     1      -8.588   8.456  66.232  1.00  0.00    -0.149 C  
HETATM    6  O   UNL     1      -7.069   5.768  67.554  1.00  0.00    -0.071 OA 
HETATM    7  C   UNL     1      -6.513   6.231  65.427  1.00  0.00    -0.039 C  
HETATM    8  C   UNL     1      -9.284   9.782  65.791  1.00  0.00    -0.242 C  
HETATM    9  C   UNL     1      -9.544  10.842  66.918  1.00  0.00    -0.198 C  
HETATM   10  H   UNL     1      -7.488   5.098  68.081  1.00  0.00     0.000 HD 
HETATM   11  C   UNL     1      -5.316   6.876  66.704  1.00  0.00    -0.018 C  
HETATM   12  C   UNL     1      -8.534  10.863  68.061  1.00  0.00    -0.130 C  
HETATM   13  C   UNL     1      -6.077   7.967  67.807  1.00  0.00    -0.046 C  
HETATM   14  C   UNL     1      -7.414   8.862  67.421  1.00  0.00    -0.085 C  
HETATM   15  C   UNL     1      -8.224   9.477  68.585  1.00  0.00    -0.112 C  
HETATM   16  C   UNL     1      -7.622   9.466  69.981  1.00  0.00    -0.113 C  
HETATM   17  C   UNL     1      -6.607  10.541  70.284  1.00  0.00    -0.138 C  
HETATM   18  C   UNL     1      -6.747  11.825  69.492  1.00  0.00    -0.067 C  
HETATM   19  C   UNL     1      -7.831  11.941  68.463  1.00  0.00    -0.136 C  
ENDROOT
BRANCH   4  20
HETATM   20  C   UNL     1      -8.652   5.474  65.993  1.00  0.00    -0.134 C  
HETATM   21  C   UNL     1      -9.497   4.666  65.682  1.00  0.00    -0.178 C  
ENDBRANCH   4  20
BRANCH   7  22
HETATM   22  C   UNL     1      -6.047   4.997  64.707  1.00  0.00    -0.026 C  
HETATM   23  C   UNL     1      -5.415   4.027  65.704  1.00  0.00    -0.010 C  
ENDBRANCH   7  22
BRANCH  18  24
HETATM   24  N   UNL     1      -5.932  12.828  69.680  1.00  0.00    -0.112 NA 
HETATM   25  H   UNL     1      -5.934  14.793  69.486  1.00  0.00     0.000 HD 
HETATM   26  H   UNL     1      -4.977  12.729  70.024  1.00  0.00     0.000 HD 
HETATM   27  O   UNL     1      -6.528  14.064  69.350  1.00  0.00    -0.108 OA 
ENDBRANCH  18  24
TORSDOF 3
ENDMDL
MODEL       99
REMARK 921   NORMALIZED FREE ENERGY PREDICTED BY IDOCK:   -1.22 KCAL/MOL
REMARK 922        TOTAL FREE ENERGY PREDICTED BY IDOCK:   -1.62 KCAL/MOL
REMARK 923 INTER-LIGAND FREE ENERGY PREDICTED BY IDOCK:   -2.33 KCAL/MOL
REMARK 924 INTRA-LIGAND FREE ENERGY PREDICTED BY IDOCK:    0.71 KCAL/MOL
REMARK 927      BINDING AFFINITY PREDICTED BY RF-SCORE:    0.00 PKD
ROOT
HETATM    1  C   UNL     1     -10.678  15.993  69.495  1.00  0.00    -0.298 C  
HETATM    2  C   UNL     1     -10.871  16.580  68.216  1.00  0.00    -0.352 C  
HETATM    3  C   UNL     1     -11.193  15.134  68.310  1.00  0.00    -0.315 C  
HETATM    4  C   UNL     1     -11.242  14.379  70.215  1.00  0.00    -0.051 C  
HETATM    5  C   UNL     1      -9.165  14.890  69.375  1.00  0.00    -0.046 C  
HETATM    6  O   UNL     1     -11.682  13.118  70.716  1.00  0.00    -0.480 OA 
HETATM    7  C   UNL     1     -12.307  14.921  69.530  1.00  0.00    -0.202 C  
HETATM    8  C   UNL     1      -7.905  15.547  68.728  1.00  0.00    -0.160 C  
HETATM    9  C   UNL     1      -6.722  14.582  68.368  1.00  0.00    -0.105 C  
HETATM   10  H   UNL     1     -11.705  12.769  71.599  1.00  0.00     0.000 HD 
HETATM   11  C   UNL     1     -12.377  13.309  68.593  1.00  0.00     0.081 C  
HETATM   12  C   UNL     1      -7.114  13.160  67.980  1.00  0.00    -0.115 C  
HETATM   13  C   UNL     1     -10.831  12.540  68.520  1.00  0.00    -0.271 C  
HETATM   14  C   UNL     1      -9.400  13.368  68.609  1.00  0.00    -0.010 C  
HETATM   15  C   UNL     1      -8.124  12.559  68.934  1.00  0.00     0.200 C  
HETATM   16  C   UNL     1      -8.189  11.041  68.886  1.00  0.00    -0.127 C  
HETATM   17  C   UNL     1      -8.095  10.406  67.521  1.00  0.00    -0.107 C  
HETATM   18  C   UNL     1      -7.340  11.199  66.473  1.00  0.00    -0.129 C  
HETATM   19  C   UNL     1      -6.775  12.541  66.832  1.00  0.00     0.222 C  
ENDROOT
BRANCH   4  20
HETATM   20  C   UNL     1     -11.183  15.131  71.570  1.00  0.00    -0.323 C  
HETATM   21  C   UNL     1     -11.183  15.658  72.659  1.00  0.00     0.067 C  
ENDBRANCH   4  20
BRANCH   7  22
HETATM   22  C   UNL     1     -13.646  15.432  69.984  1.00  0.00     0.836 C  
HETATM   23  C   UNL     1     -14.171  14.560  71.124  1.00  0.00    -0.172 C  
ENDBRANCH   7  22
BRANCH  18  24
HETATM   24  N   UNL     1      -7.184  10.743  65.260  1.00  0.00    -0.359 NA 
HETATM   25  H   UNL     1      -7.915   9.311  64.112  1.00  0.00     0.000 HD 
HETATM   26  H   UNL     1      -6.530  11.135  64.583  1.00  0.00     0.000 HD 
HETATM   27  O   UNL     1      -8.029   9.643  64.995  1.00  0.00    -0.112 OA 
ENDBRANCH  18  24
TORSDOF 3
ENDMDL
MODEL      100
REMARK 921   NORMALIZED FREE ENERGY PREDICTED BY IDOCK:   -1.04 KCAL/MOL
REMARK 922        TOTAL FREE ENERGY PREDICTED BY IDOCK:   -1.40 KCAL/MOL
REMARK 923 INTER-LIGAND FREE ENERGY PREDICTED BY IDOCK:   -1.55 KCAL/MOL
REMARK 924 INTRA-LIGAND FREE ENERGY PREDICTED BY IDOCK:    0.15 KCAL/MOL
REMARK 927      BINDING AFFINITY PREDICTED BY RF-SCORE:    0.00 PKD
ROOT
HETATM    1  C   UNL     1      -9.004  15.559  68.435  1.00  0.00    -0.189 C  
HETATM    2  C   UNL     1      -8.676  16.199  67.211  1.00  0.00    -0.202 C  
HETATM    3  C   UNL     1      -9.269  14.844  67.084  1.00  0.00    -0.231 C  
HETATM    4  C   UNL     1     -10.050  14.074  68.815  1.00  0.00    -0.180 C  
HETATM    5  C   UNL     1      -7.758  14.179  68.690  1.00  0.00    -0.135 C  
HETATM    6  O   UNL     1     -10.848  12.916  69.054  1.00  0.00    -0.341 OA 
HETATM    7  C   UNL     1     -10.729  14.831  67.886  1.00  0.00    -0.259 C  
HETATM    8  C   UNL     1      -6.261  14.586  68.513  1.00  0.00    -0.089 C  
HETATM    9  C   UNL     1      -5.222  13.413  68.450  1.00  0.00    -0.093 C  
HETATM   10  H   UNL     1     -11.210  12.559  69.856  1.00  0.00     0.000 HD 
HETATM   11  C   UNL     1     -10.794  13.285  66.843  1.00  0.00    -0.286 C  
HETATM   12  C   UNL     1      -5.726  12.106  67.846  1.00  0.00    -0.069 C  
HETATM   13  C   UNL     1      -9.471  12.227  67.180  1.00  0.00    -0.196 C  
HETATM   14  C   UNL     1      -8.015  12.751  67.767  1.00  0.00    -0.157 C  
HETATM   15  C   UNL     1      -7.075  11.697  68.396  1.00  0.00    -0.083 C  
HETATM   16  C   UNL     1      -7.398  10.224  68.206  1.00  0.00    -0.085 C  
HETATM   17  C   UNL     1      -6.997   9.611  66.886  1.00  0.00    -0.085 C  
HETATM   18  C   UNL     1      -5.820  10.261  66.186  1.00  0.00    -0.078 C  
HETATM   19  C   UNL     1      -5.162  11.456  66.809  1.00  0.00    -0.114 C  
ENDROOT
BRANCH   4  20
HETATM   20  C   UNL     1     -10.283  14.770  70.181  1.00  0.00     0.217 C  
HETATM   21  C   UNL     1     -10.540  15.334  71.220  1.00  0.00     0.268 C  
ENDBRANCH   4  20
BRANCH   7  22
HETATM   22  C   UNL     1     -12.026  15.589  67.953  1.00  0.00     0.121 C  
HETATM   23  C   UNL     1     -11.770  17.071  67.679  1.00  0.00     0.924 C  
ENDBRANCH   7  22
BRANCH  18  24
HETATM   24  N   UNL     1      -5.378   9.808  65.044  1.00  0.00    -0.047 NA 
HETATM   25  H   UNL     1      -4.865  10.512  63.272  1.00  0.00     0.000 HD 
HETATM   26  H   UNL     1      -5.194   8.823  64.855  1.00  0.00     0.000 HD 
HETATM   27  O   UNL     1      -5.186  10.842  64.103  1.00  0.00    -0.162 OA 
ENDBRANCH  18  24
TORSDOF 3
ENDMDL
MODEL      101
REMARK 921   NORMALIZED FREE ENERGY PREDICTED BY IDOCK:   -0.50 KCAL/MOL
REMARK 922        TOTAL FREE ENERGY PREDICTED BY IDOCK:   -0.77 KCAL/MOL
REMARK 923 INTER-LIGAND FREE ENERGY PREDICTED BY IDOCK:   -1.04 KCAL/MOL
REMARK 924 INTRA-LIGAND FREE ENERGY PREDICTED BY IDOCK:    0.26 KCAL/MOL
REMARK 927      BINDING AFFINITY PREDICTED BY RF-SCORE:    0.00 PKD
ROOT
HETATM    1  C   UNL     1     -10.369   7.788  66.807  1.00  0.00    -0.348 C  
HETATM    2  C   UNL     1     -11.494   8.491  67.314  1.00  0.00     1.733 C  
HETATM    3  C   UNL     1     -10.182   8.896  67.877  1.00  0.00    -0.274 C  
HETATM    4  C   UNL     1      -8.548   8.130  66.904  1.00  0.00    -0.124 C  
HETATM    5  C   UNL     1      -9.766   6.650  68.172  1.00  0.00    -0.130 C  
HETATM    6  O   UNL     1      -7.158   8.427  67.024  1.00  0.00    -0.076 OA 
HETATM    7  C   UNL     1      -9.177   9.322  66.617  1.00  0.00    -0.190 C  
HETATM    8  C   UNL     1     -10.866   5.776  68.851  1.00  0.00    -0.305 C  
HETATM    9  C   UNL     1     -10.449   5.024  70.163  1.00  0.00    -0.235 C  
HETATM   10  H   UNL     1      -6.401   8.072  66.573  1.00  0.00     0.000 HD 
HETATM   11  C   UNL     1      -8.308  10.011  68.116  1.00  0.00    -0.113 C  
HETATM   12  C   UNL     1      -9.396   5.715  71.023  1.00  0.00    -0.181 C  
HETATM   13  C   UNL     1      -7.966   8.784  69.282  1.00  0.00    -0.108 C  
HETATM   14  C   UNL     1      -8.854   7.394  69.425  1.00  0.00    -0.137 C  
HETATM   15  C   UNL     1      -8.224   6.219  70.208  1.00  0.00    -0.125 C  
HETATM   16  C   UNL     1      -6.969   6.476  71.027  1.00  0.00    -0.068 C  
HETATM   17  C   UNL     1      -7.167   7.110  72.382  1.00  0.00    -0.068 C  
HETATM   18  C   UNL     1      -8.505   6.850  73.044  1.00  0.00    -0.114 C  
HETATM   19  C   UNL     1      -9.535   6.031  72.326  1.00  0.00    -0.159 C  
ENDROOT
BRANCH   4  20
HETATM   20  C   UNL     1      -8.479   7.354  65.564  1.00  0.00    -0.126 C  
HETATM   21  C   UNL     1      -8.345   6.764  64.516  1.00  0.00     0.075 C  
ENDBRANCH   4  20
BRANCH   7  22
HETATM   22  C   UNL     1      -9.141  10.219  65.411  1.00  0.00    -0.221 C  
HETATM   23  C   UNL     1     -10.380   9.974  64.551  1.00  0.00     0.447 C  
ENDBRANCH   7  22
BRANCH  18  24
HETATM   24  N   UNL     1      -8.783   7.339  74.222  1.00  0.00    -0.201 NA 
HETATM   25  H   UNL     1     -10.365   7.628  75.370  1.00  0.00     0.000 HD 
HETATM   26  H   UNL     1      -8.085   7.724  74.859  1.00  0.00     0.000 HD 
HETATM   27  O   UNL     1     -10.163   7.272  74.512  1.00  0.00     0.013 OA 
ENDBRANCH  18  24
TORSDOF 3
ENDMDL
MODEL      102
REMARK 921   NORMALIZED FREE ENERGY PREDICTED BY IDOCK:   -0.27 KCAL/MOL
REMARK 922        TOTAL FREE ENERGY PREDICTED BY IDOCK:   -0.50 KCAL/MOL
REMARK 923 INTER-LIGAND FREE ENERGY PREDICTED BY IDOCK:   -0.99 KCAL/MOL
REMARK 924 INTRA-LIGAND FREE ENERGY PREDICTED BY IDOCK:    0.49 KCAL/MOL
REMARK 927      BINDING AFFINITY PREDICTED BY RF-SCORE:    0.00 PKD
ROOT
HETATM    1  C   UNL     1      -7.745  15.496  67.625  1.00  0.00    -0.178 C  
HETATM    2  C   UNL     1      -6.675  15.242  66.727  1.00  0.00     0.900 C  
HETATM    3  C   UNL     1      -7.960  14.579  66.392  1.00  0.00     0.976 C  
HETATM    4  C   UNL     1      -9.574  15.215  67.484  1.00  0.00    -0.207 C  
HETATM    5  C   UNL     1      -8.038  13.918  68.597  1.00  0.00    -0.097 C  
HETATM    6  O   UNL     1     -10.969  14.962  67.334  1.00  0.00    -0.296 OA 
HETATM    7  C   UNL     1      -9.144  15.747  66.288  1.00  0.00    -0.373 C  
HETATM    8  C   UNL     1      -6.763  13.268  69.221  1.00  0.00    -0.066 C  
HETATM    9  C   UNL     1      -6.931  11.820  69.801  1.00  0.00     0.182 C  
HETATM   10  H   UNL     1     -11.717  15.256  67.840  1.00  0.00     0.000 HD 
HETATM   11  C   UNL     1      -9.928  14.261  65.477  1.00  0.00    -0.341 C  
HETATM   12  C   UNL     1      -7.966  10.939  69.110  1.00  0.00    -0.114 C  
HETATM   13  C   UNL     1      -9.974  12.899  66.538  1.00  0.00    -0.259 C  
HETATM   14  C   UNL     1      -8.898  12.676  67.776  1.00  0.00    -0.179 C  
HETATM   15  C   UNL     1      -9.276  11.660  68.878  1.00  0.00     0.045 C  
HETATM   16  C   UNL     1     -10.457  10.731  68.642  1.00  0.00    -0.213 C  
HETATM   17  C   UNL     1     -10.198   9.517  67.785  1.00  0.00    -0.265 C  
HETATM   18  C   UNL     1      -8.772   9.001  67.782  1.00  0.00    -0.125 C  
HETATM   19  C   UNL     1      -7.728   9.723  68.580  1.00  0.00    -0.080 C  
ENDROOT
BRANCH   4  20
HETATM   20  C   UNL     1      -9.685  16.412  68.464  1.00  0.00    -0.228 C  
HETATM   21  C   UNL     1      -9.722  17.305  69.279  1.00  0.00    -0.030 C  
ENDBRANCH   4  20
BRANCH   7  22
HETATM   22  C   UNL     1      -9.431  17.053  65.601  1.00  0.00     0.172 C  
HETATM   23  C   UNL     1     -10.837  17.021  65.003  1.00  0.00    -0.017 C  
ENDBRANCH   7  22
BRANCH  18  24
HETATM   24  N   UNL     1      -8.435   7.950  67.086  1.00  0.00    -0.116 NA 
HETATM   25  H   UNL     1      -6.791   6.995  66.551  1.00  0.00     0.000 HD 
HETATM   26  H   UNL     1      -9.103   7.338  66.618  1.00  0.00     0.000 HD 
HETATM   27  O   UNL     1      -7.037   7.760  67.058  1.00  0.00    -0.080 OA 
ENDBRANCH  18  24
TORSDOF 3
ENDMDL
MODEL      103
REMARK 921   NORMALIZED FREE ENERGY PREDICTED BY IDOCK:   -0.24 KCAL/MOL
REMARK 922        TOTAL FREE ENERGY PREDICTED BY IDOCK:   -0.47 KCAL/MOL
REMARK 923 INTER-LIGAND FREE ENERGY PREDICTED BY IDOCK:   -1.02 KCAL/MOL
REMARK 924 INTRA-LIGAND FREE ENERGY PREDICTED BY IDOCK:    0.55 KCAL/MOL
REMARK 927      BINDING AFFINITY PREDICTED BY RF-SCORE:    0.00 PKD
ROOT
HETATM    1  C   UNL     1      -7.142  15.908  67.516  1.00  0.00    -0.207 C  
HETATM    2  C   UNL     1      -7.301  15.994  66.107  1.00  0.00     0.933 C  
HETATM    3  C   UNL     1      -8.466  15.450  66.849  1.00  0.00    -0.287 C  
HETATM    4  C   UNL     1      -8.365  15.646  68.887  1.00  0.00    -0.210 C  
HETATM    5  C   UNL     1      -6.964  14.088  67.942  1.00  0.00    -0.168 C  
HETATM    6  O   UNL     1      -9.341  15.423  69.902  1.00  0.00    -0.395 OA 
HETATM    7  C   UNL     1      -8.914  16.557  68.011  1.00  0.00    -0.204 C  
HETATM    8  C   UNL     1      -5.923  13.299  67.088  1.00  0.00     0.460 C  
HETATM    9  C   UNL     1      -5.944  11.737  67.231  1.00  0.00    -0.124 C  
HETATM   10  H   UNL     1      -9.294  15.513  70.847  1.00  0.00     0.000 HD 
HETATM   11  C   UNL     1     -10.382  15.409  67.917  1.00  0.00    -0.247 C  
HETATM   12  C   UNL     1      -7.303  11.112  67.532  1.00  0.00    -0.102 C  
HETATM   13  C   UNL     1      -9.937  13.769  68.231  1.00  0.00    -0.243 C  
HETATM   14  C   UNL     1      -8.418  13.171  67.956  1.00  0.00    -0.181 C  
HETATM   15  C   UNL     1      -8.040  11.837  68.638  1.00  0.00    -0.104 C  
HETATM   16  C   UNL     1      -9.138  11.012  69.291  1.00  0.00     0.074 C  
HETATM   17  C   UNL     1      -9.977  10.160  68.370  1.00  0.00    -0.173 C  
HETATM   18  C   UNL     1      -9.304   9.710  67.089  1.00  0.00    -0.139 C  
HETATM   19  C   UNL     1      -7.900  10.149  66.802  1.00  0.00    -0.108 C  
ENDROOT
BRANCH   4  20
HETATM   20  C   UNL     1      -7.351  16.443  69.746  1.00  0.00     0.286 C  
HETATM   21  C   UNL     1      -6.507  17.003  70.409  1.00  0.00     0.766 C  
ENDBRANCH   4  20
BRANCH   7  22
HETATM   22  C   UNL     1      -9.272  18.010  68.156  1.00  0.00    -0.283 C  
HETATM   23  C   UNL     1     -10.121  18.207  69.412  1.00  0.00     0.060 C  
ENDBRANCH   7  22
BRANCH  18  24
HETATM   24  N   UNL     1      -9.931   8.960  66.223  1.00  0.00    -0.338 NA 
HETATM   25  H   UNL     1      -9.640   8.233  64.410  1.00  0.00     0.000 HD 
HETATM   26  H   UNL     1     -10.852   8.553  66.384  1.00  0.00     0.000 HD 
HETATM   27  O   UNL     1      -9.184   8.779  65.040  1.00  0.00    -0.085 OA 
ENDBRANCH  18  24
TORSDOF 3
ENDMDL
MODEL      104
REMARK 921   NORMALIZED FREE ENERGY PREDICTED BY IDOCK:    0.38 KCAL/MOL
REMARK 922        TOTAL FREE ENERGY PREDICTED BY IDOCK:    0.26 KCAL/MOL
REMARK 923 INTER-LIGAND FREE ENERGY PREDICTED BY IDOCK:   -0.32 KCAL/MOL
REMARK 924 INTRA-LIGAND FREE ENERGY PREDICTED BY IDOCK:    0.58 KCAL/MOL
REMARK 927      BINDING AFFINITY PREDICTED BY RF-SCORE:    0.00 PKD
ROOT
HETATM    1  C   UNL     1     -10.857  14.385  68.002  1.00  0.00    -0.250 C  
HETATM    2  C   UNL     1     -11.568  14.413  66.772  1.00  0.00    -0.399 C  
HETATM    3  C   UNL     1     -11.935  13.311  67.697  1.00  0.00    -0.366 C  
HETATM    4  C   UNL     1     -11.162  13.473  69.589  1.00  0.00    -0.063 C  
HETATM    5  C   UNL     1      -9.674  12.929  67.924  1.00  0.00    -0.218 C  
HETATM    6  O   UNL     1     -11.429  12.736  70.780  1.00  0.00    -0.137 OA 
HETATM    7  C   UNL     1     -12.372  13.976  69.161  1.00  0.00    -0.169 C  
HETATM    8  C   UNL     1      -8.805  12.840  66.630  1.00  0.00    -0.113 C  
HETATM    9  C   UNL     1      -8.014  11.504  66.412  1.00  0.00    -0.046 C  
HETATM   10  H   UNL     1     -11.071  12.812  71.657  1.00  0.00     0.000 HD 
HETATM   11  C   UNL     1     -13.008  12.226  69.273  1.00  0.00     1.568 C  
HETATM   12  C   UNL     1      -8.664  10.243  66.974  1.00  0.00    -0.133 C  
HETATM   13  C   UNL     1     -11.746  11.067  69.050  1.00  0.00    -0.402 C  
HETATM   14  C   UNL     1     -10.370  11.378  68.183  1.00  0.00    -0.206 C  
HETATM   15  C   UNL     1      -9.165  10.432  68.389  1.00  0.00    -0.147 C  
HETATM   16  C   UNL     1      -9.378   9.132  69.147  1.00  0.00    -0.152 C  
HETATM   17  C   UNL     1      -9.982   7.990  68.367  1.00  0.00    -0.204 C  
HETATM   18  C   UNL     1      -9.732   8.003  66.873  1.00  0.00    -0.225 C  
HETATM   19  C   UNL     1      -8.950   9.131  66.268  1.00  0.00    -0.194 C  
ENDROOT
BRANCH   4  20
HETATM   20  C   UNL     1     -10.417  14.665  70.245  1.00  0.00     0.259 C  
HETATM   21  C   UNL     1      -9.882  15.644  70.712  1.00  0.00     1.016 C  
ENDBRANCH   4  20
BRANCH   7  22
HETATM   22  C   UNL     1     -13.297  15.010  69.739  1.00  0.00     0.806 C  
HETATM   23  C   UNL     1     -13.645  14.642  71.180  1.00  0.00    -0.404 C  
ENDBRANCH   7  22
BRANCH  18  24
HETATM   24  N   UNL     1     -10.197   7.060  66.100  1.00  0.00    -0.330 NA 
HETATM   25  H   UNL     1     -11.797   5.910  65.967  1.00  0.00     0.000 HD 
HETATM   26  H   UNL     1      -9.705   6.699  65.282  1.00  0.00     0.000 HD 
HETATM   27  O   UNL     1     -11.459   6.597  66.529  1.00  0.00     0.185 OA 
ENDBRANCH  18  24
TORSDOF 3
ENDMDL
MODEL      105
REMARK 921   NORMALIZED FREE ENERGY PREDICTED BY IDOCK:    1.24 KCAL/MOL
REMARK 922        TOTAL FREE ENERGY PREDICTED BY IDOCK:    1.28 KCAL/MOL
REMARK 923 INTER-LIGAND FREE ENERGY PREDICTED BY IDOCK:   -0.48 KCAL/MOL
REMARK 924 INTRA-LIGAND FREE ENERGY PREDICTED BY IDOCK:    1.76 KCAL/MOL
REMARK 927      BINDING AFFINITY PREDICTED BY RF-SCORE:    0.00 PKD
ROOT
HETATM    1  C   UNL     1      -8.220   3.972  64.985  1.00  0.00    -0.101 C  
HETATM    2  C   UNL     1      -7.137   3.482  65.763  1.00  0.00    -0.063 C  
HETATM    3  C   UNL     1      -8.257   4.080  66.533  1.00  0.00    -0.101 C  
HETATM    4  C   UNL     1      -9.948   4.469  65.442  1.00  0.00    -0.192 C  
HETATM    5  C   UNL     1      -8.149   5.847  65.058  1.00  0.00    -0.132 C  
HETATM    6  O   UNL     1     -11.259   4.858  65.847  1.00  0.00    -0.785 OA 
HETATM    7  C   UNL     1      -9.665   3.297  66.109  1.00  0.00     0.077 C  
HETATM    8  C   UNL     1      -6.753   6.477  64.759  1.00  0.00    -0.042 C  
HETATM    9  C   UNL     1      -6.595   8.005  65.075  1.00  0.00    -0.051 C  
HETATM   10  H   UNL     1     -12.043   5.038  65.342  1.00  0.00     0.000 HD 
HETATM   11  C   UNL     1     -10.128   4.207  67.670  1.00  0.00     0.070 C  
HETATM   12  C   UNL     1      -7.430   8.537  66.235  1.00  0.00    -0.090 C  
HETATM   13  C   UNL     1      -9.860   5.908  67.527  1.00  0.00    -0.139 C  
HETATM   14  C   UNL     1      -8.738   6.568  66.504  1.00  0.00    -0.135 C  
HETATM   15  C   UNL     1      -8.869   8.072  66.173  1.00  0.00    -0.198 C  
HETATM   16  C   UNL     1      -9.827   8.920  66.993  1.00  0.00    -0.277 C  
HETATM   17  C   UNL     1      -9.330   9.387  68.339  1.00  0.00    -0.137 C  
HETATM   18  C   UNL     1      -7.828   9.534  68.474  1.00  0.00    -0.085 C  
HETATM   19  C   UNL     1      -6.947   9.189  67.311  1.00  0.00    -0.078 C  
ENDROOT
BRANCH   4  20
HETATM   20  C   UNL     1     -10.294   4.057  63.988  1.00  0.00    -0.171 C  
HETATM   21  C   UNL     1     -10.611   3.802  62.849  1.00  0.00    -0.205 C  
ENDBRANCH   4  20
BRANCH   7  22
HETATM   22  C   UNL     1     -10.239   1.911  66.005  1.00  0.00     1.751 C  
HETATM   23  C   UNL     1     -10.348   1.509  64.535  1.00  0.00     0.464 C  
ENDBRANCH   7  22
BRANCH  18  24
HETATM   24  N   UNL     1      -7.286   9.942  69.590  1.00  0.00    -0.098 NA 
HETATM   25  H   UNL     1      -7.223  11.579  70.693  1.00  0.00     0.000 HD 
HETATM   26  H   UNL     1      -6.692   9.360  70.181  1.00  0.00     0.000 HD 
HETATM   27  O   UNL     1      -7.618  11.282  69.881  1.00  0.00     0.234 OA 
ENDBRANCH  18  24
TORSDOF 3
ENDMDL
MODEL      106
REMARK 921   NORMALIZED FREE ENERGY PREDICTED BY IDOCK:    1.41 KCAL/MOL
REMARK 922        TOTAL FREE ENERGY PREDICTED BY IDOCK:    1.47 KCAL/MOL
REMARK 923 INTER-LIGAND FREE ENERGY PREDICTED BY IDOCK:    1.56 KCAL/MOL
REMARK 924 INTRA-LIGAND FREE ENERGY PREDICTED BY IDOCK:   -0.08 KCAL/MOL
REMARK 927      BINDING AFFINITY PREDICTED BY RF-SCORE:    0.00 PKD
ROOT
HETATM    1  C   UNL     1      -6.566   8.928  70.623  1.00  0.00    -0.050 C  
HETATM    2  C   UNL     1      -5.148   8.994  70.559  1.00  0.00    -0.020 C  
HETATM    3  C   UNL     1      -5.864   9.450  69.341  1.00  0.00    -0.034 C  
HETATM    4  C   UNL     1      -7.890   9.675  69.559  1.00  0.00    -0.117 C  
HETATM    5  C   UNL     1      -7.104   7.516  69.510  1.00  0.00    -0.069 C  
HETATM    6  O   UNL     1      -8.870  10.255  68.701  1.00  0.00    -0.124 OA 
HETATM    7  C   UNL     1      -6.938  10.647  69.778  1.00  0.00    -0.145 C  
HETATM    8  C   UNL     1      -6.348   6.167  69.724  1.00  0.00    -0.034 C  
HETATM    9  C   UNL     1      -6.580   5.058  68.639  1.00  0.00    -0.049 C  
HETATM   10  H   UNL     1      -9.809  10.360  68.802  1.00  0.00     0.000 HD 
HETATM   11  C   UNL     1      -6.841  10.808  67.922  1.00  0.00    -0.072 C  
HETATM   12  C   UNL     1      -6.853   5.554  67.223  1.00  0.00    -0.060 C  
HETATM   13  C   UNL     1      -7.271   9.336  67.125  1.00  0.00    -0.087 C  
HETATM   14  C   UNL     1      -7.103   7.844  67.822  1.00  0.00    -0.086 C  
HETATM   15  C   UNL     1      -7.878   6.667  67.188  1.00  0.00    -0.105 C  
HETATM   16  C   UNL     1      -8.525   6.866  65.827  1.00  0.00    -0.150 C  
HETATM   17  C   UNL     1      -7.617   6.751  64.627  1.00  0.00    -0.105 C  
HETATM   18  C   UNL     1      -6.397   5.869  64.802  1.00  0.00    -0.037 C  
HETATM   19  C   UNL     1      -6.152   5.207  66.125  1.00  0.00    -0.030 C  
ENDROOT
BRANCH   4  20
HETATM   20  C   UNL     1      -8.749   9.626  70.850  1.00  0.00     0.190 C  
HETATM   21  C   UNL     1      -9.353   9.559  71.896  1.00  0.00     1.115 C  
ENDBRANCH   4  20
BRANCH   7  22
HETATM   22  C   UNL     1      -6.982  11.958  70.513  1.00  0.00     1.713 C  
HETATM   23  C   UNL     1      -5.580  12.318  71.004  1.00  0.00    -0.048 C  
ENDBRANCH   7  22
BRANCH  18  24
HETATM   24  N   UNL     1      -5.548   5.687  63.828  1.00  0.00    -0.014 NA 
HETATM   25  H   UNL     1      -5.305   6.252  61.951  1.00  0.00     0.000 HD 
HETATM   26  H   UNL     1      -4.711   5.108  63.902  1.00  0.00     0.000 HD 
HETATM   27  O   UNL     1      -5.923   6.385  62.660  1.00  0.00    -0.026 OA 
ENDBRANCH  18  24
TORSDOF 3
ENDMDL
MODEL      107
REMARK 921   NORMALIZED FREE ENERGY PREDICTED BY IDOCK:    3.22 KCAL/MOL
REMARK 922        TOTAL FREE ENERGY PREDICTED BY IDOCK:    3.61 KCAL/MOL
REMARK 923 INTER-LIGAND FREE ENERGY PREDICTED BY IDOCK:    3.35 KCAL/MOL
REMARK 924 INTRA-LIGAND FREE ENERGY PREDICTED BY IDOCK:    0.25 KCAL/MOL
REMARK 927      BINDING AFFINITY PREDICTED BY RF-SCORE:    0.00 PKD
ROOT
HETATM    1  C   UNL     1     -10.612  12.605  69.149  1.00  0.00     0.008 C  
HETATM    2  C   UNL     1      -9.617  12.289  70.112  1.00  0.00     3.562 C  
HETATM    3  C   UNL     1      -9.108  12.749  68.796  1.00  0.00     0.168 C  
HETATM    4  C   UNL     1     -10.530  13.523  67.539  1.00  0.00    -0.237 C  
HETATM    5  C   UNL     1     -10.578  11.247  67.854  1.00  0.00    -0.231 C  
HETATM    6  O   UNL     1     -10.411  14.219  66.300  1.00  0.00    -0.281 OA 
HETATM    7  C   UNL     1      -9.788  14.232  68.458  1.00  0.00    -0.231 C  
HETATM    8  C   UNL     1     -10.605   9.789  68.410  1.00  0.00    -0.264 C  
HETATM    9  C   UNL     1     -10.306   8.644  67.380  1.00  0.00    -0.353 C  
HETATM   10  H   UNL     1     -11.070  14.578  65.717  1.00  0.00     0.000 HD 
HETATM   11  C   UNL     1      -8.379  14.113  67.240  1.00  0.00    -0.212 C  
HETATM   12  C   UNL     1      -9.356   9.000  66.242  1.00  0.00    -0.284 C  
HETATM   13  C   UNL     1      -8.512  12.712  66.238  1.00  0.00     0.368 C  
HETATM   14  C   UNL     1      -9.304  11.334  66.703  1.00  0.00    -0.196 C  
HETATM   15  C   UNL     1      -9.696  10.327  65.598  1.00  0.00    -0.308 C  
HETATM   16  C   UNL     1      -9.113  10.505  64.206  1.00  0.00    -0.256 C  
HETATM   17  C   UNL     1      -7.707   9.997  63.995  1.00  0.00    -0.143 C  
HETATM   18  C   UNL     1      -7.273   8.859  64.897  1.00  0.00    -0.091 C  
HETATM   19  C   UNL     1      -8.222   8.339  65.934  1.00  0.00    -0.119 C  
ENDROOT
BRANCH   4  20
HETATM   20  C   UNL     1     -12.012  13.873  67.832  1.00  0.00    -0.393 C  
HETATM   21  C   UNL     1     -13.176  14.168  67.981  1.00  0.00     3.333 C  
ENDBRANCH   4  20
BRANCH   7  22
HETATM   22  C   UNL     1      -9.967  15.595  69.067  1.00  0.00    -0.233 C  
HETATM   23  C   UNL     1     -10.492  15.454  70.495  1.00  0.00    -0.140 C  
ENDBRANCH   7  22
BRANCH  18  24
HETATM   24  N   UNL     1      -6.083   8.333  64.796  1.00  0.00    -0.052 NA 
HETATM   25  H   UNL     1      -4.837   7.748  63.379  1.00  0.00     0.000 HD 
HETATM   26  H   UNL     1      -5.495   8.096  65.596  1.00  0.00     0.000 HD 
HETATM   27  O   UNL     1      -5.704   8.131  63.452  1.00  0.00    -0.064 OA 
ENDBRANCH  18  24
TORSDOF 3
ENDMDL
MODEL      108
REMARK 921   NORMALIZED FREE ENERGY PREDICTED BY IDOCK:    3.58 KCAL/MOL
REMARK 922        TOTAL FREE ENERGY PREDICTED BY IDOCK:    4.02 KCAL/MOL
REMARK 923 INTER-LIGAND FREE ENERGY PREDICTED BY IDOCK:    4.26 KCAL/MOL
REMARK 924 INTRA-LIGAND FREE ENERGY PREDICTED BY IDOCK:   -0.24 KCAL/MOL
REMARK 927      BINDING AFFINITY PREDICTED BY RF-SCORE:    0.00 PKD
ROOT
HETATM    1  C   UNL     1      -8.993  17.137  67.667  1.00  0.00    -0.226 C  
HETATM    2  C   UNL     1      -8.577  17.468  66.350  1.00  0.00    -0.273 C  
HETATM    3  C   UNL     1      -9.603  16.399  66.446  1.00  0.00    -0.313 C  
HETATM    4  C   UNL     1     -10.442  16.167  68.301  1.00  0.00    -0.276 C  
HETATM    5  C   UNL     1      -8.271  15.452  68.068  1.00  0.00    -0.146 C  
HETATM    6  O   UNL     1     -11.561  15.397  68.738  1.00  0.00    -0.332 OA 
HETATM    7  C   UNL     1     -10.904  16.994  67.300  1.00  0.00    -0.123 C  
HETATM    8  C   UNL     1      -6.747  15.289  67.773  1.00  0.00    -0.188 C  
HETATM    9  C   UNL     1      -6.176  13.829  67.839  1.00  0.00    -0.160 C  
HETATM   10  H   UNL     1     -11.950  15.289  69.598  1.00  0.00     0.000 HD 
HETATM   11  C   UNL     1     -11.581  15.452  66.497  1.00  0.00     0.083 C  
HETATM   12  C   UNL     1      -7.144  12.715  67.453  1.00  0.00    -0.138 C  
HETATM   13  C   UNL     1     -10.670  14.049  66.929  1.00  0.00    -0.285 C  
HETATM   14  C   UNL     1      -9.077  14.101  67.374  1.00  0.00    -0.199 C  
HETATM   15  C   UNL     1      -8.498  12.872  68.110  1.00  0.00    -0.176 C  
HETATM   16  C   UNL     1      -9.316  11.591  68.150  1.00  0.00    -0.185 C  
HETATM   17  C   UNL     1      -9.265  10.721  66.918  1.00  0.00    -0.172 C  
HETATM   18  C   UNL     1      -8.004  10.830  66.083  1.00  0.00    -0.157 C  
HETATM   19  C   UNL     1      -6.928  11.788  66.498  1.00  0.00     0.115 C  
ENDROOT
BRANCH   4  20
HETATM   20  C   UNL     1     -10.304  17.063  69.559  1.00  0.00    -0.156 C  
HETATM   21  C   UNL     1     -10.271  17.736  70.564  1.00  0.00     1.859 C  
ENDBRANCH   4  20
BRANCH   7  22
HETATM   22  C   UNL     1     -11.856  18.157  67.309  1.00  0.00     2.276 C  
HETATM   23  C   UNL     1     -11.895  18.800  65.923  1.00  0.00     3.388 C  
ENDBRANCH   7  22
BRANCH  18  24
HETATM   24  N   UNL     1      -7.845  10.116  65.002  1.00  0.00    -0.138 NA 
HETATM   25  H   UNL     1      -6.933  10.258  63.256  1.00  0.00     0.000 HD 
HETATM   26  H   UNL     1      -8.249   9.190  64.867  1.00  0.00     0.000 HD 
HETATM   27  O   UNL     1      -7.048  10.777  64.043  1.00  0.00     0.178 OA 
ENDBRANCH  18  24
TORSDOF 3
ENDMDL
MODEL      109
REMARK 921   NORMALIZED FREE ENERGY PREDICTED BY IDOCK:   11.28 KCAL/MOL
REMARK 922        TOTAL FREE ENERGY PREDICTED BY IDOCK:   13.07 KCAL/MOL
REMARK 923 INTER-LIGAND FREE ENERGY PREDICTED BY IDOCK:   12.59 KCAL/MOL
REMARK 924 INTRA-LIGAND FREE ENERGY PREDICTED BY IDOCK:    0.48 KCAL/MOL
REMARK 927      BINDING AFFINITY PREDICTED BY RF-SCORE:    0.00 PKD
ROOT
HETATM    1  C   UNL     1     -10.892  10.646  71.730  1.00  0.00     3.038 C  
HETATM    2  C   UNL     1     -11.411  11.822  72.333  1.00  0.00     6.210 C  
HETATM    3  C   UNL     1     -12.237  11.246  71.242  1.00  0.00    -0.275 C  
HETATM    4  C   UNL     1     -11.666   9.380  70.615  1.00  0.00    -0.240 C  
HETATM    5  C   UNL     1     -10.291  11.122  70.017  1.00  0.00     0.568 C  
HETATM    6  O   UNL     1     -12.301   8.446  69.745  1.00  0.00     0.482 OA 
HETATM    7  C   UNL     1     -12.570   9.657  71.617  1.00  0.00    -0.493 C  
HETATM    8  C   UNL     1      -9.373  12.383  69.955  1.00  0.00     2.801 C  
HETATM    9  C   UNL     1      -9.079  12.962  68.527  1.00  0.00    -0.049 C  
HETATM   10  H   UNL     1     -12.036   7.581  69.454  1.00  0.00     0.000 HD 
HETATM   11  C   UNL     1     -13.785  10.046  70.256  1.00  0.00     0.773 C  
HETATM   12  C   UNL     1     -10.184  12.782  67.492  1.00  0.00    -0.216 C  
HETATM   13  C   UNL     1     -12.991  10.577  68.817  1.00  0.00     2.717 C  
HETATM   14  C   UNL     1     -11.507  11.313  68.817  1.00  0.00    -0.359 C  
HETATM   15  C   UNL     1     -10.738  11.373  67.478  1.00  0.00    -0.266 C  
HETATM   16  C   UNL     1     -11.473  11.013  66.196  1.00  0.00     0.373 C  
HETATM   17  C   UNL     1     -12.349  12.085  65.598  1.00  0.00     0.366 C  
HETATM   18  C   UNL     1     -11.950  13.514  65.906  1.00  0.00    -0.406 C  
HETATM   19  C   UNL     1     -10.763  13.773  66.785  1.00  0.00    -0.276 C  
ENDROOT
BRANCH   4  20
HETATM   20  C   UNL     1     -10.628   8.411  71.238  1.00  0.00    -0.279 C  
HETATM   21  C   UNL     1      -9.812   7.619  71.650  1.00  0.00    -0.193 C  
ENDBRANCH   4  20
BRANCH   7  22
HETATM   22  C   UNL     1     -13.134   8.818  72.730  1.00  0.00    -0.187 C  
HETATM   23  C   UNL     1     -14.403   8.114  72.252  1.00  0.00    -0.398 C  
ENDBRANCH   7  22
BRANCH  18  24
HETATM   24  N   UNL     1     -12.628  14.524  65.433  1.00  0.00    -0.308 NA 
HETATM   25  H   UNL     1     -13.103  15.295  63.678  1.00  0.00     0.000 HD 
HETATM   26  H   UNL     1     -13.114  15.207  66.014  1.00  0.00     0.000 HD 
HETATM   27  O   UNL     1     -12.610  14.560  64.022  1.00  0.00    -0.797 OA 
ENDBRANCH  18  24
TORSDOF 3
ENDMDL
MODEL      110
REMARK 921   NORMALIZED FREE ENERGY PREDICTED BY IDOCK:   11.31 KCAL/MOL
REMARK 922        TOTAL FREE ENERGY PREDICTED BY IDOCK:   13.11 KCAL/MOL
REMARK 923 INTER-LIGAND FREE ENERGY PREDICTED BY IDOCK:   13.22 KCAL/MOL
REMARK 924 INTRA-LIGAND FREE ENERGY PREDICTED BY IDOCK:   -0.11 KCAL/MOL
REMARK 927      BINDING AFFINITY PREDICTED BY RF-SCORE:    0.00 PKD
ROOT
HETATM    1  C   UNL     1      -8.817  18.586  65.816  1.00  0.00     0.446 C  
HETATM    2  C   UNL     1      -8.055  17.387  65.834  1.00  0.00    -0.050 C  
HETATM    3  C   UNL     1      -9.013  17.552  66.956  1.00  0.00    -0.250 C  
HETATM    4  C   UNL     1     -10.340  19.100  66.743  1.00  0.00    -0.421 C  
HETATM    5  C   UNL     1      -8.162  19.679  67.194  1.00  0.00    -0.323 C  
HETATM    6  O   UNL     1     -11.499  19.455  67.493  1.00  0.00     0.026 OA 
HETATM    7  C   UNL     1     -10.532  17.803  66.318  1.00  0.00    -0.307 C  
HETATM    8  C   UNL     1      -6.612  19.856  67.230  1.00  0.00    -0.231 C  
HETATM    9  C   UNL     1      -6.016  20.532  68.515  1.00  0.00    -0.358 C  
HETATM   10  H   UNL     1     -12.114  20.172  67.395  1.00  0.00     0.000 HD 
HETATM   11  C   UNL     1     -10.875  17.390  68.104  1.00  0.00    -0.273 C  
HETATM   12  C   UNL     1      -6.779  20.287  69.813  1.00  0.00    -0.139 C  
HETATM   13  C   UNL     1     -10.064  18.470  69.182  1.00  0.00    -0.171 C  
HETATM   14  C   UNL     1      -8.670  19.270  68.786  1.00  0.00    -0.383 C  
HETATM   15  C   UNL     1      -8.271  20.485  69.654  1.00  0.00     1.379 C  
HETATM   16  C   UNL     1      -9.005  20.720  70.964  1.00  0.00     2.522 C  
HETATM   17  C   UNL     1      -8.560  19.890  72.143  1.00  0.00     3.183 C  
HETATM   18  C   UNL     1      -7.119  19.421  72.116  1.00  0.00     2.572 C  
HETATM   19  C   UNL     1      -6.254  19.770  70.942  1.00  0.00    -0.133 C  
ENDROOT
BRANCH   4  20
HETATM   20  C   UNL     1     -10.612  19.995  65.506  1.00  0.00    -0.300 C  
HETATM   21  C   UNL     1     -10.847  20.626  64.501  1.00  0.00     2.037 C  
ENDBRANCH   4  20
BRANCH   7  22
HETATM   22  C   UNL     1     -11.499  17.192  65.343  1.00  0.00     0.999 C  
HETATM   23  C   UNL     1     -11.293  15.678  65.296  1.00  0.00    -0.139 C  
ENDBRANCH   7  22
BRANCH  18  24
HETATM   24  N   UNL     1      -6.622  18.706  73.088  1.00  0.00     3.265 NA 
HETATM   25  H   UNL     1      -5.124  17.455  73.389  1.00  0.00     0.000 HD 
HETATM   26  H   UNL     1      -7.010  18.678  74.031  1.00  0.00     0.000 HD 
HETATM   27  O   UNL     1      -5.485  17.975  72.681  1.00  0.00     0.272 OA 
ENDBRANCH  18  24
TORSDOF 3
ENDMDL
MODEL      111
REMARK 921   NORMALIZED FREE ENERGY PREDICTED BY IDOCK:   14.48 KCAL/MOL
REMARK 922        TOTAL FREE ENERGY PREDICTED BY IDOCK:   16.84 KCAL/MOL
REMARK 923 INTER-LIGAND FREE ENERGY PREDICTED BY IDOCK:   16.56 KCAL/MOL
REMARK 924 INTRA-LIGAND FREE ENERGY PREDICTED BY IDOCK:    0.28 KCAL/MOL
REMARK 927      BINDING AFFINITY PREDICTED BY RF-SCORE:    0.00 PKD
ROOT
HETATM    1  C   UNL     1     -11.873  13.178  65.265  1.00  0.00    -0.400 C  
HETATM    2  C   UNL     1     -13.291  13.258  65.216  1.00  0.00     0.553 C  
HETATM    3  C   UNL     1     -12.638  14.117  66.235  1.00  0.00    -0.297 C  
HETATM    4  C   UNL     1     -10.599  14.258  66.073  1.00  0.00    -0.300 C  
HETATM    5  C   UNL     1     -11.425  12.253  66.835  1.00  0.00    -0.418 C  
HETATM    6  O   UNL     1      -9.660  15.108  66.728  1.00  0.00    -0.226 OA 
HETATM    7  C   UNL     1     -11.519  15.086  65.468  1.00  0.00    -0.265 C  
HETATM    8  C   UNL     1     -12.192  10.914  67.067  1.00  0.00     2.238 C  
HETATM    9  C   UNL     1     -12.042  10.261  68.486  1.00  0.00     0.730 C  
HETATM   10  H   UNL     1      -8.715  15.173  66.653  1.00  0.00     0.000 HD 
HETATM   11  C   UNL     1     -11.719  15.893  67.138  1.00  0.00     0.432 C  
HETATM   12  C   UNL     1     -11.842  11.227  69.648  1.00  0.00    -0.430 C  
HETATM   13  C   UNL     1     -11.363  14.801  68.428  1.00  0.00    -0.317 C  
HETATM   14  C   UNL     1     -11.517  13.158  68.295  1.00  0.00    -0.349 C  
HETATM   15  C   UNL     1     -10.801  12.284  69.350  1.00  0.00    -0.012 C  
HETATM   16  C   UNL     1     -10.230  12.954  70.589  1.00  0.00     4.670 C  
HETATM   17  C   UNL     1     -11.207  13.269  71.695  1.00  0.00     3.565 C  
HETATM   18  C   UNL     1     -12.430  12.378  71.770  1.00  0.00     0.175 C  
HETATM   19  C   UNL     1     -12.611  11.289  70.754  1.00  0.00    -0.425 C  
ENDROOT
BRANCH   4  20
HETATM   20  C   UNL     1      -9.669  13.758  64.937  1.00  0.00     0.162 C  
HETATM   21  C   UNL     1      -8.986  13.299  64.051  1.00  0.00     3.793 C  
ENDBRANCH   4  20
BRANCH   7  22
HETATM   22  C   UNL     1     -11.410  16.052  64.321  1.00  0.00    -0.146 C  
HETATM   23  C   UNL     1     -12.343  17.239  64.558  1.00  0.00     4.816 C  
ENDBRANCH   7  22
BRANCH  18  24
HETATM   24  N   UNL     1     -13.337  12.549  72.693  1.00  0.00    -0.494 NA 
HETATM   25  H   UNL     1     -15.065  13.479  72.916  1.00  0.00     0.000 HD 
HETATM   26  H   UNL     1     -13.280  12.149  73.629  1.00  0.00     0.000 HD 
HETATM   27  O   UNL     1     -14.405  13.354  72.244  1.00  0.00    -0.500 OA 
ENDBRANCH  18  24
TORSDOF 3
ENDMDL
MODEL      112
REMARK 921   NORMALIZED FREE ENERGY PREDICTED BY IDOCK:   16.12 KCAL/MOL
REMARK 922        TOTAL FREE ENERGY PREDICTED BY IDOCK:   18.76 KCAL/MOL
REMARK 923 INTER-LIGAND FREE ENERGY PREDICTED BY IDOCK:   17.73 KCAL/MOL
REMARK 924 INTRA-LIGAND FREE ENERGY PREDICTED BY IDOCK:    1.03 KCAL/MOL
REMARK 927      BINDING AFFINITY PREDICTED BY RF-SCORE:    0.00 PKD
ROOT
HETATM    1  C   UNL     1     -11.579   5.708  70.848  1.00  0.00     0.337 C  
HETATM    2  C   UNL     1     -12.191   5.860  69.575  1.00  0.00     2.685 C  
HETATM    3  C   UNL     1     -11.188   6.895  69.930  1.00  0.00    -0.334 C  
HETATM    4  C   UNL     1     -10.071   6.484  71.599  1.00  0.00    -0.182 C  
HETATM    5  C   UNL     1     -12.267   7.056  71.958  1.00  0.00    -0.317 C  
HETATM    6  O   UNL     1      -8.915   7.123  72.137  1.00  0.00    -0.129 OA 
HETATM    7  C   UNL     1      -9.754   6.132  70.305  1.00  0.00    -0.195 C  
HETATM    8  C   UNL     1     -13.822   7.194  71.960  1.00  0.00    -0.214 C  
HETATM    9  C   UNL     1     -14.408   8.471  72.657  1.00  0.00    -0.206 C  
HETATM   10  H   UNL     1      -8.397   6.933  72.911  1.00  0.00     0.000 HD 
HETATM   11  C   UNL     1      -9.249   7.912  70.066  1.00  0.00    -0.153 C  
HETATM   12  C   UNL     1     -13.539   9.723  72.596  1.00  0.00    -0.076 C  
HETATM   13  C   UNL     1     -10.111   8.973  71.122  1.00  0.00    -0.365 C  
HETATM   14  C   UNL     1     -11.612   8.629  71.728  1.00  0.00    -0.403 C  
HETATM   15  C   UNL     1     -12.095   9.442  72.951  1.00  0.00     1.135 C  
HETATM   16  C   UNL     1     -11.310  10.677  73.363  1.00  0.00    10.928 C  
HETATM   17  C   UNL     1     -11.575  11.937  72.576  1.00  0.00     6.163 C  
HETATM   18  C   UNL     1     -12.949  12.046  71.946  1.00  0.00    -0.323 C  
HETATM   19  C   UNL     1     -13.925  10.919  72.108  1.00  0.00     0.443 C  
ENDROOT
BRANCH   4  20
HETATM   20  C   UNL     1      -9.988   5.175  72.425  1.00  0.00    -0.225 C  
HETATM   21  C   UNL     1      -9.974   4.188  73.125  1.00  0.00    -0.192 C  
ENDBRANCH   4  20
BRANCH   7  22
HETATM   22  C   UNL     1      -8.787   5.131  69.737  1.00  0.00    -0.130 C  
HETATM   23  C   UNL     1      -7.701   4.825  70.767  1.00  0.00    -0.069 C  
ENDBRANCH   7  22
BRANCH  18  24
HETATM   24  N   UNL     1     -13.294  13.097  71.253  1.00  0.00    -0.129 NA 
HETATM   25  H   UNL     1     -13.130  15.062  71.362  1.00  0.00     0.000 HD 
HETATM   26  H   UNL     1     -13.804  13.055  70.370  1.00  0.00     0.000 HD 
HETATM   27  O   UNL     1     -12.879  14.298  71.867  1.00  0.00    -0.323 OA 
ENDBRANCH  18  24
TORSDOF 3
ENDMDL
MODEL      113
REMARK 921   NORMALIZED FREE ENERGY PREDICTED BY IDOCK:   16.67 KCAL/MOL
REMARK 922        TOTAL FREE ENERGY PREDICTED BY IDOCK:   19.41 KCAL/MOL
REMARK 923 INTER-LIGAND FREE ENERGY PREDICTED BY IDOCK:   19.63 KCAL/MOL
REMARK 924 INTRA-LIGAND FREE ENERGY PREDICTED BY IDOCK:   -0.22 KCAL/MOL
REMARK 927      BINDING AFFINITY PREDICTED BY RF-SCORE:    0.00 PKD
ROOT
HETATM    1  C   UNL     1      -8.901  11.778  66.805  1.00  0.00    -0.191 C  
HETATM    2  C   UNL     1      -8.091  10.738  67.334  1.00  0.00    -0.112 C  
HETATM    3  C   UNL     1      -9.168  11.229  68.232  1.00  0.00    -0.176 C  
HETATM    4  C   UNL     1     -10.534  12.474  67.346  1.00  0.00    -0.219 C  
HETATM    5  C   UNL     1      -8.444  13.354  67.716  1.00  0.00    -0.181 C  
HETATM    6  O   UNL     1     -11.780  12.987  67.814  1.00  0.00    -0.324 OA 
HETATM    7  C   UNL     1     -10.622  11.101  67.428  1.00  0.00    -0.272 C  
HETATM    8  C   UNL     1      -6.915  13.658  67.805  1.00  0.00    -0.168 C  
HETATM    9  C   UNL     1      -6.488  14.808  68.782  1.00  0.00    -0.087 C  
HETATM   10  H   UNL     1     -12.413  13.564  67.403  1.00  0.00     0.000 HD 
HETATM   11  C   UNL     1     -11.129  11.355  69.206  1.00  0.00    -0.313 C  
HETATM   12  C   UNL     1      -7.369  15.001  70.012  1.00  0.00     0.045 C  
HETATM   13  C   UNL     1     -10.484  12.819  69.856  1.00  0.00     1.247 C  
HETATM   14  C   UNL     1      -9.094  13.526  69.299  1.00  0.00     0.727 C  
HETATM   15  C   UNL     1      -8.844  15.004  69.672  1.00  0.00     0.020 C  
HETATM   16  C   UNL     1      -9.719  15.648  70.735  1.00  0.00     1.207 C  
HETATM   17  C   UNL     1      -9.361  15.354  72.171  1.00  0.00     5.668 C  
HETATM   18  C   UNL     1      -7.905  15.027  72.437  1.00  0.00     6.200 C  
HETATM   19  C   UNL     1      -6.940  14.985  71.290  1.00  0.00     1.365 C  
ENDROOT
BRANCH   4  20
HETATM   20  C   UNL     1     -10.717  12.821  65.846  1.00  0.00    -0.294 C  
HETATM   21  C   UNL     1     -10.830  13.166  64.692  1.00  0.00    -0.383 C  
ENDBRANCH   4  20
BRANCH   7  22
HETATM   22  C   UNL     1     -11.454  10.095  66.683  1.00  0.00     1.030 C  
HETATM   23  C   UNL     1     -10.913   8.689  66.940  1.00  0.00     0.267 C  
ENDBRANCH   7  22
BRANCH  18  24
HETATM   24  N   UNL     1      -7.479  14.767  73.643  1.00  0.00     4.609 NA 
HETATM   25  H   UNL     1      -6.057  13.710  74.515  1.00  0.00     0.000 HD 
HETATM   26  H   UNL     1      -7.901  15.147  74.490  1.00  0.00     0.000 HD 
HETATM   27  O   UNL     1      -6.366  13.900  73.637  1.00  0.00    -0.036 OA 
ENDBRANCH  18  24
TORSDOF 3
ENDMDL
MODEL      114
REMARK 921   NORMALIZED FREE ENERGY PREDICTED BY IDOCK:   20.76 KCAL/MOL
REMARK 922        TOTAL FREE ENERGY PREDICTED BY IDOCK:   24.22 KCAL/MOL
REMARK 923 INTER-LIGAND FREE ENERGY PREDICTED BY IDOCK:   23.24 KCAL/MOL
REMARK 924 INTRA-LIGAND FREE ENERGY PREDICTED BY IDOCK:    0.98 KCAL/MOL
REMARK 927      BINDING AFFINITY PREDICTED BY RF-SCORE:    0.00 PKD
ROOT
HETATM    1  C   UNL     1      -7.063  14.960  68.454  1.00  0.00    -0.113 C  
HETATM    2  C   UNL     1      -7.710  15.370  67.258  1.00  0.00    -0.245 C  
HETATM    3  C   UNL     1      -8.612  14.963  68.364  1.00  0.00    -0.159 C  
HETATM    4  C   UNL     1      -7.695  14.704  70.180  1.00  0.00     0.542 C  
HETATM    5  C   UNL     1      -7.275  13.100  68.588  1.00  0.00    -0.106 C  
HETATM    6  O   UNL     1      -8.234  14.502  71.485  1.00  0.00     2.647 OA 
HETATM    7  C   UNL     1      -8.243  15.877  69.708  1.00  0.00     0.233 C  
HETATM    8  C   UNL     1      -6.913  12.290  67.304  1.00  0.00    -0.142 C  
HETATM    9  C   UNL     1      -7.334  10.778  67.291  1.00  0.00    -0.097 C  
HETATM   10  H   UNL     1      -7.810  14.382  72.326  1.00  0.00     0.000 HD 
HETATM   11  C   UNL     1      -9.903  15.136  70.129  1.00  0.00     0.092 C  
HETATM   12  C   UNL     1      -8.595  10.429  68.074  1.00  0.00    -0.123 C  
HETATM   13  C   UNL     1      -9.872  13.410  70.068  1.00  0.00     2.302 C  
HETATM   14  C   UNL     1      -8.815  12.554  69.123  1.00  0.00     0.692 C  
HETATM   15  C   UNL     1      -8.614  11.057  69.451  1.00  0.00     0.181 C  
HETATM   16  C   UNL     1      -9.572  10.385  70.421  1.00  0.00     0.601 C  
HETATM   17  C   UNL     1     -10.906   9.955  69.861  1.00  0.00    -0.316 C  
HETATM   18  C   UNL     1     -10.931   9.641  68.379  1.00  0.00    -0.113 C  
HETATM   19  C   UNL     1      -9.676   9.799  67.573  1.00  0.00    -0.192 C  
ENDROOT
BRANCH   4  20
HETATM   20  C   UNL     1      -6.247  15.055  70.606  1.00  0.00     0.013 C  
HETATM   21  C   UNL     1      -5.139  15.315  71.016  1.00  0.00    -0.147 C  
ENDBRANCH   4  20
BRANCH   7  22
HETATM   22  C   UNL     1      -8.079  17.310  70.130  1.00  0.00     2.382 C  
HETATM   23  C   UNL     1      -7.655  17.370  71.597  1.00  0.00     8.841 C  
ENDBRANCH   7  22
BRANCH  18  24
HETATM   24  N   UNL     1     -12.027   9.248  67.789  1.00  0.00     1.758 NA 
HETATM   25  H   UNL     1     -13.936   9.749  67.728  1.00  0.00     0.000 HD 
HETATM   26  H   UNL     1     -12.074   8.464  67.138  1.00  0.00     0.000 HD 
HETATM   27  O   UNL     1     -13.138  10.035  68.157  1.00  0.00     4.705 OA 
ENDBRANCH  18  24
TORSDOF 3
ENDMDL
MODEL      115
REMARK 921   NORMALIZED FREE ENERGY PREDICTED BY IDOCK:   23.69 KCAL/MOL
REMARK 922        TOTAL FREE ENERGY PREDICTED BY IDOCK:   27.67 KCAL/MOL
REMARK 923 INTER-LIGAND FREE ENERGY PREDICTED BY IDOCK:   27.11 KCAL/MOL
REMARK 924 INTRA-LIGAND FREE ENERGY PREDICTED BY IDOCK:    0.56 KCAL/MOL
REMARK 927      BINDING AFFINITY PREDICTED BY RF-SCORE:    0.00 PKD
ROOT
HETATM    1  C   UNL     1      -8.813  15.656  67.379  1.00  0.00    -0.204 C  
HETATM    2  C   UNL     1     -10.024  15.826  66.656  1.00  0.00    -0.268 C  
HETATM    3  C   UNL     1      -9.669  16.935  67.577  1.00  0.00    -0.249 C  
HETATM    4  C   UNL     1      -7.773  16.846  68.351  1.00  0.00    -0.219 C  
HETATM    5  C   UNL     1      -9.278  15.311  69.164  1.00  0.00    -0.234 C  
HETATM    6  O   UNL     1      -7.019  17.795  69.103  1.00  0.00    -0.256 OA 
HETATM    7  C   UNL     1      -8.144  17.479  67.184  1.00  0.00    -0.229 C  
HETATM    8  C   UNL     1     -10.359  14.205  69.373  1.00  0.00     0.060 C  
HETATM    9  C   UNL     1     -10.962  14.083  70.816  1.00  0.00     0.953 C  
HETATM   10  H   UNL     1      -6.140  17.755  69.461  1.00  0.00     0.000 HD 
HETATM   11  C   UNL     1      -8.822  18.836  68.270  1.00  0.00    -0.363 C  
HETATM   12  C   UNL     1     -11.042  15.378  71.618  1.00  0.00    -0.273 C  
HETATM   13  C   UNL     1      -9.291  18.242  69.823  1.00  0.00     0.954 C  
HETATM   14  C   UNL     1      -9.752  16.676  70.096  1.00  0.00     1.019 C  
HETATM   15  C   UNL     1      -9.757  16.176  71.559  1.00  0.00     4.012 C  
HETATM   16  C   UNL     1      -9.609  17.192  72.680  1.00  0.00    11.330 C  
HETATM   17  C   UNL     1     -10.854  17.952  73.067  1.00  0.00     3.063 C  
HETATM   18  C   UNL     1     -12.169  17.245  72.808  1.00  0.00     1.546 C  
HETATM   19  C   UNL     1     -12.161  15.887  72.173  1.00  0.00    -0.596 C  
ENDROOT
BRANCH   4  20
HETATM   20  C   UNL     1      -6.600  15.907  67.969  1.00  0.00    -0.143 C  
HETATM   21  C   UNL     1      -5.735  15.139  67.615  1.00  0.00    -0.055 C  
ENDBRANCH   4  20
BRANCH   7  22
HETATM   22  C   UNL     1      -7.352  17.967  66.003  1.00  0.00    -0.306 C  
HETATM   23  C   UNL     1      -7.122  19.473  66.125  1.00  0.00    -0.271 C  
ENDBRANCH   7  22
BRANCH  18  24
HETATM   24  N   UNL     1     -13.309  17.802  73.113  1.00  0.00     4.632 NA 
HETATM   25  H   UNL     1     -15.235  17.507  72.792  1.00  0.00     0.000 HD 
HETATM   26  H   UNL     1     -13.396  18.646  73.680  1.00  0.00     0.000 HD 
HETATM   27  O   UNL     1     -14.405  17.101  72.569  1.00  0.00     3.209 OA 
ENDBRANCH  18  24
TORSDOF 3
ENDMDL
MODEL      116
REMARK 921   NORMALIZED FREE ENERGY PREDICTED BY IDOCK:   28.27 KCAL/MOL
REMARK 922        TOTAL FREE ENERGY PREDICTED BY IDOCK:   33.05 KCAL/MOL
REMARK 923 INTER-LIGAND FREE ENERGY PREDICTED BY IDOCK:   32.44 KCAL/MOL
REMARK 924 INTRA-LIGAND FREE ENERGY PREDICTED BY IDOCK:    0.60 KCAL/MOL
REMARK 927      BINDING AFFINITY PREDICTED BY RF-SCORE:    0.00 PKD
ROOT
HETATM    1  C   UNL     1     -12.613  12.188  71.104  1.00  0.00    -0.360 C  
HETATM    2  C   UNL     1     -12.539  11.213  72.135  1.00  0.00     0.259 C  
HETATM    3  C   UNL     1     -11.244  11.576  71.505  1.00  0.00     3.177 C  
HETATM    4  C   UNL     1     -11.308  13.213  70.272  1.00  0.00     0.343 C  
HETATM    5  C   UNL     1     -12.305  11.300  69.479  1.00  0.00    -0.243 C  
HETATM    6  O   UNL     1     -10.267  13.963  69.650  1.00  0.00    -0.329 OA 
HETATM    7  C   UNL     1     -11.045  13.226  71.625  1.00  0.00     4.153 C  
HETATM    8  C   UNL     1     -13.146  10.004  69.255  1.00  0.00     2.343 C  
HETATM    9  C   UNL     1     -12.722   9.099  68.045  1.00  0.00     8.284 C  
HETATM   10  H   UNL     1     -10.297  14.721  69.079  1.00  0.00     0.000 HD 
HETATM   11  C   UNL     1      -9.339  12.615  71.182  1.00  0.00    12.135 C  
HETATM   12  C   UNL     1     -11.238   9.107  67.692  1.00  0.00     0.418 C  
HETATM   13  C   UNL     1      -9.339  11.723  69.703  1.00  0.00     1.379 C  
HETATM   14  C   UNL     1     -10.666  10.917  69.128  1.00  0.00    -0.265 C  
HETATM   15  C   UNL     1     -10.665  10.507  67.638  1.00  0.00    -0.324 C  
HETATM   16  C   UNL     1      -9.368  10.612  66.852  1.00  0.00    -0.180 C  
HETATM   17  C   UNL     1      -8.378   9.488  67.033  1.00  0.00    -0.124 C  
HETATM   18  C   UNL     1      -8.966   8.144  67.415  1.00  0.00    -0.137 C  
HETATM   19  C   UNL     1     -10.447   8.019  67.615  1.00  0.00    -0.301 C  
ENDROOT
BRANCH   4  20
HETATM   20  C   UNL     1     -12.456  14.232  70.054  1.00  0.00    -0.355 C  
HETATM   21  C   UNL     1     -13.324  15.039  69.808  1.00  0.00     0.806 C  
ENDBRANCH   4  20
BRANCH   7  22
HETATM   22  C   UNL     1     -11.063  14.329  72.647  1.00  0.00     2.348 C  
HETATM   23  C   UNL     1     -12.498  14.576  73.111  1.00  0.00    -0.358 C  
ENDBRANCH   7  22
BRANCH  18  24
HETATM   24  N   UNL     1      -8.206   7.097  67.587  1.00  0.00    -0.114 NA 
HETATM   25  H   UNL     1      -8.390   5.206  68.127  1.00  0.00     0.000 HD 
HETATM   26  H   UNL     1      -7.196   7.095  67.439  1.00  0.00     0.000 HD 
HETATM   27  O   UNL     1      -8.943   5.968  68.002  1.00  0.00    -0.114 OA 
ENDBRANCH  18  24
TORSDOF 3
ENDMDL
MODEL      117
REMARK 921   NORMALIZED FREE ENERGY PREDICTED BY IDOCK:   30.94 KCAL/MOL
REMARK 922        TOTAL FREE ENERGY PREDICTED BY IDOCK:   36.19 KCAL/MOL
REMARK 923 INTER-LIGAND FREE ENERGY PREDICTED BY IDOCK:   35.64 KCAL/MOL
REMARK 924 INTRA-LIGAND FREE ENERGY PREDICTED BY IDOCK:    0.55 KCAL/MOL
REMARK 927      BINDING AFFINITY PREDICTED BY RF-SCORE:    0.00 PKD
ROOT
HETATM    1  C   UNL     1     -12.215  12.228  69.824  1.00  0.00    -0.201 C  
HETATM    2  C   UNL     1     -13.133  11.543  68.984  1.00  0.00     2.234 C  
HETATM    3  C   UNL     1     -11.772  11.735  68.421  1.00  0.00    -0.389 C  
HETATM    4  C   UNL     1     -10.369  12.408  69.755  1.00  0.00     1.168 C  
HETATM    5  C   UNL     1     -11.953  13.933  69.085  1.00  0.00    -0.404 C  
HETATM    6  O   UNL     1      -8.953  12.534  69.647  1.00  0.00     0.829 OA 
HETATM    7  C   UNL     1     -10.666  11.090  69.487  1.00  0.00    -0.231 C  
HETATM    8  C   UNL     1     -13.255  14.712  68.720  1.00  0.00     2.445 C  
HETATM    9  C   UNL     1     -13.073  16.011  67.859  1.00  0.00     3.688 C  
HETATM   10  H   UNL     1      -8.303  12.846  70.265  1.00  0.00     0.000 HD 
HETATM   11  C   UNL     1      -9.681  11.306  67.918  1.00  0.00    -0.185 C  
HETATM   12  C   UNL     1     -11.896  16.009  66.889  1.00  0.00     0.854 C  
HETATM   13  C   UNL     1      -9.690  12.946  67.374  1.00  0.00    -0.201 C  
HETATM   14  C   UNL     1     -10.908  14.012  67.723  1.00  0.00    -0.257 C  
HETATM   15  C   UNL     1     -10.617  15.518  67.531  1.00  0.00    -0.297 C  
HETATM   16  C   UNL     1      -9.356  15.931  66.790  1.00  0.00    -0.262 C  
HETATM   17  C   UNL     1      -9.414  15.878  65.283  1.00  0.00     0.309 C  
HETATM   18  C   UNL     1     -10.788  16.052  64.667  1.00  0.00    -0.179 C  
HETATM   19  C   UNL     1     -11.978  16.230  65.562  1.00  0.00     1.347 C  
ENDROOT
BRANCH   4  20
HETATM   20  C   UNL     1     -10.474  12.561  71.295  1.00  0.00     7.090 C  
HETATM   21  C   UNL     1     -10.593  12.752  72.483  1.00  0.00    12.550 C  
ENDBRANCH   4  20
BRANCH   7  22
HETATM   22  C   UNL     1     -10.375   9.817  70.232  1.00  0.00    -0.348 C  
HETATM   23  C   UNL     1      -8.869   9.686  70.458  1.00  0.00    -0.169 C  
ENDBRANCH   7  22
BRANCH  18  24
HETATM   24  N   UNL     1     -10.956  16.036  63.373  1.00  0.00     0.766 NA 
HETATM   25  H   UNL     1     -11.381  17.303  61.919  1.00  0.00     0.000 HD 
HETATM   26  H   UNL     1     -10.878  15.196  62.798  1.00  0.00     0.000 HD 
HETATM   27  O   UNL     1     -11.258  17.315  62.861  1.00  0.00     5.482 OA 
ENDBRANCH  18  24
TORSDOF 3
ENDMDL
MODEL      118
REMARK 921   NORMALIZED FREE ENERGY PREDICTED BY IDOCK:   41.29 KCAL/MOL
REMARK 922        TOTAL FREE ENERGY PREDICTED BY IDOCK:   48.35 KCAL/MOL
REMARK 923 INTER-LIGAND FREE ENERGY PREDICTED BY IDOCK:   47.96 KCAL/MOL
REMARK 924 INTRA-LIGAND FREE ENERGY PREDICTED BY IDOCK:    0.39 KCAL/MOL
REMARK 927      BINDING AFFINITY PREDICTED BY RF-SCORE:    0.00 PKD
ROOT
HETATM    1  C   UNL     1     -11.258  14.085  65.048  1.00  0.00    -0.352 C  
HETATM    2  C   UNL     1     -12.540  14.677  65.197  1.00  0.00    -0.141 C  
HETATM    3  C   UNL     1     -11.389  15.557  65.522  1.00  0.00    -0.095 C  
HETATM    4  C   UNL     1      -9.555  14.819  64.982  1.00  0.00     0.383 C  
HETATM    5  C   UNL     1     -10.574  13.803  66.773  1.00  0.00    -0.273 C  
HETATM    6  O   UNL     1      -8.266  15.429  64.956  1.00  0.00     2.888 OA 
HETATM    7  C   UNL     1     -10.375  15.604  64.201  1.00  0.00     1.999 C  
HETATM    8  C   UNL     1     -11.542  13.092  67.770  1.00  0.00    -0.385 C  
HETATM    9  C   UNL     1     -11.110  13.086  69.278  1.00  0.00    -0.194 C  
HETATM   10  H   UNL     1      -7.416  15.088  64.706  1.00  0.00     0.000 HD 
HETATM   11  C   UNL     1      -9.798  17.041  65.243  1.00  0.00     0.604 C  
HETATM   12  C   UNL     1     -10.296  14.288  69.744  1.00  0.00     0.285 C  
HETATM   13  C   UNL     1      -9.334  16.539  66.829  1.00  0.00    -0.262 C  
HETATM   14  C   UNL     1      -9.944  15.190  67.570  1.00  0.00    -0.225 C  
HETATM   15  C   UNL     1      -9.174  14.632  68.789  1.00  0.00    -0.184 C  
HETATM   16  C   UNL     1      -8.074  15.480  69.409  1.00  0.00    -0.241 C  
HETATM   17  C   UNL     1      -8.517  16.575  70.347  1.00  0.00     2.668 C  
HETATM   18  C   UNL     1      -9.835  16.344  71.059  1.00  0.00     2.690 C  
HETATM   19  C   UNL     1     -10.614  15.095  70.776  1.00  0.00    -0.010 C  
ENDROOT
BRANCH   4  20
HETATM   20  C   UNL     1      -9.213  13.577  64.119  1.00  0.00     3.002 C  
HETATM   21  C   UNL     1      -9.012  12.624  63.401  1.00  0.00     2.583 C  
ENDBRANCH   4  20
BRANCH   7  22
HETATM   22  C   UNL     1     -10.402  15.881  62.723  1.00  0.00    11.399 C  
HETATM   23  C   UNL     1     -10.666  17.367  62.484  1.00  0.00    15.769 C  
ENDBRANCH   7  22
BRANCH  18  24
HETATM   24  N   UNL     1     -10.310  17.219  71.903  1.00  0.00     3.894 NA 
HETATM   25  H   UNL     1     -11.561  18.747  71.903  1.00  0.00     0.000 HD 
HETATM   26  H   UNL     1     -10.057  17.253  72.891  1.00  0.00     0.000 HD 
HETATM   27  O   UNL     1     -11.215  18.110  71.289  1.00  0.00     2.162 OA 
ENDBRANCH  18  24
TORSDOF 3
ENDMDL
MODEL      119
REMARK 921   NORMALIZED FREE ENERGY PREDICTED BY IDOCK:   68.64 KCAL/MOL
REMARK 922        TOTAL FREE ENERGY PREDICTED BY IDOCK:   80.50 KCAL/MOL
REMARK 923 INTER-LIGAND FREE ENERGY PREDICTED BY IDOCK:   80.02 KCAL/MOL
REMARK 924 INTRA-LIGAND FREE ENERGY PREDICTED BY IDOCK:    0.47 KCAL/MOL
REMARK 927      BINDING AFFINITY PREDICTED BY RF-SCORE:    0.00 PKD
ROOT
HETATM    1  C   UNL     1      -9.362  18.308  65.077  1.00  0.00     2.975 C  
HETATM    2  C   UNL     1      -8.177  17.571  65.346  1.00  0.00     1.384 C  
HETATM    3  C   UNL     1      -9.410  17.056  65.993  1.00  0.00    -0.187 C  
HETATM    4  C   UNL     1     -11.155  17.906  65.335  1.00  0.00     0.568 C  
HETATM    5  C   UNL     1      -9.811  19.226  66.652  1.00  0.00    -0.442 C  
HETATM    6  O   UNL     1     -12.518  17.559  65.571  1.00  0.00     4.527 OA 
HETATM    7  C   UNL     1     -10.552  16.785  64.809  1.00  0.00     0.282 C  
HETATM    8  C   UNL     1      -8.647  20.025  67.317  1.00  0.00    -0.399 C  
HETATM    9  C   UNL     1      -8.914  20.573  68.762  1.00  0.00     0.654 C  
HETATM   10  H   UNL     1     -13.327  17.953  65.266  1.00  0.00     0.000 HD 
HETATM   11  C   UNL     1     -11.231  15.868  66.285  1.00  0.00     0.096 C  
HETATM   12  C   UNL     1      -9.851  19.740  69.630  1.00  0.00     0.019 C  
HETATM   13  C   UNL     1     -11.445  16.909  67.646  1.00  0.00     0.387 C  
HETATM   14  C   UNL     1     -10.561  18.289  67.883  1.00  0.00    -0.392 C  
HETATM   15  C   UNL     1     -11.106  19.324  68.893  1.00  0.00     1.474 C  
HETATM   16  C   UNL     1     -12.253  18.921  69.806  1.00  0.00    11.314 C  
HETATM   17  C   UNL     1     -11.889  18.108  71.025  1.00  0.00     6.841 C  
HETATM   18  C   UNL     1     -10.485  18.308  71.558  1.00  0.00     3.409 C  
HETATM   19  C   UNL     1      -9.556  19.248  70.850  1.00  0.00     2.358 C  
ENDROOT
BRANCH   4  20
HETATM   20  C   UNL     1     -11.390  18.862  64.136  1.00  0.00     6.481 C  
HETATM   21  C   UNL     1     -11.649  19.578  63.196  1.00  0.00    14.954 C  
ENDBRANCH   4  20
BRANCH   7  22
HETATM   22  C   UNL     1     -10.721  16.065  63.500  1.00  0.00     4.097 C  
HETATM   23  C   UNL     1     -11.594  14.828  63.703  1.00  0.00     0.844 C  
ENDBRANCH   7  22
BRANCH  18  24
HETATM   24  N   UNL     1     -10.065  17.666  72.614  1.00  0.00     6.694 NA 
HETATM   25  H   UNL     1      -8.456  17.590  73.758  1.00  0.00     0.000 HD 
HETATM   26  H   UNL     1     -10.614  16.964  73.111  1.00  0.00     0.000 HD 
HETATM   27  O   UNL     1      -8.762  18.057  72.989  1.00  0.00    12.086 OA 
ENDBRANCH  18  24
TORSDOF 3
ENDMDL
MODEL      120
REMARK 921   NORMALIZED FREE ENERGY PREDICTED BY IDOCK:   69.81 KCAL/MOL
REMARK 922        TOTAL FREE ENERGY PREDICTED BY IDOCK:   81.88 KCAL/MOL
REMARK 923 INTER-LIGAND FREE ENERGY PREDICTED BY IDOCK:   81.68 KCAL/MOL
REMARK 924 INTRA-LIGAND FREE ENERGY PREDICTED BY IDOCK:    0.20 KCAL/MOL
REMARK 927      BINDING AFFINITY PREDICTED BY RF-SCORE:    0.00 PKD
ROOT
HETATM    1  C   UNL     1     -11.447  13.134  67.814  1.00  0.00    -0.352 C  
HETATM    2  C   UNL     1     -12.468  14.057  68.166  1.00  0.00     0.229 C  
HETATM    3  C   UNL     1     -11.089  14.607  68.146  1.00  0.00    -0.285 C  
HETATM    4  C   UNL     1      -9.677  13.377  67.313  1.00  0.00    -0.232 C  
HETATM    5  C   UNL     1     -10.478  12.759  69.377  1.00  0.00     0.342 C  
HETATM    6  O   UNL     1      -8.318  13.614  66.952  1.00  0.00    -0.384 OA 
HETATM    7  C   UNL     1     -10.429  14.317  66.643  1.00  0.00    -0.278 C  
HETATM    8  C   UNL     1     -11.337  12.383  70.625  1.00  0.00     1.041 C  
HETATM    9  C   UNL     1     -10.584  12.331  72.000  1.00  0.00    10.733 C  
HETATM   10  H   UNL     1      -7.663  13.044  66.567  1.00  0.00     0.000 HD 
HETATM   11  C   UNL     1      -9.283  15.591  67.382  1.00  0.00    -0.209 C  
HETATM   12  C   UNL     1      -9.407  13.289  72.154  1.00  0.00    16.064 C  
HETATM   13  C   UNL     1      -8.608  15.057  68.880  1.00  0.00    -0.189 C  
HETATM   14  C   UNL     1      -9.351  13.960  69.872  1.00  0.00     1.671 C  
HETATM   15  C   UNL     1      -8.487  13.272  70.953  1.00  0.00     7.699 C  
HETATM   16  C   UNL     1      -7.096  13.818  71.234  1.00  0.00     2.735 C  
HETATM   17  C   UNL     1      -7.018  15.035  72.123  1.00  0.00     2.692 C  
HETATM   18  C   UNL     1      -8.150  15.202  73.117  1.00  0.00     9.304 C  
HETATM   19  C   UNL     1      -9.264  14.199  73.138  1.00  0.00    10.336 C  
ENDROOT
BRANCH   4  20
HETATM   20  C   UNL     1      -9.869  12.049  66.535  1.00  0.00    -0.225 C  
HETATM   21  C   UNL     1      -9.937  11.005  65.929  1.00  0.00    -0.289 C  
ENDBRANCH   4  20
BRANCH   7  22
HETATM   22  C   UNL     1     -10.725  14.522  65.184  1.00  0.00    -0.422 C  
HETATM   23  C   UNL     1     -12.191  14.191  64.906  1.00  0.00    -0.451 C  
ENDBRANCH   7  22
BRANCH  18  24
HETATM   24  N   UNL     1      -8.181  16.212  73.944  1.00  0.00    15.710 NA 
HETATM   25  H   UNL     1      -6.909  17.368  74.916  1.00  0.00     0.000 HD 
HETATM   26  H   UNL     1      -9.040  16.644  74.283  1.00  0.00     0.000 HD 
HETATM   27  O   UNL     1      -6.887  16.634  74.314  1.00  0.00     6.440 OA 
ENDBRANCH  18  24
TORSDOF 3
ENDMDL
MODEL      121
REMARK 921   NORMALIZED FREE ENERGY PREDICTED BY IDOCK:   73.89 KCAL/MOL
REMARK 922        TOTAL FREE ENERGY PREDICTED BY IDOCK:   86.66 KCAL/MOL
REMARK 923 INTER-LIGAND FREE ENERGY PREDICTED BY IDOCK:   86.18 KCAL/MOL
REMARK 924 INTRA-LIGAND FREE ENERGY PREDICTED BY IDOCK:    0.48 KCAL/MOL
REMARK 927      BINDING AFFINITY PREDICTED BY RF-SCORE:    0.00 PKD
ROOT
HETATM    1  C   UNL     1     -11.075  10.033  72.113  1.00  0.00     1.680 C  
HETATM    2  C   UNL     1     -11.656  11.329  72.107  1.00  0.00     3.569 C  
HETATM    3  C   UNL     1     -12.515  10.242  71.574  1.00  0.00    -0.524 C  
HETATM    4  C   UNL     1     -11.812   8.344  71.899  1.00  0.00    -0.336 C  
HETATM    5  C   UNL     1     -10.688   9.592  70.330  1.00  0.00    -0.315 C  
HETATM    6  O   UNL     1     -12.424   7.070  71.709  1.00  0.00    -0.338 OA 
HETATM    7  C   UNL     1     -12.644   9.055  72.736  1.00  0.00    -0.074 C  
HETATM    8  C   UNL     1      -9.917  10.682  69.521  1.00  0.00    -0.138 C  
HETATM    9  C   UNL     1      -9.819  10.462  67.971  1.00  0.00    -0.170 C  
HETATM   10  H   UNL     1     -12.098   6.190  71.859  1.00  0.00     0.000 HD 
HETATM   11  C   UNL     1     -14.014   8.641  71.540  1.00  0.00    -0.405 C  
HETATM   12  C   UNL     1     -10.991   9.730  67.325  1.00  0.00    -0.142 C  
HETATM   13  C   UNL     1     -13.416   8.396  69.937  1.00  0.00     3.183 C  
HETATM   14  C   UNL     1     -12.024   9.090  69.371  1.00  0.00     1.131 C  
HETATM   15  C   UNL     1     -11.394   8.490  68.094  1.00  0.00     0.833 C  
HETATM   16  C   UNL     1     -12.202   7.494  67.278  1.00  0.00     5.133 C  
HETATM   17  C   UNL     1     -13.238   8.072  66.344  1.00  0.00    18.182 C  
HETATM   18  C   UNL     1     -12.963   9.473  65.837  1.00  0.00    16.549 C  
HETATM   19  C   UNL     1     -11.733  10.195  66.300  1.00  0.00     2.462 C  
ENDROOT
BRANCH   4  20
HETATM   20  C   UNL     1     -10.625   7.875  72.779  1.00  0.00    -0.418 C  
HETATM   21  C   UNL     1      -9.715   7.432  73.441  1.00  0.00    -0.319 C  
ENDBRANCH   4  20
BRANCH   7  22
HETATM   22  C   UNL     1     -13.010   8.881  74.184  1.00  0.00     6.829 C  
HETATM   23  C   UNL     1     -14.251   7.995  74.297  1.00  0.00     5.997 C  
ENDBRANCH   7  22
BRANCH  18  24
HETATM   24  N   UNL     1     -13.784  10.069  65.016  1.00  0.00    13.090 NA 
HETATM   25  H   UNL     1     -14.795   9.651  63.371  1.00  0.00     0.000 HD 
HETATM   26  H   UNL     1     -14.091  11.036  65.118  1.00  0.00     0.000 HD 
HETATM   27  O   UNL     1     -14.198   9.217  63.969  1.00  0.00    10.723 OA 
ENDBRANCH  18  24
TORSDOF 3
ENDMDL
