MODEL        1
REMARK 921   NORMALIZED FREE ENERGY PREDICTED BY IDOCK:   -7.10 KCAL/MOL
REMARK 922        TOTAL FREE ENERGY PREDICTED BY IDOCK:   -7.52 KCAL/MOL
REMARK 923 INTER-LIGAND FREE ENERGY PREDICTED BY IDOCK:   -7.51 KCAL/MOL
REMARK 924 INTRA-LIGAND FREE ENERGY PREDICTED BY IDOCK:   -0.01 KCAL/MOL
REMARK 927      BINDING AFFINITY PREDICTED BY RF-SCORE:    0.00 PKD
ROOT
HETATM    1  C   UNL     1     -10.561  14.168  67.547  1.00  0.00    -0.257 C  
HETATM    2  C   UNL     1     -11.625  14.214  66.613  1.00  0.00    -0.399 C  
HETATM    3  C   UNL     1     -11.966  14.546  68.016  1.00  0.00    -0.305 C  
HETATM    4  C   UNL     1     -10.351  14.761  69.270  1.00  0.00    -0.206 C  
HETATM    5  C   UNL     1     -11.055  15.732  68.614  1.00  0.00    -0.327 C  
HETATM    6  C   UNL     1     -12.789  11.091  71.654  1.00  0.00    -0.540 C  
HETATM    7  O   UNL     1     -10.286  15.196  70.629  1.00  0.00    -0.505 OA 
HETATM    8  C   UNL     1     -12.386  15.517  69.912  1.00  0.00    -0.306 C  
HETATM    9  C   UNL     1     -10.686  17.124  68.190  1.00  0.00    -0.366 C  
HETATM   10  C   UNL     1     -10.733  12.617  68.537  1.00  0.00    -0.271 C  
HETATM   11  H   UNL     1      -9.540  15.295  71.209  1.00  0.00     0.000 HD 
HETATM   12  C   UNL     1     -12.402  13.883  70.552  1.00  0.00    -0.439 C  
HETATM   13  C   UNL     1     -11.996  12.537  69.642  1.00  0.00    -0.339 C  
HETATM   14  C   UNL     1     -11.970  11.193  70.381  1.00  0.00    -0.469 C  
HETATM   15  C   UNL     1     -11.373  10.106  69.834  1.00  0.00    -0.335 C  
HETATM   16  C   UNL     1     -10.666  10.107  68.491  1.00  0.00    -0.264 C  
HETATM   17  C   UNL     1     -11.383   8.740  70.490  1.00  0.00    -0.255 C  
HETATM   18  C   UNL     1     -10.824  11.377  67.650  1.00  0.00    -0.286 C  
HETATM   19  C   UNL     1     -11.973   8.778  71.883  1.00  0.00    -0.365 C  
HETATM   20  C   UNL     1     -13.165   9.672  72.061  1.00  0.00    -0.546 C  
HETATM   21  O   UNL     1     -11.580   8.033  72.781  1.00  0.00    -0.405 OA 
ENDROOT
BRANCH   4  22
HETATM   22  C   UNL     1      -8.859  15.000  68.887  1.00  0.00    -0.201 C  
HETATM   23  C   UNL     1      -7.698  15.151  68.641  1.00  0.00    -0.126 C  
ENDBRANCH   4  22
TORSDOF 1
ENDMDL
MODEL        2
REMARK 921   NORMALIZED FREE ENERGY PREDICTED BY IDOCK:   -7.06 KCAL/MOL
REMARK 922        TOTAL FREE ENERGY PREDICTED BY IDOCK:   -7.49 KCAL/MOL
REMARK 923 INTER-LIGAND FREE ENERGY PREDICTED BY IDOCK:   -7.48 KCAL/MOL
REMARK 924 INTRA-LIGAND FREE ENERGY PREDICTED BY IDOCK:   -0.01 KCAL/MOL
REMARK 927      BINDING AFFINITY PREDICTED BY RF-SCORE:    0.00 PKD
ROOT
HETATM    1  C   UNL     1     -10.489  14.009  67.249  1.00  0.00    -0.268 C  
HETATM    2  C   UNL     1     -11.589  14.065  66.358  1.00  0.00    -0.381 C  
HETATM    3  C   UNL     1     -11.856  14.462  67.760  1.00  0.00    -0.402 C  
HETATM    4  C   UNL     1     -10.182  14.656  68.938  1.00  0.00    -0.241 C  
HETATM    5  C   UNL     1     -10.873  15.631  68.274  1.00  0.00    -0.298 C  
HETATM    6  C   UNL     1     -12.662  11.182  71.559  1.00  0.00    -0.499 C  
HETATM    7  O   UNL     1     -10.042  15.138  70.275  1.00  0.00    -0.501 OA 
HETATM    8  C   UNL     1     -12.156  15.519  69.633  1.00  0.00    -0.352 C  
HETATM    9  C   UNL     1     -10.467  16.989  67.782  1.00  0.00    -0.349 C  
HETATM   10  C   UNL     1     -10.681  12.504  68.304  1.00  0.00    -0.246 C  
HETATM   11  H   UNL     1      -9.268  15.227  70.819  1.00  0.00     0.000 HD 
HETATM   12  C   UNL     1     -12.210  13.913  70.335  1.00  0.00    -0.438 C  
HETATM   13  C   UNL     1     -11.897  12.518  69.462  1.00  0.00    -0.375 C  
HETATM   14  C   UNL     1     -11.894  11.202  70.251  1.00  0.00    -0.455 C  
HETATM   15  C   UNL     1     -11.365  10.071  69.722  1.00  0.00    -0.281 C  
HETATM   16  C   UNL     1     -10.717   9.994  68.352  1.00  0.00    -0.271 C  
HETATM   17  C   UNL     1     -11.402   8.732  70.431  1.00  0.00    -0.213 C  
HETATM   18  C   UNL     1     -10.859  11.237  67.470  1.00  0.00    -0.292 C  
HETATM   19  C   UNL     1     -11.931   8.847  71.843  1.00  0.00    -0.371 C  
HETATM   20  C   UNL     1     -13.077   9.796  72.035  1.00  0.00    -0.546 C  
HETATM   21  O   UNL     1     -11.530   8.120  72.753  1.00  0.00    -0.408 OA 
ENDROOT
BRANCH   4  22
HETATM   22  C   UNL     1      -8.699  14.818  68.485  1.00  0.00    -0.174 C  
HETATM   23  C   UNL     1      -7.549  14.964  68.191  1.00  0.00    -0.115 C  
ENDBRANCH   4  22
TORSDOF 1
ENDMDL
MODEL        3
REMARK 921   NORMALIZED FREE ENERGY PREDICTED BY IDOCK:   -6.85 KCAL/MOL
REMARK 922        TOTAL FREE ENERGY PREDICTED BY IDOCK:   -7.26 KCAL/MOL
REMARK 923 INTER-LIGAND FREE ENERGY PREDICTED BY IDOCK:   -7.25 KCAL/MOL
REMARK 924 INTRA-LIGAND FREE ENERGY PREDICTED BY IDOCK:   -0.01 KCAL/MOL
REMARK 927      BINDING AFFINITY PREDICTED BY RF-SCORE:    0.00 PKD
ROOT
HETATM    1  C   UNL     1      -9.427  13.459  66.821  1.00  0.00    -0.263 C  
HETATM    2  C   UNL     1      -8.235  12.907  67.351  1.00  0.00    -0.187 C  
HETATM    3  C   UNL     1      -9.478  12.137  67.586  1.00  0.00    -0.187 C  
HETATM    4  C   UNL     1     -11.121  12.810  66.549  1.00  0.00    -0.286 C  
HETATM    5  C   UNL     1     -10.266  11.796  66.223  1.00  0.00    -0.255 C  
HETATM    6  C   UNL     1     -12.858  13.201  71.232  1.00  0.00    -0.384 C  
HETATM    7  O   UNL     1     -12.431  12.254  66.427  1.00  0.00    -0.377 OA 
HETATM    8  C   UNL     1     -11.153  10.758  67.502  1.00  0.00    -0.374 C  
HETATM    9  C   UNL     1      -9.915  11.165  64.907  1.00  0.00    -0.331 C  
HETATM   10  C   UNL     1     -10.380  14.212  68.213  1.00  0.00    -0.245 C  
HETATM   11  H   UNL     1     -13.190  12.565  65.948  1.00  0.00     0.000 HD 
HETATM   12  C   UNL     1     -11.816  11.750  68.788  1.00  0.00    -0.380 C  
HETATM   13  C   UNL     1     -11.097  13.168  69.317  1.00  0.00    -0.201 C  
HETATM   14  C   UNL     1     -11.858  13.964  70.385  1.00  0.00    -0.335 C  
HETATM   15  C   UNL     1     -11.532  15.251  70.662  1.00  0.00    -0.353 C  
HETATM   16  C   UNL     1     -10.435  16.024  69.951  1.00  0.00    -0.287 C  
HETATM   17  C   UNL     1     -12.203  16.057  71.755  1.00  0.00    -0.535 C  
HETATM   18  C   UNL     1      -9.543  15.211  69.008  1.00  0.00    -0.229 C  
HETATM   19  C   UNL     1     -13.377  15.325  72.366  1.00  0.00    -0.435 C  
HETATM   20  C   UNL     1     -13.191  13.850  72.569  1.00  0.00    -0.601 C  
HETATM   21  O   UNL     1     -14.372  15.917  72.784  1.00  0.00    -0.454 OA 
ENDROOT
BRANCH   4  22
HETATM   22  C   UNL     1     -11.156  13.742  65.300  1.00  0.00    -0.315 C  
HETATM   23  C   UNL     1     -11.242  14.447  64.337  1.00  0.00    -0.235 C  
ENDBRANCH   4  22
TORSDOF 1
ENDMDL
MODEL        4
REMARK 921   NORMALIZED FREE ENERGY PREDICTED BY IDOCK:   -6.80 KCAL/MOL
REMARK 922        TOTAL FREE ENERGY PREDICTED BY IDOCK:   -7.21 KCAL/MOL
REMARK 923 INTER-LIGAND FREE ENERGY PREDICTED BY IDOCK:   -7.21 KCAL/MOL
REMARK 924 INTRA-LIGAND FREE ENERGY PREDICTED BY IDOCK:    0.00 KCAL/MOL
REMARK 927      BINDING AFFINITY PREDICTED BY RF-SCORE:    0.00 PKD
ROOT
HETATM    1  C   UNL     1     -10.361  13.765  66.711  1.00  0.00    -0.272 C  
HETATM    2  C   UNL     1     -11.485  13.782  65.848  1.00  0.00    -0.330 C  
HETATM    3  C   UNL     1     -11.696  14.314  67.214  1.00  0.00    -0.422 C  
HETATM    4  C   UNL     1      -9.982  14.550  68.325  1.00  0.00    -0.229 C  
HETATM    5  C   UNL     1     -10.658  15.486  67.593  1.00  0.00    -0.291 C  
HETATM    6  C   UNL     1     -12.503  11.423  71.318  1.00  0.00    -0.423 C  
HETATM    7  O   UNL     1      -9.784  15.144  69.608  1.00  0.00    -0.375 OA 
HETATM    8  C   UNL     1     -11.902  15.546  68.990  1.00  0.00    -0.373 C  
HETATM    9  C   UNL     1     -10.219  16.778  66.969  1.00  0.00    -0.292 C  
HETATM   10  C   UNL     1     -10.574  12.370  67.904  1.00  0.00    -0.231 C  
HETATM   11  H   UNL     1      -8.992  15.253  70.121  1.00  0.00     0.000 HD 
HETATM   12  C   UNL     1     -11.992  14.013  69.838  1.00  0.00    -0.399 C  
HETATM   13  C   UNL     1     -11.755  12.534  69.087  1.00  0.00    -0.375 C  
HETATM   14  C   UNL     1     -11.775  11.296  69.993  1.00  0.00    -0.428 C  
HETATM   15  C   UNL     1     -11.302  10.103  69.556  1.00  0.00    -0.260 C  
HETATM   16  C   UNL     1     -10.698   9.877  68.182  1.00  0.00    -0.279 C  
HETATM   17  C   UNL     1     -11.365   8.835  70.385  1.00  0.00    -0.213 C  
HETATM   18  C   UNL     1     -10.822  11.040  67.194  1.00  0.00    -0.336 C  
HETATM   19  C   UNL     1     -11.846   9.097  71.795  1.00  0.00    -0.383 C  
HETATM   20  C   UNL     1     -12.952  10.102  71.929  1.00  0.00    -0.549 C  
HETATM   21  O   UNL     1     -11.445   8.440  72.756  1.00  0.00    -0.350 OA 
ENDROOT
BRANCH   4  22
HETATM   22  C   UNL     1      -8.508  14.614  67.820  1.00  0.00    -0.178 C  
HETATM   23  C   UNL     1      -7.365  14.700  67.477  1.00  0.00    -0.220 C  
ENDBRANCH   4  22
TORSDOF 1
ENDMDL
MODEL        5
REMARK 921   NORMALIZED FREE ENERGY PREDICTED BY IDOCK:   -6.70 KCAL/MOL
REMARK 922        TOTAL FREE ENERGY PREDICTED BY IDOCK:   -7.10 KCAL/MOL
REMARK 923 INTER-LIGAND FREE ENERGY PREDICTED BY IDOCK:   -7.10 KCAL/MOL
REMARK 924 INTRA-LIGAND FREE ENERGY PREDICTED BY IDOCK:   -0.00 KCAL/MOL
REMARK 927      BINDING AFFINITY PREDICTED BY RF-SCORE:    0.00 PKD
ROOT
HETATM    1  C   UNL     1     -10.425  12.816  66.823  1.00  0.00    -0.253 C  
HETATM    2  C   UNL     1     -11.557  12.714  65.977  1.00  0.00    -0.443 C  
HETATM    3  C   UNL     1     -11.789  13.287  67.323  1.00  0.00    -0.421 C  
HETATM    4  C   UNL     1     -10.084  13.694  68.397  1.00  0.00    -0.241 C  
HETATM    5  C   UNL     1     -10.835  14.546  67.638  1.00  0.00    -0.275 C  
HETATM    6  C   UNL     1     -12.334  10.522  71.554  1.00  0.00    -0.443 C  
HETATM    7  O   UNL     1      -9.915  14.355  69.651  1.00  0.00    -0.414 OA 
HETATM    8  C   UNL     1     -12.064  14.576  69.049  1.00  0.00    -0.286 C  
HETATM    9  C   UNL     1     -10.500  15.839  66.953  1.00  0.00    -0.315 C  
HETATM   10  C   UNL     1     -10.521  11.461  68.075  1.00  0.00    -0.215 C  
HETATM   11  H   UNL     1      -9.127  14.543  70.147  1.00  0.00     0.000 HD 
HETATM   12  C   UNL     1     -12.032  13.077  69.961  1.00  0.00    -0.383 C  
HETATM   13  C   UNL     1     -11.696  11.589  69.269  1.00  0.00    -0.397 C  
HETATM   14  C   UNL     1     -11.614  10.392  70.225  1.00  0.00    -0.410 C  
HETATM   15  C   UNL     1     -11.061   9.219  69.831  1.00  0.00    -0.200 C  
HETATM   16  C   UNL     1     -10.458   8.979  68.458  1.00  0.00    -0.232 C  
HETATM   17  C   UNL     1     -11.021   7.986  70.712  1.00  0.00    -0.259 C  
HETATM   18  C   UNL     1     -10.679  10.088  67.425  1.00  0.00    -0.336 C  
HETATM   19  C   UNL     1     -11.503   8.272  72.117  1.00  0.00    -0.361 C  
HETATM   20  C   UNL     1     -12.678   9.199  72.227  1.00  0.00    -0.447 C  
HETATM   21  O   UNL     1     -11.043   7.687  73.099  1.00  0.00    -0.404 OA 
ENDROOT
BRANCH   4  22
HETATM   22  C   UNL     1      -8.626  13.843  67.868  1.00  0.00    -0.180 C  
HETATM   23  C   UNL     1      -7.495  13.993  67.507  1.00  0.00    -0.186 C  
ENDBRANCH   4  22
TORSDOF 1
ENDMDL
MODEL        6
REMARK 921   NORMALIZED FREE ENERGY PREDICTED BY IDOCK:   -6.67 KCAL/MOL
REMARK 922        TOTAL FREE ENERGY PREDICTED BY IDOCK:   -7.06 KCAL/MOL
REMARK 923 INTER-LIGAND FREE ENERGY PREDICTED BY IDOCK:   -7.05 KCAL/MOL
REMARK 924 INTRA-LIGAND FREE ENERGY PREDICTED BY IDOCK:   -0.01 KCAL/MOL
REMARK 927      BINDING AFFINITY PREDICTED BY RF-SCORE:    0.00 PKD
ROOT
HETATM    1  C   UNL     1     -11.743   7.890  71.990  1.00  0.00    -0.360 C  
HETATM    2  C   UNL     1     -12.924   7.258  71.527  1.00  0.00    -0.434 C  
HETATM    3  C   UNL     1     -11.905   7.583  70.502  1.00  0.00    -0.144 C  
HETATM    4  C   UNL     1     -10.097   8.216  71.250  1.00  0.00    -0.195 C  
HETATM    5  C   UNL     1     -10.458   6.962  70.844  1.00  0.00    -0.233 C  
HETATM    6  C   UNL     1     -11.288  12.188  68.438  1.00  0.00    -0.336 C  
HETATM    7  O   UNL     1      -8.864   8.488  70.583  1.00  0.00    -0.137 OA 
HETATM    8  C   UNL     1     -10.259   7.572  69.086  1.00  0.00    -0.202 C  
HETATM    9  C   UNL     1      -9.926   5.603  71.195  1.00  0.00    -0.244 C  
HETATM   10  C   UNL     1     -11.841   9.682  71.551  1.00  0.00    -0.483 C  
HETATM   11  H   UNL     1      -8.029   8.780  70.929  1.00  0.00     0.000 HD 
HETATM   12  C   UNL     1     -10.576   9.293  68.963  1.00  0.00    -0.225 C  
HETATM   13  C   UNL     1     -11.686  10.093  69.930  1.00  0.00    -0.248 C  
HETATM   14  C   UNL     1     -11.772  11.615  69.757  1.00  0.00    -0.425 C  
HETATM   15  C   UNL     1     -12.399  12.389  70.677  1.00  0.00    -0.367 C  
HETATM   16  C   UNL     1     -13.037  11.854  71.947  1.00  0.00    -0.474 C  
HETATM   17  C   UNL     1     -12.574  13.886  70.518  1.00  0.00    -0.382 C  
HETATM   18  C   UNL     1     -13.125  10.330  72.065  1.00  0.00    -0.529 C  
HETATM   19  C   UNL     1     -11.824  14.425  69.320  1.00  0.00    -0.325 C  
HETATM   20  C   UNL     1     -11.848  13.561  68.093  1.00  0.00    -0.400 C  
HETATM   21  O   UNL     1     -11.329  15.553  69.311  1.00  0.00    -0.279 OA 
ENDROOT
BRANCH   4  22
HETATM   22  C   UNL     1      -9.537   8.040  72.693  1.00  0.00    -0.327 C  
HETATM   23  C   UNL     1      -9.073   7.952  73.793  1.00  0.00    -0.306 C  
ENDBRANCH   4  22
TORSDOF 1
ENDMDL
MODEL        7
REMARK 921   NORMALIZED FREE ENERGY PREDICTED BY IDOCK:   -6.54 KCAL/MOL
REMARK 922        TOTAL FREE ENERGY PREDICTED BY IDOCK:   -6.93 KCAL/MOL
REMARK 923 INTER-LIGAND FREE ENERGY PREDICTED BY IDOCK:   -6.94 KCAL/MOL
REMARK 924 INTRA-LIGAND FREE ENERGY PREDICTED BY IDOCK:    0.01 KCAL/MOL
REMARK 927      BINDING AFFINITY PREDICTED BY RF-SCORE:    0.00 PKD
ROOT
HETATM    1  C   UNL     1     -11.007   7.790  71.544  1.00  0.00    -0.267 C  
HETATM    2  C   UNL     1     -11.873   7.049  70.702  1.00  0.00    -0.377 C  
HETATM    3  C   UNL     1     -10.828   7.854  70.028  1.00  0.00    -0.238 C  
HETATM    4  C   UNL     1      -9.416   8.665  71.284  1.00  0.00    -0.224 C  
HETATM    5  C   UNL     1      -9.343   7.512  70.553  1.00  0.00    -0.160 C  
HETATM    6  C   UNL     1     -11.173  12.853  69.170  1.00  0.00    -0.293 C  
HETATM    7  O   UNL     1      -8.213   9.375  70.988  1.00  0.00    -0.294 OA 
HETATM    8  C   UNL     1      -9.031   8.589  69.054  1.00  0.00    -0.146 C  
HETATM    9  C   UNL     1      -8.523   6.267  70.724  1.00  0.00    -0.135 C  
HETATM   10  C   UNL     1     -11.522   9.564  71.479  1.00  0.00    -0.466 C  
HETATM   11  H   UNL     1      -7.561   9.750  71.568  1.00  0.00     0.000 HD 
HETATM   12  C   UNL     1      -9.787  10.163  69.225  1.00  0.00    -0.235 C  
HETATM   13  C   UNL     1     -11.219  10.408  70.059  1.00  0.00    -0.385 C  
HETATM   14  C   UNL     1     -11.692  11.861  70.194  1.00  0.00    -0.337 C  
HETATM   15  C   UNL     1     -12.653  12.203  71.087  1.00  0.00    -0.360 C  
HETATM   16  C   UNL     1     -13.321  11.225  72.037  1.00  0.00    -0.386 C  
HETATM   17  C   UNL     1     -13.206  13.609  71.209  1.00  0.00    -0.308 C  
HETATM   18  C   UNL     1     -13.002   9.745  71.810  1.00  0.00    -0.536 C  
HETATM   19  C   UNL     1     -12.446  14.599  70.354  1.00  0.00    -0.352 C  
HETATM   20  C   UNL     1     -12.026  14.103  69.001  1.00  0.00    -0.376 C  
HETATM   21  O   UNL     1     -12.288  15.772  70.694  1.00  0.00    -0.408 OA 
ENDROOT
BRANCH   4  22
HETATM   22  C   UNL     1      -9.077   8.250  72.747  1.00  0.00    -0.332 C  
HETATM   23  C   UNL     1      -8.760   7.932  73.856  1.00  0.00    -0.332 C  
ENDBRANCH   4  22
TORSDOF 1
ENDMDL
MODEL        8
REMARK 921   NORMALIZED FREE ENERGY PREDICTED BY IDOCK:   -6.51 KCAL/MOL
REMARK 922        TOTAL FREE ENERGY PREDICTED BY IDOCK:   -6.90 KCAL/MOL
REMARK 923 INTER-LIGAND FREE ENERGY PREDICTED BY IDOCK:   -6.89 KCAL/MOL
REMARK 924 INTRA-LIGAND FREE ENERGY PREDICTED BY IDOCK:   -0.01 KCAL/MOL
REMARK 927      BINDING AFFINITY PREDICTED BY RF-SCORE:    0.00 PKD
ROOT
HETATM    1  C   UNL     1      -9.993  10.253  68.159  1.00  0.00    -0.168 C  
HETATM    2  C   UNL     1     -10.907   9.881  67.142  1.00  0.00    -0.227 C  
HETATM    3  C   UNL     1     -10.470  11.297  67.150  1.00  0.00    -0.259 C  
HETATM    4  C   UNL     1      -8.927  11.719  68.441  1.00  0.00    -0.168 C  
HETATM    5  C   UNL     1      -8.868  11.454  67.102  1.00  0.00    -0.156 C  
HETATM    6  C   UNL     1     -12.396  14.868  70.213  1.00  0.00    -0.393 C  
HETATM    7  O   UNL     1      -8.173  12.918  68.622  1.00  0.00    -0.297 OA 
HETATM    8  C   UNL     1      -9.480  13.201  66.822  1.00  0.00    -0.252 C  
HETATM    9  C   UNL     1      -7.761  10.935  66.230  1.00  0.00    -0.147 C  
HETATM   10  C   UNL     1     -10.923  11.191  69.451  1.00  0.00    -0.298 C  
HETATM   11  H   UNL     1      -7.460  13.113  69.219  1.00  0.00     0.000 HD 
HETATM   12  C   UNL     1     -10.473  13.756  68.158  1.00  0.00    -0.252 C  
HETATM   13  C   UNL     1     -11.451  12.737  69.059  1.00  0.00    -0.360 C  
HETATM   14  C   UNL     1     -12.181  13.367  70.252  1.00  0.00    -0.405 C  
HETATM   15  C   UNL     1     -12.746  12.596  71.213  1.00  0.00    -0.354 C  
HETATM   16  C   UNL     1     -12.695  11.078  71.227  1.00  0.00    -0.537 C  
HETATM   17  C   UNL     1     -13.539  13.166  72.371  1.00  0.00    -0.667 C  
HETATM   18  C   UNL     1     -12.131  10.413  69.968  1.00  0.00    -0.297 C  
HETATM   19  C   UNL     1     -13.473  14.677  72.421  1.00  0.00    -0.436 C  
HETATM   20  C   UNL     1     -13.531  15.375  71.094  1.00  0.00    -0.565 C  
HETATM   21  O   UNL     1     -13.495  15.298  73.483  1.00  0.00    -0.413 OA 
ENDROOT
BRANCH   4  22
HETATM   22  C   UNL     1      -7.927  10.724  69.104  1.00  0.00    -0.135 C  
HETATM   23  C   UNL     1      -7.141  10.004  69.649  1.00  0.00    -0.104 C  
ENDBRANCH   4  22
TORSDOF 1
ENDMDL
MODEL        9
REMARK 921   NORMALIZED FREE ENERGY PREDICTED BY IDOCK:   -6.46 KCAL/MOL
REMARK 922        TOTAL FREE ENERGY PREDICTED BY IDOCK:   -6.85 KCAL/MOL
REMARK 923 INTER-LIGAND FREE ENERGY PREDICTED BY IDOCK:   -6.85 KCAL/MOL
REMARK 924 INTRA-LIGAND FREE ENERGY PREDICTED BY IDOCK:    0.00 KCAL/MOL
REMARK 927      BINDING AFFINITY PREDICTED BY RF-SCORE:    0.00 PKD
ROOT
HETATM    1  C   UNL     1      -9.449  18.627  65.956  1.00  0.00    -0.051 C  
HETATM    2  C   UNL     1     -10.608  19.407  65.720  1.00  0.00    -0.490 C  
HETATM    3  C   UNL     1     -10.324  19.059  67.132  1.00  0.00    -0.496 C  
HETATM    4  C   UNL     1      -8.487  18.194  67.456  1.00  0.00    -0.248 C  
HETATM    5  C   UNL     1      -8.848  19.504  67.598  1.00  0.00    -0.367 C  
HETATM    6  C   UNL     1     -11.453  14.582  69.259  1.00  0.00    -0.322 C  
HETATM    7  O   UNL     1      -7.828  17.850  68.676  1.00  0.00    -0.292 OA 
HETATM    8  C   UNL     1      -9.674  19.010  69.203  1.00  0.00    -0.310 C  
HETATM    9  C   UNL     1      -8.047  20.773  67.566  1.00  0.00    -0.203 C  
HETATM   10  C   UNL     1      -9.984  16.892  66.296  1.00  0.00    -0.324 C  
HETATM   11  H   UNL     1      -6.980  17.451  68.826  1.00  0.00     0.000 HD 
HETATM   12  C   UNL     1     -10.219  17.343  69.158  1.00  0.00    -0.273 C  
HETATM   13  C   UNL     1     -10.750  16.589  67.760  1.00  0.00    -0.329 C  
HETATM   14  C   UNL     1     -11.102  15.100  67.877  1.00  0.00    -0.322 C  
HETATM   15  C   UNL     1     -11.247  14.327  66.773  1.00  0.00    -0.337 C  
HETATM   16  C   UNL     1     -11.057  14.827  65.352  1.00  0.00    -0.359 C  
HETATM   17  C   UNL     1     -11.664  12.871  66.832  1.00  0.00    -0.445 C  
HETATM   18  C   UNL     1     -10.880  16.339  65.190  1.00  0.00    -0.333 C  
HETATM   19  C   UNL     1     -11.724  12.350  68.250  1.00  0.00    -0.345 C  
HETATM   20  C   UNL     1     -12.277  13.301  69.271  1.00  0.00    -0.194 C  
HETATM   21  O   UNL     1     -11.452  11.182  68.531  1.00  0.00    -0.252 OA 
ENDROOT
BRANCH   4  22
HETATM   22  C   UNL     1      -7.239  18.205  66.523  1.00  0.00    -0.268 C  
HETATM   23  C   UNL     1      -6.287  18.155  65.801  1.00  0.00    -0.297 C  
ENDBRANCH   4  22
TORSDOF 1
ENDMDL
MODEL       10
REMARK 921   NORMALIZED FREE ENERGY PREDICTED BY IDOCK:   -6.35 KCAL/MOL
REMARK 922        TOTAL FREE ENERGY PREDICTED BY IDOCK:   -6.73 KCAL/MOL
REMARK 923 INTER-LIGAND FREE ENERGY PREDICTED BY IDOCK:   -6.73 KCAL/MOL
REMARK 924 INTRA-LIGAND FREE ENERGY PREDICTED BY IDOCK:   -0.00 KCAL/MOL
REMARK 927      BINDING AFFINITY PREDICTED BY RF-SCORE:    0.00 PKD
ROOT
HETATM    1  C   UNL     1     -11.740   7.802  72.085  1.00  0.00    -0.368 C  
HETATM    2  C   UNL     1     -13.007   7.240  71.794  1.00  0.00    -0.368 C  
HETATM    3  C   UNL     1     -12.002   7.201  70.706  1.00  0.00    -0.352 C  
HETATM    4  C   UNL     1     -10.101   7.747  71.264  1.00  0.00    -0.179 C  
HETATM    5  C   UNL     1     -10.627   6.491  71.152  1.00  0.00    -0.271 C  
HETATM    6  C   UNL     1     -10.927  11.128  67.661  1.00  0.00    -0.323 C  
HETATM    7  O   UNL     1      -8.874   7.707  70.533  1.00  0.00    -0.146 OA 
HETATM    8  C   UNL     1     -10.434   6.672  69.300  1.00  0.00    -0.247 C  
HETATM    9  C   UNL     1     -10.248   5.185  71.788  1.00  0.00    -0.271 C  
HETATM   10  C   UNL     1     -11.640   9.453  71.261  1.00  0.00    -0.434 C  
HETATM   11  H   UNL     1      -7.995   7.960  70.791  1.00  0.00     0.000 HD 
HETATM   12  C   UNL     1     -10.547   8.351  68.803  1.00  0.00    -0.154 C  
HETATM   13  C   UNL     1     -11.508   9.477  69.587  1.00  0.00     0.011 C  
HETATM   14  C   UNL     1     -11.418  10.923  69.082  1.00  0.00    -0.373 C  
HETATM   15  C   UNL     1     -11.906  11.952  69.817  1.00  0.00    -0.411 C  
HETATM   16  C   UNL     1     -12.548  11.793  71.184  1.00  0.00    -0.412 C  
HETATM   17  C   UNL     1     -11.907  13.388  69.333  1.00  0.00    -0.390 C  
HETATM   18  C   UNL     1     -12.813  10.355  71.639  1.00  0.00    -0.579 C  
HETATM   19  C   UNL     1     -11.151  13.553  68.033  1.00  0.00    -0.258 C  
HETATM   20  C   UNL     1     -11.333  12.453  67.029  1.00  0.00    -0.388 C  
HETATM   21  O   UNL     1     -10.525  14.579  67.766  1.00  0.00    -0.239 OA 
ENDROOT
BRANCH   4  22
HETATM   22  C   UNL     1      -9.503   7.820  72.701  1.00  0.00    -0.251 C  
HETATM   23  C   UNL     1      -9.030   7.933  73.795  1.00  0.00    -0.324 C  
ENDBRANCH   4  22
TORSDOF 1
ENDMDL
MODEL       11
REMARK 921   NORMALIZED FREE ENERGY PREDICTED BY IDOCK:   -6.34 KCAL/MOL
REMARK 922        TOTAL FREE ENERGY PREDICTED BY IDOCK:   -6.72 KCAL/MOL
REMARK 923 INTER-LIGAND FREE ENERGY PREDICTED BY IDOCK:   -6.73 KCAL/MOL
REMARK 924 INTRA-LIGAND FREE ENERGY PREDICTED BY IDOCK:    0.01 KCAL/MOL
REMARK 927      BINDING AFFINITY PREDICTED BY RF-SCORE:    0.00 PKD
ROOT
HETATM    1  C   UNL     1      -9.047  14.923  66.479  1.00  0.00    -0.309 C  
HETATM    2  C   UNL     1      -9.869  15.078  65.336  1.00  0.00    -0.312 C  
HETATM    3  C   UNL     1      -9.988  16.122  66.380  1.00  0.00    -0.315 C  
HETATM    4  C   UNL     1      -8.572  16.024  67.867  1.00  0.00    -0.164 C  
HETATM    5  C   UNL     1      -8.574  16.802  66.744  1.00  0.00    -0.264 C  
HETATM    6  C   UNL     1     -12.729  15.621  70.632  1.00  0.00    -0.443 C  
HETATM    7  O   UNL     1      -8.298  16.919  68.946  1.00  0.00    -0.249 OA 
HETATM    8  C   UNL     1      -9.814  17.899  67.616  1.00  0.00    -0.304 C  
HETATM    9  C   UNL     1      -7.462  17.452  65.972  1.00  0.00    -0.255 C  
HETATM   10  C   UNL     1     -10.102  14.309  67.866  1.00  0.00    -0.233 C  
HETATM   11  H   UNL     1      -7.643  16.873  69.633  1.00  0.00     0.000 HD 
HETATM   12  C   UNL     1     -10.781  16.990  68.763  1.00  0.00    -0.313 C  
HETATM   13  C   UNL     1     -11.204  15.384  68.537  1.00  0.00    -0.321 C  
HETATM   14  C   UNL     1     -11.973  14.712  69.682  1.00  0.00    -0.368 C  
HETATM   15  C   UNL     1     -12.099  13.363  69.741  1.00  0.00    -0.374 C  
HETATM   16  C   UNL     1     -11.491  12.405  68.733  1.00  0.00    -0.350 C  
HETATM   17  C   UNL     1     -12.908  12.655  70.809  1.00  0.00    -0.102 C  
HETATM   18  C   UNL     1     -10.870  13.045  67.488  1.00  0.00    -0.264 C  
HETATM   19  C   UNL     1     -13.399  13.605  71.879  1.00  0.00    -0.425 C  
HETATM   20  C   UNL     1     -13.862  14.947  71.396  1.00  0.00    -0.537 C  
HETATM   21  O   UNL     1     -13.526  13.258  73.054  1.00  0.00    -0.499 OA 
ENDROOT
BRANCH   4  22
HETATM   22  C   UNL     1      -7.206  15.272  67.848  1.00  0.00    -0.158 C  
HETATM   23  C   UNL     1      -6.181  14.655  67.871  1.00  0.00    -0.171 C  
ENDBRANCH   4  22
TORSDOF 1
ENDMDL
MODEL       12
REMARK 921   NORMALIZED FREE ENERGY PREDICTED BY IDOCK:   -6.33 KCAL/MOL
REMARK 922        TOTAL FREE ENERGY PREDICTED BY IDOCK:   -6.70 KCAL/MOL
REMARK 923 INTER-LIGAND FREE ENERGY PREDICTED BY IDOCK:   -6.72 KCAL/MOL
REMARK 924 INTRA-LIGAND FREE ENERGY PREDICTED BY IDOCK:    0.01 KCAL/MOL
REMARK 927      BINDING AFFINITY PREDICTED BY RF-SCORE:    0.00 PKD
ROOT
HETATM    1  C   UNL     1     -11.197  14.298  68.348  1.00  0.00    -0.291 C  
HETATM    2  C   UNL     1     -10.307  15.020  69.182  1.00  0.00    -0.249 C  
HETATM    3  C   UNL     1      -9.777  13.778  68.572  1.00  0.00    -0.193 C  
HETATM    4  C   UNL     1     -10.988  12.932  67.142  1.00  0.00    -0.262 C  
HETATM    5  C   UNL     1      -9.917  13.764  66.967  1.00  0.00    -0.251 C  
HETATM    6  C   UNL     1     -10.674   9.103  70.357  1.00  0.00    -0.282 C  
HETATM    7  O   UNL     1     -10.754  11.828  66.266  1.00  0.00    -0.250 OA 
HETATM    8  C   UNL     1      -8.826  12.284  67.316  1.00  0.00    -0.190 C  
HETATM    9  C   UNL     1      -9.537  14.686  65.846  1.00  0.00    -0.303 C  
HETATM   10  C   UNL     1     -11.800  12.827  69.289  1.00  0.00    -0.358 C  
HETATM   11  H   UNL     1     -11.313  11.437  65.606  1.00  0.00     0.000 HD 
HETATM   12  C   UNL     1      -9.622  11.133  68.374  1.00  0.00    -0.192 C  
HETATM   13  C   UNL     1     -10.707  11.582  69.569  1.00  0.00    -0.054 C  
HETATM   14  C   UNL     1     -11.385  10.443  70.341  1.00  0.00    -0.417 C  
HETATM   15  C   UNL     1     -12.482  10.672  71.104  1.00  0.00    -0.523 C  
HETATM   16  C   UNL     1     -13.152  12.027  71.249  1.00  0.00    -0.209 C  
HETATM   17  C   UNL     1     -13.145   9.598  71.942  1.00  0.00    -0.530 C  
HETATM   18  C   UNL     1     -12.404  13.215  70.637  1.00  0.00    -0.405 C  
HETATM   19  C   UNL     1     -12.553   8.229  71.690  1.00  0.00    -0.327 C  
HETATM   20  C   UNL     1     -11.064   8.187  71.510  1.00  0.00    -0.302 C  
HETATM   21  O   UNL     1     -13.229   7.202  71.751  1.00  0.00    -0.355 OA 
ENDROOT
BRANCH   4  22
HETATM   22  C   UNL     1     -12.160  13.595  66.358  1.00  0.00    -0.478 C  
HETATM   23  C   UNL     1     -13.034  14.088  65.705  1.00  0.00    -0.297 C  
ENDBRANCH   4  22
TORSDOF 1
ENDMDL
MODEL       13
REMARK 921   NORMALIZED FREE ENERGY PREDICTED BY IDOCK:   -6.29 KCAL/MOL
REMARK 922        TOTAL FREE ENERGY PREDICTED BY IDOCK:   -6.67 KCAL/MOL
REMARK 923 INTER-LIGAND FREE ENERGY PREDICTED BY IDOCK:   -6.67 KCAL/MOL
REMARK 924 INTRA-LIGAND FREE ENERGY PREDICTED BY IDOCK:   -0.00 KCAL/MOL
REMARK 927      BINDING AFFINITY PREDICTED BY RF-SCORE:    0.00 PKD
ROOT
HETATM    1  C   UNL     1      -9.482   7.491  71.531  1.00  0.00    -0.166 C  
HETATM    2  C   UNL     1      -8.964   8.042  72.730  1.00  0.00    -0.291 C  
HETATM    3  C   UNL     1     -10.391   8.317  72.440  1.00  0.00    -0.402 C  
HETATM    4  C   UNL     1     -11.173   7.257  70.862  1.00  0.00    -0.272 C  
HETATM    5  C   UNL     1     -11.248   6.975  72.197  1.00  0.00    -0.291 C  
HETATM    6  C   UNL     1     -12.018  11.924  69.247  1.00  0.00    -0.342 C  
HETATM    7  O   UNL     1     -12.516   7.167  70.382  1.00  0.00    -0.604 OA 
HETATM    8  C   UNL     1     -12.558   8.306  72.313  1.00  0.00    -0.357 C  
HETATM    9  C   UNL     1     -11.465   5.689  72.939  1.00  0.00    -0.297 C  
HETATM   10  C   UNL     1      -9.620   8.851  70.288  1.00  0.00    -0.212 C  
HETATM   11  H   UNL     1     -12.877   6.677  69.653  1.00  0.00     0.000 HD 
HETATM   12  C   UNL     1     -12.325   9.546  71.095  1.00  0.00    -0.410 C  
HETATM   13  C   UNL     1     -10.816  10.005  70.530  1.00  0.00    -0.380 C  
HETATM   14  C   UNL     1     -10.795  11.038  69.395  1.00  0.00    -0.278 C  
HETATM   15  C   UNL     1      -9.672  11.253  68.667  1.00  0.00    -0.200 C  
HETATM   16  C   UNL     1      -8.368  10.502  68.869  1.00  0.00    -0.147 C  
HETATM   17  C   UNL     1      -9.578  12.310  67.585  1.00  0.00    -0.191 C  
HETATM   18  C   UNL     1      -8.300   9.594  70.100  1.00  0.00    -0.221 C  
HETATM   19  C   UNL     1     -10.915  12.960  67.303  1.00  0.00    -0.261 C  
HETATM   20  C   UNL     1     -11.774  13.230  68.503  1.00  0.00    -0.388 C  
HETATM   21  O   UNL     1     -11.227  13.354  66.179  1.00  0.00    -0.291 OA 
ENDROOT
BRANCH   4  22
HETATM   22  C   UNL     1     -10.610   5.966  70.196  1.00  0.00    -0.362 C  
HETATM   23  C   UNL     1     -10.177   5.003  69.632  1.00  0.00    -0.306 C  
ENDBRANCH   4  22
TORSDOF 1
ENDMDL
MODEL       14
REMARK 921   NORMALIZED FREE ENERGY PREDICTED BY IDOCK:   -6.28 KCAL/MOL
REMARK 922        TOTAL FREE ENERGY PREDICTED BY IDOCK:   -6.65 KCAL/MOL
REMARK 923 INTER-LIGAND FREE ENERGY PREDICTED BY IDOCK:   -6.64 KCAL/MOL
REMARK 924 INTRA-LIGAND FREE ENERGY PREDICTED BY IDOCK:   -0.01 KCAL/MOL
REMARK 927      BINDING AFFINITY PREDICTED BY RF-SCORE:    0.00 PKD
ROOT
HETATM    1  C   UNL     1     -11.072  14.017  66.173  1.00  0.00    -0.302 C  
HETATM    2  C   UNL     1     -12.424  13.978  65.753  1.00  0.00    -0.523 C  
HETATM    3  C   UNL     1     -12.160  13.598  67.160  1.00  0.00    -0.404 C  
HETATM    4  C   UNL     1     -10.242  13.958  67.808  1.00  0.00    -0.237 C  
HETATM    5  C   UNL     1     -11.355  14.734  67.971  1.00  0.00    -0.332 C  
HETATM    6  C   UNL     1     -10.499   9.022  68.627  1.00  0.00    -0.229 C  
HETATM    7  O   UNL     1      -9.668  13.843  69.110  1.00  0.00    -0.416 OA 
HETATM    8  C   UNL     1     -11.880  13.539  69.313  1.00  0.00    -0.392 C  
HETATM    9  C   UNL     1     -11.524  16.205  68.216  1.00  0.00    -0.259 C  
HETATM   10  C   UNL     1     -10.443  12.281  66.249  1.00  0.00    -0.266 C  
HETATM   11  H   UNL     1      -8.782  14.009  69.409  1.00  0.00     0.000 HD 
HETATM   12  C   UNL     1     -11.256  11.926  69.018  1.00  0.00    -0.316 C  
HETATM   13  C   UNL     1     -11.025  11.299  67.482  1.00  0.00    -0.319 C  
HETATM   14  C   UNL     1     -10.382   9.908  67.400  1.00  0.00    -0.301 C  
HETATM   15  C   UNL     1      -9.877   9.438  66.233  1.00  0.00    -0.351 C  
HETATM   16  C   UNL     1      -9.868  10.221  64.932  1.00  0.00    -0.404 C  
HETATM   17  C   UNL     1      -9.299   8.046  66.083  1.00  0.00    -0.212 C  
HETATM   18  C   UNL     1     -10.655  11.535  64.934  1.00  0.00    -0.360 C  
HETATM   19  C   UNL     1      -9.193   7.325  67.409  1.00  0.00    -0.128 C  
HETATM   20  C   UNL     1     -10.338   7.532  68.356  1.00  0.00    -0.226 C  
HETATM   21  O   UNL     1      -8.288   6.524  67.648  1.00  0.00    -0.120 OA 
ENDROOT
BRANCH   4  22
HETATM   22  C   UNL     1      -9.172  14.896  67.173  1.00  0.00    -0.231 C  
HETATM   23  C   UNL     1      -8.315  15.605  66.732  1.00  0.00    -0.313 C  
ENDBRANCH   4  22
TORSDOF 1
ENDMDL
MODEL       15
REMARK 921   NORMALIZED FREE ENERGY PREDICTED BY IDOCK:   -6.24 KCAL/MOL
REMARK 922        TOTAL FREE ENERGY PREDICTED BY IDOCK:   -6.61 KCAL/MOL
REMARK 923 INTER-LIGAND FREE ENERGY PREDICTED BY IDOCK:   -6.60 KCAL/MOL
REMARK 924 INTRA-LIGAND FREE ENERGY PREDICTED BY IDOCK:   -0.01 KCAL/MOL
REMARK 927      BINDING AFFINITY PREDICTED BY RF-SCORE:    0.00 PKD
ROOT
HETATM    1  C   UNL     1     -10.752  12.482  68.518  1.00  0.00    -0.263 C  
HETATM    2  C   UNL     1     -12.151  12.262  68.535  1.00  0.00    -0.124 C  
HETATM    3  C   UNL     1     -11.558  12.630  67.229  1.00  0.00    -0.428 C  
HETATM    4  C   UNL     1      -9.502  12.642  67.185  1.00  0.00    -0.214 C  
HETATM    5  C   UNL     1     -10.356  11.650  66.792  1.00  0.00    -0.257 C  
HETATM    6  C   UNL     1     -10.402  17.385  65.847  1.00  0.00    -0.276 C  
HETATM    7  O   UNL     1      -8.600  12.817  66.092  1.00  0.00    -0.376 OA 
HETATM    8  C   UNL     1     -10.671  12.657  65.247  1.00  0.00    -0.318 C  
HETATM    9  C   UNL     1     -10.174  10.166  66.656  1.00  0.00    -0.287 C  
HETATM   10  C   UNL     1     -10.457  14.305  68.452  1.00  0.00    -0.249 C  
HETATM   11  H   UNL     1      -7.651  12.823  66.072  1.00  0.00     0.000 HD 
HETATM   12  C   UNL     1     -10.467  14.374  65.546  1.00  0.00    -0.366 C  
HETATM   13  C   UNL     1     -10.818  15.097  67.016  1.00  0.00    -0.314 C  
HETATM   14  C   UNL     1     -10.493  16.592  67.138  1.00  0.00    -0.300 C  
HETATM   15  C   UNL     1     -10.449  17.201  68.348  1.00  0.00    -0.376 C  
HETATM   16  C   UNL     1     -10.682  16.490  69.669  1.00  0.00    -0.323 C  
HETATM   17  C   UNL     1     -10.205  18.687  68.517  1.00  0.00    -0.398 C  
HETATM   18  C   UNL     1     -11.180  15.045  69.575  1.00  0.00    -0.294 C  
HETATM   19  C   UNL     1      -9.846  19.360  67.211  1.00  0.00    -0.344 C  
HETATM   20  C   UNL     1     -10.602  18.886  66.005  1.00  0.00    -0.470 C  
HETATM   21  O   UNL     1      -9.073  20.317  67.158  1.00  0.00    -0.355 OA 
ENDROOT
BRANCH   4  22
HETATM   22  C   UNL     1      -8.514  11.967  68.184  1.00  0.00    -0.163 C  
HETATM   23  C   UNL     1      -7.711  11.463  68.914  1.00  0.00    -0.108 C  
ENDBRANCH   4  22
TORSDOF 1
ENDMDL
MODEL       16
REMARK 921   NORMALIZED FREE ENERGY PREDICTED BY IDOCK:   -6.18 KCAL/MOL
REMARK 922        TOTAL FREE ENERGY PREDICTED BY IDOCK:   -6.55 KCAL/MOL
REMARK 923 INTER-LIGAND FREE ENERGY PREDICTED BY IDOCK:   -6.55 KCAL/MOL
REMARK 924 INTRA-LIGAND FREE ENERGY PREDICTED BY IDOCK:    0.00 KCAL/MOL
REMARK 927      BINDING AFFINITY PREDICTED BY RF-SCORE:    0.00 PKD
ROOT
HETATM    1  C   UNL     1      -9.010   8.248  69.682  1.00  0.00    -0.149 C  
HETATM    2  C   UNL     1      -7.909   8.992  70.173  1.00  0.00    -0.100 C  
HETATM    3  C   UNL     1      -9.254   9.541  70.458  1.00  0.00    -0.284 C  
HETATM    4  C   UNL     1     -10.816   8.286  69.997  1.00  0.00    -0.232 C  
HETATM    5  C   UNL     1     -10.212   8.484  71.207  1.00  0.00    -0.287 C  
HETATM    6  C   UNL     1     -12.018  12.218  67.135  1.00  0.00    -0.207 C  
HETATM    7  O   UNL     1     -12.216   8.419  70.248  1.00  0.00    -0.346 OA 
HETATM    8  C   UNL     1     -11.171  10.087  71.321  1.00  0.00    -0.270 C  
HETATM    9  C   UNL     1     -10.112   7.620  72.430  1.00  0.00    -0.265 C  
HETATM   10  C   UNL     1      -9.667   9.114  68.187  1.00  0.00    -0.174 C  
HETATM   11  H   UNL     1     -12.937   7.839  70.034  1.00  0.00     0.000 HD 
HETATM   12  C   UNL     1     -11.506  10.751  69.732  1.00  0.00    -0.386 C  
HETATM   13  C   UNL     1     -10.475  10.567  68.424  1.00  0.00    -0.212 C  
HETATM   14  C   UNL     1     -10.965  11.128  67.083  1.00  0.00    -0.350 C  
HETATM   15  C   UNL     1     -10.366  10.776  65.918  1.00  0.00    -0.302 C  
HETATM   16  C   UNL     1      -9.206   9.802  65.816  1.00  0.00    -0.242 C  
HETATM   17  C   UNL     1     -10.764  11.357  64.576  1.00  0.00    -0.391 C  
HETATM   18  C   UNL     1      -8.580   9.362  67.143  1.00  0.00    -0.130 C  
HETATM   19  C   UNL     1     -12.001  12.222  64.671  1.00  0.00    -0.366 C  
HETATM   20  C   UNL     1     -12.095  13.092  65.890  1.00  0.00    -0.501 C  
HETATM   21  O   UNL     1     -12.818  12.300  63.753  1.00  0.00    -0.735 OA 
ENDROOT
BRANCH   4  22
HETATM   22  C   UNL     1     -10.776   6.746  69.760  1.00  0.00    -0.288 C  
HETATM   23  C   UNL     1     -10.761   5.574  69.522  1.00  0.00    -0.332 C  
ENDBRANCH   4  22
TORSDOF 1
ENDMDL
MODEL       17
REMARK 921   NORMALIZED FREE ENERGY PREDICTED BY IDOCK:   -6.17 KCAL/MOL
REMARK 922        TOTAL FREE ENERGY PREDICTED BY IDOCK:   -6.54 KCAL/MOL
REMARK 923 INTER-LIGAND FREE ENERGY PREDICTED BY IDOCK:   -6.54 KCAL/MOL
REMARK 924 INTRA-LIGAND FREE ENERGY PREDICTED BY IDOCK:   -0.01 KCAL/MOL
REMARK 927      BINDING AFFINITY PREDICTED BY RF-SCORE:    0.00 PKD
ROOT
HETATM    1  C   UNL     1     -11.186  14.176  65.974  1.00  0.00    -0.319 C  
HETATM    2  C   UNL     1     -12.550  14.067  65.606  1.00  0.00    -0.542 C  
HETATM    3  C   UNL     1     -12.157  13.418  66.878  1.00  0.00    -0.406 C  
HETATM    4  C   UNL     1     -10.254  13.854  67.521  1.00  0.00    -0.245 C  
HETATM    5  C   UNL     1     -11.433  14.433  67.898  1.00  0.00    -0.346 C  
HETATM    6  C   UNL     1      -9.915   8.866  67.195  1.00  0.00    -0.289 C  
HETATM    7  O   UNL     1      -9.590  13.522  68.741  1.00  0.00    -0.391 OA 
HETATM    8  C   UNL     1     -11.738  12.914  68.948  1.00  0.00    -0.370 C  
HETATM    9  C   UNL     1     -11.746  15.781  68.479  1.00  0.00    -0.328 C  
HETATM   10  C   UNL     1     -10.368  12.555  65.628  1.00  0.00    -0.294 C  
HETATM   11  H   UNL     1      -8.710  13.723  69.037  1.00  0.00     0.000 HD 
HETATM   12  C   UNL     1     -10.961  11.496  68.269  1.00  0.00    -0.272 C  
HETATM   13  C   UNL     1     -10.759  11.260  66.622  1.00  0.00    -0.321 C  
HETATM   14  C   UNL     1      -9.974  10.011  66.201  1.00  0.00    -0.322 C  
HETATM   15  C   UNL     1      -9.495   9.879  64.940  1.00  0.00    -0.355 C  
HETATM   16  C   UNL     1      -9.654  10.927  63.854  1.00  0.00    -0.326 C  
HETATM   17  C   UNL     1      -8.777   8.635  64.454  1.00  0.00    -0.006 C  
HETATM   18  C   UNL     1     -10.579  12.102  64.185  1.00  0.00    -0.403 C  
HETATM   19  C   UNL     1      -8.510   7.655  65.574  1.00  0.00    -0.120 C  
HETATM   20  C   UNL     1      -9.608   7.505  66.585  1.00  0.00    -0.263 C  
HETATM   21  O   UNL     1      -7.510   6.937  65.591  1.00  0.00    -0.079 OA 
ENDROOT
BRANCH   4  22
HETATM   22  C   UNL     1      -9.335  15.033  67.079  1.00  0.00    -0.237 C  
HETATM   23  C   UNL     1      -8.596  15.928  66.789  1.00  0.00    -0.301 C  
ENDBRANCH   4  22
TORSDOF 1
ENDMDL
MODEL       18
REMARK 921   NORMALIZED FREE ENERGY PREDICTED BY IDOCK:   -6.16 KCAL/MOL
REMARK 922        TOTAL FREE ENERGY PREDICTED BY IDOCK:   -6.53 KCAL/MOL
REMARK 923 INTER-LIGAND FREE ENERGY PREDICTED BY IDOCK:   -6.52 KCAL/MOL
REMARK 924 INTRA-LIGAND FREE ENERGY PREDICTED BY IDOCK:   -0.01 KCAL/MOL
REMARK 927      BINDING AFFINITY PREDICTED BY RF-SCORE:    0.00 PKD
ROOT
HETATM    1  C   UNL     1      -9.001  13.027  66.876  1.00  0.00    -0.210 C  
HETATM    2  C   UNL     1      -8.293  12.528  67.997  1.00  0.00    -0.171 C  
HETATM    3  C   UNL     1      -9.626  13.114  68.268  1.00  0.00    -0.218 C  
HETATM    4  C   UNL     1     -10.737  13.546  66.593  1.00  0.00    -0.282 C  
HETATM    5  C   UNL     1     -10.794  12.437  67.389  1.00  0.00    -0.273 C  
HETATM    6  C   UNL     1     -10.533  18.100  68.670  1.00  0.00    -0.212 C  
HETATM    7  O   UNL     1     -12.089  13.990  66.468  1.00  0.00    -0.424 OA 
HETATM    8  C   UNL     1     -11.737  13.481  68.623  1.00  0.00    -0.389 C  
HETATM    9  C   UNL     1     -11.269  11.037  67.126  1.00  0.00    -0.290 C  
HETATM   10  C   UNL     1      -8.885  14.871  66.899  1.00  0.00    -0.284 C  
HETATM   11  H   UNL     1     -12.602  14.189  65.694  1.00  0.00     0.000 HD 
HETATM   12  C   UNL     1     -11.288  15.174  68.508  1.00  0.00    -0.321 C  
HETATM   13  C   UNL     1      -9.751  15.689  68.084  1.00  0.00    -0.204 C  
HETATM   14  C   UNL     1      -9.552  17.203  67.938  1.00  0.00    -0.266 C  
HETATM   15  C   UNL     1      -8.459  17.708  67.316  1.00  0.00    -0.225 C  
HETATM   16  C   UNL     1      -7.364  16.859  66.695  1.00  0.00    -0.298 C  
HETATM   17  C   UNL     1      -8.180  19.193  67.209  1.00  0.00    -0.299 C  
HETATM   18  C   UNL     1      -7.439  15.355  66.976  1.00  0.00    -0.166 C  
HETATM   19  C   UNL     1      -9.336  20.029  67.713  1.00  0.00    -0.354 C  
HETATM   20  C   UNL     1     -10.029  19.512  68.939  1.00  0.00    -0.529 C  
HETATM   21  O   UNL     1      -9.614  21.125  67.224  1.00  0.00    -0.335 OA 
ENDROOT
BRANCH   4  22
HETATM   22  C   UNL     1     -10.544  13.007  65.143  1.00  0.00    -0.327 C  
HETATM   23  C   UNL     1     -10.422  12.642  64.010  1.00  0.00    -0.443 C  
ENDBRANCH   4  22
TORSDOF 1
ENDMDL
MODEL       19
REMARK 921   NORMALIZED FREE ENERGY PREDICTED BY IDOCK:   -6.13 KCAL/MOL
REMARK 922        TOTAL FREE ENERGY PREDICTED BY IDOCK:   -6.50 KCAL/MOL
REMARK 923 INTER-LIGAND FREE ENERGY PREDICTED BY IDOCK:   -6.55 KCAL/MOL
REMARK 924 INTRA-LIGAND FREE ENERGY PREDICTED BY IDOCK:    0.05 KCAL/MOL
REMARK 927      BINDING AFFINITY PREDICTED BY RF-SCORE:    0.00 PKD
ROOT
HETATM    1  C   UNL     1      -8.733   7.934  66.965  1.00  0.00    -0.132 C  
HETATM    2  C   UNL     1      -7.389   8.365  67.097  1.00  0.00    -0.085 C  
HETATM    3  C   UNL     1      -8.329   8.803  68.155  1.00  0.00    -0.122 C  
HETATM    4  C   UNL     1     -10.181   7.913  68.090  1.00  0.00    -0.205 C  
HETATM    5  C   UNL     1      -9.100   7.572  68.852  1.00  0.00    -0.140 C  
HETATM    6  C   UNL     1     -11.538  12.719  67.692  1.00  0.00    -0.412 C  
HETATM    7  O   UNL     1     -11.277   7.988  69.003  1.00  0.00    -0.409 OA 
HETATM    8  C   UNL     1      -9.530   9.025  69.951  1.00  0.00    -0.186 C  
HETATM    9  C   UNL     1      -8.698   6.279  69.500  1.00  0.00    -0.132 C  
HETATM   10  C   UNL     1      -9.738   9.363  66.363  1.00  0.00    -0.315 C  
HETATM   11  H   UNL     1     -12.133   7.577  68.972  1.00  0.00     0.000 HD 
HETATM   12  C   UNL     1     -10.337  10.295  69.050  1.00  0.00    -0.229 C  
HETATM   13  C   UNL     1     -10.018  10.622  67.438  1.00  0.00    -0.213 C  
HETATM   14  C   UNL     1     -10.881  11.704  66.776  1.00  0.00    -0.322 C  
HETATM   15  C   UNL     1     -10.921  11.837  65.427  1.00  0.00    -0.352 C  
HETATM   16  C   UNL     1     -10.165  10.944  64.460  1.00  0.00    -0.422 C  
HETATM   17  C   UNL     1     -11.700  12.933  64.728  1.00  0.00    -0.391 C  
HETATM   18  C   UNL     1      -9.161   9.972  65.087  1.00  0.00    -0.273 C  
HETATM   19  C   UNL     1     -12.551  13.733  65.689  1.00  0.00    -0.509 C  
HETATM   20  C   UNL     1     -11.926  14.029  67.020  1.00  0.00    -0.472 C  
HETATM   21  O   UNL     1     -13.635  14.215  65.358  1.00  0.00    -0.568 OA 
ENDROOT
BRANCH   4  22
HETATM   22  C   UNL     1     -10.596   6.606  67.350  1.00  0.00    -0.370 C  
HETATM   23  C   UNL     1     -10.871   5.612  66.742  1.00  0.00    -0.296 C  
ENDBRANCH   4  22
TORSDOF 1
ENDMDL
MODEL       20
REMARK 921   NORMALIZED FREE ENERGY PREDICTED BY IDOCK:   -6.09 KCAL/MOL
REMARK 922        TOTAL FREE ENERGY PREDICTED BY IDOCK:   -6.45 KCAL/MOL
REMARK 923 INTER-LIGAND FREE ENERGY PREDICTED BY IDOCK:   -6.45 KCAL/MOL
REMARK 924 INTRA-LIGAND FREE ENERGY PREDICTED BY IDOCK:   -0.00 KCAL/MOL
REMARK 927      BINDING AFFINITY PREDICTED BY RF-SCORE:    0.00 PKD
ROOT
HETATM    1  C   UNL     1      -9.119   9.004  67.761  1.00  0.00    -0.143 C  
HETATM    2  C   UNL     1     -10.065   7.950  67.790  1.00  0.00    -0.246 C  
HETATM    3  C   UNL     1      -9.526   8.315  66.460  1.00  0.00    -0.284 C  
HETATM    4  C   UNL     1      -7.947   9.631  66.497  1.00  0.00    -0.112 C  
HETATM    5  C   UNL     1      -7.917   8.268  66.405  1.00  0.00    -0.096 C  
HETATM    6  C   UNL     1     -11.164  12.252  63.691  1.00  0.00    -0.539 C  
HETATM    7  O   UNL     1      -7.106  10.099  65.442  1.00  0.00    -0.131 OA 
HETATM    8  C   UNL     1      -8.401   8.469  64.609  1.00  0.00    -0.156 C  
HETATM    9  C   UNL     1      -6.858   7.263  66.753  1.00  0.00    -0.065 C  
HETATM   10  C   UNL     1      -9.968  10.520  67.132  1.00  0.00    -0.234 C  
HETATM   11  H   UNL     1      -6.377  10.707  65.460  1.00  0.00     0.000 HD 
HETATM   12  C   UNL     1      -9.342   9.928  64.356  1.00  0.00    -0.326 C  
HETATM   13  C   UNL     1     -10.385  10.558  65.506  1.00  0.00    -0.287 C  
HETATM   14  C   UNL     1     -11.059  11.893  65.161  1.00  0.00    -0.360 C  
HETATM   15  C   UNL     1     -11.672  12.634  66.116  1.00  0.00    -0.461 C  
HETATM   16  C   UNL     1     -11.732  12.251  67.584  1.00  0.00    -0.403 C  
HETATM   17  C   UNL     1     -12.413  13.921  65.816  1.00  0.00    -0.530 C  
HETATM   18  C   UNL     1     -11.227  10.848  67.934  1.00  0.00    -0.387 C  
HETATM   19  C   UNL     1     -12.236  14.360  64.379  1.00  0.00    -0.458 C  
HETATM   20  C   UNL     1     -12.252  13.263  63.356  1.00  0.00    -0.476 C  
HETATM   21  O   UNL     1     -12.205  15.549  64.057  1.00  0.00    -0.622 OA 
ENDROOT
BRANCH   4  22
HETATM   22  C   UNL     1      -7.018   9.986  67.697  1.00  0.00    -0.085 C  
HETATM   23  C   UNL     1      -6.263  10.276  68.580  1.00  0.00    -0.047 C  
ENDBRANCH   4  22
TORSDOF 1
ENDMDL
MODEL       21
REMARK 921   NORMALIZED FREE ENERGY PREDICTED BY IDOCK:   -6.08 KCAL/MOL
REMARK 922        TOTAL FREE ENERGY PREDICTED BY IDOCK:   -6.45 KCAL/MOL
REMARK 923 INTER-LIGAND FREE ENERGY PREDICTED BY IDOCK:   -6.43 KCAL/MOL
REMARK 924 INTRA-LIGAND FREE ENERGY PREDICTED BY IDOCK:   -0.01 KCAL/MOL
REMARK 927      BINDING AFFINITY PREDICTED BY RF-SCORE:    0.00 PKD
ROOT
HETATM    1  C   UNL     1      -9.251  12.001  66.514  1.00  0.00    -0.216 C  
HETATM    2  C   UNL     1      -8.083  12.564  67.086  1.00  0.00    -0.156 C  
HETATM    3  C   UNL     1      -8.241  11.097  67.220  1.00  0.00    -0.136 C  
HETATM    4  C   UNL     1      -9.780  10.288  66.124  1.00  0.00    -0.211 C  
HETATM    5  C   UNL     1      -8.454  10.361  65.804  1.00  0.00    -0.170 C  
HETATM    6  C   UNL     1     -11.161   8.840  70.717  1.00  0.00    -0.309 C  
HETATM    7  O   UNL     1     -10.146   8.925  65.908  1.00  0.00    -0.432 OA 
HETATM    8  C   UNL     1      -8.182   8.939  66.989  1.00  0.00    -0.106 C  
HETATM    9  C   UNL     1      -7.739  10.340  64.484  1.00  0.00    -0.107 C  
HETATM   10  C   UNL     1     -10.432  11.617  67.883  1.00  0.00    -0.217 C  
HETATM   11  H   UNL     1     -10.858   8.551  65.401  1.00  0.00     0.000 HD 
HETATM   12  C   UNL     1      -9.374   8.938  68.276  1.00  0.00    -0.149 C  
HETATM   13  C   UNL     1     -10.050  10.337  68.902  1.00  0.00    -0.216 C  
HETATM   14  C   UNL     1     -11.148  10.154  69.958  1.00  0.00    -0.368 C  
HETATM   15  C   UNL     1     -11.962  11.181  70.305  1.00  0.00    -0.460 C  
HETATM   16  C   UNL     1     -11.897  12.566  69.688  1.00  0.00    -0.382 C  
HETATM   17  C   UNL     1     -13.012  11.072  71.392  1.00  0.00    -0.517 C  
HETATM   18  C   UNL     1     -10.707  12.834  68.762  1.00  0.00    -0.246 C  
HETATM   19  C   UNL     1     -13.157   9.657  71.908  1.00  0.00    -0.436 C  
HETATM   20  C   UNL     1     -11.880   8.885  72.059  1.00  0.00    -0.438 C  
HETATM   21  O   UNL     1     -14.237   9.209  72.295  1.00  0.00    -0.412 OA 
ENDROOT
BRANCH   4  22
HETATM   22  C   UNL     1     -10.535  10.917  64.914  1.00  0.00    -0.352 C  
HETATM   23  C   UNL     1     -11.154  11.356  63.989  1.00  0.00    -0.400 C  
ENDBRANCH   4  22
TORSDOF 1
ENDMDL
MODEL       22
REMARK 921   NORMALIZED FREE ENERGY PREDICTED BY IDOCK:   -5.96 KCAL/MOL
REMARK 922        TOTAL FREE ENERGY PREDICTED BY IDOCK:   -6.32 KCAL/MOL
REMARK 923 INTER-LIGAND FREE ENERGY PREDICTED BY IDOCK:   -6.31 KCAL/MOL
REMARK 924 INTRA-LIGAND FREE ENERGY PREDICTED BY IDOCK:   -0.01 KCAL/MOL
REMARK 927      BINDING AFFINITY PREDICTED BY RF-SCORE:    0.00 PKD
ROOT
HETATM    1  C   UNL     1      -8.738  17.993  67.050  1.00  0.00    -0.253 C  
HETATM    2  C   UNL     1      -9.701  18.319  68.037  1.00  0.00    -0.324 C  
HETATM    3  C   UNL     1      -8.818  17.167  68.333  1.00  0.00    -0.255 C  
HETATM    4  C   UNL     1      -7.251  16.919  67.025  1.00  0.00    -0.198 C  
HETATM    5  C   UNL     1      -7.254  17.540  68.242  1.00  0.00    -0.217 C  
HETATM    6  C   UNL     1      -9.513  12.482  66.483  1.00  0.00    -0.240 C  
HETATM    7  O   UNL     1      -6.146  16.016  67.066  1.00  0.00    -0.324 OA 
HETATM    8  C   UNL     1      -7.244  15.835  69.012  1.00  0.00    -0.168 C  
HETATM    9  C   UNL     1      -6.365  18.597  68.830  1.00  0.00    -0.250 C  
HETATM   10  C   UNL     1      -9.330  16.497  66.141  1.00  0.00    -0.339 C  
HETATM   11  H   UNL     1      -5.422  15.902  66.461  1.00  0.00     0.000 HD 
HETATM   12  C   UNL     1      -8.025  14.656  67.973  1.00  0.00    -0.137 C  
HETATM   13  C   UNL     1      -9.306  15.031  66.961  1.00  0.00    -0.237 C  
HETATM   14  C   UNL     1      -9.811  13.905  66.049  1.00  0.00    -0.306 C  
HETATM   15  C   UNL     1     -10.621  14.169  64.995  1.00  0.00    -0.436 C  
HETATM   16  C   UNL     1     -11.078  15.562  64.599  1.00  0.00    -0.373 C  
HETATM   17  C   UNL     1     -11.204  13.087  64.109  1.00  0.00    -0.439 C  
HETATM   18  C   UNL     1     -10.740  16.685  65.584  1.00  0.00    -0.222 C  
HETATM   19  C   UNL     1     -10.641  11.720  64.429  1.00  0.00    -0.317 C  
HETATM   20  C   UNL     1     -10.434  11.426  65.886  1.00  0.00    -0.309 C  
HETATM   21  O   UNL     1     -10.477  10.860  63.563  1.00  0.00    -0.333 OA 
ENDROOT
BRANCH   4  22
HETATM   22  C   UNL     1      -6.654  17.959  66.030  1.00  0.00    -0.317 C  
HETATM   23  C   UNL     1      -6.155  18.717  65.250  1.00  0.00    -0.314 C  
ENDBRANCH   4  22
TORSDOF 1
ENDMDL
MODEL       23
REMARK 921   NORMALIZED FREE ENERGY PREDICTED BY IDOCK:   -5.95 KCAL/MOL
REMARK 922        TOTAL FREE ENERGY PREDICTED BY IDOCK:   -6.30 KCAL/MOL
REMARK 923 INTER-LIGAND FREE ENERGY PREDICTED BY IDOCK:   -6.34 KCAL/MOL
REMARK 924 INTRA-LIGAND FREE ENERGY PREDICTED BY IDOCK:    0.04 KCAL/MOL
REMARK 927      BINDING AFFINITY PREDICTED BY RF-SCORE:    0.00 PKD
ROOT
HETATM    1  C   UNL     1      -8.547   6.931  66.753  1.00  0.00    -0.120 C  
HETATM    2  C   UNL     1      -7.261   7.343  67.181  1.00  0.00    -0.089 C  
HETATM    3  C   UNL     1      -8.388   7.651  68.091  1.00  0.00    -0.124 C  
HETATM    4  C   UNL     1     -10.177   6.777  67.579  1.00  0.00    -0.190 C  
HETATM    5  C   UNL     1      -9.247   6.346  68.483  1.00  0.00    -0.124 C  
HETATM    6  C   UNL     1     -11.541  11.597  67.505  1.00  0.00    -0.345 C  
HETATM    7  O   UNL     1     -11.424   6.743  68.276  1.00  0.00    -0.554 OA 
HETATM    8  C   UNL     1      -9.903   7.658  69.646  1.00  0.00    -0.181 C  
HETATM    9  C   UNL     1      -8.943   4.985  69.037  1.00  0.00    -0.125 C  
HETATM   10  C   UNL     1      -9.455   8.422  66.147  1.00  0.00    -0.263 C  
HETATM   11  H   UNL     1     -12.250   6.339  68.039  1.00  0.00     0.000 HD 
HETATM   12  C   UNL     1     -10.559   9.027  68.767  1.00  0.00    -0.196 C  
HETATM   13  C   UNL     1      -9.956   9.544  67.292  1.00  0.00    -0.244 C  
HETATM   14  C   UNL     1     -10.706  10.698  66.613  1.00  0.00    -0.246 C  
HETATM   15  C   UNL     1     -10.500  10.991  65.306  1.00  0.00    -0.316 C  
HETATM   16  C   UNL     1      -9.560  10.220  64.397  1.00  0.00    -0.378 C  
HETATM   17  C   UNL     1     -11.160  12.163  64.608  1.00  0.00    -0.366 C  
HETATM   18  C   UNL     1      -8.668   9.180  65.080  1.00  0.00    -0.228 C  
HETATM   19  C   UNL     1     -12.191  12.843  65.482  1.00  0.00    -0.474 C  
HETATM   20  C   UNL     1     -11.828  12.978  66.931  1.00  0.00    -0.442 C  
HETATM   21  O   UNL     1     -13.206  13.361  65.015  1.00  0.00    -0.715 OA 
ENDROOT
BRANCH   4  22
HETATM   22  C   UNL     1     -10.421   5.568  66.627  1.00  0.00    -0.355 C  
HETATM   23  C   UNL     1     -10.584   4.671  65.851  1.00  0.00    -0.265 C  
ENDBRANCH   4  22
TORSDOF 1
ENDMDL
MODEL       24
REMARK 921   NORMALIZED FREE ENERGY PREDICTED BY IDOCK:   -5.93 KCAL/MOL
REMARK 922        TOTAL FREE ENERGY PREDICTED BY IDOCK:   -6.29 KCAL/MOL
REMARK 923 INTER-LIGAND FREE ENERGY PREDICTED BY IDOCK:   -6.28 KCAL/MOL
REMARK 924 INTRA-LIGAND FREE ENERGY PREDICTED BY IDOCK:   -0.00 KCAL/MOL
REMARK 927      BINDING AFFINITY PREDICTED BY RF-SCORE:    0.00 PKD
ROOT
HETATM    1  C   UNL     1     -11.055  15.545  66.623  1.00  0.00    -0.193 C  
HETATM    2  C   UNL     1     -11.046  15.284  65.231  1.00  0.00    -0.382 C  
HETATM    3  C   UNL     1      -9.834  14.885  65.984  1.00  0.00    -0.345 C  
HETATM    4  C   UNL     1     -10.008  15.003  68.029  1.00  0.00    -0.219 C  
HETATM    5  C   UNL     1     -10.163  13.910  67.223  1.00  0.00    -0.249 C  
HETATM    6  C   UNL     1      -6.122  18.086  67.334  1.00  0.00    -0.164 C  
HETATM    7  O   UNL     1      -9.112  14.587  69.060  1.00  0.00    -0.327 OA 
HETATM    8  C   UNL     1      -8.296  13.843  67.108  1.00  0.00    -0.171 C  
HETATM    9  C   UNL     1     -10.916  12.625  67.410  1.00  0.00    -0.289 C  
HETATM   10  C   UNL     1      -9.993  17.025  66.937  1.00  0.00    -0.289 C  
HETATM   11  H   UNL     1      -9.193  14.641  70.005  1.00  0.00     0.000 HD 
HETATM   12  C   UNL     1      -7.584  15.437  67.286  1.00  0.00    -0.246 C  
HETATM   13  C   UNL     1      -8.333  16.840  66.761  1.00  0.00    -0.272 C  
HETATM   14  C   UNL     1      -7.616  18.159  67.079  1.00  0.00    -0.232 C  
HETATM   15  C   UNL     1      -8.260  19.347  66.977  1.00  0.00    -0.297 C  
HETATM   16  C   UNL     1      -9.717  19.495  66.579  1.00  0.00    -0.478 C  
HETATM   17  C   UNL     1      -7.577  20.680  67.210  1.00  0.00    -0.381 C  
HETATM   18  C   UNL     1     -10.412  18.222  66.086  1.00  0.00    -0.403 C  
HETATM   19  C   UNL     1      -6.167  20.517  67.732  1.00  0.00    -0.265 C  
HETATM   20  C   UNL     1      -5.374  19.397  67.126  1.00  0.00    -0.161 C  
HETATM   21  O   UNL     1      -5.660  21.325  68.511  1.00  0.00    -0.315 OA 
ENDROOT
BRANCH   4  22
HETATM   22  C   UNL     1     -11.311  15.077  68.881  1.00  0.00    -0.312 C  
HETATM   23  C   UNL     1     -12.280  15.112  69.582  1.00  0.00    -0.292 C  
ENDBRANCH   4  22
TORSDOF 1
ENDMDL
MODEL       25
REMARK 921   NORMALIZED FREE ENERGY PREDICTED BY IDOCK:   -5.90 KCAL/MOL
REMARK 922        TOTAL FREE ENERGY PREDICTED BY IDOCK:   -6.25 KCAL/MOL
REMARK 923 INTER-LIGAND FREE ENERGY PREDICTED BY IDOCK:   -6.31 KCAL/MOL
REMARK 924 INTRA-LIGAND FREE ENERGY PREDICTED BY IDOCK:    0.06 KCAL/MOL
REMARK 927      BINDING AFFINITY PREDICTED BY RF-SCORE:    0.00 PKD
ROOT
HETATM    1  C   UNL     1      -8.951  12.596  66.779  1.00  0.00    -0.197 C  
HETATM    2  C   UNL     1      -7.803  12.129  67.465  1.00  0.00    -0.162 C  
HETATM    3  C   UNL     1      -9.056  11.372  67.689  1.00  0.00    -0.155 C  
HETATM    4  C   UNL     1     -10.614  11.893  66.452  1.00  0.00    -0.248 C  
HETATM    5  C   UNL     1      -9.728  10.861  66.317  1.00  0.00    -0.245 C  
HETATM    6  C   UNL     1     -12.727  12.803  70.902  1.00  0.00    -0.277 C  
HETATM    7  O   UNL     1     -11.906  11.305  66.292  1.00  0.00    -0.142 OA 
HETATM    8  C   UNL     1     -10.710   9.966  67.636  1.00  0.00    -0.339 C  
HETATM    9  C   UNL     1      -9.268  10.085  65.117  1.00  0.00    -0.273 C  
HETATM   10  C   UNL     1     -10.019  13.492  67.992  1.00  0.00    -0.248 C  
HETATM   11  H   UNL     1     -12.625  11.546  65.721  1.00  0.00     0.000 HD 
HETATM   12  C   UNL     1     -11.481  11.092  68.738  1.00  0.00    -0.366 C  
HETATM   13  C   UNL     1     -10.816  12.574  69.151  1.00  0.00    -0.134 C  
HETATM   14  C   UNL     1     -11.666  13.478  70.053  1.00  0.00    -0.311 C  
HETATM   15  C   UNL     1     -11.372  14.793  70.200  1.00  0.00    -0.291 C  
HETATM   16  C   UNL     1     -10.227  15.495  69.493  1.00  0.00    -0.279 C  
HETATM   17  C   UNL     1     -12.135  15.711  71.134  1.00  0.00    -0.454 C  
HETATM   18  C   UNL     1      -9.256  14.591  68.727  1.00  0.00    -0.162 C  
HETATM   19  C   UNL     1     -13.350  15.038  71.732  1.00  0.00    -0.386 C  
HETATM   20  C   UNL     1     -13.172  13.600  72.121  1.00  0.00    -0.541 C  
HETATM   21  O   UNL     1     -14.380  15.659  71.996  1.00  0.00    -0.494 OA 
ENDROOT
BRANCH   4  22
HETATM   22  C   UNL     1     -10.553  12.670  65.102  1.00  0.00    -0.324 C  
HETATM   23  C   UNL     1     -10.456  13.292  64.084  1.00  0.00    -0.281 C  
ENDBRANCH   4  22
TORSDOF 1
ENDMDL
MODEL       26
REMARK 921   NORMALIZED FREE ENERGY PREDICTED BY IDOCK:   -5.88 KCAL/MOL
REMARK 922        TOTAL FREE ENERGY PREDICTED BY IDOCK:   -6.23 KCAL/MOL
REMARK 923 INTER-LIGAND FREE ENERGY PREDICTED BY IDOCK:   -6.27 KCAL/MOL
REMARK 924 INTRA-LIGAND FREE ENERGY PREDICTED BY IDOCK:    0.04 KCAL/MOL
REMARK 927      BINDING AFFINITY PREDICTED BY RF-SCORE:    0.00 PKD
ROOT
HETATM    1  C   UNL     1     -11.012   8.157  71.592  1.00  0.00    -0.306 C  
HETATM    2  C   UNL     1     -12.273   7.517  71.502  1.00  0.00    -0.359 C  
HETATM    3  C   UNL     1     -11.446   7.520  70.273  1.00  0.00    -0.173 C  
HETATM    4  C   UNL     1      -9.517   8.185  70.529  1.00  0.00    -0.163 C  
HETATM    5  C   UNL     1      -9.978   6.898  70.508  1.00  0.00    -0.194 C  
HETATM    6  C   UNL     1     -11.087  11.455  67.075  1.00  0.00    -0.364 C  
HETATM    7  O   UNL     1      -8.416   8.206  69.620  1.00  0.00    -0.123 OA 
HETATM    8  C   UNL     1     -10.081   7.062  68.647  1.00  0.00    -0.168 C  
HETATM    9  C   UNL     1      -9.428   5.627  71.086  1.00  0.00    -0.191 C  
HETATM   10  C   UNL     1     -11.139   9.797  70.752  1.00  0.00    -0.415 C  
HETATM   11  H   UNL     1      -7.526   8.513  69.739  1.00  0.00     0.000 HD 
HETATM   12  C   UNL     1     -10.370   8.723  68.162  1.00  0.00    -0.266 C  
HETATM   13  C   UNL     1     -11.266   9.803  69.077  1.00  0.00    -0.080 C  
HETATM   14  C   UNL     1     -11.341  11.244  68.555  1.00  0.00    -0.341 C  
HETATM   15  C   UNL     1     -11.773  12.254  69.350  1.00  0.00    -0.392 C  
HETATM   16  C   UNL     1     -12.187  12.079  70.800  1.00  0.00    -0.382 C  
HETATM   17  C   UNL     1     -11.934  13.679  68.862  1.00  0.00    -0.392 C  
HETATM   18  C   UNL     1     -12.293  10.635  71.300  1.00  0.00    -0.488 C  
HETATM   19  C   UNL     1     -11.397  13.868  67.461  1.00  0.00    -0.318 C  
HETATM   20  C   UNL     1     -11.664  12.744  66.504  1.00  0.00    -0.463 C  
HETATM   21  O   UNL     1     -10.882  14.925  67.094  1.00  0.00    -0.297 OA 
ENDROOT
BRANCH   4  22
HETATM   22  C   UNL     1      -8.712   8.315  71.858  1.00  0.00    -0.230 C  
HETATM   23  C   UNL     1      -8.139   8.448  72.899  1.00  0.00    -0.166 C  
ENDBRANCH   4  22
TORSDOF 1
ENDMDL
MODEL       27
REMARK 921   NORMALIZED FREE ENERGY PREDICTED BY IDOCK:   -5.88 KCAL/MOL
REMARK 922        TOTAL FREE ENERGY PREDICTED BY IDOCK:   -6.23 KCAL/MOL
REMARK 923 INTER-LIGAND FREE ENERGY PREDICTED BY IDOCK:   -6.25 KCAL/MOL
REMARK 924 INTRA-LIGAND FREE ENERGY PREDICTED BY IDOCK:    0.02 KCAL/MOL
REMARK 927      BINDING AFFINITY PREDICTED BY RF-SCORE:    0.00 PKD
ROOT
HETATM    1  C   UNL     1      -6.576  18.202  67.143  1.00  0.00    -0.200 C  
HETATM    2  C   UNL     1      -6.279  18.109  65.760  1.00  0.00    -0.289 C  
HETATM    3  C   UNL     1      -7.649  18.549  66.112  1.00  0.00    -0.273 C  
HETATM    4  C   UNL     1      -7.941  18.959  68.105  1.00  0.00    -0.300 C  
HETATM    5  C   UNL     1      -7.661  19.829  67.090  1.00  0.00    -0.289 C  
HETATM    6  C   UNL     1     -11.409  15.402  67.457  1.00  0.00    -0.269 C  
HETATM    7  O   UNL     1      -9.069  19.518  68.780  1.00  0.00    -0.368 OA 
HETATM    8  C   UNL     1      -9.453  19.666  66.576  1.00  0.00    -0.472 C  
HETATM    9  C   UNL     1      -7.035  21.194  67.083  1.00  0.00    -0.359 C  
HETATM   10  C   UNL     1      -7.607  16.740  67.608  1.00  0.00    -0.183 C  
HETATM   11  H   UNL     1      -9.204  19.707  69.701  1.00  0.00     0.000 HD 
HETATM   12  C   UNL     1     -10.107  18.099  67.015  1.00  0.00    -0.357 C  
HETATM   13  C   UNL     1      -9.190  16.697  67.048  1.00  0.00    -0.234 C  
HETATM   14  C   UNL     1      -9.895  15.429  67.547  1.00  0.00    -0.217 C  
HETATM   15  C   UNL     1      -9.187  14.328  67.899  1.00  0.00    -0.194 C  
HETATM   16  C   UNL     1      -7.671  14.243  67.866  1.00  0.00    -0.157 C  
HETATM   17  C   UNL     1      -9.838  13.029  68.328  1.00  0.00    -0.225 C  
HETATM   18  C   UNL     1      -6.946  15.422  67.210  1.00  0.00    -0.180 C  
HETATM   19  C   UNL     1     -11.336  13.164  68.483  1.00  0.00    -0.286 C  
HETATM   20  C   UNL     1     -12.024  14.009  67.452  1.00  0.00    -0.439 C  
HETATM   21  O   UNL     1     -11.968  12.524  69.325  1.00  0.00    -0.296 OA 
ENDROOT
BRANCH   4  22
HETATM   22  C   UNL     1      -6.866  19.237  69.199  1.00  0.00    -0.371 C  
HETATM   23  C   UNL     1      -6.042  19.392  70.052  1.00  0.00    -0.288 C  
ENDBRANCH   4  22
TORSDOF 1
ENDMDL
MODEL       28
REMARK 921   NORMALIZED FREE ENERGY PREDICTED BY IDOCK:   -5.80 KCAL/MOL
REMARK 922        TOTAL FREE ENERGY PREDICTED BY IDOCK:   -6.15 KCAL/MOL
REMARK 923 INTER-LIGAND FREE ENERGY PREDICTED BY IDOCK:   -6.14 KCAL/MOL
REMARK 924 INTRA-LIGAND FREE ENERGY PREDICTED BY IDOCK:   -0.01 KCAL/MOL
REMARK 927      BINDING AFFINITY PREDICTED BY RF-SCORE:    0.00 PKD
ROOT
HETATM    1  C   UNL     1      -8.532  19.860  67.104  1.00  0.00    -0.376 C  
HETATM    2  C   UNL     1      -9.427  20.208  68.145  1.00  0.00    -0.334 C  
HETATM    3  C   UNL     1      -8.426  19.163  68.460  1.00  0.00    -0.399 C  
HETATM    4  C   UNL     1      -6.966  18.907  67.035  1.00  0.00    -0.203 C  
HETATM    5  C   UNL     1      -6.914  19.646  68.183  1.00  0.00    -0.319 C  
HETATM    6  C   UNL     1      -8.874  14.276  67.132  1.00  0.00    -0.243 C  
HETATM    7  O   UNL     1      -5.787  18.101  67.051  1.00  0.00    -0.138 OA 
HETATM    8  C   UNL     1      -6.687  18.032  69.104  1.00  0.00    -0.249 C  
HETATM    9  C   UNL     1      -6.070  20.822  68.580  1.00  0.00    -0.351 C  
HETATM   10  C   UNL     1      -9.072  18.238  66.401  1.00  0.00    -0.260 C  
HETATM   11  H   UNL     1      -5.113  17.982  66.393  1.00  0.00     0.000 HD 
HETATM   12  C   UNL     1      -7.453  16.698  68.261  1.00  0.00    -0.182 C  
HETATM   13  C   UNL     1      -8.847  16.869  67.347  1.00  0.00    -0.212 C  
HETATM   14  C   UNL     1      -9.332  15.620  66.599  1.00  0.00    -0.291 C  
HETATM   15  C   UNL     1     -10.253  15.713  65.608  1.00  0.00    -0.402 C  
HETATM   16  C   UNL     1     -10.862  17.019  65.131  1.00  0.00    -0.059 C  
HETATM   17  C   UNL     1     -10.817  14.505  64.888  1.00  0.00    -0.436 C  
HETATM   18  C   UNL     1     -10.536  18.258  65.968  1.00  0.00    -0.380 C  
HETATM   19  C   UNL     1     -10.111  13.225  65.278  1.00  0.00    -0.239 C  
HETATM   20  C   UNL     1      -9.750  13.097  66.729  1.00  0.00    -0.246 C  
HETATM   21  O   UNL     1      -9.952  12.297  64.485  1.00  0.00    -0.260 OA 
ENDROOT
BRANCH   4  22
HETATM   22  C   UNL     1      -6.553  19.884  65.893  1.00  0.00    -0.251 C  
HETATM   23  C   UNL     1      -6.216  20.587  64.986  1.00  0.00    -0.314 C  
ENDBRANCH   4  22
TORSDOF 1
ENDMDL
MODEL       29
REMARK 921   NORMALIZED FREE ENERGY PREDICTED BY IDOCK:   -5.74 KCAL/MOL
REMARK 922        TOTAL FREE ENERGY PREDICTED BY IDOCK:   -6.09 KCAL/MOL
REMARK 923 INTER-LIGAND FREE ENERGY PREDICTED BY IDOCK:   -6.07 KCAL/MOL
REMARK 924 INTRA-LIGAND FREE ENERGY PREDICTED BY IDOCK:   -0.01 KCAL/MOL
REMARK 927      BINDING AFFINITY PREDICTED BY RF-SCORE:    0.00 PKD
ROOT
HETATM    1  C   UNL     1     -11.554  12.522  67.302  1.00  0.00    -0.434 C  
HETATM    2  C   UNL     1     -11.834  12.527  65.914  1.00  0.00    -0.489 C  
HETATM    3  C   UNL     1     -10.432  12.249  66.302  1.00  0.00    -0.266 C  
HETATM    4  C   UNL     1     -10.133  11.953  68.314  1.00  0.00    -0.203 C  
HETATM    5  C   UNL     1     -10.304  11.018  67.333  1.00  0.00    -0.242 C  
HETATM    6  C   UNL     1      -7.047  15.827  67.561  1.00  0.00    -0.215 C  
HETATM    7  O   UNL     1      -8.965  11.544  69.027  1.00  0.00    -0.378 OA 
HETATM    8  C   UNL     1      -8.530  11.348  66.836  1.00  0.00    -0.157 C  
HETATM    9  C   UNL     1     -10.782   9.596  67.376  1.00  0.00    -0.308 C  
HETATM   10  C   UNL     1     -10.690  14.102  67.719  1.00  0.00    -0.251 C  
HETATM   11  H   UNL     1      -8.827  11.408  69.957  1.00  0.00     0.000 HD 
HETATM   12  C   UNL     1      -8.051  12.992  67.217  1.00  0.00    -0.164 C  
HETATM   13  C   UNL     1      -9.111  14.289  67.179  1.00  0.00    -0.237 C  
HETATM   14  C   UNL     1      -8.551  15.644  67.633  1.00  0.00    -0.177 C  
HETATM   15  C   UNL     1      -9.377  16.677  67.928  1.00  0.00    -0.221 C  
HETATM   16  C   UNL     1     -10.892  16.600  67.872  1.00  0.00    -0.321 C  
HETATM   17  C   UNL     1      -8.874  18.054  68.311  1.00  0.00    -0.291 C  
HETATM   18  C   UNL     1     -11.478  15.326  67.257  1.00  0.00    -0.227 C  
HETATM   19  C   UNL     1      -7.372  18.085  68.491  1.00  0.00    -0.273 C  
HETATM   20  C   UNL     1      -6.581  17.276  67.505  1.00  0.00    -0.165 C  
HETATM   21  O   UNL     1      -6.826  18.821  69.313  1.00  0.00    -0.284 OA 
ENDROOT
BRANCH   4  22
HETATM   22  C   UNL     1     -11.192  11.608  69.404  1.00  0.00    -0.311 C  
HETATM   23  C   UNL     1     -11.966  11.359  70.282  1.00  0.00    -0.460 C  
ENDBRANCH   4  22
TORSDOF 1
ENDMDL
MODEL       30
REMARK 921   NORMALIZED FREE ENERGY PREDICTED BY IDOCK:   -5.71 KCAL/MOL
REMARK 922        TOTAL FREE ENERGY PREDICTED BY IDOCK:   -6.05 KCAL/MOL
REMARK 923 INTER-LIGAND FREE ENERGY PREDICTED BY IDOCK:   -6.05 KCAL/MOL
REMARK 924 INTRA-LIGAND FREE ENERGY PREDICTED BY IDOCK:   -0.00 KCAL/MOL
REMARK 927      BINDING AFFINITY PREDICTED BY RF-SCORE:    0.00 PKD
ROOT
HETATM    1  C   UNL     1     -11.326  13.663  67.986  1.00  0.00    -0.316 C  
HETATM    2  C   UNL     1     -10.853  14.600  68.937  1.00  0.00    -0.257 C  
HETATM    3  C   UNL     1      -9.846  13.676  68.365  1.00  0.00    -0.223 C  
HETATM    4  C   UNL     1     -10.510  12.547  66.781  1.00  0.00    -0.225 C  
HETATM    5  C   UNL     1      -9.806  13.718  66.755  1.00  0.00    -0.275 C  
HETATM    6  C   UNL     1      -9.150   8.885  69.917  1.00  0.00    -0.166 C  
HETATM    7  O   UNL     1      -9.800  11.662  65.913  1.00  0.00    -0.219 OA 
HETATM    8  C   UNL     1      -8.291  12.712  67.196  1.00  0.00    -0.172 C  
HETATM    9  C   UNL     1      -9.676  14.787  65.710  1.00  0.00    -0.347 C  
HETATM   10  C   UNL     1     -11.443  12.014  68.812  1.00  0.00    -0.355 C  
HETATM   11  H   UNL     1     -10.107  11.140  65.181  1.00  0.00     0.000 HD 
HETATM   12  C   UNL     1      -8.715  11.284  68.123  1.00  0.00    -0.155 C  
HETATM   13  C   UNL     1     -10.005  11.232  69.191  1.00  0.00    -0.058 C  
HETATM   14  C   UNL     1     -10.295   9.877  69.849  1.00  0.00    -0.298 C  
HETATM   15  C   UNL     1     -11.472   9.645  70.480  1.00  0.00    -0.352 C  
HETATM   16  C   UNL     1     -12.602  10.654  70.577  1.00  0.00    -0.433 C  
HETATM   17  C   UNL     1     -11.778   8.351  71.207  1.00  0.00    -0.325 C  
HETATM   18  C   UNL     1     -12.281  12.070  70.087  1.00  0.00    -0.309 C  
HETATM   19  C   UNL     1     -10.704   7.307  70.995  1.00  0.00    -0.231 C  
HETATM   20  C   UNL     1      -9.293   7.816  70.993  1.00  0.00    -0.160 C  
HETATM   21  O   UNL     1     -10.961   6.103  70.950  1.00  0.00    -0.267 OA 
ENDROOT
BRANCH   4  22
HETATM   22  C   UNL     1     -11.756  12.793  65.878  1.00  0.00    -0.464 C  
HETATM   23  C   UNL     1     -12.730  12.925  65.195  1.00  0.00    -0.443 C  
ENDBRANCH   4  22
TORSDOF 1
ENDMDL
MODEL       31
REMARK 921   NORMALIZED FREE ENERGY PREDICTED BY IDOCK:   -5.66 KCAL/MOL
REMARK 922        TOTAL FREE ENERGY PREDICTED BY IDOCK:   -6.00 KCAL/MOL
REMARK 923 INTER-LIGAND FREE ENERGY PREDICTED BY IDOCK:   -6.02 KCAL/MOL
REMARK 924 INTRA-LIGAND FREE ENERGY PREDICTED BY IDOCK:    0.02 KCAL/MOL
REMARK 927      BINDING AFFINITY PREDICTED BY RF-SCORE:    0.00 PKD
ROOT
HETATM    1  C   UNL     1      -8.225  17.634  69.167  1.00  0.00     0.081 C  
HETATM    2  C   UNL     1      -7.013  16.959  69.455  1.00  0.00    -0.164 C  
HETATM    3  C   UNL     1      -7.270  17.272  68.030  1.00  0.00    -0.192 C  
HETATM    4  C   UNL     1      -8.879  18.508  67.692  1.00  0.00    -0.271 C  
HETATM    5  C   UNL     1      -7.555  18.837  67.777  1.00  0.00    -0.248 C  
HETATM    6  C   UNL     1     -10.291  14.527  64.999  1.00  0.00    -0.442 C  
HETATM    7  O   UNL     1      -9.342  19.115  66.485  1.00  0.00    -0.323 OA 
HETATM    8  C   UNL     1      -7.366  18.150  66.046  1.00  0.00    -0.290 C  
HETATM    9  C   UNL     1      -6.863  20.125  68.116  1.00  0.00    -0.326 C  
HETATM   10  C   UNL     1      -9.411  16.407  68.457  1.00  0.00    -0.225 C  
HETATM   11  H   UNL     1     -10.085  19.686  66.330  1.00  0.00     0.000 HD 
HETATM   12  C   UNL     1      -8.537  16.883  65.726  1.00  0.00     0.177 C  
HETATM   13  C   UNL     1      -9.105  15.839  66.907  1.00  0.00    -0.259 C  
HETATM   14  C   UNL     1     -10.197  14.850  66.478  1.00  0.00    -0.281 C  
HETATM   15  C   UNL     1     -10.932  14.180  67.398  1.00  0.00    -0.306 C  
HETATM   16  C   UNL     1     -10.780  14.349  68.899  1.00  0.00    -0.260 C  
HETATM   17  C   UNL     1     -11.972  13.141  67.027  1.00  0.00    -0.412 C  
HETATM   18  C   UNL     1      -9.587  15.190  69.362  1.00  0.00    -0.195 C  
HETATM   19  C   UNL     1     -12.208  13.075  65.535  1.00  0.00    -0.469 C  
HETATM   20  C   UNL     1     -10.985  13.210  64.675  1.00  0.00    -0.374 C  
HETATM   21  O   UNL     1     -13.310  12.805  65.058  1.00  0.00    -0.678 OA 
ENDROOT
BRANCH   4  22
HETATM   22  C   UNL     1      -9.605  19.442  68.706  1.00  0.00    -0.495 C  
HETATM   23  C   UNL     1     -10.142  20.206  69.454  1.00  0.00    -0.065 C  
ENDBRANCH   4  22
TORSDOF 1
ENDMDL
MODEL       32
REMARK 921   NORMALIZED FREE ENERGY PREDICTED BY IDOCK:   -5.64 KCAL/MOL
REMARK 922        TOTAL FREE ENERGY PREDICTED BY IDOCK:   -5.98 KCAL/MOL
REMARK 923 INTER-LIGAND FREE ENERGY PREDICTED BY IDOCK:   -5.99 KCAL/MOL
REMARK 924 INTRA-LIGAND FREE ENERGY PREDICTED BY IDOCK:    0.01 KCAL/MOL
REMARK 927      BINDING AFFINITY PREDICTED BY RF-SCORE:    0.00 PKD
ROOT
HETATM    1  C   UNL     1     -10.713  16.751  68.252  1.00  0.00    -0.364 C  
HETATM    2  C   UNL     1     -10.913  16.437  69.619  1.00  0.00    -0.329 C  
HETATM    3  C   UNL     1      -9.563  16.170  69.073  1.00  0.00    -0.251 C  
HETATM    4  C   UNL     1      -9.230  16.915  67.185  1.00  0.00    -0.229 C  
HETATM    5  C   UNL     1      -8.899  17.469  68.389  1.00  0.00    -0.276 C  
HETATM    6  C   UNL     1      -8.340  12.057  66.346  1.00  0.00     0.053 C  
HETATM    7  O   UNL     1      -8.034  16.963  66.406  1.00  0.00    -0.263 OA 
HETATM    8  C   UNL     1      -7.481  16.250  68.459  1.00  0.00    -0.176 C  
HETATM    9  C   UNL     1      -8.643  18.890  68.802  1.00  0.00    -0.336 C  
HETATM   10  C   UNL     1     -10.723  15.171  67.293  1.00  0.00    -0.305 C  
HETATM   11  H   UNL     1      -7.881  17.307  65.534  1.00  0.00     0.000 HD 
HETATM   12  C   UNL     1      -7.858  14.775  67.586  1.00  0.00    -0.191 C  
HETATM   13  C   UNL     1      -9.406  14.144  67.475  1.00  0.00    -0.204 C  
HETATM   14  C   UNL     1      -9.577  12.900  66.594  1.00  0.00    -0.257 C  
HETATM   15  C   UNL     1     -10.805  12.491  66.193  1.00  0.00    -0.304 C  
HETATM   16  C   UNL     1     -12.097  13.210  66.537  1.00  0.00    -0.423 C  
HETATM   17  C   UNL     1     -11.033  11.230  65.384  1.00  0.00    -0.201 C  
HETATM   18  C   UNL     1     -11.982  14.348  67.555  1.00  0.00    -0.389 C  
HETATM   19  C   UNL     1      -9.735  10.595  64.937  1.00  0.00    -0.284 C  
HETATM   20  C   UNL     1      -8.620  10.616  65.940  1.00  0.00    -0.177 C  
HETATM   21  O   UNL     1      -9.636   9.991  63.868  1.00  0.00    -0.283 OA 
ENDROOT
BRANCH   4  22
HETATM   22  C   UNL     1     -10.034  18.015  66.429  1.00  0.00    -0.362 C  
HETATM   23  C   UNL     1     -10.600  18.885  65.833  1.00  0.00    -0.438 C  
ENDBRANCH   4  22
TORSDOF 1
ENDMDL
MODEL       33
REMARK 921   NORMALIZED FREE ENERGY PREDICTED BY IDOCK:   -5.60 KCAL/MOL
REMARK 922        TOTAL FREE ENERGY PREDICTED BY IDOCK:   -5.94 KCAL/MOL
REMARK 923 INTER-LIGAND FREE ENERGY PREDICTED BY IDOCK:   -5.96 KCAL/MOL
REMARK 924 INTRA-LIGAND FREE ENERGY PREDICTED BY IDOCK:    0.02 KCAL/MOL
REMARK 927      BINDING AFFINITY PREDICTED BY RF-SCORE:    0.00 PKD
ROOT
HETATM    1  C   UNL     1     -10.167   8.392  70.354  1.00  0.00    -0.212 C  
HETATM    2  C   UNL     1     -11.373   7.661  70.492  1.00  0.00    -0.266 C  
HETATM    3  C   UNL     1     -10.779   7.702  69.136  1.00  0.00    -0.153 C  
HETATM    4  C   UNL     1      -8.891   8.509  69.042  1.00  0.00    -0.145 C  
HETATM    5  C   UNL     1      -9.251   7.192  69.109  1.00  0.00    -0.139 C  
HETATM    6  C   UNL     1     -11.286  11.596  65.906  1.00  0.00    -0.296 C  
HETATM    7  O   UNL     1      -7.973   8.593  67.950  1.00  0.00    -0.105 OA 
HETATM    8  C   UNL     1      -9.695   7.315  67.295  1.00  0.00    -0.204 C  
HETATM    9  C   UNL     1      -8.515   5.975  69.586  1.00  0.00    -0.126 C  
HETATM   10  C   UNL     1     -10.563  10.004  69.542  1.00  0.00    -0.267 C  
HETATM   11  H   UNL     1      -7.101   8.966  67.907  1.00  0.00     0.000 HD 
HETATM   12  C   UNL     1     -10.187   8.942  66.862  1.00  0.00    -0.347 C  
HETATM   13  C   UNL     1     -10.985   9.971  67.916  1.00  0.00    -0.311 C  
HETATM   14  C   UNL     1     -11.258  11.393  67.409  1.00  0.00    -0.370 C  
HETATM   15  C   UNL     1     -11.615  12.383  68.264  1.00  0.00    -0.384 C  
HETATM   16  C   UNL     1     -11.752  12.205  69.765  1.00  0.00    -0.381 C  
HETATM   17  C   UNL     1     -11.965  13.784  67.806  1.00  0.00    -0.391 C  
HETATM   18  C   UNL     1     -11.660  10.766  70.282  1.00  0.00    -0.427 C  
HETATM   19  C   UNL     1     -11.700  13.987  66.330  1.00  0.00    -0.391 C  
HETATM   20  C   UNL     1     -12.049  12.829  65.441  1.00  0.00    -0.512 C  
HETATM   21  O   UNL     1     -11.339  15.071  65.873  1.00  0.00    -0.338 OA 
ENDROOT
BRANCH   4  22
HETATM   22  C   UNL     1      -7.875   8.721  70.205  1.00  0.00    -0.094 C  
HETATM   23  C   UNL     1      -7.123   8.934  71.111  1.00  0.00    -0.103 C  
ENDBRANCH   4  22
TORSDOF 1
ENDMDL
MODEL       34
REMARK 921   NORMALIZED FREE ENERGY PREDICTED BY IDOCK:   -5.55 KCAL/MOL
REMARK 922        TOTAL FREE ENERGY PREDICTED BY IDOCK:   -5.88 KCAL/MOL
REMARK 923 INTER-LIGAND FREE ENERGY PREDICTED BY IDOCK:   -5.88 KCAL/MOL
REMARK 924 INTRA-LIGAND FREE ENERGY PREDICTED BY IDOCK:   -0.00 KCAL/MOL
REMARK 927      BINDING AFFINITY PREDICTED BY RF-SCORE:    0.00 PKD
ROOT
HETATM    1  C   UNL     1      -9.668  15.889  65.835  1.00  0.00    -0.386 C  
HETATM    2  C   UNL     1     -10.772  16.024  64.957  1.00  0.00    -0.400 C  
HETATM    3  C   UNL     1     -11.010  16.383  66.374  1.00  0.00     0.044 C  
HETATM    4  C   UNL     1      -9.320  16.463  67.542  1.00  0.00    -0.214 C  
HETATM    5  C   UNL     1      -9.973  17.489  66.919  1.00  0.00    -0.313 C  
HETATM    6  C   UNL     1     -11.930  13.010  70.066  1.00  0.00    -0.383 C  
HETATM    7  O   UNL     1      -9.148  16.891  68.894  1.00  0.00    -0.263 OA 
HETATM    8  C   UNL     1     -11.248  17.386  68.285  1.00  0.00     0.174 C  
HETATM    9  C   UNL     1      -9.512  18.845  66.471  1.00  0.00    -0.361 C  
HETATM   10  C   UNL     1      -9.918  14.358  66.839  1.00  0.00    -0.261 C  
HETATM   11  H   UNL     1      -8.367  16.927  69.434  1.00  0.00     0.000 HD 
HETATM   12  C   UNL     1     -11.368  15.760  68.933  1.00  0.00    -0.356 C  
HETATM   13  C   UNL     1     -11.124  14.384  68.008  1.00  0.00    -0.287 C  
HETATM   14  C   UNL     1     -11.172  13.043  68.752  1.00  0.00    -0.325 C  
HETATM   15  C   UNL     1     -10.698  11.909  68.180  1.00  0.00    -0.246 C  
HETATM   16  C   UNL     1     -10.064  11.851  66.801  1.00  0.00    -0.225 C  
HETATM   17  C   UNL     1     -10.788  10.549  68.841  1.00  0.00    -0.275 C  
HETATM   18  C   UNL     1     -10.158  13.130  65.964  1.00  0.00    -0.286 C  
HETATM   19  C   UNL     1     -11.299  10.637  70.262  1.00  0.00    -0.319 C  
HETATM   20  C   UNL     1     -12.401  11.628  70.498  1.00  0.00    -0.410 C  
HETATM   21  O   UNL     1     -10.924   9.862  71.142  1.00  0.00    -0.333 OA 
ENDROOT
BRANCH   4  22
HETATM   22  C   UNL     1      -7.835  16.575  67.082  1.00  0.00    -0.215 C  
HETATM   23  C   UNL     1      -6.684  16.612  66.759  1.00  0.00    -0.241 C  
ENDBRANCH   4  22
TORSDOF 1
ENDMDL
MODEL       35
REMARK 921   NORMALIZED FREE ENERGY PREDICTED BY IDOCK:   -5.46 KCAL/MOL
REMARK 922        TOTAL FREE ENERGY PREDICTED BY IDOCK:   -5.78 KCAL/MOL
REMARK 923 INTER-LIGAND FREE ENERGY PREDICTED BY IDOCK:   -5.78 KCAL/MOL
REMARK 924 INTRA-LIGAND FREE ENERGY PREDICTED BY IDOCK:   -0.01 KCAL/MOL
REMARK 927      BINDING AFFINITY PREDICTED BY RF-SCORE:    0.00 PKD
ROOT
HETATM    1  C   UNL     1      -8.742  11.323  67.345  1.00  0.00    -0.139 C  
HETATM    2  C   UNL     1      -8.187  11.037  68.617  1.00  0.00    -0.151 C  
HETATM    3  C   UNL     1      -9.608  11.452  68.597  1.00  0.00    -0.179 C  
HETATM    4  C   UNL     1     -10.451  11.562  66.725  1.00  0.00    -0.239 C  
HETATM    5  C   UNL     1     -10.511  10.537  67.626  1.00  0.00    -0.276 C  
HETATM    6  C   UNL     1     -11.176  16.277  68.255  1.00  0.00    -0.324 C  
HETATM    7  O   UNL     1     -11.804  11.797  66.331  1.00  0.00    -0.534 OA 
HETATM    8  C   UNL     1     -11.777  11.551  68.559  1.00  0.00    -0.379 C  
HETATM    9  C   UNL     1     -10.756   9.066  67.457  1.00  0.00    -0.239 C  
HETATM   10  C   UNL     1      -8.859  13.159  67.169  1.00  0.00    -0.222 C  
HETATM   11  H   UNL     1     -12.193  11.848  65.465  1.00  0.00     0.000 HD 
HETATM   12  C   UNL     1     -11.526  13.271  68.320  1.00  0.00    -0.351 C  
HETATM   13  C   UNL     1     -10.013  13.955  68.093  1.00  0.00    -0.240 C  
HETATM   14  C   UNL     1      -9.979  15.461  67.803  1.00  0.00    -0.225 C  
HETATM   15  C   UNL     1      -8.863  16.053  67.312  1.00  0.00    -0.207 C  
HETATM   16  C   UNL     1      -7.580  15.312  66.982  1.00  0.00    -0.161 C  
HETATM   17  C   UNL     1      -8.755  17.546  67.077  1.00  0.00    -0.254 C  
HETATM   18  C   UNL     1      -7.519  13.846  67.421  1.00  0.00    -0.147 C  
HETATM   19  C   UNL     1     -10.075  18.255  67.284  1.00  0.00    -0.355 C  
HETATM   20  C   UNL     1     -10.904  17.765  68.434  1.00  0.00    -0.088 C  
HETATM   21  O   UNL     1     -10.394  19.249  66.631  1.00  0.00    -0.372 OA 
ENDROOT
BRANCH   4  22
HETATM   22  C   UNL     1      -9.940  10.920  65.400  1.00  0.00    -0.319 C  
HETATM   23  C   UNL     1      -9.600  10.441  64.358  1.00  0.00    -0.375 C  
ENDBRANCH   4  22
TORSDOF 1
ENDMDL
MODEL       36
REMARK 921   NORMALIZED FREE ENERGY PREDICTED BY IDOCK:   -5.42 KCAL/MOL
REMARK 922        TOTAL FREE ENERGY PREDICTED BY IDOCK:   -5.75 KCAL/MOL
REMARK 923 INTER-LIGAND FREE ENERGY PREDICTED BY IDOCK:   -5.81 KCAL/MOL
REMARK 924 INTRA-LIGAND FREE ENERGY PREDICTED BY IDOCK:    0.06 KCAL/MOL
REMARK 927      BINDING AFFINITY PREDICTED BY RF-SCORE:    0.00 PKD
ROOT
HETATM    1  C   UNL     1     -10.025  10.849  67.940  1.00  0.00    -0.195 C  
HETATM    2  C   UNL     1     -11.366  10.446  68.155  1.00  0.00    -0.284 C  
HETATM    3  C   UNL     1     -10.995  10.788  66.762  1.00  0.00    -0.214 C  
HETATM    4  C   UNL     1      -8.984  11.071  66.446  1.00  0.00    -0.181 C  
HETATM    5  C   UNL     1      -9.729   9.946  66.230  1.00  0.00    -0.281 C  
HETATM    6  C   UNL     1     -10.711  15.532  64.957  1.00  0.00    -0.463 C  
HETATM    7  O   UNL     1      -8.257  11.281  65.235  1.00  0.00    -0.370 OA 
HETATM    8  C   UNL     1     -10.372  10.779  64.682  1.00  0.00    -0.394 C  
HETATM    9  C   UNL     1      -9.354   8.494  66.160  1.00  0.00    -0.279 C  
HETATM   10  C   UNL     1     -10.004  12.685  67.726  1.00  0.00    -0.218 C  
HETATM   11  H   UNL     1      -7.328  11.412  65.089  1.00  0.00     0.000 HD 
HETATM   12  C   UNL     1     -10.381  12.525  64.848  1.00  0.00    -0.323 C  
HETATM   13  C   UNL     1     -10.648  13.307  66.305  1.00  0.00    -0.294 C  
HETATM   14  C   UNL     1     -10.528  14.837  66.293  1.00  0.00    -0.300 C  
HETATM   15  C   UNL     1     -10.424  15.539  67.448  1.00  0.00    -0.281 C  
HETATM   16  C   UNL     1     -10.389  14.908  68.829  1.00  0.00    -0.245 C  
HETATM   17  C   UNL     1     -10.376  17.053  67.494  1.00  0.00    -0.329 C  
HETATM   18  C   UNL     1     -10.682  13.406  68.889  1.00  0.00    -0.219 C  
HETATM   19  C   UNL     1     -10.280  17.664  66.114  1.00  0.00    -0.343 C  
HETATM   20  C   UNL     1     -11.103  17.001  65.049  1.00  0.00     0.094 C  
HETATM   21  O   UNL     1      -9.665  18.710  65.902  1.00  0.00    -0.498 OA 
ENDROOT
BRANCH   4  22
HETATM   22  C   UNL     1      -7.795  10.615  67.344  1.00  0.00    -0.110 C  
HETATM   23  C   UNL     1      -6.914  10.218  68.050  1.00  0.00    -0.082 C  
ENDBRANCH   4  22
TORSDOF 1
ENDMDL
MODEL       37
REMARK 921   NORMALIZED FREE ENERGY PREDICTED BY IDOCK:   -5.39 KCAL/MOL
REMARK 922        TOTAL FREE ENERGY PREDICTED BY IDOCK:   -5.71 KCAL/MOL
REMARK 923 INTER-LIGAND FREE ENERGY PREDICTED BY IDOCK:   -5.70 KCAL/MOL
REMARK 924 INTRA-LIGAND FREE ENERGY PREDICTED BY IDOCK:   -0.01 KCAL/MOL
REMARK 927      BINDING AFFINITY PREDICTED BY RF-SCORE:    0.00 PKD
ROOT
HETATM    1  C   UNL     1     -10.229   6.993  69.894  1.00  0.00    -0.213 C  
HETATM    2  C   UNL     1     -11.406   6.268  69.584  1.00  0.00    -0.492 C  
HETATM    3  C   UNL     1     -10.737   6.953  68.453  1.00  0.00    -0.259 C  
HETATM    4  C   UNL     1      -8.885   7.732  68.888  1.00  0.00    -0.135 C  
HETATM    5  C   UNL     1      -9.189   6.536  68.301  1.00  0.00    -0.116 C  
HETATM    6  C   UNL     1     -11.231  11.904  67.410  1.00  0.00    -0.366 C  
HETATM    7  O   UNL     1      -7.910   8.334  68.035  1.00  0.00    -0.114 OA 
HETATM    8  C   UNL     1      -9.531   7.496  66.731  1.00  0.00    -0.230 C  
HETATM    9  C   UNL     1      -8.426   5.247  68.200  1.00  0.00    -0.096 C  
HETATM   10  C   UNL     1     -10.650   8.792  69.910  1.00  0.00    -0.230 C  
HETATM   11  H   UNL     1      -7.054   8.694  68.236  1.00  0.00     0.000 HD 
HETATM   12  C   UNL     1     -10.070   9.129  67.081  1.00  0.00    -0.301 C  
HETATM   13  C   UNL     1     -10.974   9.526  68.434  1.00  0.00    -0.117 C  
HETATM   14  C   UNL     1     -11.282  11.016  68.638  1.00  0.00    -0.322 C  
HETATM   15  C   UNL     1     -11.733  11.479  69.829  1.00  0.00    -0.426 C  
HETATM   16  C   UNL     1     -11.948  10.610  71.056  1.00  0.00    -0.442 C  
HETATM   17  C   UNL     1     -12.119  12.926  70.061  1.00  0.00    -0.357 C  
HETATM   18  C   UNL     1     -11.821   9.100  70.839  1.00  0.00    -0.327 C  
HETATM   19  C   UNL     1     -11.778  13.805  68.878  1.00  0.00    -0.336 C  
HETATM   20  C   UNL     1     -12.021  13.201  67.526  1.00  0.00    -0.367 C  
HETATM   21  O   UNL     1     -11.440  14.982  69.013  1.00  0.00    -0.271 OA 
ENDROOT
BRANCH   4  22
HETATM   22  C   UNL     1      -7.949   7.382  70.084  1.00  0.00    -0.112 C  
HETATM   23  C   UNL     1      -7.219   7.171  71.008  1.00  0.00    -0.074 C  
ENDBRANCH   4  22
TORSDOF 1
ENDMDL
MODEL       38
REMARK 921   NORMALIZED FREE ENERGY PREDICTED BY IDOCK:   -5.36 KCAL/MOL
REMARK 922        TOTAL FREE ENERGY PREDICTED BY IDOCK:   -5.68 KCAL/MOL
REMARK 923 INTER-LIGAND FREE ENERGY PREDICTED BY IDOCK:   -5.67 KCAL/MOL
REMARK 924 INTRA-LIGAND FREE ENERGY PREDICTED BY IDOCK:   -0.01 KCAL/MOL
REMARK 927      BINDING AFFINITY PREDICTED BY RF-SCORE:    0.00 PKD
ROOT
HETATM    1  C   UNL     1      -8.918  15.793  68.339  1.00  0.00    -0.187 C  
HETATM    2  C   UNL     1      -7.767  16.271  67.664  1.00  0.00    -0.161 C  
HETATM    3  C   UNL     1      -8.938  15.942  66.818  1.00  0.00    -0.280 C  
HETATM    4  C   UNL     1     -10.669  15.545  67.853  1.00  0.00    -0.294 C  
HETATM    5  C   UNL     1     -10.274  16.718  67.275  1.00  0.00    -0.292 C  
HETATM    6  C   UNL     1     -10.174  11.235  65.348  1.00  0.00    -0.323 C  
HETATM    7  O   UNL     1     -11.999  15.322  67.382  1.00  0.00    -0.267 OA 
HETATM    8  C   UNL     1     -10.755  15.964  65.631  1.00  0.00    -0.350 C  
HETATM    9  C   UNL     1     -10.649  18.146  67.546  1.00  0.00    -0.419 C  
HETATM   10  C   UNL     1      -9.016  13.965  68.082  1.00  0.00    -0.185 C  
HETATM   11  H   UNL     1     -12.799  15.138  67.861  1.00  0.00     0.000 HD 
HETATM   12  C   UNL     1     -10.588  14.218  65.650  1.00  0.00    -0.328 C  
HETATM   13  C   UNL     1      -9.421  13.418  66.547  1.00  0.00    -0.252 C  
HETATM   14  C   UNL     1      -9.473  11.885  66.526  1.00  0.00    -0.226 C  
HETATM   15  C   UNL     1      -8.787  11.150  67.435  1.00  0.00    -0.139 C  
HETATM   16  C   UNL     1      -7.943  11.743  68.549  1.00  0.00    -0.145 C  
HETATM   17  C   UNL     1      -8.748   9.635  67.413  1.00  0.00    -0.130 C  
HETATM   18  C   UNL     1      -7.726  13.258  68.493  1.00  0.00    -0.120 C  
HETATM   19  C   UNL     1      -9.692   9.053  66.385  1.00  0.00    -0.268 C  
HETATM   20  C   UNL     1      -9.770   9.791  65.081  1.00  0.00    -0.338 C  
HETATM   21  O   UNL     1     -10.267   7.978  66.558  1.00  0.00    -0.264 OA 
ENDROOT
BRANCH   4  22
HETATM   22  C   UNL     1     -11.012  15.906  69.330  1.00  0.00    -0.309 C  
HETATM   23  C   UNL     1     -11.329  16.157  70.456  1.00  0.00    -0.392 C  
ENDBRANCH   4  22
TORSDOF 1
ENDMDL
MODEL       39
REMARK 921   NORMALIZED FREE ENERGY PREDICTED BY IDOCK:   -5.35 KCAL/MOL
REMARK 922        TOTAL FREE ENERGY PREDICTED BY IDOCK:   -5.67 KCAL/MOL
REMARK 923 INTER-LIGAND FREE ENERGY PREDICTED BY IDOCK:   -5.66 KCAL/MOL
REMARK 924 INTRA-LIGAND FREE ENERGY PREDICTED BY IDOCK:   -0.01 KCAL/MOL
REMARK 927      BINDING AFFINITY PREDICTED BY RF-SCORE:    0.00 PKD
ROOT
HETATM    1  C   UNL     1     -10.800   6.132  70.683  1.00  0.00    -0.355 C  
HETATM    2  C   UNL     1      -9.724   5.211  70.667  1.00  0.00    -0.257 C  
HETATM    3  C   UNL     1      -9.415   6.577  71.150  1.00  0.00    -0.173 C  
HETATM    4  C   UNL     1     -11.054   7.783  71.442  1.00  0.00    -0.238 C  
HETATM    5  C   UNL     1     -10.371   7.039  72.362  1.00  0.00    -0.227 C  
HETATM    6  C   UNL     1      -8.543  10.560  68.113  1.00  0.00    -0.123 C  
HETATM    7  O   UNL     1     -11.154   9.089  72.011  1.00  0.00    -0.364 OA 
HETATM    8  C   UNL     1      -9.053   8.368  72.323  1.00  0.00    -0.313 C  
HETATM    9  C   UNL     1     -10.775   6.471  73.691  1.00  0.00    -0.245 C  
HETATM   10  C   UNL     1     -10.597   7.278  69.247  1.00  0.00    -0.230 C  
HETATM   11  H   UNL     1     -11.911   9.646  72.145  1.00  0.00     0.000 HD 
HETATM   12  C   UNL     1      -8.998   9.173  70.765  1.00  0.00    -0.296 C  
HETATM   13  C   UNL     1      -9.349   8.400  69.320  1.00  0.00    -0.154 C  
HETATM   14  C   UNL     1      -9.345   9.273  68.059  1.00  0.00    -0.145 C  
HETATM   15  C   UNL     1      -9.901   8.834  66.903  1.00  0.00    -0.295 C  
HETATM   16  C   UNL     1     -10.587   7.489  66.745  1.00  0.00    -0.269 C  
HETATM   17  C   UNL     1      -9.859   9.626  65.612  1.00  0.00    -0.369 C  
HETATM   18  C   UNL     1     -10.455   6.524  67.927  1.00  0.00    -0.273 C  
HETATM   19  C   UNL     1      -9.292  11.015  65.811  1.00  0.00    -0.211 C  
HETATM   20  C   UNL     1      -8.131  11.114  66.756  1.00  0.00    -0.155 C  
HETATM   21  O   UNL     1      -9.676  11.980  65.150  1.00  0.00    -0.228 OA 
ENDROOT
BRANCH   4  22
HETATM   22  C   UNL     1     -12.547   7.359  71.592  1.00  0.00    -0.391 C  
HETATM   23  C   UNL     1     -13.708   7.088  71.688  1.00  0.00    -0.348 C  
ENDBRANCH   4  22
TORSDOF 1
ENDMDL
MODEL       40
REMARK 921   NORMALIZED FREE ENERGY PREDICTED BY IDOCK:   -5.31 KCAL/MOL
REMARK 922        TOTAL FREE ENERGY PREDICTED BY IDOCK:   -5.63 KCAL/MOL
REMARK 923 INTER-LIGAND FREE ENERGY PREDICTED BY IDOCK:   -5.62 KCAL/MOL
REMARK 924 INTRA-LIGAND FREE ENERGY PREDICTED BY IDOCK:   -0.00 KCAL/MOL
REMARK 927      BINDING AFFINITY PREDICTED BY RF-SCORE:    0.00 PKD
ROOT
HETATM    1  C   UNL     1     -10.206   6.854  72.297  1.00  0.00    -0.207 C  
HETATM    2  C   UNL     1     -11.021   5.912  71.622  1.00  0.00    -0.327 C  
HETATM    3  C   UNL     1     -10.009   6.616  70.801  1.00  0.00    -0.201 C  
HETATM    4  C   UNL     1      -8.659   7.740  71.869  1.00  0.00    -0.114 C  
HETATM    5  C   UNL     1      -8.517   6.468  71.390  1.00  0.00    -0.125 C  
HETATM    6  C   UNL     1     -10.598  11.309  68.936  1.00  0.00    -0.239 C  
HETATM    7  O   UNL     1      -7.489   8.438  71.439  1.00  0.00    -0.077 OA 
HETATM    8  C   UNL     1      -8.239   7.231  69.704  1.00  0.00    -0.131 C  
HETATM    9  C   UNL     1      -7.636   5.330  71.815  1.00  0.00    -0.107 C  
HETATM   10  C   UNL     1     -10.811   8.547  71.869  1.00  0.00    -0.392 C  
HETATM   11  H   UNL     1      -6.866   8.957  71.932  1.00  0.00     0.000 HD 
HETATM   12  C   UNL     1      -9.076   8.764  69.546  1.00  0.00    -0.146 C  
HETATM   13  C   UNL     1     -10.531   9.098  70.307  1.00  0.00    -0.257 C  
HETATM   14  C   UNL     1     -11.080  10.521  70.140  1.00  0.00    -0.369 C  
HETATM   15  C   UNL     1     -12.070  10.987  70.941  1.00  0.00    -0.444 C  
HETATM   16  C   UNL     1     -12.700  10.189  72.068  1.00  0.00    -0.421 C  
HETATM   17  C   UNL     1     -12.696  12.356  70.770  1.00  0.00    -0.208 C  
HETATM   18  C   UNL     1     -12.302   8.712  72.150  1.00  0.00    -0.452 C  
HETATM   19  C   UNL     1     -11.975  13.189  69.733  1.00  0.00    -0.314 C  
HETATM   20  C   UNL     1     -11.511  12.451  68.512  1.00  0.00    -0.350 C  
HETATM   21  O   UNL     1     -11.882  14.414  69.826  1.00  0.00    -0.281 OA 
ENDROOT
BRANCH   4  22
HETATM   22  C   UNL     1      -8.320   7.652  73.388  1.00  0.00    -0.204 C  
HETATM   23  C   UNL     1      -8.066   7.643  74.557  1.00  0.00    -0.256 C  
ENDBRANCH   4  22
TORSDOF 1
ENDMDL
MODEL       41
REMARK 921   NORMALIZED FREE ENERGY PREDICTED BY IDOCK:   -5.30 KCAL/MOL
REMARK 922        TOTAL FREE ENERGY PREDICTED BY IDOCK:   -5.62 KCAL/MOL
REMARK 923 INTER-LIGAND FREE ENERGY PREDICTED BY IDOCK:   -5.64 KCAL/MOL
REMARK 924 INTRA-LIGAND FREE ENERGY PREDICTED BY IDOCK:    0.02 KCAL/MOL
REMARK 927      BINDING AFFINITY PREDICTED BY RF-SCORE:    0.00 PKD
ROOT
HETATM    1  C   UNL     1     -10.158  10.362  65.266  1.00  0.00    -0.370 C  
HETATM    2  C   UNL     1      -9.881  10.926  63.996  1.00  0.00    -0.377 C  
HETATM    3  C   UNL     1      -8.827  11.073  65.027  1.00  0.00    -0.093 C  
HETATM    4  C   UNL     1      -9.140   9.988  66.745  1.00  0.00    -0.139 C  
HETATM    5  C   UNL     1      -8.375   9.662  65.660  1.00  0.00    -0.133 C  
HETATM    6  C   UNL     1      -8.878  14.596  68.692  1.00  0.00    -0.183 C  
HETATM    7  O   UNL     1      -8.294   9.783  67.878  1.00  0.00    -0.113 OA 
HETATM    8  C   UNL     1      -7.094  10.859  66.318  1.00  0.00    -0.119 C  
HETATM    9  C   UNL     1      -7.910   8.341  65.122  1.00  0.00    -0.120 C  
HETATM   10  C   UNL     1     -10.595  11.737  66.422  1.00  0.00    -0.293 C  
HETATM   11  H   UNL     1      -8.439   9.282  68.671  1.00  0.00     0.000 HD 
HETATM   12  C   UNL     1      -7.837  12.149  67.246  1.00  0.00    -0.176 C  
HETATM   13  C   UNL     1      -9.358  12.765  66.906  1.00  0.00    -0.234 C  
HETATM   14  C   UNL     1      -9.898  13.826  67.874  1.00  0.00    -0.232 C  
HETATM   15  C   UNL     1     -11.210  14.167  67.876  1.00  0.00    -0.299 C  
HETATM   16  C   UNL     1     -12.255  13.539  66.972  1.00  0.00    -0.351 C  
HETATM   17  C   UNL     1     -11.779  15.259  68.760  1.00  0.00    -0.374 C  
HETATM   18  C   UNL     1     -11.725  12.608  65.878  1.00  0.00    -0.470 C  
HETATM   19  C   UNL     1     -10.761  15.786  69.746  1.00  0.00    -0.316 C  
HETATM   20  C   UNL     1      -9.364  15.940  69.219  1.00  0.00    -0.259 C  
HETATM   21  O   UNL     1     -11.079  16.180  70.868  1.00  0.00    -0.321 OA 
ENDROOT
BRANCH   4  22
HETATM   22  C   UNL     1     -10.095   8.775  66.957  1.00  0.00    -0.335 C  
HETATM   23  C   UNL     1     -10.781   7.808  67.121  1.00  0.00    -0.337 C  
ENDBRANCH   4  22
TORSDOF 1
ENDMDL
MODEL       42
REMARK 921   NORMALIZED FREE ENERGY PREDICTED BY IDOCK:   -5.23 KCAL/MOL
REMARK 922        TOTAL FREE ENERGY PREDICTED BY IDOCK:   -5.55 KCAL/MOL
REMARK 923 INTER-LIGAND FREE ENERGY PREDICTED BY IDOCK:   -5.55 KCAL/MOL
REMARK 924 INTRA-LIGAND FREE ENERGY PREDICTED BY IDOCK:    0.00 KCAL/MOL
REMARK 927      BINDING AFFINITY PREDICTED BY RF-SCORE:    0.00 PKD
ROOT
HETATM    1  C   UNL     1     -11.710  14.523  67.814  1.00  0.00    -0.403 C  
HETATM    2  C   UNL     1     -11.735  15.218  69.049  1.00  0.00    -0.368 C  
HETATM    3  C   UNL     1     -10.400  14.983  68.452  1.00  0.00    -0.231 C  
HETATM    4  C   UNL     1     -10.427  14.248  66.533  1.00  0.00    -0.287 C  
HETATM    5  C   UNL     1     -10.283  15.542  66.946  1.00  0.00    -0.279 C  
HETATM    6  C   UNL     1      -7.840  10.604  68.798  1.00  0.00    -0.125 C  
HETATM    7  O   UNL     1      -9.358  14.025  65.611  1.00  0.00    -0.510 OA 
HETATM    8  C   UNL     1      -8.515  15.112  67.382  1.00  0.00    -0.202 C  
HETATM    9  C   UNL     1     -10.554  16.849  66.259  1.00  0.00    -0.191 C  
HETATM   10  C   UNL     1     -11.169  12.787  68.144  1.00  0.00    -0.310 C  
HETATM   11  H   UNL     1      -9.371  13.685  64.724  1.00  0.00     0.000 HD 
HETATM   12  C   UNL     1      -8.351  13.418  67.808  1.00  0.00    -0.178 C  
HETATM   13  C   UNL     1      -9.562  12.541  68.565  1.00  0.00    -0.114 C  
HETATM   14  C   UNL     1      -9.291  11.047  68.780  1.00  0.00    -0.185 C  
HETATM   15  C   UNL     1     -10.296  10.193  69.099  1.00  0.00    -0.237 C  
HETATM   16  C   UNL     1     -11.750  10.606  69.244  1.00  0.00    -0.336 C  
HETATM   17  C   UNL     1     -10.070   8.724  69.392  1.00  0.00    -0.203 C  
HETATM   18  C   UNL     1     -12.028  12.111  69.210  1.00  0.00    -0.318 C  
HETATM   19  C   UNL     1      -8.645   8.298  69.117  1.00  0.00    -0.138 C  
HETATM   20  C   UNL     1      -7.584   9.283  69.511  1.00  0.00    -0.081 C  
HETATM   21  O   UNL     1      -8.366   7.169  68.712  1.00  0.00    -0.124 OA 
ENDROOT
BRANCH   4  22
HETATM   22  C   UNL     1     -11.603  14.266  65.511  1.00  0.00    -0.338 C  
HETATM   23  C   UNL     1     -12.504  14.221  64.724  1.00  0.00    -0.390 C  
ENDBRANCH   4  22
TORSDOF 1
ENDMDL
MODEL       43
REMARK 921   NORMALIZED FREE ENERGY PREDICTED BY IDOCK:   -5.22 KCAL/MOL
REMARK 922        TOTAL FREE ENERGY PREDICTED BY IDOCK:   -5.53 KCAL/MOL
REMARK 923 INTER-LIGAND FREE ENERGY PREDICTED BY IDOCK:   -5.53 KCAL/MOL
REMARK 924 INTRA-LIGAND FREE ENERGY PREDICTED BY IDOCK:    0.00 KCAL/MOL
REMARK 927      BINDING AFFINITY PREDICTED BY RF-SCORE:    0.00 PKD
ROOT
HETATM    1  C   UNL     1     -10.424   9.719  67.956  1.00  0.00    -0.271 C  
HETATM    2  C   UNL     1     -10.343   9.165  66.654  1.00  0.00    -0.289 C  
HETATM    3  C   UNL     1      -9.094   9.739  67.205  1.00  0.00    -0.152 C  
HETATM    4  C   UNL     1      -9.180  10.252  69.194  1.00  0.00    -0.194 C  
HETATM    5  C   UNL     1      -8.692   9.106  68.631  1.00  0.00    -0.129 C  
HETATM    6  C   UNL     1      -7.989  14.702  67.225  1.00  0.00    -0.223 C  
HETATM    7  O   UNL     1      -8.153  10.703  70.079  1.00  0.00    -0.331 OA 
HETATM    8  C   UNL     1      -7.174  10.092  68.156  1.00  0.00    -0.081 C  
HETATM    9  C   UNL     1      -8.505   7.722  69.178  1.00  0.00    -0.138 C  
HETATM   10  C   UNL     1     -10.453  11.559  67.797  1.00  0.00    -0.216 C  
HETATM   11  H   UNL     1      -8.194  10.940  70.998  1.00  0.00     0.000 HD 
HETATM   12  C   UNL     1      -7.557  11.788  67.917  1.00  0.00    -0.121 C  
HETATM   13  C   UNL     1      -9.032  12.320  67.325  1.00  0.00    -0.187 C  
HETATM   14  C   UNL     1      -9.237  13.839  67.266  1.00  0.00    -0.239 C  
HETATM   15  C   UNL     1     -10.472  14.372  67.098  1.00  0.00    -0.263 C  
HETATM   16  C   UNL     1     -11.745  13.552  66.981  1.00  0.00    -0.424 C  
HETATM   17  C   UNL     1     -10.719  15.861  66.961  1.00  0.00    -0.292 C  
HETATM   18  C   UNL     1     -11.559  12.037  66.859  1.00  0.00    -0.389 C  
HETATM   19  C   UNL     1      -9.467  16.673  67.209  1.00  0.00    -0.232 C  
HETATM   20  C   UNL     1      -8.197  16.099  66.654  1.00  0.00    -0.321 C  
HETATM   21  O   UNL     1      -9.504  17.791  67.724  1.00  0.00    -0.255 OA 
ENDROOT
BRANCH   4  22
HETATM   22  C   UNL     1     -10.209   9.783  70.266  1.00  0.00    -0.346 C  
HETATM   23  C   UNL     1     -11.015   9.479  71.096  1.00  0.00    -0.438 C  
ENDBRANCH   4  22
TORSDOF 1
ENDMDL
MODEL       44
REMARK 921   NORMALIZED FREE ENERGY PREDICTED BY IDOCK:   -5.20 KCAL/MOL
REMARK 922        TOTAL FREE ENERGY PREDICTED BY IDOCK:   -5.52 KCAL/MOL
REMARK 923 INTER-LIGAND FREE ENERGY PREDICTED BY IDOCK:   -5.54 KCAL/MOL
REMARK 924 INTRA-LIGAND FREE ENERGY PREDICTED BY IDOCK:    0.02 KCAL/MOL
REMARK 927      BINDING AFFINITY PREDICTED BY RF-SCORE:    0.00 PKD
ROOT
HETATM    1  C   UNL     1     -11.279   7.202  71.939  1.00  0.00    -0.282 C  
HETATM    2  C   UNL     1     -12.603   6.738  71.739  1.00  0.00    -0.370 C  
HETATM    3  C   UNL     1     -11.599   6.320  70.733  1.00  0.00    -0.347 C  
HETATM    4  C   UNL     1      -9.651   6.759  71.221  1.00  0.00    -0.169 C  
HETATM    5  C   UNL     1     -10.326   5.583  71.391  1.00  0.00    -0.291 C  
HETATM    6  C   UNL     1     -10.016   9.243  66.886  1.00  0.00    -0.298 C  
HETATM    7  O   UNL     1      -8.430   6.401  70.571  1.00  0.00    -0.134 OA 
HETATM    8  C   UNL     1     -10.093   5.288  69.558  1.00  0.00    -0.322 C  
HETATM    9  C   UNL     1     -10.117   4.434  72.334  1.00  0.00    -0.243 C  
HETATM   10  C   UNL     1     -10.968   8.582  70.750  1.00  0.00    -0.282 C  
HETATM   11  H   UNL     1      -7.530   6.604  70.796  1.00  0.00     0.000 HD 
HETATM   12  C   UNL     1      -9.992   6.799  68.671  1.00  0.00    -0.147 C  
HETATM   13  C   UNL     1     -10.816   8.186  69.125  1.00  0.00    -0.033 C  
HETATM   14  C   UNL     1     -10.543   9.446  68.294  1.00  0.00    -0.256 C  
HETATM   15  C   UNL     1     -10.909  10.672  68.743  1.00  0.00    -0.269 C  
HETATM   16  C   UNL     1     -11.580  10.924  70.082  1.00  0.00    -0.425 C  
HETATM   17  C   UNL     1     -10.728  11.938  67.930  1.00  0.00    -0.239 C  
HETATM   18  C   UNL     1     -12.025   9.679  70.855  1.00  0.00    -0.391 C  
HETATM   19  C   UNL     1      -9.944  11.695  66.660  1.00  0.00    -0.203 C  
HETATM   20  C   UNL     1     -10.249  10.414  65.941  1.00  0.00    -0.302 C  
HETATM   21  O   UNL     1      -9.193  12.546  66.181  1.00  0.00    -0.184 OA 
ENDROOT
BRANCH   4  22
HETATM   22  C   UNL     1      -9.064   7.106  72.622  1.00  0.00    -0.157 C  
HETATM   23  C   UNL     1      -8.584   7.321  73.697  1.00  0.00    -0.193 C  
ENDBRANCH   4  22
TORSDOF 1
ENDMDL
MODEL       45
REMARK 921   NORMALIZED FREE ENERGY PREDICTED BY IDOCK:   -5.15 KCAL/MOL
REMARK 922        TOTAL FREE ENERGY PREDICTED BY IDOCK:   -5.46 KCAL/MOL
REMARK 923 INTER-LIGAND FREE ENERGY PREDICTED BY IDOCK:   -5.45 KCAL/MOL
REMARK 924 INTRA-LIGAND FREE ENERGY PREDICTED BY IDOCK:   -0.01 KCAL/MOL
REMARK 927      BINDING AFFINITY PREDICTED BY RF-SCORE:    0.00 PKD
ROOT
HETATM    1  C   UNL     1      -8.355  16.794  67.957  1.00  0.00    -0.200 C  
HETATM    2  C   UNL     1      -9.250  16.809  69.055  1.00  0.00    -0.199 C  
HETATM    3  C   UNL     1      -8.296  15.677  68.998  1.00  0.00    -0.235 C  
HETATM    4  C   UNL     1      -6.829  15.853  67.569  1.00  0.00    -0.183 C  
HETATM    5  C   UNL     1      -6.762  16.159  68.900  1.00  0.00    -0.147 C  
HETATM    6  C   UNL     1      -8.927  11.547  66.101  1.00  0.00    -0.201 C  
HETATM    7  O   UNL     1      -5.684  15.038  67.312  1.00  0.00    -0.317 OA 
HETATM    8  C   UNL     1      -6.615  14.322  69.222  1.00  0.00    -0.120 C  
HETATM    9  C   UNL     1      -5.877  17.095  69.670  1.00  0.00    -0.229 C  
HETATM   10  C   UNL     1      -8.951  15.529  66.749  1.00  0.00    -0.295 C  
HETATM   11  H   UNL     1      -5.007  15.120  66.652  1.00  0.00     0.000 HD 
HETATM   12  C   UNL     1      -7.423  13.384  67.979  1.00  0.00    -0.139 C  
HETATM   13  C   UNL     1      -8.796  13.912  67.178  1.00  0.00    -0.236 C  
HETATM   14  C   UNL     1      -9.321  13.012  66.052  1.00  0.00    -0.024 C  
HETATM   15  C   UNL     1     -10.224  13.472  65.152  1.00  0.00    -0.334 C  
HETATM   16  C   UNL     1     -10.772  14.888  65.143  1.00  0.00    -0.429 C  
HETATM   17  C   UNL     1     -10.827  12.603  64.067  1.00  0.00    -0.452 C  
HETATM   18  C   UNL     1     -10.407  15.757  66.350  1.00  0.00    -0.306 C  
HETATM   19  C   UNL     1     -10.179  11.238  64.002  1.00  0.00    -0.348 C  
HETATM   20  C   UNL     1      -9.844  10.612  65.324  1.00  0.00    -0.334 C  
HETATM   21  O   UNL     1     -10.047  10.625  62.942  1.00  0.00    -0.248 OA 
ENDROOT
BRANCH   4  22
HETATM   22  C   UNL     1      -6.360  17.139  66.824  1.00  0.00    -0.248 C  
HETATM   23  C   UNL     1      -5.979  18.092  66.208  1.00  0.00    -0.225 C  
ENDBRANCH   4  22
TORSDOF 1
ENDMDL
MODEL       46
REMARK 921   NORMALIZED FREE ENERGY PREDICTED BY IDOCK:   -5.13 KCAL/MOL
REMARK 922        TOTAL FREE ENERGY PREDICTED BY IDOCK:   -5.44 KCAL/MOL
REMARK 923 INTER-LIGAND FREE ENERGY PREDICTED BY IDOCK:   -5.48 KCAL/MOL
REMARK 924 INTRA-LIGAND FREE ENERGY PREDICTED BY IDOCK:    0.05 KCAL/MOL
REMARK 927      BINDING AFFINITY PREDICTED BY RF-SCORE:    0.00 PKD
ROOT
HETATM    1  C   UNL     1      -7.420  10.613  67.673  1.00  0.00    -0.091 C  
HETATM    2  C   UNL     1      -7.972  10.352  68.952  1.00  0.00    -0.123 C  
HETATM    3  C   UNL     1      -8.802   9.972  67.785  1.00  0.00    -0.125 C  
HETATM    4  C   UNL     1      -7.847  10.088  65.969  1.00  0.00    -0.119 C  
HETATM    5  C   UNL     1      -8.032   8.992  66.765  1.00  0.00    -0.107 C  
HETATM    6  C   UNL     1     -11.656  13.229  65.121  1.00  0.00    -0.334 C  
HETATM    7  O   UNL     1      -8.278   9.686  64.668  1.00  0.00    -0.131 OA 
HETATM    8  C   UNL     1      -9.798   8.954  66.146  1.00  0.00    -0.326 C  
HETATM    9  C   UNL     1      -7.283   7.696  66.876  1.00  0.00    -0.088 C  
HETATM   10  C   UNL     1      -8.256  12.109  66.982  1.00  0.00    -0.164 C  
HETATM   11  H   UNL     1      -7.836   9.740  63.829  1.00  0.00     0.000 HD 
HETATM   12  C   UNL     1     -10.364  10.558  65.716  1.00  0.00    -0.270 C  
HETATM   13  C   UNL     1      -9.857  11.950  66.498  1.00  0.00    -0.225 C  
HETATM   14  C   UNL     1     -10.377  13.279  65.935  1.00  0.00    -0.293 C  
HETATM   15  C   UNL     1      -9.806  14.458  66.287  1.00  0.00    -0.321 C  
HETATM   16  C   UNL     1      -8.616  14.583  67.220  1.00  0.00    -0.231 C  
HETATM   17  C   UNL     1     -10.327  15.801  65.816  1.00  0.00    -0.390 C  
HETATM   18  C   UNL     1      -8.184  13.300  67.936  1.00  0.00    -0.163 C  
HETATM   19  C   UNL     1     -11.426  15.659  64.787  1.00  0.00    -0.283 C  
HETATM   20  C   UNL     1     -12.408  14.551  65.030  1.00  0.00    -0.353 C  
HETATM   21  O   UNL     1     -11.580  16.475  63.877  1.00  0.00    -1.175 OA 
ENDROOT
BRANCH   4  22
HETATM   22  C   UNL     1      -6.314  10.143  65.689  1.00  0.00    -0.102 C  
HETATM   23  C   UNL     1      -5.132  10.220  65.521  1.00  0.00    -0.068 C  
ENDBRANCH   4  22
TORSDOF 1
ENDMDL
MODEL       47
REMARK 921   NORMALIZED FREE ENERGY PREDICTED BY IDOCK:   -5.06 KCAL/MOL
REMARK 922        TOTAL FREE ENERGY PREDICTED BY IDOCK:   -5.37 KCAL/MOL
REMARK 923 INTER-LIGAND FREE ENERGY PREDICTED BY IDOCK:   -5.36 KCAL/MOL
REMARK 924 INTRA-LIGAND FREE ENERGY PREDICTED BY IDOCK:   -0.01 KCAL/MOL
REMARK 927      BINDING AFFINITY PREDICTED BY RF-SCORE:    0.00 PKD
ROOT
HETATM    1  C   UNL     1      -9.270  13.281  67.878  1.00  0.00    -0.213 C  
HETATM    2  C   UNL     1      -7.999  13.401  67.262  1.00  0.00    -0.130 C  
HETATM    3  C   UNL     1      -9.057  12.738  66.465  1.00  0.00    -0.150 C  
HETATM    4  C   UNL     1     -10.947  12.857  67.268  1.00  0.00    -0.261 C  
HETATM    5  C   UNL     1     -10.379  13.646  66.308  1.00  0.00    -0.293 C  
HETATM    6  C   UNL     1     -10.442   7.878  67.023  1.00  0.00    -0.419 C  
HETATM    7  O   UNL     1     -12.208  12.457  66.730  1.00  0.00    -0.551 OA 
HETATM    8  C   UNL     1     -10.677  12.243  65.106  1.00  0.00    -0.330 C  
HETATM    9  C   UNL     1     -10.674  15.048  65.860  1.00  0.00    -0.337 C  
HETATM   10  C   UNL     1      -9.476  11.532  68.435  1.00  0.00    -0.195 C  
HETATM   11  H   UNL     1     -13.081  12.512  67.101  1.00  0.00     0.000 HD 
HETATM   12  C   UNL     1     -10.655  10.687  65.916  1.00  0.00    -0.178 C  
HETATM   13  C   UNL     1      -9.697  10.361  67.251  1.00  0.00    -0.195 C  
HETATM   14  C   UNL     1      -9.869   8.979  67.896  1.00  0.00    -0.207 C  
HETATM   15  C   UNL     1      -9.383   8.720  69.134  1.00  0.00    -0.149 C  
HETATM   16  C   UNL     1      -8.664   9.741  69.998  1.00  0.00    -0.237 C  
HETATM   17  C   UNL     1      -9.463   7.354  69.785  1.00  0.00    -0.159 C  
HETATM   18  C   UNL     1      -8.320  11.071  69.321  1.00  0.00     0.033 C  
HETATM   19  C   UNL     1     -10.292   6.383  68.975  1.00  0.00    -0.199 C  
HETATM   20  C   UNL     1     -10.121   6.463  67.487  1.00  0.00    -0.190 C  
HETATM   21  O   UNL     1     -10.970   5.501  69.504  1.00  0.00    -0.288 OA 
ENDROOT
BRANCH   4  22
HETATM   22  C   UNL     1     -11.470  13.840  68.358  1.00  0.00    -0.351 C  
HETATM   23  C   UNL     1     -11.916  14.557  69.205  1.00  0.00    -0.355 C  
ENDBRANCH   4  22
TORSDOF 1
ENDMDL
MODEL       48
REMARK 921   NORMALIZED FREE ENERGY PREDICTED BY IDOCK:   -5.00 KCAL/MOL
REMARK 922        TOTAL FREE ENERGY PREDICTED BY IDOCK:   -5.30 KCAL/MOL
REMARK 923 INTER-LIGAND FREE ENERGY PREDICTED BY IDOCK:   -5.29 KCAL/MOL
REMARK 924 INTRA-LIGAND FREE ENERGY PREDICTED BY IDOCK:   -0.01 KCAL/MOL
REMARK 927      BINDING AFFINITY PREDICTED BY RF-SCORE:    0.00 PKD
ROOT
HETATM    1  C   UNL     1      -9.382   9.136  65.087  1.00  0.00    -0.180 C  
HETATM    2  C   UNL     1      -8.615   9.481  63.947  1.00  0.00    -0.226 C  
HETATM    3  C   UNL     1      -8.028   9.821  65.265  1.00  0.00    -0.123 C  
HETATM    4  C   UNL     1      -9.024   9.038  66.883  1.00  0.00    -0.123 C  
HETATM    5  C   UNL     1      -7.919   8.548  66.245  1.00  0.00    -0.102 C  
HETATM    6  C   UNL     1      -9.308  13.914  67.997  1.00  0.00    -0.204 C  
HETATM    7  O   UNL     1      -8.686   9.045  68.271  1.00  0.00    -0.129 OA 
HETATM    8  C   UNL     1      -6.932   9.863  67.139  1.00  0.00    -0.084 C  
HETATM    9  C   UNL     1      -7.347   7.163  66.152  1.00  0.00    -0.075 C  
HETATM   10  C   UNL     1     -10.161  10.678  65.744  1.00  0.00    -0.327 C  
HETATM   11  H   UNL     1      -9.147   8.683  69.019  1.00  0.00     0.000 HD 
HETATM   12  C   UNL     1      -7.911  11.278  67.484  1.00  0.00    -0.123 C  
HETATM   13  C   UNL     1      -9.156  11.798  66.490  1.00  0.00    -0.203 C  
HETATM   14  C   UNL     1      -9.973  12.997  66.988  1.00  0.00    -0.242 C  
HETATM   15  C   UNL     1     -11.169  13.307  66.429  1.00  0.00    -0.325 C  
HETATM   16  C   UNL     1     -11.818  12.514  65.309  1.00  0.00    -0.461 C  
HETATM   17  C   UNL     1     -11.980  14.521  66.834  1.00  0.00    -0.371 C  
HETATM   18  C   UNL     1     -10.955  11.421  64.672  1.00  0.00    -0.324 C  
HETATM   19  C   UNL     1     -11.391  15.228  68.035  1.00  0.00    -0.338 C  
HETATM   20  C   UNL     1      -9.893  15.318  68.068  1.00  0.00    -0.216 C  
HETATM   21  O   UNL     1     -12.094  15.801  68.868  1.00  0.00    -0.333 OA 
ENDROOT
BRANCH   4  22
HETATM   22  C   UNL     1     -10.045   7.860  66.908  1.00  0.00    -0.362 C  
HETATM   23  C   UNL     1     -10.844   6.973  66.982  1.00  0.00    -0.413 C  
ENDBRANCH   4  22
TORSDOF 1
ENDMDL
MODEL       49
REMARK 921   NORMALIZED FREE ENERGY PREDICTED BY IDOCK:   -4.91 KCAL/MOL
REMARK 922        TOTAL FREE ENERGY PREDICTED BY IDOCK:   -5.21 KCAL/MOL
REMARK 923 INTER-LIGAND FREE ENERGY PREDICTED BY IDOCK:   -5.23 KCAL/MOL
REMARK 924 INTRA-LIGAND FREE ENERGY PREDICTED BY IDOCK:    0.03 KCAL/MOL
REMARK 927      BINDING AFFINITY PREDICTED BY RF-SCORE:    0.00 PKD
ROOT
HETATM    1  C   UNL     1      -8.623   9.864  68.745  1.00  0.00    -0.130 C  
HETATM    2  C   UNL     1      -8.024   9.962  70.025  1.00  0.00    -0.194 C  
HETATM    3  C   UNL     1      -9.458  10.326  69.938  1.00  0.00    -0.061 C  
HETATM    4  C   UNL     1     -10.355   9.883  68.142  1.00  0.00    -0.195 C  
HETATM    5  C   UNL     1     -10.360   9.154  69.299  1.00  0.00    -0.223 C  
HETATM    6  C   UNL     1     -11.174  14.822  68.300  1.00  0.00    -0.299 C  
HETATM    7  O   UNL     1     -11.724   9.969  67.745  1.00  0.00    -0.525 OA 
HETATM    8  C   UNL     1     -11.629  10.366  69.950  1.00  0.00    -0.358 C  
HETATM    9  C   UNL     1     -10.567   7.691  69.561  1.00  0.00    -0.227 C  
HETATM   10  C   UNL     1      -8.798  11.571  68.061  1.00  0.00    -0.158 C  
HETATM   11  H   UNL     1     -12.139   9.764  66.915  1.00  0.00     0.000 HD 
HETATM   12  C   UNL     1     -11.434  11.952  69.225  1.00  0.00    -0.366 C  
HETATM   13  C   UNL     1      -9.949  12.574  68.762  1.00  0.00    -0.028 C  
HETATM   14  C   UNL     1      -9.967  13.936  68.056  1.00  0.00    -0.241 C  
HETATM   15  C   UNL     1      -8.883  14.387  67.379  1.00  0.00    -0.211 C  
HETATM   16  C   UNL     1      -7.589  13.608  67.227  1.00  0.00    -0.073 C  
HETATM   17  C   UNL     1      -8.825  15.754  66.727  1.00  0.00    -0.299 C  
HETATM   18  C   UNL     1      -7.472  12.329  68.061  1.00  0.00    -0.115 C  
HETATM   19  C   UNL     1     -10.159  16.466  66.771  1.00  0.00    -0.285 C  
HETATM   20  C   UNL     1     -10.941  16.305  68.041  1.00  0.00    -0.328 C  
HETATM   21  O   UNL     1     -10.525  17.227  65.875  1.00  0.00    -0.423 OA 
ENDROOT
BRANCH   4  22
HETATM   22  C   UNL     1      -9.863   8.901  67.036  1.00  0.00    -0.277 C  
HETATM   23  C   UNL     1      -9.527   8.110  66.204  1.00  0.00    -0.217 C  
ENDBRANCH   4  22
TORSDOF 1
ENDMDL
MODEL       50
REMARK 921   NORMALIZED FREE ENERGY PREDICTED BY IDOCK:   -4.84 KCAL/MOL
REMARK 922        TOTAL FREE ENERGY PREDICTED BY IDOCK:   -5.13 KCAL/MOL
REMARK 923 INTER-LIGAND FREE ENERGY PREDICTED BY IDOCK:   -5.12 KCAL/MOL
REMARK 924 INTRA-LIGAND FREE ENERGY PREDICTED BY IDOCK:   -0.01 KCAL/MOL
REMARK 927      BINDING AFFINITY PREDICTED BY RF-SCORE:    0.00 PKD
ROOT
HETATM    1  C   UNL     1      -9.318   5.402  70.780  1.00  0.00    -0.200 C  
HETATM    2  C   UNL     1      -9.857   4.724  69.658  1.00  0.00    -0.292 C  
HETATM    3  C   UNL     1      -9.168   6.007  69.384  1.00  0.00    -0.140 C  
HETATM    4  C   UNL     1      -8.147   6.799  70.983  1.00  0.00    -0.115 C  
HETATM    5  C   UNL     1      -7.662   6.040  69.956  1.00  0.00    -0.100 C  
HETATM    6  C   UNL     1     -11.284  10.585  70.025  1.00  0.00    -0.386 C  
HETATM    7  O   UNL     1      -7.278   7.930  71.058  1.00  0.00    -0.055 OA 
HETATM    8  C   UNL     1      -7.753   7.579  68.895  1.00  0.00    -0.115 C  
HETATM    9  C   UNL     1      -6.449   5.163  69.843  1.00  0.00    -0.035 C  
HETATM   10  C   UNL     1     -10.436   6.816  71.187  1.00  0.00    -0.239 C  
HETATM   11  H   UNL     1      -6.807   8.296  71.797  1.00  0.00     0.000 HD 
HETATM   12  C   UNL     1      -9.024   8.660  69.438  1.00  0.00    -0.145 C  
HETATM   13  C   UNL     1     -10.452   8.122  70.131  1.00  0.00    -0.225 C  
HETATM   14  C   UNL     1     -11.416   9.203  70.636  1.00  0.00    -0.310 C  
HETATM   15  C   UNL     1     -12.439   8.892  71.470  1.00  0.00    -0.380 C  
HETATM   16  C   UNL     1     -12.713   7.495  71.998  1.00  0.00    -0.246 C  
HETATM   17  C   UNL     1     -13.460   9.908  71.940  1.00  0.00    -0.467 C  
HETATM   18  C   UNL     1     -11.883   6.368  71.379  1.00  0.00    -0.340 C  
HETATM   19  C   UNL     1     -13.104  11.316  71.517  1.00  0.00    -0.355 C  
HETATM   20  C   UNL     1     -12.529  11.455  70.137  1.00  0.00    -0.271 C  
HETATM   21  O   UNL     1     -13.379  12.297  72.208  1.00  0.00    -0.515 OA 
ENDROOT
BRANCH   4  22
HETATM   22  C   UNL     1      -7.687   6.077  72.286  1.00  0.00    -0.101 C  
HETATM   23  C   UNL     1      -7.350   5.571  73.316  1.00  0.00    -0.095 C  
ENDBRANCH   4  22
TORSDOF 1
ENDMDL
MODEL       51
REMARK 921   NORMALIZED FREE ENERGY PREDICTED BY IDOCK:   -4.83 KCAL/MOL
REMARK 922        TOTAL FREE ENERGY PREDICTED BY IDOCK:   -5.12 KCAL/MOL
REMARK 923 INTER-LIGAND FREE ENERGY PREDICTED BY IDOCK:   -5.11 KCAL/MOL
REMARK 924 INTRA-LIGAND FREE ENERGY PREDICTED BY IDOCK:   -0.01 KCAL/MOL
REMARK 927      BINDING AFFINITY PREDICTED BY RF-SCORE:    0.00 PKD
ROOT
HETATM    1  C   UNL     1      -9.481  13.182  67.991  1.00  0.00    -0.220 C  
HETATM    2  C   UNL     1      -8.645  14.283  67.681  1.00  0.00    -0.186 C  
HETATM    3  C   UNL     1      -9.671  13.930  66.672  1.00  0.00    -0.295 C  
HETATM    4  C   UNL     1     -11.047  12.533  67.290  1.00  0.00    -0.274 C  
HETATM    5  C   UNL     1     -11.161  13.894  67.285  1.00  0.00    -0.312 C  
HETATM    6  C   UNL     1      -9.181  10.171  63.285  1.00  0.00    -0.320 C  
HETATM    7  O   UNL     1     -12.230  12.053  66.650  1.00  0.00    -0.550 OA 
HETATM    8  C   UNL     1     -11.453  13.773  65.441  1.00  0.00    -0.318 C  
HETATM    9  C   UNL     1     -12.018  14.831  68.086  1.00  0.00    -0.265 C  
HETATM   10  C   UNL     1      -8.913  11.732  66.995  1.00  0.00    -0.186 C  
HETATM   11  H   UNL     1     -12.866  11.407  66.936  1.00  0.00     0.000 HD 
HETATM   12  C   UNL     1     -10.648  12.374  64.753  1.00  0.00    -0.331 C  
HETATM   13  C   UNL     1      -9.202  11.766  65.340  1.00  0.00    -0.023 C  
HETATM   14  C   UNL     1      -8.683  10.480  64.684  1.00  0.00    -0.193 C  
HETATM   15  C   UNL     1      -7.705   9.744  65.266  1.00  0.00    -0.121 C  
HETATM   16  C   UNL     1      -7.059  10.085  66.597  1.00  0.00    -0.091 C  
HETATM   17  C   UNL     1      -7.109   8.507  64.625  1.00  0.00    -0.080 C  
HETATM   18  C   UNL     1      -7.425  11.448  67.192  1.00  0.00    -0.138 C  
HETATM   19  C   UNL     1      -7.846   8.103  63.368  1.00  0.00    -0.149 C  
HETATM   20  C   UNL     1      -8.292   9.230  62.483  1.00  0.00    -0.185 C  
HETATM   21  O   UNL     1      -7.965   6.925  63.028  1.00  0.00    -0.118 OA 
ENDROOT
BRANCH   4  22
HETATM   22  C   UNL     1     -11.385  12.093  68.746  1.00  0.00    -0.339 C  
HETATM   23  C   UNL     1     -11.681  11.714  69.842  1.00  0.00    -0.414 C  
ENDBRANCH   4  22
TORSDOF 1
ENDMDL
MODEL       52
REMARK 921   NORMALIZED FREE ENERGY PREDICTED BY IDOCK:   -4.81 KCAL/MOL
REMARK 922        TOTAL FREE ENERGY PREDICTED BY IDOCK:   -5.10 KCAL/MOL
REMARK 923 INTER-LIGAND FREE ENERGY PREDICTED BY IDOCK:   -5.10 KCAL/MOL
REMARK 924 INTRA-LIGAND FREE ENERGY PREDICTED BY IDOCK:   -0.00 KCAL/MOL
REMARK 927      BINDING AFFINITY PREDICTED BY RF-SCORE:    0.00 PKD
ROOT
HETATM    1  C   UNL     1      -8.813  12.311  68.018  1.00  0.00    -0.182 C  
HETATM    2  C   UNL     1      -7.608  12.166  67.287  1.00  0.00    -0.156 C  
HETATM    3  C   UNL     1      -8.800  11.480  66.736  1.00  0.00    -0.183 C  
HETATM    4  C   UNL     1     -10.576  11.962  67.652  1.00  0.00    -0.211 C  
HETATM    5  C   UNL     1     -10.042  12.479  66.505  1.00  0.00    -0.250 C  
HETATM    6  C   UNL     1     -10.555   7.009  68.404  1.00  0.00    -0.240 C  
HETATM    7  O   UNL     1     -11.918  11.606  67.316  1.00  0.00    -0.627 OA 
HETATM    8  C   UNL     1     -10.591  10.907  65.649  1.00  0.00    -0.233 C  
HETATM    9  C   UNL     1     -10.254  13.788  65.803  1.00  0.00    -0.322 C  
HETATM   10  C   UNL     1      -9.118  10.740  68.941  1.00  0.00    -0.170 C  
HETATM   11  H   UNL     1     -12.738  11.828  67.740  1.00  0.00     0.000 HD 
HETATM   12  C   UNL     1     -10.626   9.549  66.760  1.00  0.00    -0.208 C  
HETATM   13  C   UNL     1      -9.567   9.390  68.048  1.00  0.00    -0.156 C  
HETATM   14  C   UNL     1      -9.796   8.191  68.978  1.00  0.00    -0.176 C  
HETATM   15  C   UNL     1      -9.208   8.130  70.197  1.00  0.00    -0.155 C  
HETATM   16  C   UNL     1      -8.313   9.216  70.767  1.00  0.00    -0.248 C  
HETATM   17  C   UNL     1      -9.344   6.937  71.122  1.00  0.00    -0.162 C  
HETATM   18  C   UNL     1      -7.923  10.339  69.803  1.00  0.00    -0.139 C  
HETATM   19  C   UNL     1     -10.338   5.922  70.604  1.00  0.00    -0.235 C  
HETATM   20  C   UNL     1     -10.317   5.687  69.122  1.00  0.00    -0.328 C  
HETATM   21  O   UNL     1     -11.035   5.242  71.359  1.00  0.00    -0.144 OA 
ENDROOT
BRANCH   4  22
HETATM   22  C   UNL     1     -10.891  13.193  68.555  1.00  0.00    -0.285 C  
HETATM   23  C   UNL     1     -11.156  14.101  69.287  1.00  0.00    -0.286 C  
ENDBRANCH   4  22
TORSDOF 1
ENDMDL
MODEL       53
REMARK 921   NORMALIZED FREE ENERGY PREDICTED BY IDOCK:   -4.80 KCAL/MOL
REMARK 922        TOTAL FREE ENERGY PREDICTED BY IDOCK:   -5.09 KCAL/MOL
REMARK 923 INTER-LIGAND FREE ENERGY PREDICTED BY IDOCK:   -5.11 KCAL/MOL
REMARK 924 INTRA-LIGAND FREE ENERGY PREDICTED BY IDOCK:    0.02 KCAL/MOL
REMARK 927      BINDING AFFINITY PREDICTED BY RF-SCORE:    0.00 PKD
ROOT
HETATM    1  C   UNL     1      -8.330  10.935  67.902  1.00  0.00    -0.119 C  
HETATM    2  C   UNL     1      -9.000  10.910  69.150  1.00  0.00    -0.052 C  
HETATM    3  C   UNL     1      -9.786  11.391  67.991  1.00  0.00    -0.191 C  
HETATM    4  C   UNL     1      -8.882  11.126  66.163  1.00  0.00    -0.190 C  
HETATM    5  C   UNL     1      -9.812  10.334  66.775  1.00  0.00    -0.246 C  
HETATM    6  C   UNL     1      -9.499  16.097  66.090  1.00  0.00    -0.362 C  
HETATM    7  O   UNL     1      -9.382  11.344  64.843  1.00  0.00    -0.318 OA 
HETATM    8  C   UNL     1     -11.093  11.602  66.269  1.00  0.00    -0.345 C  
HETATM    9  C   UNL     1     -10.146   8.879  66.622  1.00  0.00    -0.357 C  
HETATM   10  C   UNL     1      -7.887  12.689  67.523  1.00  0.00    -0.175 C  
HETATM   11  H   UNL     1      -8.964  11.222  63.999  1.00  0.00     0.000 HD 
HETATM   12  C   UNL     1     -10.396  13.207  66.149  1.00  0.00    -0.287 C  
HETATM   13  C   UNL     1      -9.137  13.736  67.120  1.00  0.00    -0.243 C  
HETATM   14  C   UNL     1      -8.582  15.134  66.820  1.00  0.00    -0.297 C  
HETATM   15  C   UNL     1      -7.391  15.538  67.327  1.00  0.00    -0.249 C  
HETATM   16  C   UNL     1      -6.496  14.669  68.193  1.00  0.00    -0.142 C  
HETATM   17  C   UNL     1      -6.834  16.932  67.121  1.00  0.00    -0.221 C  
HETATM   18  C   UNL     1      -7.095  13.338  68.656  1.00  0.00    -0.103 C  
HETATM   19  C   UNL     1      -7.666  17.743  66.153  1.00  0.00    -0.245 C  
HETATM   20  C   UNL     1      -9.153  17.570  66.268  1.00  0.00    -0.221 C  
HETATM   21  O   UNL     1      -7.166  18.582  65.403  1.00  0.00    -0.530 OA 
ENDROOT
BRANCH   4  22
HETATM   22  C   UNL     1      -7.701  10.176  65.802  1.00  0.00    -0.136 C  
HETATM   23  C   UNL     1      -6.757   9.489  65.543  1.00  0.00    -0.080 C  
ENDBRANCH   4  22
TORSDOF 1
ENDMDL
MODEL       54
REMARK 921   NORMALIZED FREE ENERGY PREDICTED BY IDOCK:   -4.77 KCAL/MOL
REMARK 922        TOTAL FREE ENERGY PREDICTED BY IDOCK:   -5.06 KCAL/MOL
REMARK 923 INTER-LIGAND FREE ENERGY PREDICTED BY IDOCK:   -5.05 KCAL/MOL
REMARK 924 INTRA-LIGAND FREE ENERGY PREDICTED BY IDOCK:   -0.01 KCAL/MOL
REMARK 927      BINDING AFFINITY PREDICTED BY RF-SCORE:    0.00 PKD
ROOT
HETATM    1  C   UNL     1      -7.175   7.302  65.051  1.00  0.00    -0.070 C  
HETATM    2  C   UNL     1      -5.936   7.984  65.122  1.00  0.00    -0.045 C  
HETATM    3  C   UNL     1      -6.818   8.097  66.306  1.00  0.00    -0.058 C  
HETATM    4  C   UNL     1      -8.457   6.856  66.284  1.00  0.00    -0.131 C  
HETATM    5  C   UNL     1      -7.252   6.663  66.898  1.00  0.00    -0.077 C  
HETATM    6  C   UNL     1     -10.760  11.290  66.644  1.00  0.00    -0.321 C  
HETATM    7  O   UNL     1      -9.438   6.599  67.290  1.00  0.00    -0.128 OA 
HETATM    8  C   UNL     1      -7.831   7.863  68.212  1.00  0.00    -0.120 C  
HETATM    9  C   UNL     1      -6.536   5.417  67.331  1.00  0.00    -0.051 C  
HETATM   10  C   UNL     1      -8.500   8.550  64.732  1.00  0.00    -0.146 C  
HETATM   11  H   UNL     1     -10.195   6.026  67.280  1.00  0.00     0.000 HD 
HETATM   12  C   UNL     1      -8.967   9.031  67.561  1.00  0.00    -0.131 C  
HETATM   13  C   UNL     1      -8.899   9.595  65.985  1.00  0.00    -0.178 C  
HETATM   14  C   UNL     1     -10.025  10.542  65.548  1.00  0.00    -0.342 C  
HETATM   15  C   UNL     1     -10.241  10.814  64.238  1.00  0.00    -0.422 C  
HETATM   16  C   UNL     1      -9.437  10.212  63.099  1.00  0.00    -0.296 C  
HETATM   17  C   UNL     1     -11.291  11.796  63.759  1.00  0.00    -0.524 C  
HETATM   18  C   UNL     1      -8.200   9.405  63.503  1.00  0.00    -0.168 C  
HETATM   19  C   UNL     1     -12.169  12.290  64.888  1.00  0.00    -0.339 C  
HETATM   20  C   UNL     1     -11.469  12.558  66.188  1.00  0.00    -0.426 C  
HETATM   21  O   UNL     1     -13.356  12.570  64.719  1.00  0.00    -0.773 OA 
ENDROOT
BRANCH   4  22
HETATM   22  C   UNL     1      -8.689   5.582  65.416  1.00  0.00    -0.148 C  
HETATM   23  C   UNL     1      -8.925   4.609  64.760  1.00  0.00    -0.153 C  
ENDBRANCH   4  22
TORSDOF 1
ENDMDL
MODEL       55
REMARK 921   NORMALIZED FREE ENERGY PREDICTED BY IDOCK:   -4.73 KCAL/MOL
REMARK 922        TOTAL FREE ENERGY PREDICTED BY IDOCK:   -5.01 KCAL/MOL
REMARK 923 INTER-LIGAND FREE ENERGY PREDICTED BY IDOCK:   -5.01 KCAL/MOL
REMARK 924 INTRA-LIGAND FREE ENERGY PREDICTED BY IDOCK:   -0.00 KCAL/MOL
REMARK 927      BINDING AFFINITY PREDICTED BY RF-SCORE:    0.00 PKD
ROOT
HETATM    1  C   UNL     1     -10.105  18.372  68.252  1.00  0.00    -0.410 C  
HETATM    2  C   UNL     1      -9.743  18.604  69.602  1.00  0.00     0.396 C  
HETATM    3  C   UNL     1      -8.729  17.937  68.754  1.00  0.00    -0.206 C  
HETATM    4  C   UNL     1      -9.173  17.893  66.747  1.00  0.00    -0.271 C  
HETATM    5  C   UNL     1      -8.380  18.776  67.424  1.00  0.00    -0.280 C  
HETATM    6  C   UNL     1      -8.753  12.979  67.627  1.00  0.00    -0.189 C  
HETATM    7  O   UNL     1      -8.390  17.458  65.634  1.00  0.00    -0.487 OA 
HETATM    8  C   UNL     1      -7.068  17.441  67.446  1.00  0.00    -0.186 C  
HETATM    9  C   UNL     1      -7.962  20.185  67.119  1.00  0.00    -0.363 C  
HETATM   10  C   UNL     1     -10.518  16.580  68.069  1.00  0.00    -0.313 C  
HETATM   11  H   UNL     1      -8.595  17.438  64.707  1.00  0.00     0.000 HD 
HETATM   12  C   UNL     1      -7.781  15.839  67.427  1.00  0.00    -0.211 C  
HETATM   13  C   UNL     1      -9.251  15.480  68.147  1.00  0.00    -0.189 C  
HETATM   14  C   UNL     1      -9.776  14.051  67.956  1.00  0.00    -0.221 C  
HETATM   15  C   UNL     1     -11.067  13.738  68.227  1.00  0.00    -0.279 C  
HETATM   16  C   UNL     1     -12.103  14.739  68.705  1.00  0.00    -0.223 C  
HETATM   17  C   UNL     1     -11.615  12.330  68.124  1.00  0.00    -0.396 C  
HETATM   18  C   UNL     1     -11.576  16.129  69.074  1.00  0.00    -0.298 C  
HETATM   19  C   UNL     1     -10.614  11.368  67.523  1.00  0.00    -0.213 C  
HETATM   20  C   UNL     1      -9.190  11.557  67.955  1.00  0.00    -0.175 C  
HETATM   21  O   UNL     1     -10.959  10.416  66.823  1.00  0.00    -0.170 OA 
ENDROOT
BRANCH   4  22
HETATM   22  C   UNL     1     -10.200  18.770  65.968  1.00  0.00    -0.413 C  
HETATM   23  C   UNL     1     -11.011  19.393  65.348  1.00  0.00     0.085 C  
ENDBRANCH   4  22
TORSDOF 1
ENDMDL
MODEL       56
REMARK 921   NORMALIZED FREE ENERGY PREDICTED BY IDOCK:   -4.72 KCAL/MOL
REMARK 922        TOTAL FREE ENERGY PREDICTED BY IDOCK:   -5.01 KCAL/MOL
REMARK 923 INTER-LIGAND FREE ENERGY PREDICTED BY IDOCK:   -5.00 KCAL/MOL
REMARK 924 INTRA-LIGAND FREE ENERGY PREDICTED BY IDOCK:   -0.01 KCAL/MOL
REMARK 927      BINDING AFFINITY PREDICTED BY RF-SCORE:    0.00 PKD
ROOT
HETATM    1  C   UNL     1      -9.387  13.287  67.977  1.00  0.00    -0.218 C  
HETATM    2  C   UNL     1      -8.232  13.811  67.347  1.00  0.00    -0.194 C  
HETATM    3  C   UNL     1      -9.165  13.050  66.484  1.00  0.00    -0.187 C  
HETATM    4  C   UNL     1     -10.961  12.572  67.364  1.00  0.00    -0.259 C  
HETATM    5  C   UNL     1     -10.670  13.622  66.539  1.00  0.00    -0.284 C  
HETATM    6  C   UNL     1      -9.329   7.975  66.225  1.00  0.00    -0.246 C  
HETATM    7  O   UNL     1     -12.132  11.971  66.810  1.00  0.00    -0.613 OA 
HETATM    8  C   UNL     1     -10.725  12.403  65.119  1.00  0.00    -0.327 C  
HETATM    9  C   UNL     1     -11.318  14.963  66.356  1.00  0.00    -0.308 C  
HETATM   10  C   UNL     1      -9.135  11.473  68.224  1.00  0.00    -0.185 C  
HETATM   11  H   UNL     1     -12.962  11.750  67.217  1.00  0.00     0.000 HD 
HETATM   12  C   UNL     1     -10.277  10.789  65.640  1.00  0.00    -0.320 C  
HETATM   13  C   UNL     1      -9.168  10.493  66.860  1.00  0.00    -0.173 C  
HETATM   14  C   UNL     1      -8.963   9.025  67.257  1.00  0.00    -0.139 C  
HETATM   15  C   UNL     1      -8.333   8.695  68.411  1.00  0.00    -0.127 C  
HETATM   16  C   UNL     1      -7.808   9.705  69.415  1.00  0.00    -0.104 C  
HETATM   17  C   UNL     1      -8.041   7.263  68.813  1.00  0.00    -0.124 C  
HETATM   18  C   UNL     1      -7.838  11.171  68.972  1.00  0.00    -0.103 C  
HETATM   19  C   UNL     1      -8.682   6.264  67.875  1.00  0.00    -0.114 C  
HETATM   20  C   UNL     1      -8.651   6.625  66.419  1.00  0.00    -0.130 C  
HETATM   21  O   UNL     1      -9.091   5.170  68.264  1.00  0.00    -0.108 OA 
ENDROOT
BRANCH   4  22
HETATM   22  C   UNL     1     -11.613  13.207  68.629  1.00  0.00    -0.356 C  
HETATM   23  C   UNL     1     -12.156  13.654  69.597  1.00  0.00    -0.378 C  
ENDBRANCH   4  22
TORSDOF 1
ENDMDL
MODEL       57
REMARK 921   NORMALIZED FREE ENERGY PREDICTED BY IDOCK:   -4.72 KCAL/MOL
REMARK 922        TOTAL FREE ENERGY PREDICTED BY IDOCK:   -5.00 KCAL/MOL
REMARK 923 INTER-LIGAND FREE ENERGY PREDICTED BY IDOCK:   -5.06 KCAL/MOL
REMARK 924 INTRA-LIGAND FREE ENERGY PREDICTED BY IDOCK:    0.06 KCAL/MOL
REMARK 927      BINDING AFFINITY PREDICTED BY RF-SCORE:    0.00 PKD
ROOT
HETATM    1  C   UNL     1      -8.216   8.726  69.529  1.00  0.00    -0.111 C  
HETATM    2  C   UNL     1      -7.692   9.148  70.776  1.00  0.00    -0.162 C  
HETATM    3  C   UNL     1      -9.166   9.196  70.630  1.00  0.00    -0.310 C  
HETATM    4  C   UNL     1      -9.896   8.298  68.931  1.00  0.00    -0.180 C  
HETATM    5  C   UNL     1      -9.795   7.779  70.192  1.00  0.00    -0.184 C  
HETATM    6  C   UNL     1     -11.689  12.930  68.276  1.00  0.00    -0.390 C  
HETATM    7  O   UNL     1     -11.241   8.040  68.526  1.00  0.00    -0.317 OA 
HETATM    8  C   UNL     1     -11.300   8.798  70.635  1.00  0.00    -0.289 C  
HETATM    9  C   UNL     1      -9.714   6.366  70.691  1.00  0.00    -0.197 C  
HETATM   10  C   UNL     1      -8.706  10.230  68.574  1.00  0.00    -0.130 C  
HETATM   11  H   UNL     1     -11.579   7.625  67.740  1.00  0.00     0.000 HD 
HETATM   12  C   UNL     1     -11.402  10.253  69.659  1.00  0.00    -0.315 C  
HETATM   13  C   UNL     1     -10.056  11.079  69.100  1.00  0.00    -0.167 C  
HETATM   14  C   UNL     1     -10.322  12.278  68.181  1.00  0.00    -0.221 C  
HETATM   15  C   UNL     1      -9.327  12.824  67.439  1.00  0.00    -0.193 C  
HETATM   16  C   UNL     1      -7.899  12.308  67.417  1.00  0.00    -0.171 C  
HETATM   17  C   UNL     1      -9.521  14.051  66.571  1.00  0.00    -0.295 C  
HETATM   18  C   UNL     1      -7.558  11.230  68.450  1.00  0.00    -0.120 C  
HETATM   19  C   UNL     1     -10.971  14.477  66.498  1.00  0.00    -0.321 C  
HETATM   20  C   UNL     1     -11.747  14.368  67.777  1.00  0.00    -0.407 C  
HETATM   21  O   UNL     1     -11.451  14.993  65.489  1.00  0.00    -0.336 OA 
ENDROOT
BRANCH   4  22
HETATM   22  C   UNL     1      -9.182   7.271  68.002  1.00  0.00    -0.131 C  
HETATM   23  C   UNL     1      -8.582   6.497  67.314  1.00  0.00    -0.111 C  
ENDBRANCH   4  22
TORSDOF 1
ENDMDL
MODEL       58
REMARK 921   NORMALIZED FREE ENERGY PREDICTED BY IDOCK:   -4.69 KCAL/MOL
REMARK 922        TOTAL FREE ENERGY PREDICTED BY IDOCK:   -4.98 KCAL/MOL
REMARK 923 INTER-LIGAND FREE ENERGY PREDICTED BY IDOCK:   -5.02 KCAL/MOL
REMARK 924 INTRA-LIGAND FREE ENERGY PREDICTED BY IDOCK:    0.04 KCAL/MOL
REMARK 927      BINDING AFFINITY PREDICTED BY RF-SCORE:    0.00 PKD
ROOT
HETATM    1  C   UNL     1      -9.030  10.738  66.401  1.00  0.00    -0.179 C  
HETATM    2  C   UNL     1      -9.854  10.205  65.379  1.00  0.00    -0.375 C  
HETATM    3  C   UNL     1     -10.551  10.806  66.540  1.00  0.00    -0.279 C  
HETATM    4  C   UNL     1      -9.334  11.830  67.843  1.00  0.00    -0.184 C  
HETATM    5  C   UNL     1     -10.094  12.325  66.821  1.00  0.00    -0.224 C  
HETATM    6  C   UNL     1     -11.274   8.442  70.983  1.00  0.00    -0.304 C  
HETATM    7  O   UNL     1      -9.661  12.632  68.979  1.00  0.00    -0.393 OA 
HETATM    8  C   UNL     1     -11.578  12.108  67.941  1.00  0.00    -0.413 C  
HETATM    9  C   UNL     1      -9.987  13.584  66.011  1.00  0.00    -0.308 C  
HETATM   10  C   UNL     1      -9.032   9.552  67.818  1.00  0.00    -0.126 C  
HETATM   11  H   UNL     1      -9.098  13.105  69.581  1.00  0.00     0.000 HD 
HETATM   12  C   UNL     1     -11.339  10.793  69.077  1.00  0.00    -0.349 C  
HETATM   13  C   UNL     1     -10.442   9.424  68.721  1.00  0.00    -0.236 C  
HETATM   14  C   UNL     1     -10.254   8.413  69.860  1.00  0.00    -0.201 C  
HETATM   15  C   UNL     1      -9.314   7.439  69.782  1.00  0.00    -0.146 C  
HETATM   16  C   UNL     1      -8.362   7.266  68.612  1.00  0.00    -0.125 C  
HETATM   17  C   UNL     1      -9.136   6.375  70.845  1.00  0.00    -0.151 C  
HETATM   18  C   UNL     1      -8.637   8.141  67.386  1.00  0.00    -0.125 C  
HETATM   19  C   UNL     1      -9.997   6.632  72.062  1.00  0.00    -0.165 C  
HETATM   20  C   UNL     1     -11.378   7.152  71.785  1.00  0.00    -0.285 C  
HETATM   21  O   UNL     1      -9.636   6.322  73.197  1.00  0.00    -0.149 OA 
ENDROOT
BRANCH   4  22
HETATM   22  C   UNL     1      -7.896  12.375  67.591  1.00  0.00    -0.163 C  
HETATM   23  C   UNL     1      -6.776  12.739  67.378  1.00  0.00    -0.138 C  
ENDBRANCH   4  22
TORSDOF 1
ENDMDL
MODEL       59
REMARK 921   NORMALIZED FREE ENERGY PREDICTED BY IDOCK:   -4.67 KCAL/MOL
REMARK 922        TOTAL FREE ENERGY PREDICTED BY IDOCK:   -4.95 KCAL/MOL
REMARK 923 INTER-LIGAND FREE ENERGY PREDICTED BY IDOCK:   -4.94 KCAL/MOL
REMARK 924 INTRA-LIGAND FREE ENERGY PREDICTED BY IDOCK:   -0.01 KCAL/MOL
REMARK 927      BINDING AFFINITY PREDICTED BY RF-SCORE:    0.00 PKD
ROOT
HETATM    1  C   UNL     1     -10.204  14.273  66.759  1.00  0.00    -0.272 C  
HETATM    2  C   UNL     1      -9.715  14.972  65.627  1.00  0.00    -0.344 C  
HETATM    3  C   UNL     1     -10.207  13.595  65.390  1.00  0.00    -0.330 C  
HETATM    4  C   UNL     1     -11.178  12.736  66.985  1.00  0.00    -0.292 C  
HETATM    5  C   UNL     1     -11.718  13.376  65.904  1.00  0.00    -0.389 C  
HETATM    6  C   UNL     1      -7.509   9.390  66.329  1.00  0.00    -0.096 C  
HETATM    7  O   UNL     1     -11.885  11.499  67.082  1.00  0.00    -0.595 OA 
HETATM    8  C   UNL     1     -11.369  11.820  64.924  1.00  0.00    -0.299 C  
HETATM    9  C   UNL     1     -13.034  14.069  65.704  1.00  0.00    -0.337 C  
HETATM   10  C   UNL     1      -8.920  13.048  67.275  1.00  0.00    -0.212 C  
HETATM   11  H   UNL     1     -12.334  11.102  67.819  1.00  0.00     0.000 HD 
HETATM   12  C   UNL     1      -9.985  10.953  65.565  1.00  0.00    -0.315 C  
HETATM   13  C   UNL     1      -8.678  11.714  66.285  1.00  0.00    -0.136 C  
HETATM   14  C   UNL     1      -7.596  10.801  66.878  1.00  0.00    -0.123 C  
HETATM   15  C   UNL     1      -6.664  11.287  67.734  1.00  0.00    -0.069 C  
HETATM   16  C   UNL     1      -6.609  12.730  68.204  1.00  0.00    -0.088 C  
HETATM   17  C   UNL     1      -5.534  10.445  68.290  1.00  0.00    -0.033 C  
HETATM   18  C   UNL     1      -7.559  13.703  67.500  1.00  0.00    -0.180 C  
HETATM   19  C   UNL     1      -5.673   8.985  67.922  1.00  0.00    -0.035 C  
HETATM   20  C   UNL     1      -6.162   8.708  66.530  1.00  0.00    -0.058 C  
HETATM   21  O   UNL     1      -5.296   8.082  68.669  1.00  0.00    -0.026 OA 
ENDROOT
BRANCH   4  22
HETATM   22  C   UNL     1     -11.791  13.442  68.233  1.00  0.00    -0.393 C  
HETATM   23  C   UNL     1     -12.272  13.929  69.213  1.00  0.00    -0.319 C  
ENDBRANCH   4  22
TORSDOF 1
ENDMDL
MODEL       60
REMARK 921   NORMALIZED FREE ENERGY PREDICTED BY IDOCK:   -4.67 KCAL/MOL
REMARK 922        TOTAL FREE ENERGY PREDICTED BY IDOCK:   -4.95 KCAL/MOL
REMARK 923 INTER-LIGAND FREE ENERGY PREDICTED BY IDOCK:   -4.98 KCAL/MOL
REMARK 924 INTRA-LIGAND FREE ENERGY PREDICTED BY IDOCK:    0.03 KCAL/MOL
REMARK 927      BINDING AFFINITY PREDICTED BY RF-SCORE:    0.00 PKD
ROOT
HETATM    1  C   UNL     1     -11.630  12.182  67.675  1.00  0.00    -0.413 C  
HETATM    2  C   UNL     1     -11.689  11.725  69.015  1.00  0.00    -0.390 C  
HETATM    3  C   UNL     1     -10.556  12.615  68.671  1.00  0.00    -0.245 C  
HETATM    4  C   UNL     1     -10.674  13.490  66.815  1.00  0.00    -0.278 C  
HETATM    5  C   UNL     1     -11.033  14.011  68.026  1.00  0.00    -0.266 C  
HETATM    6  C   UNL     1      -6.315  11.070  66.330  1.00  0.00    -0.133 C  
HETATM    7  O   UNL     1      -9.850  14.484  66.206  1.00  0.00    -0.276 OA 
HETATM    8  C   UNL     1      -9.209  14.287  68.346  1.00  0.00    -0.196 C  
HETATM    9  C   UNL     1     -11.998  15.097  68.405  1.00  0.00    -0.216 C  
HETATM   10  C   UNL     1     -10.319  11.220  66.798  1.00  0.00    -0.278 C  
HETATM   11  H   UNL     1      -9.905  14.889  65.348  1.00  0.00     0.000 HD 
HETATM   12  C   UNL     1      -8.223  13.109  67.498  1.00  0.00    -0.183 C  
HETATM   13  C   UNL     1      -8.721  11.536  67.206  1.00  0.00    -0.151 C  
HETATM   14  C   UNL     1      -7.776  10.664  66.368  1.00  0.00    -0.141 C  
HETATM   15  C   UNL     1      -8.201   9.498  65.822  1.00  0.00    -0.116 C  
HETATM   16  C   UNL     1      -9.616   8.962  65.952  1.00  0.00    -0.293 C  
HETATM   17  C   UNL     1      -7.290   8.567  65.048  1.00  0.00    -0.086 C  
HETATM   18  C   UNL     1     -10.532   9.713  66.923  1.00  0.00    -0.282 C  
HETATM   19  C   UNL     1      -5.923   9.170  64.813  1.00  0.00    -0.065 C  
HETATM   20  C   UNL     1      -5.350   9.952  65.958  1.00  0.00    -0.044 C  
HETATM   21  O   UNL     1      -5.269   8.933  63.797  1.00  0.00    -0.059 OA 
ENDROOT
BRANCH   4  22
HETATM   22  C   UNL     1     -11.930  13.653  65.906  1.00  0.00    -0.438 C  
HETATM   23  C   UNL     1     -12.899  13.834  65.228  1.00  0.00    -0.430 C  
ENDBRANCH   4  22
TORSDOF 1
ENDMDL
MODEL       61
REMARK 921   NORMALIZED FREE ENERGY PREDICTED BY IDOCK:   -4.66 KCAL/MOL
REMARK 922        TOTAL FREE ENERGY PREDICTED BY IDOCK:   -4.94 KCAL/MOL
REMARK 923 INTER-LIGAND FREE ENERGY PREDICTED BY IDOCK:   -4.96 KCAL/MOL
REMARK 924 INTRA-LIGAND FREE ENERGY PREDICTED BY IDOCK:    0.02 KCAL/MOL
REMARK 927      BINDING AFFINITY PREDICTED BY RF-SCORE:    0.00 PKD
ROOT
HETATM    1  C   UNL     1      -9.009   9.704  70.226  1.00  0.00    -0.263 C  
HETATM    2  C   UNL     1      -7.603   9.823  70.356  1.00  0.00    -0.165 C  
HETATM    3  C   UNL     1      -8.093   8.746  69.466  1.00  0.00    -0.105 C  
HETATM    4  C   UNL     1     -10.110   8.801  69.070  1.00  0.00    -0.198 C  
HETATM    5  C   UNL     1      -9.081   9.290  68.315  1.00  0.00    -0.128 C  
HETATM    6  C   UNL     1      -9.771   4.230  71.091  1.00  0.00    -0.259 C  
HETATM    7  O   UNL     1     -10.899   8.020  68.171  1.00  0.00    -0.430 OA 
HETATM    8  C   UNL     1      -8.745   7.524  67.793  1.00  0.00    -0.123 C  
HETATM    9  C   UNL     1      -9.026  10.368  67.272  1.00  0.00    -0.142 C  
HETATM   10  C   UNL     1      -9.559   8.256  71.233  1.00  0.00    -0.219 C  
HETATM   11  H   UNL     1     -11.831   8.046  67.988  1.00  0.00     0.000 HD 
HETATM   12  C   UNL     1      -9.231   6.383  69.034  1.00  0.00    -0.129 C  
HETATM   13  C   UNL     1      -9.158   6.724  70.673  1.00  0.00    -0.155 C  
HETATM   14  C   UNL     1      -9.711   5.651  71.620  1.00  0.00    -0.196 C  
HETATM   15  C   UNL     1      -9.980   5.935  72.918  1.00  0.00    -0.189 C  
HETATM   16  C   UNL     1      -9.796   7.306  73.545  1.00  0.00    -0.347 C  
HETATM   17  C   UNL     1     -10.457   4.895  73.910  1.00  0.00    -0.317 C  
HETATM   18  C   UNL     1      -9.084   8.350  72.681  1.00  0.00    -0.311 C  
HETATM   19  C   UNL     1     -10.761   3.570  73.248  1.00  0.00    -0.196 C  
HETATM   20  C   UNL     1      -9.812   3.150  72.164  1.00  0.00    -0.238 C  
HETATM   21  O   UNL     1     -11.655   2.825  73.652  1.00  0.00    -0.205 OA 
ENDROOT
BRANCH   4  22
HETATM   22  C   UNL     1     -11.094   9.996  69.251  1.00  0.00    -0.248 C  
HETATM   23  C   UNL     1     -11.855  10.916  69.332  1.00  0.00    -0.400 C  
ENDBRANCH   4  22
TORSDOF 1
ENDMDL
MODEL       62
REMARK 921   NORMALIZED FREE ENERGY PREDICTED BY IDOCK:   -4.63 KCAL/MOL
REMARK 922        TOTAL FREE ENERGY PREDICTED BY IDOCK:   -4.91 KCAL/MOL
REMARK 923 INTER-LIGAND FREE ENERGY PREDICTED BY IDOCK:   -4.91 KCAL/MOL
REMARK 924 INTRA-LIGAND FREE ENERGY PREDICTED BY IDOCK:   -0.00 KCAL/MOL
REMARK 927      BINDING AFFINITY PREDICTED BY RF-SCORE:    0.00 PKD
ROOT
HETATM    1  C   UNL     1      -7.508   7.495  67.473  1.00  0.00    -0.104 C  
HETATM    2  C   UNL     1      -6.504   6.827  68.216  1.00  0.00    -0.053 C  
HETATM    3  C   UNL     1      -7.751   6.069  67.964  1.00  0.00    -0.101 C  
HETATM    4  C   UNL     1      -9.048   6.954  66.637  1.00  0.00    -0.151 C  
HETATM    5  C   UNL     1      -8.120   5.979  66.399  1.00  0.00    -0.110 C  
HETATM    6  C   UNL     1     -12.034   6.631  70.647  1.00  0.00    -0.404 C  
HETATM    7  O   UNL     1     -10.262   6.466  66.064  1.00  0.00    -0.397 OA 
HETATM    8  C   UNL     1      -9.315   4.775  67.191  1.00  0.00    -0.147 C  
HETATM    9  C   UNL     1      -7.405   5.561  65.147  1.00  0.00    -0.068 C  
HETATM   10  C   UNL     1      -8.825   8.041  68.649  1.00  0.00    -0.134 C  
HETATM   11  H   UNL     1     -10.862   6.876  65.451  1.00  0.00     0.000 HD 
HETATM   12  C   UNL     1     -10.326   5.566  68.386  1.00  0.00    -0.243 C  
HETATM   13  C   UNL     1      -9.806   6.855  69.321  1.00  0.00    -0.159 C  
HETATM   14  C   UNL     1     -10.848   7.490  70.251  1.00  0.00    -0.257 C  
HETATM   15  C   UNL     1     -10.632   8.704  70.816  1.00  0.00    -0.254 C  
HETATM   16  C   UNL     1      -9.392   9.547  70.577  1.00  0.00    -0.296 C  
HETATM   17  C   UNL     1     -11.595   9.342  71.797  1.00  0.00    -0.458 C  
HETATM   18  C   UNL     1      -8.260   8.871  69.800  1.00  0.00    -0.119 C  
HETATM   19  C   UNL     1     -12.882   8.558  71.927  1.00  0.00    -0.363 C  
HETATM   20  C   UNL     1     -12.738   7.064  71.926  1.00  0.00    -0.314 C  
HETATM   21  O   UNL     1     -13.964   9.105  72.143  1.00  0.00    -0.424 OA 
ENDROOT
BRANCH   4  22
HETATM   22  C   UNL     1      -8.746   8.077  65.599  1.00  0.00    -0.156 C  
HETATM   23  C   UNL     1      -8.559   8.970  64.826  1.00  0.00    -0.201 C  
ENDBRANCH   4  22
TORSDOF 1
ENDMDL
MODEL       63
REMARK 921   NORMALIZED FREE ENERGY PREDICTED BY IDOCK:   -4.56 KCAL/MOL
REMARK 922        TOTAL FREE ENERGY PREDICTED BY IDOCK:   -4.84 KCAL/MOL
REMARK 923 INTER-LIGAND FREE ENERGY PREDICTED BY IDOCK:   -4.85 KCAL/MOL
REMARK 924 INTRA-LIGAND FREE ENERGY PREDICTED BY IDOCK:    0.01 KCAL/MOL
REMARK 927      BINDING AFFINITY PREDICTED BY RF-SCORE:    0.00 PKD
ROOT
HETATM    1  C   UNL     1      -8.824  10.971  68.854  1.00  0.00    -0.120 C  
HETATM    2  C   UNL     1      -7.525  10.773  68.325  1.00  0.00    -0.092 C  
HETATM    3  C   UNL     1      -8.606   9.944  67.745  1.00  0.00    -0.121 C  
HETATM    4  C   UNL     1     -10.507  10.472  68.322  1.00  0.00    -0.183 C  
HETATM    5  C   UNL     1      -9.834  10.823  67.185  1.00  0.00    -0.216 C  
HETATM    6  C   UNL     1     -10.438   5.717  69.895  1.00  0.00    -0.378 C  
HETATM    7  O   UNL     1     -11.776   9.994  67.876  1.00  0.00    -0.593 OA 
HETATM    8  C   UNL     1     -10.208   9.106  66.542  1.00  0.00    -0.322 C  
HETATM    9  C   UNL     1      -9.985  11.987  66.250  1.00  0.00    -0.249 C  
HETATM   10  C   UNL     1      -9.206   9.557  69.981  1.00  0.00    -0.264 C  
HETATM   11  H   UNL     1     -12.655  10.238  68.143  1.00  0.00     0.000 HD 
HETATM   12  C   UNL     1     -10.356   7.947  67.851  1.00  0.00    -0.281 C  
HETATM   13  C   UNL     1      -9.484   8.057  69.277  1.00  0.00    -0.155 C  
HETATM   14  C   UNL     1      -9.804   7.015  70.357  1.00  0.00    -0.184 C  
HETATM   15  C   UNL     1      -9.391   7.186  71.637  1.00  0.00    -0.158 C  
HETATM   16  C   UNL     1      -8.619   8.397  72.129  1.00  0.00    -0.257 C  
HETATM   17  C   UNL     1      -9.617   6.153  72.723  1.00  0.00    -0.158 C  
HETATM   18  C   UNL     1      -8.132   9.367  71.049  1.00  0.00    -0.020 C  
HETATM   19  C   UNL     1     -10.498   5.015  72.256  1.00  0.00    -0.214 C  
HETATM   20  C   UNL     1     -10.262   4.544  70.851  1.00  0.00    -0.170 C  
HETATM   21  O   UNL     1     -11.271   4.432  73.016  1.00  0.00    -0.208 OA 
ENDROOT
BRANCH   4  22
HETATM   22  C   UNL     1     -10.983  11.815  68.953  1.00  0.00    -0.288 C  
HETATM   23  C   UNL     1     -11.343  12.821  69.492  1.00  0.00    -0.223 C  
ENDBRANCH   4  22
TORSDOF 1
ENDMDL
MODEL       64
REMARK 921   NORMALIZED FREE ENERGY PREDICTED BY IDOCK:   -4.47 KCAL/MOL
REMARK 922        TOTAL FREE ENERGY PREDICTED BY IDOCK:   -4.74 KCAL/MOL
REMARK 923 INTER-LIGAND FREE ENERGY PREDICTED BY IDOCK:   -4.75 KCAL/MOL
REMARK 924 INTRA-LIGAND FREE ENERGY PREDICTED BY IDOCK:    0.01 KCAL/MOL
REMARK 927      BINDING AFFINITY PREDICTED BY RF-SCORE:    0.00 PKD
ROOT
HETATM    1  C   UNL     1      -9.505  13.133  68.408  1.00  0.00    -0.166 C  
HETATM    2  C   UNL     1      -8.465  13.981  67.954  1.00  0.00    -0.170 C  
HETATM    3  C   UNL     1      -9.338  13.394  66.912  1.00  0.00    -0.253 C  
HETATM    4  C   UNL     1     -11.005  12.423  67.625  1.00  0.00    -0.236 C  
HETATM    5  C   UNL     1     -10.900  13.704  67.160  1.00  0.00    -0.292 C  
HETATM    6  C   UNL     1      -8.854   8.667  65.102  1.00  0.00    -0.147 C  
HETATM    7  O   UNL     1     -12.117  11.859  66.929  1.00  0.00    -0.599 OA 
HETATM    8  C   UNL     1     -10.875  12.979  65.434  1.00  0.00    -0.304 C  
HETATM    9  C   UNL     1     -11.726  14.932  67.409  1.00  0.00    -0.311 C  
HETATM   10  C   UNL     1      -9.006  11.384  68.079  1.00  0.00    -0.163 C  
HETATM   11  H   UNL     1     -12.886  11.410  67.259  1.00  0.00     0.000 HD 
HETATM   12  C   UNL     1     -10.193  11.363  65.426  1.00  0.00    -0.320 C  
HETATM   13  C   UNL     1      -8.988  10.870  66.481  1.00  0.00    -0.178 C  
HETATM   14  C   UNL     1      -8.571   9.395  66.402  1.00  0.00    -0.144 C  
HETATM   15  C   UNL     1      -7.840   8.822  67.390  1.00  0.00    -0.098 C  
HETATM   16  C   UNL     1      -7.395   9.544  68.649  1.00  0.00    -0.075 C  
HETATM   17  C   UNL     1      -7.342   7.392  67.326  1.00  0.00    -0.098 C  
HETATM   18  C   UNL     1      -7.641  11.055  68.680  1.00  0.00    -0.124 C  
HETATM   19  C   UNL     1      -7.898   6.645  66.135  1.00  0.00    -0.102 C  
HETATM   20  C   UNL     1      -7.997   7.432  64.861  1.00  0.00    -0.128 C  
HETATM   21  O   UNL     1      -8.140   5.438  66.173  1.00  0.00    -0.104 OA 
ENDROOT
BRANCH   4  22
HETATM   22  C   UNL     1     -11.661  12.546  69.033  1.00  0.00    -0.368 C  
HETATM   23  C   UNL     1     -12.147  12.585  70.126  1.00  0.00    -0.368 C  
ENDBRANCH   4  22
TORSDOF 1
ENDMDL
MODEL       65
REMARK 921   NORMALIZED FREE ENERGY PREDICTED BY IDOCK:   -4.40 KCAL/MOL
REMARK 922        TOTAL FREE ENERGY PREDICTED BY IDOCK:   -4.67 KCAL/MOL
REMARK 923 INTER-LIGAND FREE ENERGY PREDICTED BY IDOCK:   -4.66 KCAL/MOL
REMARK 924 INTRA-LIGAND FREE ENERGY PREDICTED BY IDOCK:   -0.01 KCAL/MOL
REMARK 927      BINDING AFFINITY PREDICTED BY RF-SCORE:    0.00 PKD
ROOT
HETATM    1  C   UNL     1      -8.815   7.469  71.262  1.00  0.00    -0.137 C  
HETATM    2  C   UNL     1      -8.126   8.476  71.983  1.00  0.00    -0.175 C  
HETATM    3  C   UNL     1      -9.401   8.878  71.345  1.00  0.00    -0.338 C  
HETATM    4  C   UNL     1     -10.509   7.328  70.573  1.00  0.00    -0.217 C  
HETATM    5  C   UNL     1     -10.639   7.946  71.785  1.00  0.00    -0.276 C  
HETATM    6  C   UNL     1      -9.889  10.069  66.426  1.00  0.00    -0.283 C  
HETATM    7  O   UNL     1     -11.822   7.318  70.012  1.00  0.00    -0.524 OA 
HETATM    8  C   UNL     1     -11.466   9.357  70.875  1.00  0.00    -0.382 C  
HETATM    9  C   UNL     1     -11.232   7.488  73.086  1.00  0.00    -0.318 C  
HETATM   10  C   UNL     1      -8.549   7.771  69.459  1.00  0.00    -0.135 C  
HETATM   11  H   UNL     1     -12.334   6.601  69.656  1.00  0.00     0.000 HD 
HETATM   12  C   UNL     1     -10.883   9.487  69.225  1.00  0.00    -0.211 C  
HETATM   13  C   UNL     1      -9.319   9.096  68.771  1.00  0.00    -0.139 C  
HETATM   14  C   UNL     1      -9.001   9.176  67.272  1.00  0.00    -0.136 C  
HETATM   15  C   UNL     1      -7.883   8.602  66.763  1.00  0.00    -0.094 C  
HETATM   16  C   UNL     1      -6.874   7.822  67.588  1.00  0.00    -0.069 C  
HETATM   17  C   UNL     1      -7.487   8.715  65.305  1.00  0.00    -0.086 C  
HETATM   18  C   UNL     1      -7.066   7.871  69.106  1.00  0.00    -0.069 C  
HETATM   19  C   UNL     1      -8.559   9.379  64.470  1.00  0.00    -0.198 C  
HETATM   20  C   UNL     1      -9.265  10.534  65.117  1.00  0.00    -0.243 C  
HETATM   21  O   UNL     1      -8.757   9.073  63.294  1.00  0.00    -0.188 OA 
ENDROOT
BRANCH   4  22
HETATM   22  C   UNL     1     -10.391   5.807  70.894  1.00  0.00    -0.299 C  
HETATM   23  C   UNL     1     -10.354   4.632  71.115  1.00  0.00    -0.142 C  
ENDBRANCH   4  22
TORSDOF 1
ENDMDL
MODEL       66
REMARK 921   NORMALIZED FREE ENERGY PREDICTED BY IDOCK:   -4.40 KCAL/MOL
REMARK 922        TOTAL FREE ENERGY PREDICTED BY IDOCK:   -4.66 KCAL/MOL
REMARK 923 INTER-LIGAND FREE ENERGY PREDICTED BY IDOCK:   -4.66 KCAL/MOL
REMARK 924 INTRA-LIGAND FREE ENERGY PREDICTED BY IDOCK:   -0.00 KCAL/MOL
REMARK 927      BINDING AFFINITY PREDICTED BY RF-SCORE:    0.00 PKD
ROOT
HETATM    1  C   UNL     1      -9.495  12.768  68.238  1.00  0.00    -0.203 C  
HETATM    2  C   UNL     1      -8.559  13.269  67.300  1.00  0.00    -0.211 C  
HETATM    3  C   UNL     1      -9.491  12.228  66.809  1.00  0.00    -0.222 C  
HETATM    4  C   UNL     1     -11.016  11.751  68.102  1.00  0.00    -0.228 C  
HETATM    5  C   UNL     1     -11.037  12.614  67.044  1.00  0.00    -0.322 C  
HETATM    6  C   UNL     1      -8.889   7.243  67.602  1.00  0.00    -0.123 C  
HETATM    7  O   UNL     1     -12.152  10.905  67.922  1.00  0.00    -0.736 OA 
HETATM    8  C   UNL     1     -11.135  11.110  65.934  1.00  0.00    -0.105 C  
HETATM    9  C   UNL     1     -11.911  13.794  66.730  1.00  0.00    -0.465 C  
HETATM   10  C   UNL     1      -8.921  11.099  68.786  1.00  0.00    -0.136 C  
HETATM   11  H   UNL     1     -12.857  10.684  68.520  1.00  0.00     0.000 HD 
HETATM   12  C   UNL     1     -10.356   9.719  66.667  1.00  0.00    -0.276 C  
HETATM   13  C   UNL     1      -9.026   9.840  67.679  1.00  0.00    -0.133 C  
HETATM   14  C   UNL     1      -8.526   8.534  68.311  1.00  0.00    -0.135 C  
HETATM   15  C   UNL     1      -7.669   8.549  69.361  1.00  0.00    -0.092 C  
HETATM   16  C   UNL     1      -7.150   9.815  70.019  1.00  0.00    -0.118 C  
HETATM   17  C   UNL     1      -7.090   7.289  69.974  1.00  0.00    -0.066 C  
HETATM   18  C   UNL     1      -7.486  11.128  69.308  1.00  0.00    -0.076 C  
HETATM   19  C   UNL     1      -7.712   6.036  69.399  1.00  0.00    -0.098 C  
HETATM   20  C   UNL     1      -7.983   6.061  67.923  1.00  0.00    -0.106 C  
HETATM   21  O   UNL     1      -7.872   5.017  70.071  1.00  0.00    -0.068 OA 
ENDROOT
BRANCH   4  22
HETATM   22  C   UNL     1     -11.539  12.572  69.319  1.00  0.00    -0.378 C  
HETATM   23  C   UNL     1     -11.994  13.177  70.246  1.00  0.00    -0.366 C  
ENDBRANCH   4  22
TORSDOF 1
ENDMDL
MODEL       67
REMARK 921   NORMALIZED FREE ENERGY PREDICTED BY IDOCK:   -4.38 KCAL/MOL
REMARK 922        TOTAL FREE ENERGY PREDICTED BY IDOCK:   -4.64 KCAL/MOL
REMARK 923 INTER-LIGAND FREE ENERGY PREDICTED BY IDOCK:   -4.66 KCAL/MOL
REMARK 924 INTRA-LIGAND FREE ENERGY PREDICTED BY IDOCK:    0.02 KCAL/MOL
REMARK 927      BINDING AFFINITY PREDICTED BY RF-SCORE:    0.00 PKD
ROOT
HETATM    1  C   UNL     1      -9.704  11.978  66.091  1.00  0.00    -0.254 C  
HETATM    2  C   UNL     1     -10.351  11.004  65.290  1.00  0.00    -0.338 C  
HETATM    3  C   UNL     1     -10.903  11.213  66.648  1.00  0.00    -0.308 C  
HETATM    4  C   UNL     1     -10.134  12.831  67.656  1.00  0.00    -0.220 C  
HETATM    5  C   UNL     1     -11.291  12.750  66.933  1.00  0.00    -0.371 C  
HETATM    6  C   UNL     1      -8.943   9.186  70.879  1.00  0.00    -0.298 C  
HETATM    7  O   UNL     1     -10.511  13.408  68.907  1.00  0.00    -0.352 OA 
HETATM    8  C   UNL     1     -12.032  11.843  68.393  1.00  0.00    -0.246 C  
HETATM    9  C   UNL     1     -12.119  13.797  66.245  1.00  0.00    -0.484 C  
HETATM   10  C   UNL     1      -8.662  11.096  67.337  1.00  0.00    -0.133 C  
HETATM   11  H   UNL     1     -10.155  14.155  69.373  1.00  0.00     0.000 HD 
HETATM   12  C   UNL     1     -10.809  10.964  69.292  1.00  0.00    -0.286 C  
HETATM   13  C   UNL     1      -9.454  10.286  68.577  1.00  0.00    -0.158 C  
HETATM   14  C   UNL     1      -8.436   9.634  69.521  1.00  0.00    -0.162 C  
HETATM   15  C   UNL     1      -7.184   9.330  69.097  1.00  0.00    -0.067 C  
HETATM   16  C   UNL     1      -6.665   9.617  67.699  1.00  0.00    -0.066 C  
HETATM   17  C   UNL     1      -6.166   8.621  69.967  1.00  0.00    -0.034 C  
HETATM   18  C   UNL     1      -7.703  10.103  66.684  1.00  0.00    -0.106 C  
HETATM   19  C   UNL     1      -6.646   8.458  71.392  1.00  0.00    -0.060 C  
HETATM   20  C   UNL     1      -8.098   8.115  71.555  1.00  0.00    -0.141 C  
HETATM   21  O   UNL     1      -5.873   8.483  72.350  1.00  0.00    -0.055 OA 
ENDROOT
BRANCH   4  22
HETATM   22  C   UNL     1      -9.364  14.053  67.070  1.00  0.00    -0.256 C  
HETATM   23  C   UNL     1      -8.722  14.963  66.632  1.00  0.00    -0.262 C  
ENDBRANCH   4  22
TORSDOF 1
ENDMDL
MODEL       68
REMARK 921   NORMALIZED FREE ENERGY PREDICTED BY IDOCK:   -4.37 KCAL/MOL
REMARK 922        TOTAL FREE ENERGY PREDICTED BY IDOCK:   -4.64 KCAL/MOL
REMARK 923 INTER-LIGAND FREE ENERGY PREDICTED BY IDOCK:   -4.64 KCAL/MOL
REMARK 924 INTRA-LIGAND FREE ENERGY PREDICTED BY IDOCK:    0.00 KCAL/MOL
REMARK 927      BINDING AFFINITY PREDICTED BY RF-SCORE:    0.00 PKD
ROOT
HETATM    1  C   UNL     1      -8.977  11.739  65.624  1.00  0.00     0.045 C  
HETATM    2  C   UNL     1      -9.923  11.952  64.591  1.00  0.00    -0.257 C  
HETATM    3  C   UNL     1     -10.465  11.536  65.906  1.00  0.00    -0.303 C  
HETATM    4  C   UNL     1      -9.099  11.532  67.443  1.00  0.00    -0.166 C  
HETATM    5  C   UNL     1      -9.999  12.504  67.106  1.00  0.00    -0.217 C  
HETATM    6  C   UNL     1     -10.542   6.736  67.580  1.00  0.00    -0.348 C  
HETATM    7  O   UNL     1      -9.282  11.317  68.843  1.00  0.00    -0.320 OA 
HETATM    8  C   UNL     1     -11.314  11.435  67.902  1.00  0.00    -0.371 C  
HETATM    9  C   UNL     1     -10.022  13.982  67.368  1.00  0.00    -0.243 C  
HETATM   10  C   UNL     1      -8.768   9.916  65.843  1.00  0.00    -0.154 C  
HETATM   11  H   UNL     1      -8.651  11.315  69.553  1.00  0.00     0.000 HD 
HETATM   12  C   UNL     1     -10.902   9.733  67.808  1.00  0.00    -0.306 C  
HETATM   13  C   UNL     1     -10.040   9.066  66.535  1.00  0.00    -0.354 C  
HETATM   14  C   UNL     1      -9.683   7.579  66.655  1.00  0.00    -0.273 C  
HETATM   15  C   UNL     1      -8.747   7.017  65.851  1.00  0.00    -0.140 C  
HETATM   16  C   UNL     1      -7.960   7.779  64.799  1.00  0.00    -0.142 C  
HETATM   17  C   UNL     1      -8.410   5.540  65.880  1.00  0.00    -0.125 C  
HETATM   18  C   UNL     1      -8.412   9.217  64.532  1.00  0.00    -0.195 C  
HETATM   19  C   UNL     1      -9.102   4.818  67.015  1.00  0.00    -0.118 C  
HETATM   20  C   UNL     1     -10.515   5.241  67.290  1.00  0.00    -0.236 C  
HETATM   21  O   UNL     1      -8.585   3.863  67.594  1.00  0.00    -0.097 OA 
ENDROOT
BRANCH   4  22
HETATM   22  C   UNL     1      -7.717  12.249  67.505  1.00  0.00    -0.158 C  
HETATM   23  C   UNL     1      -6.630  12.747  67.557  1.00  0.00    -0.158 C  
ENDBRANCH   4  22
TORSDOF 1
ENDMDL
MODEL       69
REMARK 921   NORMALIZED FREE ENERGY PREDICTED BY IDOCK:   -4.36 KCAL/MOL
REMARK 922        TOTAL FREE ENERGY PREDICTED BY IDOCK:   -4.63 KCAL/MOL
REMARK 923 INTER-LIGAND FREE ENERGY PREDICTED BY IDOCK:   -4.66 KCAL/MOL
REMARK 924 INTRA-LIGAND FREE ENERGY PREDICTED BY IDOCK:    0.03 KCAL/MOL
REMARK 927      BINDING AFFINITY PREDICTED BY RF-SCORE:    0.00 PKD
ROOT
HETATM    1  C   UNL     1      -8.918  11.020  67.785  1.00  0.00    -0.140 C  
HETATM    2  C   UNL     1      -8.753  12.335  68.285  1.00  0.00    -0.178 C  
HETATM    3  C   UNL     1      -7.747  11.336  68.715  1.00  0.00    -0.138 C  
HETATM    4  C   UNL     1      -7.847   9.532  67.736  1.00  0.00    -0.095 C  
HETATM    5  C   UNL     1      -7.033  10.598  67.475  1.00  0.00    -0.083 C  
HETATM    6  C   UNL     1      -8.478   7.967  72.453  1.00  0.00    -0.211 C  
HETATM    7  O   UNL     1      -6.979   8.399  67.791  1.00  0.00    -0.072 OA 
HETATM    8  C   UNL     1      -6.007  10.058  68.944  1.00  0.00    -0.034 C  
HETATM    9  C   UNL     1      -6.322  11.035  66.227  1.00  0.00    -0.119 C  
HETATM   10  C   UNL     1      -9.611   9.973  69.141  1.00  0.00    -0.217 C  
HETATM   11  H   UNL     1      -7.025   7.565  67.338  1.00  0.00     0.000 HD 
HETATM   12  C   UNL     1      -6.985   9.227  70.140  1.00  0.00    -0.067 C  
HETATM   13  C   UNL     1      -8.595   9.592  70.424  1.00  0.00    -0.246 C  
HETATM   14  C   UNL     1      -9.330   8.705  71.437  1.00  0.00    -0.305 C  
HETATM   15  C   UNL     1     -10.683   8.711  71.520  1.00  0.00    -0.352 C  
HETATM   16  C   UNL     1     -11.587   9.545  70.630  1.00  0.00    -0.350 C  
HETATM   17  C   UNL     1     -11.452   7.910  72.551  1.00  0.00    -0.455 C  
HETATM   18  C   UNL     1     -10.887  10.569  69.731  1.00  0.00    -0.335 C  
HETATM   19  C   UNL     1     -10.554   6.985  73.343  1.00  0.00    -0.364 C  
HETATM   20  C   UNL     1      -9.213   7.544  73.717  1.00  0.00    -0.327 C  
HETATM   21  O   UNL     1     -10.943   5.893  73.759  1.00  0.00    -0.187 OA 
ENDROOT
BRANCH   4  22
HETATM   22  C   UNL     1      -8.552   9.208  66.384  1.00  0.00    -0.135 C  
HETATM   23  C   UNL     1      -9.145   8.973  65.371  1.00  0.00    -0.250 C  
ENDBRANCH   4  22
TORSDOF 1
ENDMDL
MODEL       70
REMARK 921   NORMALIZED FREE ENERGY PREDICTED BY IDOCK:   -4.35 KCAL/MOL
REMARK 922        TOTAL FREE ENERGY PREDICTED BY IDOCK:   -4.61 KCAL/MOL
REMARK 923 INTER-LIGAND FREE ENERGY PREDICTED BY IDOCK:   -4.61 KCAL/MOL
REMARK 924 INTRA-LIGAND FREE ENERGY PREDICTED BY IDOCK:   -0.01 KCAL/MOL
REMARK 927      BINDING AFFINITY PREDICTED BY RF-SCORE:    0.00 PKD
ROOT
HETATM    1  C   UNL     1      -7.009   9.983  65.913  1.00  0.00    -0.113 C  
HETATM    2  C   UNL     1      -6.325   9.368  66.990  1.00  0.00    -0.066 C  
HETATM    3  C   UNL     1      -7.785   9.133  66.917  1.00  0.00    -0.098 C  
HETATM    4  C   UNL     1      -8.681   9.785  65.185  1.00  0.00    -0.168 C  
HETATM    5  C   UNL     1      -8.248   8.527  65.498  1.00  0.00    -0.138 C  
HETATM    6  C   UNL     1     -11.300  12.429  68.538  1.00  0.00    -0.336 C  
HETATM    7  O   UNL     1     -10.019   9.618  64.715  1.00  0.00    -0.399 OA 
HETATM    8  C   UNL     1      -9.783   8.360  66.556  1.00  0.00    -0.330 C  
HETATM    9  C   UNL     1      -7.841   7.365  64.639  1.00  0.00    -0.123 C  
HETATM   10  C   UNL     1      -7.917  11.451  66.572  1.00  0.00    -0.128 C  
HETATM   11  H   UNL     1     -10.432   9.919  63.914  1.00  0.00     0.000 HD 
HETATM   12  C   UNL     1     -10.312   9.916  67.171  1.00  0.00    -0.304 C  
HETATM   13  C   UNL     1      -9.257  11.163  67.543  1.00  0.00    -0.155 C  
HETATM   14  C   UNL     1      -9.892  12.490  67.979  1.00  0.00    -0.214 C  
HETATM   15  C   UNL     1      -9.166  13.635  68.010  1.00  0.00    -0.197 C  
HETATM   16  C   UNL     1      -7.706  13.730  67.605  1.00  0.00    -0.187 C  
HETATM   17  C   UNL     1      -9.726  14.955  68.501  1.00  0.00    -0.215 C  
HETATM   18  C   UNL     1      -6.996  12.401  67.335  1.00  0.00    -0.149 C  
HETATM   19  C   UNL     1     -11.211  14.879  68.777  1.00  0.00    -0.275 C  
HETATM   20  C   UNL     1     -11.691  13.610  69.417  1.00  0.00    -0.379 C  
HETATM   21  O   UNL     1     -11.960  15.841  68.602  1.00  0.00    -0.344 OA 
ENDROOT
BRANCH   4  22
HETATM   22  C   UNL     1      -8.006  10.129  63.823  1.00  0.00    -0.153 C  
HETATM   23  C   UNL     1      -7.542  10.396  62.753  1.00  0.00    -0.137 C  
ENDBRANCH   4  22
TORSDOF 1
ENDMDL
MODEL       71
REMARK 921   NORMALIZED FREE ENERGY PREDICTED BY IDOCK:   -4.21 KCAL/MOL
REMARK 922        TOTAL FREE ENERGY PREDICTED BY IDOCK:   -4.47 KCAL/MOL
REMARK 923 INTER-LIGAND FREE ENERGY PREDICTED BY IDOCK:   -4.46 KCAL/MOL
REMARK 924 INTRA-LIGAND FREE ENERGY PREDICTED BY IDOCK:   -0.01 KCAL/MOL
REMARK 927      BINDING AFFINITY PREDICTED BY RF-SCORE:    0.00 PKD
ROOT
HETATM    1  C   UNL     1      -7.752   8.196  68.473  1.00  0.00    -0.112 C  
HETATM    2  C   UNL     1      -8.216   8.111  69.809  1.00  0.00    -0.122 C  
HETATM    3  C   UNL     1      -9.243   8.007  68.747  1.00  0.00    -0.143 C  
HETATM    4  C   UNL     1      -8.500   7.832  66.838  1.00  0.00    -0.125 C  
HETATM    5  C   UNL     1      -8.923   6.843  67.681  1.00  0.00    -0.116 C  
HETATM    6  C   UNL     1     -11.241  11.991  66.301  1.00  0.00    -0.394 C  
HETATM    7  O   UNL     1      -9.172   7.587  65.602  1.00  0.00    -0.388 OA 
HETATM    8  C   UNL     1     -10.673   7.348  67.251  1.00  0.00    -0.379 C  
HETATM    9  C   UNL     1      -8.597   5.380  67.752  1.00  0.00    -0.104 C  
HETATM   10  C   UNL     1      -8.163   9.878  67.829  1.00  0.00    -0.114 C  
HETATM   11  H   UNL     1      -8.828   7.506  64.720  1.00  0.00     0.000 HD 
HETATM   12  C   UNL     1     -10.767   9.050  66.836  1.00  0.00    -0.150 C  
HETATM   13  C   UNL     1      -9.779  10.218  67.520  1.00  0.00    -0.196 C  
HETATM   14  C   UNL     1      -9.927  11.644  66.976  1.00  0.00    -0.226 C  
HETATM   15  C   UNL     1      -8.991  12.591  67.231  1.00  0.00    -0.192 C  
HETATM   16  C   UNL     1      -7.724  12.343  68.031  1.00  0.00    -0.135 C  
HETATM   17  C   UNL     1      -9.125  14.031  66.778  1.00  0.00    -0.250 C  
HETATM   18  C   UNL     1      -7.629  10.986  68.735  1.00  0.00    -0.127 C  
HETATM   19  C   UNL     1     -10.320  14.236  65.874  1.00  0.00    -0.314 C  
HETATM   20  C   UNL     1     -11.560  13.480  66.250  1.00  0.00    -0.374 C  
HETATM   21  O   UNL     1     -10.316  15.063  64.961  1.00  0.00    -0.387 OA 
ENDROOT
BRANCH   4  22
HETATM   22  C   UNL     1      -7.064   7.417  66.399  1.00  0.00    -0.074 C  
HETATM   23  C   UNL     1      -5.968   7.132  66.012  1.00  0.00    -0.036 C  
ENDBRANCH   4  22
TORSDOF 1
ENDMDL
MODEL       72
REMARK 921   NORMALIZED FREE ENERGY PREDICTED BY IDOCK:   -4.21 KCAL/MOL
REMARK 922        TOTAL FREE ENERGY PREDICTED BY IDOCK:   -4.46 KCAL/MOL
REMARK 923 INTER-LIGAND FREE ENERGY PREDICTED BY IDOCK:   -4.46 KCAL/MOL
REMARK 924 INTRA-LIGAND FREE ENERGY PREDICTED BY IDOCK:   -0.00 KCAL/MOL
REMARK 927      BINDING AFFINITY PREDICTED BY RF-SCORE:    0.00 PKD
ROOT
HETATM    1  C   UNL     1      -9.677  10.411  68.087  1.00  0.00    -0.165 C  
HETATM    2  C   UNL     1      -8.899  10.235  69.258  1.00  0.00    -0.186 C  
HETATM    3  C   UNL     1      -8.175  10.159  67.969  1.00  0.00    -0.113 C  
HETATM    4  C   UNL     1      -9.274  10.716  66.324  1.00  0.00    -0.170 C  
HETATM    5  C   UNL     1      -8.394  11.465  67.052  1.00  0.00    -0.161 C  
HETATM    6  C   UNL     1      -8.065   6.042  64.988  1.00  0.00    -0.133 C  
HETATM    7  O   UNL     1      -8.880  10.890  64.962  1.00  0.00    -0.236 OA 
HETATM    8  C   UNL     1      -7.022  10.547  66.170  1.00  0.00    -0.131 C  
HETATM    9  C   UNL     1      -8.257  12.948  67.242  1.00  0.00    -0.176 C  
HETATM   10  C   UNL     1      -9.937   8.752  67.316  1.00  0.00    -0.281 C  
HETATM   11  H   UNL     1      -9.389  11.147  64.202  1.00  0.00     0.000 HD 
HETATM   12  C   UNL     1      -7.526   8.934  65.702  1.00  0.00    -0.086 C  
HETATM   13  C   UNL     1      -8.613   8.018  66.589  1.00  0.00    -0.141 C  
HETATM   14  C   UNL     1      -9.019   6.665  65.989  1.00  0.00    -0.131 C  
HETATM   15  C   UNL     1     -10.098   5.990  66.455  1.00  0.00    -0.191 C  
HETATM   16  C   UNL     1     -11.005   6.493  67.563  1.00  0.00    -0.444 C  
HETATM   17  C   UNL     1     -10.497   4.619  65.947  1.00  0.00    -0.305 C  
HETATM   18  C   UNL     1     -10.532   7.748  68.301  1.00  0.00    -0.215 C  
HETATM   19  C   UNL     1      -9.668   4.186  64.758  1.00  0.00    -0.184 C  
HETATM   20  C   UNL     1      -8.211   4.535  64.819  1.00  0.00    -0.108 C  
HETATM   21  O   UNL     1     -10.132   3.485  63.857  1.00  0.00    -0.169 OA 
ENDROOT
BRANCH   4  22
HETATM   22  C   UNL     1     -10.592  11.548  66.283  1.00  0.00    -0.309 C  
HETATM   23  C   UNL     1     -11.628  12.144  66.218  1.00  0.00    -0.424 C  
ENDBRANCH   4  22
TORSDOF 1
ENDMDL
MODEL       73
REMARK 921   NORMALIZED FREE ENERGY PREDICTED BY IDOCK:   -4.17 KCAL/MOL
REMARK 922        TOTAL FREE ENERGY PREDICTED BY IDOCK:   -4.43 KCAL/MOL
REMARK 923 INTER-LIGAND FREE ENERGY PREDICTED BY IDOCK:   -4.45 KCAL/MOL
REMARK 924 INTRA-LIGAND FREE ENERGY PREDICTED BY IDOCK:    0.02 KCAL/MOL
REMARK 927      BINDING AFFINITY PREDICTED BY RF-SCORE:    0.00 PKD
ROOT
HETATM    1  C   UNL     1     -10.841   7.252  70.188  1.00  0.00    -0.274 C  
HETATM    2  C   UNL     1     -12.139   6.784  70.510  1.00  0.00    -0.332 C  
HETATM    3  C   UNL     1     -11.004   5.984  71.024  1.00  0.00    -0.350 C  
HETATM    4  C   UNL     1      -9.156   6.855  70.794  1.00  0.00    -0.154 C  
HETATM    5  C   UNL     1      -9.967   6.859  71.894  1.00  0.00    -0.183 C  
HETATM    6  C   UNL     1      -8.405   2.600  68.259  1.00  0.00    -0.088 C  
HETATM    7  O   UNL     1      -7.874   6.447  71.273  1.00  0.00    -0.101 OA 
HETATM    8  C   UNL     1      -9.407   5.099  72.200  1.00  0.00    -0.162 C  
HETATM    9  C   UNL     1     -10.066   7.793  73.064  1.00  0.00    -0.382 C  
HETATM   10  C   UNL     1     -10.164   6.183  68.841  1.00  0.00    -0.232 C  
HETATM   11  H   UNL     1      -7.020   6.850  71.166  1.00  0.00     0.000 HD 
HETATM   12  C   UNL     1      -8.982   4.290  70.703  1.00  0.00    -0.155 C  
HETATM   13  C   UNL     1      -9.735   4.610  69.241  1.00  0.00    -0.266 C  
HETATM   14  C   UNL     1      -9.177   3.882  68.011  1.00  0.00    -0.212 C  
HETATM   15  C   UNL     1      -9.499   4.283  66.756  1.00  0.00    -0.202 C  
HETATM   16  C   UNL     1     -10.392   5.471  66.444  1.00  0.00    -0.272 C  
HETATM   17  C   UNL     1      -9.034   3.556  65.511  1.00  0.00    -0.141 C  
HETATM   18  C   UNL     1     -11.104   6.108  67.640  1.00  0.00    -0.311 C  
HETATM   19  C   UNL     1      -8.042   2.458  65.826  1.00  0.00    -0.085 C  
HETATM   20  C   UNL     1      -8.327   1.659  67.064  1.00  0.00    -0.083 C  
HETATM   21  O   UNL     1      -7.130   2.158  65.055  1.00  0.00    -0.050 OA 
ENDROOT
BRANCH   4  22
HETATM   22  C   UNL     1      -8.826   8.353  70.518  1.00  0.00    -0.156 C  
HETATM   23  C   UNL     1      -8.583   9.494  70.248  1.00  0.00    -0.258 C  
ENDBRANCH   4  22
TORSDOF 1
ENDMDL
MODEL       74
REMARK 921   NORMALIZED FREE ENERGY PREDICTED BY IDOCK:   -4.12 KCAL/MOL
REMARK 922        TOTAL FREE ENERGY PREDICTED BY IDOCK:   -4.37 KCAL/MOL
REMARK 923 INTER-LIGAND FREE ENERGY PREDICTED BY IDOCK:   -4.41 KCAL/MOL
REMARK 924 INTRA-LIGAND FREE ENERGY PREDICTED BY IDOCK:    0.04 KCAL/MOL
REMARK 927      BINDING AFFINITY PREDICTED BY RF-SCORE:    0.00 PKD
ROOT
HETATM    1  C   UNL     1      -8.589   7.908  67.817  1.00  0.00    -0.128 C  
HETATM    2  C   UNL     1      -9.506   6.983  67.260  1.00  0.00    -0.165 C  
HETATM    3  C   UNL     1      -8.978   8.020  66.343  1.00  0.00    -0.204 C  
HETATM    4  C   UNL     1      -7.435   9.145  67.106  1.00  0.00    -0.087 C  
HETATM    5  C   UNL     1      -7.368   8.047  66.294  1.00  0.00    -0.078 C  
HETATM    6  C   UNL     1     -10.725  12.789  66.111  1.00  0.00    -0.297 C  
HETATM    7  O   UNL     1      -6.609  10.127  66.480  1.00  0.00    -0.071 OA 
HETATM    8  C   UNL     1      -7.861   9.174  64.883  1.00  0.00    -0.117 C  
HETATM    9  C   UNL     1      -6.282   7.039  66.059  1.00  0.00    -0.036 C  
HETATM   10  C   UNL     1      -9.479   9.504  68.093  1.00  0.00    -0.145 C  
HETATM   11  H   UNL     1      -5.896  10.647  66.833  1.00  0.00     0.000 HD 
HETATM   12  C   UNL     1      -8.840  10.517  65.444  1.00  0.00    -0.203 C  
HETATM   13  C   UNL     1      -9.899  10.403  66.738  1.00  0.00    -0.242 C  
HETATM   14  C   UNL     1     -10.609  11.696  67.157  1.00  0.00    -0.269 C  
HETATM   15  C   UNL     1     -11.240  11.791  68.353  1.00  0.00    -0.307 C  
HETATM   16  C   UNL     1     -11.288  10.675  69.382  1.00  0.00    -0.348 C  
HETATM   17  C   UNL     1     -12.016  13.019  68.784  1.00  0.00    -0.302 C  
HETATM   18  C   UNL     1     -10.745   9.318  68.927  1.00  0.00    -0.182 C  
HETATM   19  C   UNL     1     -11.853  14.168  67.813  1.00  0.00    -0.379 C  
HETATM   20  C   UNL     1     -11.841  13.795  66.360  1.00  0.00    -0.434 C  
HETATM   21  O   UNL     1     -11.854  15.343  68.183  1.00  0.00    -0.320 OA 
ENDROOT
BRANCH   4  22
HETATM   22  C   UNL     1      -6.514   8.818  68.320  1.00  0.00    -0.060 C  
HETATM   23  C   UNL     1      -5.774   8.535  69.216  1.00  0.00    -0.035 C  
ENDBRANCH   4  22
TORSDOF 1
ENDMDL
MODEL       75
REMARK 921   NORMALIZED FREE ENERGY PREDICTED BY IDOCK:   -4.11 KCAL/MOL
REMARK 922        TOTAL FREE ENERGY PREDICTED BY IDOCK:   -4.36 KCAL/MOL
REMARK 923 INTER-LIGAND FREE ENERGY PREDICTED BY IDOCK:   -4.35 KCAL/MOL
REMARK 924 INTRA-LIGAND FREE ENERGY PREDICTED BY IDOCK:   -0.01 KCAL/MOL
REMARK 927      BINDING AFFINITY PREDICTED BY RF-SCORE:    0.00 PKD
ROOT
HETATM    1  C   UNL     1      -8.940  10.313  69.518  1.00  0.00    -0.176 C  
HETATM    2  C   UNL     1      -7.670  10.850  69.190  1.00  0.00    -0.127 C  
HETATM    3  C   UNL     1      -8.573  10.553  68.054  1.00  0.00    -0.121 C  
HETATM    4  C   UNL     1     -10.499  10.065  68.584  1.00  0.00    -0.204 C  
HETATM    5  C   UNL     1     -10.006  11.277  68.191  1.00  0.00    -0.191 C  
HETATM    6  C   UNL     1      -9.240   5.923  66.062  1.00  0.00    -0.143 C  
HETATM    7  O   UNL     1     -11.655   9.848  67.774  1.00  0.00    -0.542 OA 
HETATM    8  C   UNL     1     -10.025  10.616  66.440  1.00  0.00    -0.273 C  
HETATM    9  C   UNL     1     -10.484  12.680  68.433  1.00  0.00    -0.248 C  
HETATM   10  C   UNL     1      -8.910   8.503  69.146  1.00  0.00    -0.142 C  
HETATM   11  H   UNL     1     -12.545   9.622  68.020  1.00  0.00     0.000 HD 
HETATM   12  C   UNL     1      -9.813   8.875  66.408  1.00  0.00    -0.353 C  
HETATM   13  C   UNL     1      -8.889   8.042  67.531  1.00  0.00    -0.129 C  
HETATM   14  C   UNL     1      -8.886   6.513  67.415  1.00  0.00    -0.115 C  
HETATM   15  C   UNL     1      -8.433   5.736  68.429  1.00  0.00    -0.110 C  
HETATM   16  C   UNL     1      -7.922   6.275  69.753  1.00  0.00    -0.118 C  
HETATM   17  C   UNL     1      -8.341   4.226  68.337  1.00  0.00    -0.098 C  
HETATM   18  C   UNL     1      -7.747   7.794  69.837  1.00  0.00    -0.095 C  
HETATM   19  C   UNL     1      -8.971   3.691  67.070  1.00  0.00    -0.144 C  
HETATM   20  C   UNL     1      -8.735   4.505  65.831  1.00  0.00    -0.119 C  
HETATM   21  O   UNL     1      -9.536   2.598  67.030  1.00  0.00    -0.103 OA 
ENDROOT
BRANCH   4  22
HETATM   22  C   UNL     1     -11.221  10.330  69.939  1.00  0.00    -0.360 C  
HETATM   23  C   UNL     1     -11.818  10.496  70.963  1.00  0.00    -0.438 C  
ENDBRANCH   4  22
TORSDOF 1
ENDMDL
MODEL       76
REMARK 921   NORMALIZED FREE ENERGY PREDICTED BY IDOCK:   -4.10 KCAL/MOL
REMARK 922        TOTAL FREE ENERGY PREDICTED BY IDOCK:   -4.35 KCAL/MOL
REMARK 923 INTER-LIGAND FREE ENERGY PREDICTED BY IDOCK:   -4.37 KCAL/MOL
REMARK 924 INTRA-LIGAND FREE ENERGY PREDICTED BY IDOCK:    0.02 KCAL/MOL
REMARK 927      BINDING AFFINITY PREDICTED BY RF-SCORE:    0.00 PKD
ROOT
HETATM    1  C   UNL     1     -10.160  14.796  67.033  1.00  0.00    -0.245 C  
HETATM    2  C   UNL     1      -9.554  14.983  65.767  1.00  0.00    -0.327 C  
HETATM    3  C   UNL     1      -9.996  13.606  66.089  1.00  0.00    -0.314 C  
HETATM    4  C   UNL     1     -11.133  13.439  67.793  1.00  0.00    -0.268 C  
HETATM    5  C   UNL     1     -11.552  13.531  66.495  1.00  0.00    -0.391 C  
HETATM    6  C   UNL     1      -7.366  10.360  68.986  1.00  0.00    -0.097 C  
HETATM    7  O   UNL     1     -11.829  12.315  68.335  1.00  0.00    -0.317 OA 
HETATM    8  C   UNL     1     -11.071  11.732  66.307  1.00  0.00    -0.364 C  
HETATM    9  C   UNL     1     -12.846  13.993  65.890  1.00  0.00    -0.354 C  
HETATM   10  C   UNL     1      -8.928  13.983  68.145  1.00  0.00    -0.183 C  
HETATM   11  H   UNL     1     -12.354  12.238  69.122  1.00  0.00     0.000 HD 
HETATM   12  C   UNL     1      -9.759  11.301  67.390  1.00  0.00    -0.190 C  
HETATM   13  C   UNL     1      -8.554  12.373  67.844  1.00  0.00    -0.171 C  
HETATM   14  C   UNL     1      -7.536  11.863  68.872  1.00  0.00    -0.036 C  
HETATM   15  C   UNL     1      -6.717  12.720  69.529  1.00  0.00     0.032 C  
HETATM   16  C   UNL     1      -6.736  14.227  69.345  1.00  0.00    -0.130 C  
HETATM   17  C   UNL     1      -5.647  12.261  70.499  1.00  0.00    -0.168 C  
HETATM   18  C   UNL     1      -7.612  14.754  68.205  1.00  0.00    -0.121 C  
HETATM   19  C   UNL     1      -5.722  10.775  70.773  1.00  0.00    -0.099 C  
HETATM   20  C   UNL     1      -6.042   9.910  69.590  1.00  0.00    -0.042 C  
HETATM   21  O   UNL     1      -5.421  10.295  71.866  1.00  0.00    -0.269 OA 
ENDROOT
BRANCH   4  22
HETATM   22  C   UNL     1     -11.896  14.564  68.556  1.00  0.00    -0.355 C  
HETATM   23  C   UNL     1     -12.532  15.402  69.125  1.00  0.00     0.041 C  
ENDBRANCH   4  22
TORSDOF 1
ENDMDL
MODEL       77
REMARK 921   NORMALIZED FREE ENERGY PREDICTED BY IDOCK:   -4.09 KCAL/MOL
REMARK 922        TOTAL FREE ENERGY PREDICTED BY IDOCK:   -4.34 KCAL/MOL
REMARK 923 INTER-LIGAND FREE ENERGY PREDICTED BY IDOCK:   -4.33 KCAL/MOL
REMARK 924 INTRA-LIGAND FREE ENERGY PREDICTED BY IDOCK:   -0.01 KCAL/MOL
REMARK 927      BINDING AFFINITY PREDICTED BY RF-SCORE:    0.00 PKD
ROOT
HETATM    1  C   UNL     1      -7.981   9.774  67.660  1.00  0.00    -0.105 C  
HETATM    2  C   UNL     1      -6.583   9.744  67.889  1.00  0.00    -0.061 C  
HETATM    3  C   UNL     1      -7.197   8.489  67.398  1.00  0.00    -0.084 C  
HETATM    4  C   UNL     1      -9.155   8.662  66.795  1.00  0.00    -0.149 C  
HETATM    5  C   UNL     1      -8.023   8.694  66.030  1.00  0.00    -0.107 C  
HETATM    6  C   UNL     1      -9.671   5.167  70.346  1.00  0.00    -0.270 C  
HETATM    7  O   UNL     1     -10.015   7.717  66.157  1.00  0.00    -0.456 OA 
HETATM    8  C   UNL     1      -7.955   6.833  66.215  1.00  0.00    -0.108 C  
HETATM    9  C   UNL     1      -7.741   9.290  64.681  1.00  0.00    -0.116 C  
HETATM   10  C   UNL     1      -8.810   8.891  69.055  1.00  0.00    -0.136 C  
HETATM   11  H   UNL     1     -10.920   7.797  65.879  1.00  0.00     0.000 HD 
HETATM   12  C   UNL     1      -8.683   6.310  67.723  1.00  0.00    -0.113 C  
HETATM   13  C   UNL     1      -8.638   7.221  69.128  1.00  0.00    -0.133 C  
HETATM   14  C   UNL     1      -9.406   6.661  70.333  1.00  0.00    -0.160 C  
HETATM   15  C   UNL     1      -9.689   7.440  71.405  1.00  0.00    -0.175 C  
HETATM   16  C   UNL     1      -9.315   8.907  71.515  1.00  0.00    -0.335 C  
HETATM   17  C   UNL     1     -10.380   6.916  72.648  1.00  0.00    -0.228 C  
HETATM   18  C   UNL     1      -8.400   9.451  70.415  1.00  0.00    -0.234 C  
HETATM   19  C   UNL     1     -10.863   5.493  72.477  1.00  0.00    -0.252 C  
HETATM   20  C   UNL     1      -9.942   4.578  71.724  1.00  0.00    -0.264 C  
HETATM   21  O   UNL     1     -11.886   5.078  73.024  1.00  0.00    -0.269 OA 
ENDROOT
BRANCH   4  22
HETATM   22  C   UNL     1      -9.939   9.959  66.429  1.00  0.00    -0.309 C  
HETATM   23  C   UNL     1     -10.587  10.920  66.133  1.00  0.00    -0.270 C  
ENDBRANCH   4  22
TORSDOF 1
ENDMDL
MODEL       78
REMARK 921   NORMALIZED FREE ENERGY PREDICTED BY IDOCK:   -4.09 KCAL/MOL
REMARK 922        TOTAL FREE ENERGY PREDICTED BY IDOCK:   -4.34 KCAL/MOL
REMARK 923 INTER-LIGAND FREE ENERGY PREDICTED BY IDOCK:   -4.38 KCAL/MOL
REMARK 924 INTRA-LIGAND FREE ENERGY PREDICTED BY IDOCK:    0.04 KCAL/MOL
REMARK 927      BINDING AFFINITY PREDICTED BY RF-SCORE:    0.00 PKD
ROOT
HETATM    1  C   UNL     1      -6.463  10.142  67.524  1.00  0.00    -0.066 C  
HETATM    2  C   UNL     1      -5.354  10.883  67.047  1.00  0.00    -0.052 C  
HETATM    3  C   UNL     1      -6.395  11.649  67.771  1.00  0.00    -0.067 C  
HETATM    4  C   UNL     1      -7.824  10.499  68.701  1.00  0.00    -0.116 C  
HETATM    5  C   UNL     1      -6.697  11.056  69.238  1.00  0.00    -0.099 C  
HETATM    6  C   UNL     1     -10.759  13.221  65.688  1.00  0.00    -0.292 C  
HETATM    7  O   UNL     1      -8.885  10.874  69.580  1.00  0.00    -0.373 OA 
HETATM    8  C   UNL     1      -7.613  12.688  69.238  1.00  0.00     0.378 C  
HETATM    9  C   UNL     1      -5.877  10.694  70.442  1.00  0.00    -0.108 C  
HETATM   10  C   UNL     1      -7.897  10.470  66.404  1.00  0.00    -0.138 C  
HETATM   11  H   UNL     1      -9.546  10.343  70.010  1.00  0.00     0.000 HD 
HETATM   12  C   UNL     1      -8.804  12.758  67.952  1.00  0.00    -0.186 C  
HETATM   13  C   UNL     1      -8.605  11.991  66.475  1.00  0.00    -0.100 C  
HETATM   14  C   UNL     1      -9.784  12.074  65.497  1.00  0.00    -0.221 C  
HETATM   15  C   UNL     1      -9.857  11.255  64.419  1.00  0.00    -0.316 C  
HETATM   16  C   UNL     1      -8.831  10.186  64.090  1.00  0.00    -0.243 C  
HETATM   17  C   UNL     1     -10.961  11.346  63.386  1.00  0.00    -0.342 C  
HETATM   18  C   UNL     1      -7.557  10.193  64.941  1.00  0.00    -0.138 C  
HETATM   19  C   UNL     1     -12.045  12.321  63.789  1.00  0.00    -0.532 C  
HETATM   20  C   UNL     1     -11.572  13.582  64.452  1.00  0.00    -0.429 C  
HETATM   21  O   UNL     1     -13.226  12.151  63.486  1.00  0.00    -0.744 OA 
ENDROOT
BRANCH   4  22
HETATM   22  C   UNL     1      -7.754   8.986  69.066  1.00  0.00    -0.089 C  
HETATM   23  C   UNL     1      -7.666   7.838  69.393  1.00  0.00    -0.106 C  
ENDBRANCH   4  22
TORSDOF 1
ENDMDL
MODEL       79
REMARK 921   NORMALIZED FREE ENERGY PREDICTED BY IDOCK:   -4.06 KCAL/MOL
REMARK 922        TOTAL FREE ENERGY PREDICTED BY IDOCK:   -4.31 KCAL/MOL
REMARK 923 INTER-LIGAND FREE ENERGY PREDICTED BY IDOCK:   -4.30 KCAL/MOL
REMARK 924 INTRA-LIGAND FREE ENERGY PREDICTED BY IDOCK:   -0.01 KCAL/MOL
REMARK 927      BINDING AFFINITY PREDICTED BY RF-SCORE:    0.00 PKD
ROOT
HETATM    1  C   UNL     1     -11.055   7.412  70.981  1.00  0.00    -0.277 C  
HETATM    2  C   UNL     1     -12.345   6.978  70.585  1.00  0.00    -0.239 C  
HETATM    3  C   UNL     1     -11.202   6.163  70.113  1.00  0.00    -0.452 C  
HETATM    4  C   UNL     1      -9.389   6.646  70.952  1.00  0.00    -0.157 C  
HETATM    5  C   UNL     1     -10.258   5.657  71.316  1.00  0.00    -0.279 C  
HETATM    6  C   UNL     1      -8.295   7.353  66.115  1.00  0.00    -0.139 C  
HETATM    7  O   UNL     1      -8.116   6.007  70.839  1.00  0.00    -0.116 OA 
HETATM    8  C   UNL     1      -9.631   4.688  69.842  1.00  0.00    -0.261 C  
HETATM    9  C   UNL     1     -10.465   4.932  72.614  1.00  0.00    -0.261 C  
HETATM   10  C   UNL     1     -10.255   8.230  69.530  1.00  0.00    -0.210 C  
HETATM   11  H   UNL     1      -7.279   6.231  71.227  1.00  0.00     0.000 HD 
HETATM   12  C   UNL     1      -9.086   5.752  68.559  1.00  0.00    -0.116 C  
HETATM   13  C   UNL     1      -9.772   7.250  68.254  1.00  0.00    -0.152 C  
HETATM   14  C   UNL     1      -9.114   8.094  67.155  1.00  0.00    -0.163 C  
HETATM   15  C   UNL     1      -9.386   9.417  67.033  1.00  0.00    -0.185 C  
HETATM   16  C   UNL     1     -10.317  10.184  67.954  1.00  0.00    -0.234 C  
HETATM   17  C   UNL     1      -8.819  10.278  65.922  1.00  0.00    -0.176 C  
HETATM   18  C   UNL     1     -11.123   9.343  68.947  1.00  0.00    -0.003 C  
HETATM   19  C   UNL     1      -7.794   9.538  65.091  1.00  0.00    -0.113 C  
HETATM   20  C   UNL     1      -8.107   8.099  64.800  1.00  0.00    -0.152 C  
HETATM   21  O   UNL     1      -6.828  10.108  64.583  1.00  0.00    -0.128 OA 
ENDROOT
BRANCH   4  22
HETATM   22  C   UNL     1      -9.117   7.459  72.254  1.00  0.00    -0.160 C  
HETATM   23  C   UNL     1      -8.857   8.103  73.229  1.00  0.00    -0.324 C  
ENDBRANCH   4  22
TORSDOF 1
ENDMDL
MODEL       80
REMARK 921   NORMALIZED FREE ENERGY PREDICTED BY IDOCK:   -4.02 KCAL/MOL
REMARK 922        TOTAL FREE ENERGY PREDICTED BY IDOCK:   -4.26 KCAL/MOL
REMARK 923 INTER-LIGAND FREE ENERGY PREDICTED BY IDOCK:   -4.28 KCAL/MOL
REMARK 924 INTRA-LIGAND FREE ENERGY PREDICTED BY IDOCK:    0.01 KCAL/MOL
REMARK 927      BINDING AFFINITY PREDICTED BY RF-SCORE:    0.00 PKD
ROOT
HETATM    1  C   UNL     1      -8.569   6.343  65.964  1.00  0.00    -0.149 C  
HETATM    2  C   UNL     1      -7.278   6.909  65.823  1.00  0.00    -0.073 C  
HETATM    3  C   UNL     1      -7.529   6.144  67.066  1.00  0.00    -0.087 C  
HETATM    4  C   UNL     1      -9.296   5.094  67.094  1.00  0.00    -0.124 C  
HETATM    5  C   UNL     1      -8.044   4.645  66.782  1.00  0.00    -0.103 C  
HETATM    6  C   UNL     1      -9.975   7.996  71.120  1.00  0.00    -0.206 C  
HETATM    7  O   UNL     1      -9.804   4.161  68.049  1.00  0.00    -0.122 OA 
HETATM    8  C   UNL     1      -7.688   4.635  68.620  1.00  0.00    -0.072 C  
HETATM    9  C   UNL     1      -7.572   3.484  65.955  1.00  0.00    -0.081 C  
HETATM   10  C   UNL     1      -9.523   7.380  67.159  1.00  0.00    -0.187 C  
HETATM   11  H   UNL     1     -10.620   3.676  68.062  1.00  0.00     0.000 HD 
HETATM   12  C   UNL     1      -8.635   5.847  69.464  1.00  0.00    -0.117 C  
HETATM   13  C   UNL     1      -9.077   7.310  68.777  1.00  0.00    -0.127 C  
HETATM   14  C   UNL     1      -9.986   8.214  69.619  1.00  0.00    -0.193 C  
HETATM   15  C   UNL     1     -10.642   9.261  69.060  1.00  0.00    -0.225 C  
HETATM   16  C   UNL     1     -10.572   9.621  67.587  1.00  0.00    -0.334 C  
HETATM   17  C   UNL     1     -11.493  10.226  69.860  1.00  0.00    -0.340 C  
HETATM   18  C   UNL     1      -9.541   8.852  66.755  1.00  0.00    -0.262 C  
HETATM   19  C   UNL     1     -11.661   9.784  71.297  1.00  0.00    -0.394 C  
HETATM   20  C   UNL     1     -10.444   9.190  71.943  1.00  0.00    -0.280 C  
HETATM   21  O   UNL     1     -12.691  10.008  71.934  1.00  0.00    -0.395 OA 
ENDROOT
BRANCH   4  22
HETATM   22  C   UNL     1     -10.195   4.689  65.887  1.00  0.00    -0.303 C  
HETATM   23  C   UNL     1     -10.880   4.321  64.978  1.00  0.00    -0.102 C  
ENDBRANCH   4  22
TORSDOF 1
ENDMDL
MODEL       81
REMARK 921   NORMALIZED FREE ENERGY PREDICTED BY IDOCK:   -4.00 KCAL/MOL
REMARK 922        TOTAL FREE ENERGY PREDICTED BY IDOCK:   -4.25 KCAL/MOL
REMARK 923 INTER-LIGAND FREE ENERGY PREDICTED BY IDOCK:   -4.26 KCAL/MOL
REMARK 924 INTRA-LIGAND FREE ENERGY PREDICTED BY IDOCK:    0.02 KCAL/MOL
REMARK 927      BINDING AFFINITY PREDICTED BY RF-SCORE:    0.00 PKD
ROOT
HETATM    1  C   UNL     1      -7.290   6.333  68.270  1.00  0.00    -0.086 C  
HETATM    2  C   UNL     1      -6.286   6.160  69.255  1.00  0.00    -0.041 C  
HETATM    3  C   UNL     1      -7.516   5.350  69.418  1.00  0.00    -0.070 C  
HETATM    4  C   UNL     1      -8.807   5.405  67.820  1.00  0.00    -0.105 C  
HETATM    5  C   UNL     1      -7.858   4.467  68.115  1.00  0.00    -0.080 C  
HETATM    6  C   UNL     1     -11.849   7.099  71.421  1.00  0.00    -0.344 C  
HETATM    7  O   UNL     1     -10.003   4.665  67.569  1.00  0.00    -0.168 OA 
HETATM    8  C   UNL     1      -9.043   3.807  69.405  1.00  0.00    -0.197 C  
HETATM    9  C   UNL     1      -7.116   3.487  67.255  1.00  0.00    -0.059 C  
HETATM   10  C   UNL     1      -8.635   7.371  68.998  1.00  0.00    -0.133 C  
HETATM   11  H   UNL     1     -10.599   4.691  66.830  1.00  0.00     0.000 HD 
HETATM   12  C   UNL     1     -10.088   5.071  70.026  1.00  0.00    -0.342 C  
HETATM   13  C   UNL     1      -9.605   6.669  70.177  1.00  0.00    -0.168 C  
HETATM   14  C   UNL     1     -10.673   7.664  70.648  1.00  0.00    -0.237 C  
HETATM   15  C   UNL     1     -10.488   9.001  70.517  1.00  0.00    -0.271 C  
HETATM   16  C   UNL     1      -9.260   9.634  69.888  1.00  0.00    -0.255 C  
HETATM   17  C   UNL     1     -11.478  10.027  71.032  1.00  0.00    -0.463 C  
HETATM   18  C   UNL     1      -8.103   8.684  69.568  1.00  0.00    -0.110 C  
HETATM   19  C   UNL     1     -12.753   9.388  71.537  1.00  0.00    -0.361 C  
HETATM   20  C   UNL     1     -12.582   8.106  72.298  1.00  0.00    -0.314 C  
HETATM   21  O   UNL     1     -13.847   9.943  71.439  1.00  0.00    -0.197 OA 
ENDROOT
BRANCH   4  22
HETATM   22  C   UNL     1      -8.509   5.850  66.356  1.00  0.00    -0.120 C  
HETATM   23  C   UNL     1      -8.292   6.136  65.214  1.00  0.00    -0.144 C  
ENDBRANCH   4  22
TORSDOF 1
ENDMDL
MODEL       82
REMARK 921   NORMALIZED FREE ENERGY PREDICTED BY IDOCK:   -4.00 KCAL/MOL
REMARK 922        TOTAL FREE ENERGY PREDICTED BY IDOCK:   -4.24 KCAL/MOL
REMARK 923 INTER-LIGAND FREE ENERGY PREDICTED BY IDOCK:   -4.23 KCAL/MOL
REMARK 924 INTRA-LIGAND FREE ENERGY PREDICTED BY IDOCK:   -0.01 KCAL/MOL
REMARK 927      BINDING AFFINITY PREDICTED BY RF-SCORE:    0.00 PKD
ROOT
HETATM    1  C   UNL     1     -11.463   7.957  70.234  1.00  0.00    -0.097 C  
HETATM    2  C   UNL     1     -12.087   8.897  71.092  1.00  0.00    -0.326 C  
HETATM    3  C   UNL     1     -10.625   9.046  70.904  1.00  0.00    -0.316 C  
HETATM    4  C   UNL     1      -9.817   7.862  69.429  1.00  0.00    -0.180 C  
HETATM    5  C   UNL     1     -10.206   9.170  69.353  1.00  0.00    -0.212 C  
HETATM    6  C   UNL     1      -7.129   6.279  73.349  1.00  0.00    -0.083 C  
HETATM    7  O   UNL     1      -8.496   7.829  68.888  1.00  0.00    -0.127 OA 
HETATM    8  C   UNL     1      -8.625   9.597  70.261  1.00  0.00    -0.234 C  
HETATM    9  C   UNL     1     -10.619  10.028  68.192  1.00  0.00    -0.268 C  
HETATM   10  C   UNL     1     -10.565   6.730  71.284  1.00  0.00    -0.246 C  
HETATM   11  H   UNL     1      -8.123   7.282  68.207  1.00  0.00     0.000 HD 
HETATM   12  C   UNL     1      -8.110   8.286  71.306  1.00  0.00    -0.138 C  
HETATM   13  C   UNL     1      -9.180   7.252  72.077  1.00  0.00    -0.149 C  
HETATM   14  C   UNL     1      -8.561   6.101  72.879  1.00  0.00    -0.123 C  
HETATM   15  C   UNL     1      -9.312   5.047  73.284  1.00  0.00    -0.137 C  
HETATM   16  C   UNL     1     -10.790   4.886  72.973  1.00  0.00    -0.331 C  
HETATM   17  C   UNL     1      -8.766   3.922  74.138  1.00  0.00    -0.092 C  
HETATM   18  C   UNL     1     -11.477   6.093  72.330  1.00  0.00    -0.360 C  
HETATM   19  C   UNL     1      -7.269   4.024  74.331  1.00  0.00    -0.069 C  
HETATM   20  C   UNL     1      -6.733   5.411  74.535  1.00  0.00    -0.077 C  
HETATM   21  O   UNL     1      -6.553   3.028  74.437  1.00  0.00    -0.024 OA 
ENDROOT
BRANCH   4  22
HETATM   22  C   UNL     1     -10.556   7.142  68.260  1.00  0.00    -0.230 C  
HETATM   23  C   UNL     1     -11.069   6.571  67.343  1.00  0.00    -0.411 C  
ENDBRANCH   4  22
TORSDOF 1
ENDMDL
MODEL       83
REMARK 921   NORMALIZED FREE ENERGY PREDICTED BY IDOCK:   -3.93 KCAL/MOL
REMARK 922        TOTAL FREE ENERGY PREDICTED BY IDOCK:   -4.17 KCAL/MOL
REMARK 923 INTER-LIGAND FREE ENERGY PREDICTED BY IDOCK:   -4.19 KCAL/MOL
REMARK 924 INTRA-LIGAND FREE ENERGY PREDICTED BY IDOCK:    0.02 KCAL/MOL
REMARK 927      BINDING AFFINITY PREDICTED BY RF-SCORE:    0.00 PKD
ROOT
HETATM    1  C   UNL     1     -10.614   7.268  69.290  1.00  0.00    -0.230 C  
HETATM    2  C   UNL     1     -10.001   6.400  68.353  1.00  0.00    -0.151 C  
HETATM    3  C   UNL     1      -9.113   6.999  69.375  1.00  0.00    -0.145 C  
HETATM    4  C   UNL     1     -10.083   8.002  70.885  1.00  0.00    -0.191 C  
HETATM    5  C   UNL     1      -9.615   6.719  70.880  1.00  0.00    -0.173 C  
HETATM    6  C   UNL     1      -7.218  11.710  69.112  1.00  0.00    -0.064 C  
HETATM    7  O   UNL     1      -9.574   8.584  72.086  1.00  0.00    -0.262 OA 
HETATM    8  C   UNL     1      -7.904   7.437  71.125  1.00  0.00    -0.092 C  
HETATM    9  C   UNL     1     -10.004   5.507  71.676  1.00  0.00    -0.233 C  
HETATM   10  C   UNL     1     -10.198   9.006  68.820  1.00  0.00    -0.226 C  
HETATM   11  H   UNL     1     -10.023   9.048  72.783  1.00  0.00     0.000 HD 
HETATM   12  C   UNL     1      -7.774   9.041  70.425  1.00  0.00    -0.110 C  
HETATM   13  C   UNL     1      -8.614   9.515  69.056  1.00  0.00    -0.133 C  
HETATM   14  C   UNL     1      -8.459  10.981  68.631  1.00  0.00    -0.157 C  
HETATM   15  C   UNL     1      -9.310  11.544  67.739  1.00  0.00    -0.168 C  
HETATM   16  C   UNL     1     -10.484  10.819  67.106  1.00  0.00    -0.285 C  
HETATM   17  C   UNL     1      -9.157  12.964  67.233  1.00  0.00    -0.208 C  
HETATM   18  C   UNL     1     -10.564   9.312  67.370  1.00  0.00    -0.324 C  
HETATM   19  C   UNL     1      -8.068  13.718  67.964  1.00  0.00    -0.163 C  
HETATM   20  C   UNL     1      -6.832  12.929  68.284  1.00  0.00    -0.093 C  
HETATM   21  O   UNL     1      -8.138  14.929  68.175  1.00  0.00    -0.127 OA 
ENDROOT
BRANCH   4  22
HETATM   22  C   UNL     1     -11.580   7.896  71.304  1.00  0.00    -0.304 C  
HETATM   23  C   UNL     1     -12.742   7.860  71.589  1.00  0.00    -0.352 C  
ENDBRANCH   4  22
TORSDOF 1
ENDMDL
MODEL       84
REMARK 921   NORMALIZED FREE ENERGY PREDICTED BY IDOCK:   -3.93 KCAL/MOL
REMARK 922        TOTAL FREE ENERGY PREDICTED BY IDOCK:   -4.17 KCAL/MOL
REMARK 923 INTER-LIGAND FREE ENERGY PREDICTED BY IDOCK:   -4.19 KCAL/MOL
REMARK 924 INTRA-LIGAND FREE ENERGY PREDICTED BY IDOCK:    0.02 KCAL/MOL
REMARK 927      BINDING AFFINITY PREDICTED BY RF-SCORE:    0.00 PKD
ROOT
HETATM    1  C   UNL     1      -9.722   8.713  70.739  1.00  0.00    -0.237 C  
HETATM    2  C   UNL     1     -10.938   9.413  70.549  1.00  0.00    -0.332 C  
HETATM    3  C   UNL     1     -11.037   7.939  70.653  1.00  0.00    -0.263 C  
HETATM    4  C   UNL     1      -9.303   6.995  71.227  1.00  0.00    -0.160 C  
HETATM    5  C   UNL     1     -10.367   7.364  72.001  1.00  0.00    -0.223 C  
HETATM    6  C   UNL     1     -10.083   4.728  66.828  1.00  0.00    -0.261 C  
HETATM    7  O   UNL     1      -9.058   5.626  71.552  1.00  0.00    -0.139 OA 
HETATM    8  C   UNL     1     -11.272   5.881  71.305  1.00  0.00    -0.280 C  
HETATM    9  C   UNL     1     -10.487   7.652  73.469  1.00  0.00    -0.284 C  
HETATM   10  C   UNL     1      -9.250   7.935  69.131  1.00  0.00    -0.144 C  
HETATM   11  H   UNL     1      -8.257   5.190  71.817  1.00  0.00     0.000 HD 
HETATM   12  C   UNL     1     -10.709   5.484  69.692  1.00  0.00    -0.349 C  
HETATM   13  C   UNL     1     -10.169   6.633  68.599  1.00  0.00    -0.184 C  
HETATM   14  C   UNL     1      -9.622   6.106  67.266  1.00  0.00    -0.126 C  
HETATM   15  C   UNL     1      -8.893   6.902  66.446  1.00  0.00    -0.155 C  
HETATM   16  C   UNL     1      -8.526   8.342  66.761  1.00  0.00    -0.122 C  
HETATM   17  C   UNL     1      -8.392   6.453  65.088  1.00  0.00    -0.109 C  
HETATM   18  C   UNL     1      -9.199   8.952  67.993  1.00  0.00    -0.147 C  
HETATM   19  C   UNL     1      -8.648   4.983  64.842  1.00  0.00    -0.150 C  
HETATM   20  C   UNL     1      -9.966   4.460  65.334  1.00  0.00    -0.231 C  
HETATM   21  O   UNL     1      -7.882   4.288  64.174  1.00  0.00    -0.082 OA 
ENDROOT
BRANCH   4  22
HETATM   22  C   UNL     1      -8.052   7.616  71.919  1.00  0.00    -0.112 C  
HETATM   23  C   UNL     1      -7.108   8.065  72.500  1.00  0.00    -0.104 C  
ENDBRANCH   4  22
TORSDOF 1
ENDMDL
MODEL       85
REMARK 921   NORMALIZED FREE ENERGY PREDICTED BY IDOCK:   -3.92 KCAL/MOL
REMARK 922        TOTAL FREE ENERGY PREDICTED BY IDOCK:   -4.16 KCAL/MOL
REMARK 923 INTER-LIGAND FREE ENERGY PREDICTED BY IDOCK:   -4.22 KCAL/MOL
REMARK 924 INTRA-LIGAND FREE ENERGY PREDICTED BY IDOCK:    0.06 KCAL/MOL
REMARK 927      BINDING AFFINITY PREDICTED BY RF-SCORE:    0.00 PKD
ROOT
HETATM    1  C   UNL     1      -8.101   8.488  68.933  1.00  0.00    -0.119 C  
HETATM    2  C   UNL     1      -7.773   7.996  67.645  1.00  0.00    -0.110 C  
HETATM    3  C   UNL     1      -7.049   9.209  68.091  1.00  0.00    -0.078 C  
HETATM    4  C   UNL     1      -7.332   9.708  70.065  1.00  0.00    -0.130 C  
HETATM    5  C   UNL     1      -6.303   9.005  69.504  1.00  0.00    -0.043 C  
HETATM    6  C   UNL     1      -8.958  13.917  67.889  1.00  0.00    -0.191 C  
HETATM    7  O   UNL     1      -6.708  10.715  70.864  1.00  0.00    -0.417 OA 
HETATM    8  C   UNL     1      -5.633  10.644  68.898  1.00  0.00    -0.040 C  
HETATM    9  C   UNL     1      -5.341   8.006  70.078  1.00  0.00    -0.023 C  
HETATM   10  C   UNL     1      -9.177   9.976  68.722  1.00  0.00    -0.159 C  
HETATM   11  H   UNL     1      -6.839  10.945  71.777  1.00  0.00     0.000 HD 
HETATM   12  C   UNL     1      -6.920  11.807  68.635  1.00  0.00    -0.093 C  
HETATM   13  C   UNL     1      -8.459  11.375  68.131  1.00  0.00    -0.152 C  
HETATM   14  C   UNL     1      -9.492  12.505  68.042  1.00  0.00    -0.209 C  
HETATM   15  C   UNL     1     -10.817  12.235  67.943  1.00  0.00    -0.252 C  
HETATM   16  C   UNL     1     -11.403  10.834  67.938  1.00  0.00    -0.372 C  
HETATM   17  C   UNL     1     -11.871  13.312  67.780  1.00  0.00    -0.394 C  
HETATM   18  C   UNL     1     -10.395   9.685  67.848  1.00  0.00    -0.271 C  
HETATM   19  C   UNL     1     -11.293  14.703  67.917  1.00  0.00    -0.315 C  
HETATM   20  C   UNL     1      -9.945  14.913  67.293  1.00  0.00    -0.230 C  
HETATM   21  O   UNL     1     -11.937  15.634  68.401  1.00  0.00    -0.283 OA 
ENDROOT
BRANCH   4  22
HETATM   22  C   UNL     1      -7.869   8.808  71.219  1.00  0.00    -0.167 C  
HETATM   23  C   UNL     1      -8.268   8.069  72.071  1.00  0.00    -0.174 C  
ENDBRANCH   4  22
TORSDOF 1
ENDMDL
MODEL       86
REMARK 921   NORMALIZED FREE ENERGY PREDICTED BY IDOCK:   -3.82 KCAL/MOL
REMARK 922        TOTAL FREE ENERGY PREDICTED BY IDOCK:   -4.06 KCAL/MOL
REMARK 923 INTER-LIGAND FREE ENERGY PREDICTED BY IDOCK:   -4.11 KCAL/MOL
REMARK 924 INTRA-LIGAND FREE ENERGY PREDICTED BY IDOCK:    0.05 KCAL/MOL
REMARK 927      BINDING AFFINITY PREDICTED BY RF-SCORE:    0.00 PKD
ROOT
HETATM    1  C   UNL     1      -8.515   7.025  72.694  1.00  0.00    -0.124 C  
HETATM    2  C   UNL     1      -8.783   8.139  73.527  1.00  0.00    -0.317 C  
HETATM    3  C   UNL     1      -9.905   7.660  72.688  1.00  0.00    -0.262 C  
HETATM    4  C   UNL     1      -9.567   5.872  71.730  1.00  0.00    -0.151 C  
HETATM    5  C   UNL     1     -10.223   6.096  72.908  1.00  0.00    -0.206 C  
HETATM    6  C   UNL     1     -10.485   8.792  67.765  1.00  0.00    -0.292 C  
HETATM    7  O   UNL     1     -10.447   5.054  70.958  1.00  0.00    -0.213 OA 
HETATM    8  C   UNL     1     -11.672   6.689  71.882  1.00  0.00    -0.355 C  
HETATM    9  C   UNL     1     -10.496   5.209  74.088  1.00  0.00    -0.326 C  
HETATM   10  C   UNL     1      -8.313   7.638  70.962  1.00  0.00    -0.112 C  
HETATM   11  H   UNL     1     -10.290   4.228  70.516  1.00  0.00     0.000 HD 
HETATM   12  C   UNL     1     -11.143   7.369  70.354  1.00  0.00    -0.284 C  
HETATM   13  C   UNL     1      -9.689   8.179  70.165  1.00  0.00    -0.175 C  
HETATM   14  C   UNL     1      -9.336   8.628  68.741  1.00  0.00    -0.142 C  
HETATM   15  C   UNL     1      -8.075   9.013  68.422  1.00  0.00    -0.108 C  
HETATM   16  C   UNL     1      -6.912   9.015  69.398  1.00  0.00    -0.052 C  
HETATM   17  C   UNL     1      -7.692   9.533  67.051  1.00  0.00    -0.091 C  
HETATM   18  C   UNL     1      -7.264   8.743  70.863  1.00  0.00    -0.083 C  
HETATM   19  C   UNL     1      -8.822   9.404  66.054  1.00  0.00    -0.156 C  
HETATM   20  C   UNL     1     -10.194   9.706  66.582  1.00  0.00    -0.302 C  
HETATM   21  O   UNL     1      -8.619   9.187  64.859  1.00  0.00    -0.165 OA 
ENDROOT
BRANCH   4  22
HETATM   22  C   UNL     1      -8.488   4.795  72.056  1.00  0.00    -0.119 C  
HETATM   23  C   UNL     1      -7.687   3.959  72.358  1.00  0.00    -0.072 C  
ENDBRANCH   4  22
TORSDOF 1
ENDMDL
MODEL       87
REMARK 921   NORMALIZED FREE ENERGY PREDICTED BY IDOCK:   -3.80 KCAL/MOL
REMARK 922        TOTAL FREE ENERGY PREDICTED BY IDOCK:   -4.03 KCAL/MOL
REMARK 923 INTER-LIGAND FREE ENERGY PREDICTED BY IDOCK:   -4.09 KCAL/MOL
REMARK 924 INTRA-LIGAND FREE ENERGY PREDICTED BY IDOCK:    0.06 KCAL/MOL
REMARK 927      BINDING AFFINITY PREDICTED BY RF-SCORE:    0.00 PKD
ROOT
HETATM    1  C   UNL     1      -7.362  10.606  66.084  1.00  0.00    -0.138 C  
HETATM    2  C   UNL     1      -6.362  11.447  66.630  1.00  0.00    -0.127 C  
HETATM    3  C   UNL     1      -6.453  10.080  67.193  1.00  0.00    -0.069 C  
HETATM    4  C   UNL     1      -7.703   8.806  66.174  1.00  0.00    -0.101 C  
HETATM    5  C   UNL     1      -6.347   8.934  66.067  1.00  0.00    -0.057 C  
HETATM    6  C   UNL     1      -9.844   8.649  70.701  1.00  0.00    -0.220 C  
HETATM    7  O   UNL     1      -7.937   7.407  66.343  1.00  0.00    -0.102 OA 
HETATM    8  C   UNL     1      -6.220   7.974  67.668  1.00  0.00    -0.052 C  
HETATM    9  C   UNL     1      -5.394   8.602  64.956  1.00  0.00    -0.039 C  
HETATM   10  C   UNL     1      -8.758  10.514  67.293  1.00  0.00    -0.126 C  
HETATM   11  H   UNL     1      -8.515   6.818  65.872  1.00  0.00     0.000 HD 
HETATM   12  C   UNL     1      -7.633   8.219  68.679  1.00  0.00    -0.099 C  
HETATM   13  C   UNL     1      -8.500   9.653  68.711  1.00  0.00    -0.123 C  
HETATM   14  C   UNL     1      -9.765   9.667  69.579  1.00  0.00    -0.216 C  
HETATM   15  C   UNL     1     -10.692  10.648  69.447  1.00  0.00    -0.281 C  
HETATM   16  C   UNL     1     -10.595  11.782  68.442  1.00  0.00    -0.239 C  
HETATM   17  C   UNL     1     -11.921  10.748  70.327  1.00  0.00    -0.438 C  
HETATM   18  C   UNL     1      -9.268  11.898  67.686  1.00  0.00    -0.183 C  
HETATM   19  C   UNL     1     -12.076   9.546  71.232  1.00  0.00    -0.360 C  
HETATM   20  C   UNL     1     -10.806   9.009  71.825  1.00  0.00    -0.437 C  
HETATM   21  O   UNL     1     -13.180   9.111  71.560  1.00  0.00    -0.341 OA 
ENDROOT
BRANCH   4  22
HETATM   22  C   UNL     1      -8.250   8.950  64.722  1.00  0.00    -0.164 C  
HETATM   23  C   UNL     1      -8.625   9.098  63.595  1.00  0.00    -0.180 C  
ENDBRANCH   4  22
TORSDOF 1
ENDMDL
MODEL       88
REMARK 921   NORMALIZED FREE ENERGY PREDICTED BY IDOCK:   -3.73 KCAL/MOL
REMARK 922        TOTAL FREE ENERGY PREDICTED BY IDOCK:   -3.96 KCAL/MOL
REMARK 923 INTER-LIGAND FREE ENERGY PREDICTED BY IDOCK:   -3.99 KCAL/MOL
REMARK 924 INTRA-LIGAND FREE ENERGY PREDICTED BY IDOCK:    0.03 KCAL/MOL
REMARK 927      BINDING AFFINITY PREDICTED BY RF-SCORE:    0.00 PKD
ROOT
HETATM    1  C   UNL     1      -8.049   5.167  66.146  1.00  0.00    -0.108 C  
HETATM    2  C   UNL     1      -6.750   5.621  66.484  1.00  0.00    -0.058 C  
HETATM    3  C   UNL     1      -7.292   4.510  67.299  1.00  0.00    -0.074 C  
HETATM    4  C   UNL     1      -9.037   3.687  66.588  1.00  0.00    -0.162 C  
HETATM    5  C   UNL     1      -7.754   3.251  66.407  1.00  0.00    -0.077 C  
HETATM    6  C   UNL     1     -10.568   5.111  71.140  1.00  0.00    -0.195 C  
HETATM    7  O   UNL     1      -9.766   2.540  67.028  1.00  0.00    -0.396 OA 
HETATM    8  C   UNL     1      -7.828   2.588  68.155  1.00  0.00    -0.059 C  
HETATM    9  C   UNL     1      -7.127   2.398  65.343  1.00  0.00    -0.056 C  
HETATM   10  C   UNL     1      -9.233   5.827  67.402  1.00  0.00    -0.109 C  
HETATM   11  H   UNL     1     -10.572   2.160  66.699  1.00  0.00     0.000 HD 
HETATM   12  C   UNL     1      -8.922   3.528  69.154  1.00  0.00    -0.179 C  
HETATM   13  C   UNL     1      -9.169   5.172  68.947  1.00  0.00    -0.154 C  
HETATM   14  C   UNL     1     -10.231   5.822  69.844  1.00  0.00    -0.302 C  
HETATM   15  C   UNL     1     -10.723   7.054  69.563  1.00  0.00    -0.263 C  
HETATM   16  C   UNL     1     -10.311   7.882  68.359  1.00  0.00    -0.235 C  
HETATM   17  C   UNL     1     -11.717   7.770  70.455  1.00  0.00    -0.118 C  
HETATM   18  C   UNL     1      -9.132   7.344  67.545  1.00  0.00    -0.128 C  
HETATM   19  C   UNL     1     -12.218   6.887  71.577  1.00  0.00    -0.371 C  
HETATM   20  C   UNL     1     -11.191   5.996  72.212  1.00  0.00    -0.341 C  
HETATM   21  O   UNL     1     -13.362   6.981  72.023  1.00  0.00    -0.226 OA 
ENDROOT
BRANCH   4  22
HETATM   22  C   UNL     1      -9.642   3.801  65.157  1.00  0.00    -0.177 C  
HETATM   23  C   UNL     1     -10.124   3.945  64.071  1.00  0.00    -0.200 C  
ENDBRANCH   4  22
TORSDOF 1
ENDMDL
MODEL       89
REMARK 921   NORMALIZED FREE ENERGY PREDICTED BY IDOCK:   -3.64 KCAL/MOL
REMARK 922        TOTAL FREE ENERGY PREDICTED BY IDOCK:   -3.86 KCAL/MOL
REMARK 923 INTER-LIGAND FREE ENERGY PREDICTED BY IDOCK:   -3.86 KCAL/MOL
REMARK 924 INTRA-LIGAND FREE ENERGY PREDICTED BY IDOCK:   -0.01 KCAL/MOL
REMARK 927      BINDING AFFINITY PREDICTED BY RF-SCORE:    0.00 PKD
ROOT
HETATM    1  C   UNL     1      -9.105   7.822  71.034  1.00  0.00    -0.152 C  
HETATM    2  C   UNL     1      -8.216   8.920  70.931  1.00  0.00    -0.207 C  
HETATM    3  C   UNL     1      -9.236   8.796  69.864  1.00  0.00    -0.160 C  
HETATM    4  C   UNL     1     -10.683   7.378  70.212  1.00  0.00    -0.237 C  
HETATM    5  C   UNL     1     -10.737   8.724  70.443  1.00  0.00    -0.254 C  
HETATM    6  C   UNL     1      -8.843   5.663  65.880  1.00  0.00    -0.154 C  
HETATM    7  O   UNL     1     -11.874   7.073  69.485  1.00  0.00    -0.537 OA 
HETATM    8  C   UNL     1     -10.997   8.939  68.602  1.00  0.00     0.066 C  
HETATM    9  C   UNL     1     -11.568   9.547  71.385  1.00  0.00    -0.466 C  
HETATM   10  C   UNL     1      -8.581   6.543  69.808  1.00  0.00    -0.136 C  
HETATM   11  H   UNL     1     -12.543   6.418  69.645  1.00  0.00     0.000 HD 
HETATM   12  C   UNL     1     -10.241   7.644  67.691  1.00  0.00    -0.277 C  
HETATM   13  C   UNL     1      -8.835   6.876  68.182  1.00  0.00    -0.125 C  
HETATM   14  C   UNL     1      -8.361   5.700  67.318  1.00  0.00    -0.100 C  
HETATM   15  C   UNL     1      -7.428   4.829  67.775  1.00  0.00    -0.078 C  
HETATM   16  C   UNL     1      -6.795   4.904  69.153  1.00  0.00    -0.050 C  
HETATM   17  C   UNL     1      -6.873   3.696  66.936  1.00  0.00    -0.054 C  
HETATM   18  C   UNL     1      -7.112   6.159  69.971  1.00  0.00    -0.072 C  
HETATM   19  C   UNL     1      -7.602   3.551  65.618  1.00  0.00    -0.078 C  
HETATM   20  C   UNL     1      -7.980   4.834  64.938  1.00  0.00    -0.098 C  
HETATM   21  O   UNL     1      -7.766   2.456  65.078  1.00  0.00    -0.074 OA 
ENDROOT
BRANCH   4  22
HETATM   22  C   UNL     1     -11.070   6.709  71.565  1.00  0.00    -0.297 C  
HETATM   23  C   UNL     1     -11.419   6.179  72.580  1.00  0.00    -0.318 C  
ENDBRANCH   4  22
TORSDOF 1
ENDMDL
MODEL       90
REMARK 921   NORMALIZED FREE ENERGY PREDICTED BY IDOCK:   -3.60 KCAL/MOL
REMARK 922        TOTAL FREE ENERGY PREDICTED BY IDOCK:   -3.82 KCAL/MOL
REMARK 923 INTER-LIGAND FREE ENERGY PREDICTED BY IDOCK:   -3.81 KCAL/MOL
REMARK 924 INTRA-LIGAND FREE ENERGY PREDICTED BY IDOCK:   -0.01 KCAL/MOL
REMARK 927      BINDING AFFINITY PREDICTED BY RF-SCORE:    0.00 PKD
ROOT
HETATM    1  C   UNL     1      -9.569   9.062  68.854  1.00  0.00    -0.156 C  
HETATM    2  C   UNL     1      -9.760  10.323  69.470  1.00  0.00    -0.235 C  
HETATM    3  C   UNL     1      -8.582   9.544  69.916  1.00  0.00    -0.217 C  
HETATM    4  C   UNL     1      -8.175   7.872  68.791  1.00  0.00    -0.127 C  
HETATM    5  C   UNL     1      -7.620   9.117  68.697  1.00  0.00    -0.084 C  
HETATM    6  C   UNL     1      -8.775   5.741  73.284  1.00  0.00    -0.118 C  
HETATM    7  O   UNL     1      -7.069   6.969  68.841  1.00  0.00    -0.079 OA 
HETATM    8  C   UNL     1      -6.611   8.683  70.212  1.00  0.00    -0.039 C  
HETATM    9  C   UNL     1      -6.940   9.829  67.563  1.00  0.00    -0.083 C  
HETATM   10  C   UNL     1     -10.095   7.754  70.048  1.00  0.00    -0.201 C  
HETATM   11  H   UNL     1      -6.881   6.197  68.321  1.00  0.00     0.000 HD 
HETATM   12  C   UNL     1      -7.452   7.534  71.237  1.00  0.00    -0.079 C  
HETATM   13  C   UNL     1      -9.120   7.489  71.389  1.00  0.00    -0.145 C  
HETATM   14  C   UNL     1      -9.698   6.361  72.253  1.00  0.00    -0.158 C  
HETATM   15  C   UNL     1     -11.016   6.048  72.202  1.00  0.00    -0.314 C  
HETATM   16  C   UNL     1     -12.022   6.737  71.297  1.00  0.00    -0.414 C  
HETATM   17  C   UNL     1     -11.649   4.992  73.086  1.00  0.00    -0.299 C  
HETATM   18  C   UNL     1     -11.518   7.978  70.555  1.00  0.00    -0.192 C  
HETATM   19  C   UNL     1     -10.621   4.224  73.886  1.00  0.00    -0.247 C  
HETATM   20  C   UNL     1      -9.483   5.035  74.433  1.00  0.00    -0.138 C  
HETATM   21  O   UNL     1     -10.770   3.036  74.174  1.00  0.00    -0.175 OA 
ENDROOT
BRANCH   4  22
HETATM   22  C   UNL     1      -8.677   7.532  67.355  1.00  0.00    -0.124 C  
HETATM   23  C   UNL     1      -9.035   7.219  66.257  1.00  0.00    -0.185 C  
ENDBRANCH   4  22
TORSDOF 1
ENDMDL
MODEL       91
REMARK 921   NORMALIZED FREE ENERGY PREDICTED BY IDOCK:   -3.56 KCAL/MOL
REMARK 922        TOTAL FREE ENERGY PREDICTED BY IDOCK:   -3.77 KCAL/MOL
REMARK 923 INTER-LIGAND FREE ENERGY PREDICTED BY IDOCK:   -3.76 KCAL/MOL
REMARK 924 INTRA-LIGAND FREE ENERGY PREDICTED BY IDOCK:   -0.01 KCAL/MOL
REMARK 927      BINDING AFFINITY PREDICTED BY RF-SCORE:    0.00 PKD
ROOT
HETATM    1  C   UNL     1     -10.019   5.954  71.812  1.00  0.00    -0.200 C  
HETATM    2  C   UNL     1      -9.418   4.715  72.145  1.00  0.00    -0.185 C  
HETATM    3  C   UNL     1      -8.509   5.879  72.035  1.00  0.00    -0.125 C  
HETATM    4  C   UNL     1      -9.450   7.698  71.850  1.00  0.00    -0.146 C  
HETATM    5  C   UNL     1      -8.952   7.108  72.978  1.00  0.00    -0.161 C  
HETATM    6  C   UNL     1      -6.735   7.719  67.640  1.00  0.00    -0.068 C  
HETATM    7  O   UNL     1      -8.914   9.022  71.850  1.00  0.00    -0.364 OA 
HETATM    8  C   UNL     1      -7.252   7.615  72.384  1.00  0.00    -0.082 C  
HETATM    9  C   UNL     1      -9.285   7.283  74.431  1.00  0.00    -0.169 C  
HETATM   10  C   UNL     1      -9.659   6.306  70.033  1.00  0.00    -0.176 C  
HETATM   11  H   UNL     1      -9.349   9.862  71.764  1.00  0.00     0.000 HD 
HETATM   12  C   UNL     1      -7.183   7.706  70.633  1.00  0.00    -0.062 C  
HETATM   13  C   UNL     1      -8.081   6.712  69.626  1.00  0.00    -0.126 C  
HETATM   14  C   UNL     1      -7.975   6.988  68.121  1.00  0.00    -0.119 C  
HETATM   15  C   UNL     1      -8.869   6.460  67.249  1.00  0.00    -0.108 C  
HETATM   16  C   UNL     1     -10.047   5.594  67.657  1.00  0.00    -0.208 C  
HETATM   17  C   UNL     1      -8.767   6.643  65.748  1.00  0.00    -0.126 C  
HETATM   18  C   UNL     1     -10.083   5.155  69.124  1.00  0.00    -0.274 C  
HETATM   19  C   UNL     1      -7.671   7.612  65.363  1.00  0.00    -0.104 C  
HETATM   20  C   UNL     1      -6.407   7.518  66.166  1.00  0.00    -0.042 C  
HETATM   21  O   UNL     1      -7.762   8.345  64.378  1.00  0.00    -0.117 OA 
ENDROOT
BRANCH   4  22
HETATM   22  C   UNL     1     -10.929   8.055  72.187  1.00  0.00    -0.357 C  
HETATM   23  C   UNL     1     -12.061   8.374  72.407  1.00  0.00    -0.443 C  
ENDBRANCH   4  22
TORSDOF 1
ENDMDL
MODEL       92
REMARK 921   NORMALIZED FREE ENERGY PREDICTED BY IDOCK:   -3.48 KCAL/MOL
REMARK 922        TOTAL FREE ENERGY PREDICTED BY IDOCK:   -3.69 KCAL/MOL
REMARK 923 INTER-LIGAND FREE ENERGY PREDICTED BY IDOCK:   -3.69 KCAL/MOL
REMARK 924 INTRA-LIGAND FREE ENERGY PREDICTED BY IDOCK:   -0.00 KCAL/MOL
REMARK 927      BINDING AFFINITY PREDICTED BY RF-SCORE:    0.00 PKD
ROOT
HETATM    1  C   UNL     1      -9.315  17.962  66.914  1.00  0.00    -0.276 C  
HETATM    2  C   UNL     1     -10.475  18.172  67.701  1.00  0.00    -0.432 C  
HETATM    3  C   UNL     1      -9.271  17.691  68.418  1.00  0.00    -0.288 C  
HETATM    4  C   UNL     1      -7.543  17.690  67.303  1.00  0.00    -0.199 C  
HETATM    5  C   UNL     1      -7.988  18.636  68.184  1.00  0.00    -0.312 C  
HETATM    6  C   UNL     1      -7.756  12.839  68.533  1.00  0.00    -0.113 C  
HETATM    7  O   UNL     1      -6.194  17.422  67.687  1.00  0.00    -0.142 OA 
HETATM    8  C   UNL     1      -7.432  17.490  69.555  1.00  0.00     0.301 C  
HETATM    9  C   UNL     1      -7.694  20.102  68.313  1.00  0.00    -0.186 C  
HETATM   10  C   UNL     1      -9.115  16.143  66.659  1.00  0.00    -0.282 C  
HETATM   11  H   UNL     1      -5.396  17.422  67.172  1.00  0.00     0.000 HD 
HETATM   12  C   UNL     1      -7.507  15.809  69.058  1.00  0.00    -0.186 C  
HETATM   13  C   UNL     1      -8.650  15.220  67.983  1.00  0.00    -0.152 C  
HETATM   14  C   UNL     1      -8.515  13.745  67.582  1.00  0.00    -0.183 C  
HETATM   15  C   UNL     1      -9.181  13.249  66.511  1.00  0.00    -0.182 C  
HETATM   16  C   UNL     1     -10.078  14.076  65.607  1.00  0.00    -0.342 C  
HETATM   17  C   UNL     1      -9.139  11.786  66.116  1.00  0.00    -0.189 C  
HETATM   18  C   UNL     1     -10.374  15.503  66.078  1.00  0.00    -0.342 C  
HETATM   19  C   UNL     1      -8.144  11.000  66.940  1.00  0.00    -0.142 C  
HETATM   20  C   UNL     1      -8.078  11.356  68.396  1.00  0.00    -0.145 C  
HETATM   21  O   UNL     1      -7.517  10.047  66.475  1.00  0.00    -0.101 OA 
ENDROOT
BRANCH   4  22
HETATM   22  C   UNL     1      -7.250  18.460  65.980  1.00  0.00    -0.290 C  
HETATM   23  C   UNL     1      -7.003  19.002  64.942  1.00  0.00     0.492 C  
ENDBRANCH   4  22
TORSDOF 1
ENDMDL
MODEL       93
REMARK 921   NORMALIZED FREE ENERGY PREDICTED BY IDOCK:   -3.43 KCAL/MOL
REMARK 922        TOTAL FREE ENERGY PREDICTED BY IDOCK:   -3.64 KCAL/MOL
REMARK 923 INTER-LIGAND FREE ENERGY PREDICTED BY IDOCK:   -3.67 KCAL/MOL
REMARK 924 INTRA-LIGAND FREE ENERGY PREDICTED BY IDOCK:    0.03 KCAL/MOL
REMARK 927      BINDING AFFINITY PREDICTED BY RF-SCORE:    0.00 PKD
ROOT
HETATM    1  C   UNL     1      -7.245   4.756  68.574  1.00  0.00    -0.061 C  
HETATM    2  C   UNL     1      -5.902   5.185  68.715  1.00  0.00    -0.020 C  
HETATM    3  C   UNL     1      -6.802   5.453  69.860  1.00  0.00    -0.059 C  
HETATM    4  C   UNL     1      -8.647   4.554  69.740  1.00  0.00    -0.069 C  
HETATM    5  C   UNL     1      -7.532   4.124  70.403  1.00  0.00    -0.045 C  
HETATM    6  C   UNL     1     -10.065   9.346  70.083  1.00  0.00    -0.273 C  
HETATM    7  O   UNL     1      -9.706   4.482  70.695  1.00  0.00    -0.179 OA 
HETATM    8  C   UNL     1      -7.932   5.400  71.714  1.00  0.00    -0.113 C  
HETATM    9  C   UNL     1      -7.092   2.759  70.844  1.00  0.00    -0.033 C  
HETATM   10  C   UNL     1      -8.287   6.241  68.221  1.00  0.00    -0.115 C  
HETATM   11  H   UNL     1     -10.558   4.066  70.639  1.00  0.00     0.000 HD 
HETATM   12  C   UNL     1      -8.787   6.773  71.035  1.00  0.00    -0.141 C  
HETATM   13  C   UNL     1      -8.537   7.330  69.475  1.00  0.00    -0.134 C  
HETATM   14  C   UNL     1      -9.436   8.482  69.007  1.00  0.00    -0.150 C  
HETATM   15  C   UNL     1      -9.532   8.805  67.694  1.00  0.00    -0.168 C  
HETATM   16  C   UNL     1      -8.806   8.070  66.580  1.00  0.00    -0.166 C  
HETATM   17  C   UNL     1     -10.348   9.977  67.188  1.00  0.00    -0.300 C  
HETATM   18  C   UNL     1      -7.769   7.034  67.024  1.00  0.00    -0.107 C  
HETATM   19  C   UNL     1     -11.168  10.619  68.285  1.00  0.00    -0.301 C  
HETATM   20  C   UNL     1     -10.493  10.733  69.620  1.00  0.00    -0.183 C  
HETATM   21  O   UNL     1     -12.269  11.126  68.068  1.00  0.00    -0.584 OA 
ENDROOT
BRANCH   4  22
HETATM   22  C   UNL     1      -9.078   3.359  68.837  1.00  0.00    -0.204 C  
HETATM   23  C   UNL     1      -9.404   2.406  68.191  1.00  0.00    -0.263 C  
ENDBRANCH   4  22
TORSDOF 1
ENDMDL
MODEL       94
REMARK 921   NORMALIZED FREE ENERGY PREDICTED BY IDOCK:   -3.30 KCAL/MOL
REMARK 922        TOTAL FREE ENERGY PREDICTED BY IDOCK:   -3.50 KCAL/MOL
REMARK 923 INTER-LIGAND FREE ENERGY PREDICTED BY IDOCK:   -3.49 KCAL/MOL
REMARK 924 INTRA-LIGAND FREE ENERGY PREDICTED BY IDOCK:   -0.01 KCAL/MOL
REMARK 927      BINDING AFFINITY PREDICTED BY RF-SCORE:    0.00 PKD
ROOT
HETATM    1  C   UNL     1     -10.484   5.425  71.109  1.00  0.00    -0.295 C  
HETATM    2  C   UNL     1      -9.653   4.278  71.095  1.00  0.00    -0.249 C  
HETATM    3  C   UNL     1      -9.203   5.407  71.942  1.00  0.00    -0.155 C  
HETATM    4  C   UNL     1     -10.577   6.919  72.169  1.00  0.00    -0.213 C  
HETATM    5  C   UNL     1     -10.319   5.870  73.007  1.00  0.00    -0.225 C  
HETATM    6  C   UNL     1      -6.784   9.517  70.181  1.00  0.00    -0.078 C  
HETATM    7  O   UNL     1     -10.547   8.081  72.999  1.00  0.00    -0.353 OA 
HETATM    8  C   UNL     1      -8.791   6.802  73.554  1.00  0.00    -0.149 C  
HETATM    9  C   UNL     1     -11.157   5.192  74.051  1.00  0.00     0.088 C  
HETATM   10  C   UNL     1      -9.690   6.722  70.059  1.00  0.00    -0.170 C  
HETATM   11  H   UNL     1     -11.182   8.779  73.104  1.00  0.00     0.000 HD 
HETATM   12  C   UNL     1      -8.175   7.834  72.277  1.00  0.00    -0.149 C  
HETATM   13  C   UNL     1      -8.298   7.454  70.650  1.00  0.00    -0.127 C  
HETATM   14  C   UNL     1      -7.793   8.511  69.660  1.00  0.00    -0.095 C  
HETATM   15  C   UNL     1      -8.114   8.447  68.344  1.00  0.00    -0.123 C  
HETATM   16  C   UNL     1      -8.999   7.374  67.734  1.00  0.00    -0.127 C  
HETATM   17  C   UNL     1      -7.582   9.424  67.315  1.00  0.00    -0.091 C  
HETATM   18  C   UNL     1      -9.374   6.210  68.655  1.00  0.00    -0.121 C  
HETATM   19  C   UNL     1      -6.811  10.560  67.949  1.00  0.00    -0.069 C  
HETATM   20  C   UNL     1      -5.934  10.185  69.107  1.00  0.00    -0.037 C  
HETATM   21  O   UNL     1      -6.806  11.695  67.471  1.00  0.00    -0.086 OA 
ENDROOT
BRANCH   4  22
HETATM   22  C   UNL     1     -12.113   6.872  71.906  1.00  0.00    -0.370 C  
HETATM   23  C   UNL     1     -13.291   6.895  71.700  1.00  0.00    -0.296 C  
ENDBRANCH   4  22
TORSDOF 1
ENDMDL
MODEL       95
REMARK 921   NORMALIZED FREE ENERGY PREDICTED BY IDOCK:   -3.28 KCAL/MOL
REMARK 922        TOTAL FREE ENERGY PREDICTED BY IDOCK:   -3.48 KCAL/MOL
REMARK 923 INTER-LIGAND FREE ENERGY PREDICTED BY IDOCK:   -3.46 KCAL/MOL
REMARK 924 INTRA-LIGAND FREE ENERGY PREDICTED BY IDOCK:   -0.01 KCAL/MOL
REMARK 927      BINDING AFFINITY PREDICTED BY RF-SCORE:    0.00 PKD
ROOT
HETATM    1  C   UNL     1      -9.425  14.185  68.496  1.00  0.00    -0.202 C  
HETATM    2  C   UNL     1      -8.648  13.984  69.664  1.00  0.00     0.955 C  
HETATM    3  C   UNL     1      -9.591  15.126  69.689  1.00  0.00    -0.126 C  
HETATM    4  C   UNL     1     -10.903  15.199  68.108  1.00  0.00    -0.266 C  
HETATM    5  C   UNL     1     -11.106  14.690  69.360  1.00  0.00    -0.293 C  
HETATM    6  C   UNL     1      -8.667  19.647  67.555  1.00  0.00    -0.364 C  
HETATM    7  O   UNL     1     -12.016  16.062  67.868  1.00  0.00    -0.090 OA 
HETATM    8  C   UNL     1     -11.286  16.457  69.951  1.00  0.00    -0.175 C  
HETATM    9  C   UNL     1     -12.066  13.659  69.880  1.00  0.00    -0.406 C  
HETATM   10  C   UNL     1      -8.708  15.614  67.569  1.00  0.00    -0.189 C  
HETATM   11  H   UNL     1     -12.622  16.095  67.137  1.00  0.00     0.000 HD 
HETATM   12  C   UNL     1     -10.355  17.564  68.959  1.00  0.00    -0.303 C  
HETATM   13  C   UNL     1      -8.907  17.145  68.228  1.00  0.00    -0.245 C  
HETATM   14  C   UNL     1      -8.269  18.203  67.317  1.00  0.00    -0.234 C  
HETATM   15  C   UNL     1      -7.279  17.874  66.452  1.00  0.00    -0.298 C  
HETATM   16  C   UNL     1      -6.732  16.469  66.277  1.00  0.00     0.428 C  
HETATM   17  C   UNL     1      -6.568  18.893  65.584  1.00  0.00    -0.303 C  
HETATM   18  C   UNL     1      -7.219  15.427  67.288  1.00  0.00    -0.229 C  
HETATM   19  C   UNL     1      -7.205  20.262  65.669  1.00  0.00    -0.235 C  
HETATM   20  C   UNL     1      -7.675  20.678  67.032  1.00  0.00    -0.319 C  
HETATM   21  O   UNL     1      -7.228  21.034  64.711  1.00  0.00     0.171 OA 
ENDROOT
BRANCH   4  22
HETATM   22  C   UNL     1     -11.293  14.053  67.126  1.00  0.00    -0.348 C  
HETATM   23  C   UNL     1     -11.621  13.213  66.340  1.00  0.00    -0.394 C  
ENDBRANCH   4  22
TORSDOF 1
ENDMDL
MODEL       96
REMARK 921   NORMALIZED FREE ENERGY PREDICTED BY IDOCK:   -3.26 KCAL/MOL
REMARK 922        TOTAL FREE ENERGY PREDICTED BY IDOCK:   -3.46 KCAL/MOL
REMARK 923 INTER-LIGAND FREE ENERGY PREDICTED BY IDOCK:   -3.45 KCAL/MOL
REMARK 924 INTRA-LIGAND FREE ENERGY PREDICTED BY IDOCK:   -0.01 KCAL/MOL
REMARK 927      BINDING AFFINITY PREDICTED BY RF-SCORE:    0.00 PKD
ROOT
HETATM    1  C   UNL     1      -7.343   5.811  69.298  1.00  0.00    -0.079 C  
HETATM    2  C   UNL     1      -7.113   6.572  70.471  1.00  0.00    -0.065 C  
HETATM    3  C   UNL     1      -8.500   6.568  69.949  1.00  0.00    -0.135 C  
HETATM    4  C   UNL     1      -8.851   5.221  68.436  1.00  0.00    -0.101 C  
HETATM    5  C   UNL     1      -9.095   5.082  69.773  1.00  0.00    -0.155 C  
HETATM    6  C   UNL     1     -10.116   9.467  66.098  1.00  0.00    -0.326 C  
HETATM    7  O   UNL     1     -10.070   4.852  67.789  1.00  0.00    -0.153 OA 
HETATM    8  C   UNL     1     -10.592   6.176  69.522  1.00  0.00    -0.350 C  
HETATM    9  C   UNL     1      -9.233   3.868  70.645  1.00  0.00    -0.197 C  
HETATM   10  C   UNL     1      -7.483   6.980  67.873  1.00  0.00    -0.099 C  
HETATM   11  H   UNL     1     -10.231   4.230  67.090  1.00  0.00     0.000 HD 
HETATM   12  C   UNL     1     -10.355   7.294  68.191  1.00  0.00    -0.234 C  
HETATM   13  C   UNL     1      -8.861   7.936  67.786  1.00  0.00    -0.122 C  
HETATM   14  C   UNL     1      -8.814   8.823  66.536  1.00  0.00    -0.156 C  
HETATM   15  C   UNL     1      -7.634   9.142  65.949  1.00  0.00    -0.095 C  
HETATM   16  C   UNL     1      -6.282   8.650  66.433  1.00  0.00    -0.060 C  
HETATM   17  C   UNL     1      -7.528  10.072  64.758  1.00  0.00    -0.143 C  
HETATM   18  C   UNL     1      -6.276   7.911  67.774  1.00  0.00    -0.051 C  
HETATM   19  C   UNL     1      -8.884  10.451  64.205  1.00  0.00    -0.214 C  
HETATM   20  C   UNL     1      -9.955  10.705  65.224  1.00  0.00    -0.356 C  
HETATM   21  O   UNL     1      -9.067  10.658  63.005  1.00  0.00    -0.218 OA 
ENDROOT
BRANCH   4  22
HETATM   22  C   UNL     1      -8.000   3.978  68.037  1.00  0.00    -0.085 C  
HETATM   23  C   UNL     1      -7.366   3.030  67.675  1.00  0.00    -0.054 C  
ENDBRANCH   4  22
TORSDOF 1
ENDMDL
MODEL       97
REMARK 921   NORMALIZED FREE ENERGY PREDICTED BY IDOCK:   -3.22 KCAL/MOL
REMARK 922        TOTAL FREE ENERGY PREDICTED BY IDOCK:   -3.42 KCAL/MOL
REMARK 923 INTER-LIGAND FREE ENERGY PREDICTED BY IDOCK:   -3.41 KCAL/MOL
REMARK 924 INTRA-LIGAND FREE ENERGY PREDICTED BY IDOCK:   -0.01 KCAL/MOL
REMARK 927      BINDING AFFINITY PREDICTED BY RF-SCORE:    0.00 PKD
ROOT
HETATM    1  C   UNL     1      -9.523   9.845  68.770  1.00  0.00    -0.157 C  
HETATM    2  C   UNL     1     -10.903  10.098  68.571  1.00  0.00    -0.278 C  
HETATM    3  C   UNL     1     -10.526   8.697  68.873  1.00  0.00    -0.211 C  
HETATM    4  C   UNL     1      -8.571   8.432  69.450  1.00  0.00    -0.129 C  
HETATM    5  C   UNL     1      -9.681   8.560  70.237  1.00  0.00    -0.182 C  
HETATM    6  C   UNL     1      -8.686   5.424  65.446  1.00  0.00    -0.154 C  
HETATM    7  O   UNL     1      -7.898   7.269  69.934  1.00  0.00    -0.107 OA 
HETATM    8  C   UNL     1     -10.083   6.785  69.802  1.00  0.00    -0.198 C  
HETATM    9  C   UNL     1      -9.854   9.006  71.660  1.00  0.00    -0.366 C  
HETATM   10  C   UNL     1      -8.863   9.028  67.250  1.00  0.00    -0.126 C  
HETATM   11  H   UNL     1      -6.994   7.147  70.200  1.00  0.00     0.000 HD 
HETATM   12  C   UNL     1      -9.458   6.353  68.221  1.00  0.00    -0.121 C  
HETATM   13  C   UNL     1      -9.334   7.443  66.954  1.00  0.00    -0.195 C  
HETATM   14  C   UNL     1      -8.677   6.925  65.668  1.00  0.00    -0.086 C  
HETATM   15  C   UNL     1      -8.254   7.781  64.705  1.00  0.00    -0.100 C  
HETATM   16  C   UNL     1      -8.357   9.293  64.805  1.00  0.00    -0.167 C  
HETATM   17  C   UNL     1      -7.666   7.318  63.388  1.00  0.00    -0.124 C  
HETATM   18  C   UNL     1      -9.162   9.835  65.989  1.00  0.00    -0.226 C  
HETATM   19  C   UNL     1      -7.448   5.822  63.353  1.00  0.00    -0.068 C  
HETATM   20  C   UNL     1      -8.521   4.992  63.995  1.00  0.00    -0.135 C  
HETATM   21  O   UNL     1      -6.516   5.310  62.732  1.00  0.00    -0.025 OA 
ENDROOT
BRANCH   4  22
HETATM   22  C   UNL     1      -7.567   9.505  69.971  1.00  0.00    -0.134 C  
HETATM   23  C   UNL     1      -6.756  10.285  70.376  1.00  0.00    -0.122 C  
ENDBRANCH   4  22
TORSDOF 1
ENDMDL
MODEL       98
REMARK 921   NORMALIZED FREE ENERGY PREDICTED BY IDOCK:   -3.17 KCAL/MOL
REMARK 922        TOTAL FREE ENERGY PREDICTED BY IDOCK:   -3.37 KCAL/MOL
REMARK 923 INTER-LIGAND FREE ENERGY PREDICTED BY IDOCK:   -3.37 KCAL/MOL
REMARK 924 INTRA-LIGAND FREE ENERGY PREDICTED BY IDOCK:   -0.00 KCAL/MOL
REMARK 927      BINDING AFFINITY PREDICTED BY RF-SCORE:    0.00 PKD
ROOT
HETATM    1  C   UNL     1      -5.577  14.819  68.426  1.00  0.00    -0.110 C  
HETATM    2  C   UNL     1      -5.135  15.422  67.222  1.00  0.00     0.316 C  
HETATM    3  C   UNL     1      -6.566  15.598  67.560  1.00  0.00    -0.212 C  
HETATM    4  C   UNL     1      -7.094  14.972  69.446  1.00  0.00    -0.186 C  
HETATM    5  C   UNL     1      -6.787  16.235  69.023  1.00  0.00    -0.182 C  
HETATM    6  C   UNL     1     -10.158  12.100  66.715  1.00  0.00    -0.218 C  
HETATM    7  O   UNL     1      -8.329  15.101  70.152  1.00  0.00    -0.264 OA 
HETATM    8  C   UNL     1      -8.497  16.298  68.264  1.00  0.00    -0.187 C  
HETATM    9  C   UNL     1      -6.285  17.444  69.757  1.00  0.00    -0.195 C  
HETATM   10  C   UNL     1      -6.520  13.290  67.989  1.00  0.00    -0.131 C  
HETATM   11  H   UNL     1      -8.572  14.811  71.024  1.00  0.00     0.000 HD 
HETATM   12  C   UNL     1      -9.056  14.700  67.803  1.00  0.00    -0.191 C  
HETATM   13  C   UNL     1      -8.028  13.486  67.276  1.00  0.00    -0.125 C  
HETATM   14  C   UNL     1      -8.669  12.119  67.004  1.00  0.00    -0.190 C  
HETATM   15  C   UNL     1      -7.908  11.005  66.870  1.00  0.00    -0.140 C  
HETATM   16  C   UNL     1      -6.395  10.986  66.999  1.00  0.00    -0.088 C  
HETATM   17  C   UNL     1      -8.484   9.646  66.530  1.00  0.00    -0.127 C  
HETATM   18  C   UNL     1      -5.712  12.353  67.095  1.00  0.00    -0.063 C  
HETATM   19  C   UNL     1      -9.997   9.649  66.533  1.00  0.00    -0.246 C  
HETATM   20  C   UNL     1     -10.647  10.873  65.958  1.00  0.00    -0.254 C  
HETATM   21  O   UNL     1     -10.653   8.663  66.871  1.00  0.00    -0.287 OA 
ENDROOT
BRANCH   4  22
HETATM   22  C   UNL     1      -6.164  14.707  70.668  1.00  0.00    -0.115 C  
HETATM   23  C   UNL     1      -5.476  14.451  71.613  1.00  0.00    -0.171 C  
ENDBRANCH   4  22
TORSDOF 1
ENDMDL
MODEL       99
REMARK 921   NORMALIZED FREE ENERGY PREDICTED BY IDOCK:   -3.13 KCAL/MOL
REMARK 922        TOTAL FREE ENERGY PREDICTED BY IDOCK:   -3.32 KCAL/MOL
REMARK 923 INTER-LIGAND FREE ENERGY PREDICTED BY IDOCK:   -3.33 KCAL/MOL
REMARK 924 INTRA-LIGAND FREE ENERGY PREDICTED BY IDOCK:    0.01 KCAL/MOL
REMARK 927      BINDING AFFINITY PREDICTED BY RF-SCORE:    0.00 PKD
ROOT
HETATM    1  C   UNL     1      -9.551   5.636  70.288  1.00  0.00    -0.216 C  
HETATM    2  C   UNL     1     -10.869   5.589  70.805  1.00  0.00    -0.249 C  
HETATM    3  C   UNL     1     -10.732   5.446  69.337  1.00  0.00    -0.226 C  
HETATM    4  C   UNL     1      -8.801   5.217  68.667  1.00  0.00    -0.096 C  
HETATM    5  C   UNL     1      -9.736   4.252  68.918  1.00  0.00    -0.195 C  
HETATM    6  C   UNL     1     -10.091   9.340  66.131  1.00  0.00    -0.304 C  
HETATM    7  O   UNL     1      -8.303   4.929  67.360  1.00  0.00    -0.106 OA 
HETATM    8  C   UNL     1     -10.536   4.733  67.296  1.00  0.00    -0.033 C  
HETATM    9  C   UNL     1      -9.606   2.793  69.248  1.00  0.00    -0.046 C  
HETATM   10  C   UNL     1      -9.295   7.295  69.516  1.00  0.00    -0.152 C  
HETATM   11  H   UNL     1      -7.411   4.823  67.051  1.00  0.00     0.000 HD 
HETATM   12  C   UNL     1     -10.248   6.420  66.912  1.00  0.00    -0.277 C  
HETATM   13  C   UNL     1     -10.103   7.615  68.079  1.00  0.00    -0.226 C  
HETATM   14  C   UNL     1      -9.758   9.023  67.577  1.00  0.00    -0.206 C  
HETATM   15  C   UNL     1      -9.325   9.982  68.431  1.00  0.00    -0.139 C  
HETATM   16  C   UNL     1      -9.116   9.767  69.919  1.00  0.00    -0.257 C  
HETATM   17  C   UNL     1      -9.040  11.406  67.999  1.00  0.00    -0.171 C  
HETATM   18  C   UNL     1      -9.616   8.433  70.482  1.00  0.00    -0.188 C  
HETATM   19  C   UNL     1      -9.125  11.577  66.498  1.00  0.00    -0.194 C  
HETATM   20  C   UNL     1     -10.231  10.824  65.819  1.00  0.00    -0.319 C  
HETATM   21  O   UNL     1      -8.412  12.375  65.889  1.00  0.00     0.366 OA 
ENDROOT
BRANCH   4  22
HETATM   22  C   UNL     1      -7.542   4.798  69.484  1.00  0.00    -0.059 C  
HETATM   23  C   UNL     1      -6.554   4.531  70.104  1.00  0.00    -0.036 C  
ENDBRANCH   4  22
TORSDOF 1
ENDMDL
MODEL      100
REMARK 921   NORMALIZED FREE ENERGY PREDICTED BY IDOCK:   -3.08 KCAL/MOL
REMARK 922        TOTAL FREE ENERGY PREDICTED BY IDOCK:   -3.27 KCAL/MOL
REMARK 923 INTER-LIGAND FREE ENERGY PREDICTED BY IDOCK:   -3.33 KCAL/MOL
REMARK 924 INTRA-LIGAND FREE ENERGY PREDICTED BY IDOCK:    0.06 KCAL/MOL
REMARK 927      BINDING AFFINITY PREDICTED BY RF-SCORE:    0.00 PKD
ROOT
HETATM    1  C   UNL     1      -7.345  17.940  67.498  1.00  0.00    -0.209 C  
HETATM    2  C   UNL     1      -6.509  17.973  66.355  1.00  0.00    -0.251 C  
HETATM    3  C   UNL     1      -7.934  17.647  66.119  1.00  0.00    -0.248 C  
HETATM    4  C   UNL     1      -9.162  17.906  67.747  1.00  0.00    -0.258 C  
HETATM    5  C   UNL     1      -8.934  18.764  66.708  1.00  0.00    -0.311 C  
HETATM    6  C   UNL     1      -9.977  13.047  66.837  1.00  0.00    -0.243 C  
HETATM    7  O   UNL     1     -10.583  17.818  67.858  1.00  0.00    -0.386 OA 
HETATM    8  C   UNL     1     -10.061  17.678  65.682  1.00  0.00     0.029 C  
HETATM    9  C   UNL     1      -9.073  20.254  66.590  1.00  0.00    -0.395 C  
HETATM   10  C   UNL     1      -7.666  16.170  67.923  1.00  0.00    -0.148 C  
HETATM   11  H   UNL     1     -11.151  17.937  68.611  1.00  0.00     0.000 HD 
HETATM   12  C   UNL     1     -10.027  16.013  66.234  1.00  0.00    -0.329 C  
HETATM   13  C   UNL     1      -8.666  15.294  66.897  1.00  0.00    -0.288 C  
HETATM   14  C   UNL     1      -8.834  13.860  67.415  1.00  0.00    -0.209 C  
HETATM   15  C   UNL     1      -7.907  13.298  68.230  1.00  0.00    -0.143 C  
HETATM   16  C   UNL     1      -6.661  14.012  68.722  1.00  0.00    -0.100 C  
HETATM   17  C   UNL     1      -7.990  11.863  68.710  1.00  0.00    -0.040 C  
HETATM   18  C   UNL     1      -6.373  15.375  68.088  1.00  0.00    -0.132 C  
HETATM   19  C   UNL     1      -9.295  11.204  68.323  1.00  0.00    -0.176 C  
HETATM   20  C   UNL     1      -9.812  11.538  66.954  1.00  0.00    -0.220 C  
HETATM   21  O   UNL     1      -9.836  10.356  69.032  1.00  0.00    -0.192 OA 
ENDROOT
BRANCH   4  22
HETATM   22  C   UNL     1      -8.888  18.734  69.038  1.00  0.00    -0.136 C  
HETATM   23  C   UNL     1      -8.664  19.417  69.995  1.00  0.00     1.057 C  
ENDBRANCH   4  22
TORSDOF 1
ENDMDL
MODEL      101
REMARK 921   NORMALIZED FREE ENERGY PREDICTED BY IDOCK:   -3.08 KCAL/MOL
REMARK 922        TOTAL FREE ENERGY PREDICTED BY IDOCK:   -3.27 KCAL/MOL
REMARK 923 INTER-LIGAND FREE ENERGY PREDICTED BY IDOCK:   -3.33 KCAL/MOL
REMARK 924 INTRA-LIGAND FREE ENERGY PREDICTED BY IDOCK:    0.06 KCAL/MOL
REMARK 927      BINDING AFFINITY PREDICTED BY RF-SCORE:    0.00 PKD
ROOT
HETATM    1  C   UNL     1      -8.703   4.659  71.033  1.00  0.00    -0.140 C  
HETATM    2  C   UNL     1      -9.638   3.675  70.627  1.00  0.00    -0.254 C  
HETATM    3  C   UNL     1      -8.678   4.138  69.597  1.00  0.00    -0.121 C  
HETATM    4  C   UNL     1      -7.159   5.329  70.304  1.00  0.00    -0.057 C  
HETATM    5  C   UNL     1      -7.144   3.984  70.063  1.00  0.00    -0.042 C  
HETATM    6  C   UNL     1      -9.184   8.444  66.942  1.00  0.00    -0.196 C  
HETATM    7  O   UNL     1      -6.003   5.844  69.642  1.00  0.00    -0.022 OA 
HETATM    8  C   UNL     1      -7.001   4.404  68.244  1.00  0.00    -0.056 C  
HETATM    9  C   UNL     1      -6.291   2.878  70.611  1.00  0.00    -0.023 C  
HETATM   10  C   UNL     1      -9.248   6.287  70.351  1.00  0.00    -0.160 C  
HETATM   11  H   UNL     1      -5.301   6.395  69.969  1.00  0.00     0.000 HD 
HETATM   12  C   UNL     1      -7.759   5.943  67.878  1.00  0.00    -0.100 C  
HETATM   13  C   UNL     1      -9.103   6.521  68.694  1.00  0.00    -0.128 C  
HETATM   14  C   UNL     1      -9.582   7.928  68.312  1.00  0.00    -0.164 C  
HETATM   15  C   UNL     1     -10.452   8.607  69.099  1.00  0.00    -0.223 C  
HETATM   16  C   UNL     1     -11.006   8.080  70.411  1.00  0.00    -0.248 C  
HETATM   17  C   UNL     1     -11.011   9.967  68.732  1.00  0.00    -0.242 C  
HETATM   18  C   UNL     1     -10.689   6.616  70.733  1.00  0.00    -0.282 C  
HETATM   19  C   UNL     1     -10.356  10.539  67.494  1.00  0.00    -0.223 C  
HETATM   20  C   UNL     1     -10.068   9.558  66.397  1.00  0.00    -0.328 C  
HETATM   21  O   UNL     1     -10.182  11.749  67.345  1.00  0.00    -0.196 OA 
ENDROOT
BRANCH   4  22
HETATM   22  C   UNL     1      -6.668   5.493  71.774  1.00  0.00    -0.061 C  
HETATM   23  C   UNL     1      -6.288   5.559  72.906  1.00  0.00    -0.060 C  
ENDBRANCH   4  22
TORSDOF 1
ENDMDL
MODEL      102
REMARK 921   NORMALIZED FREE ENERGY PREDICTED BY IDOCK:   -3.03 KCAL/MOL
REMARK 922        TOTAL FREE ENERGY PREDICTED BY IDOCK:   -3.22 KCAL/MOL
REMARK 923 INTER-LIGAND FREE ENERGY PREDICTED BY IDOCK:   -3.24 KCAL/MOL
REMARK 924 INTRA-LIGAND FREE ENERGY PREDICTED BY IDOCK:    0.02 KCAL/MOL
REMARK 927      BINDING AFFINITY PREDICTED BY RF-SCORE:    0.00 PKD
ROOT
HETATM    1  C   UNL     1      -6.899  10.246  66.777  1.00  0.00    -0.088 C  
HETATM    2  C   UNL     1      -6.729  10.565  65.407  1.00  0.00    -0.078 C  
HETATM    3  C   UNL     1      -8.119  10.326  65.860  1.00  0.00    -0.143 C  
HETATM    4  C   UNL     1      -8.350  10.166  67.897  1.00  0.00    -0.117 C  
HETATM    5  C   UNL     1      -8.539  11.261  67.102  1.00  0.00    -0.147 C  
HETATM    6  C   UNL     1     -10.171   5.717  66.488  1.00  0.00    -0.259 C  
HETATM    7  O   UNL     1      -9.534  10.065  68.689  1.00  0.00    -0.147 OA 
HETATM    8  C   UNL     1     -10.162  10.489  66.579  1.00  0.00    -0.288 C  
HETATM    9  C   UNL     1      -8.510  12.732  67.400  1.00  0.00    -0.191 C  
HETATM   10  C   UNL     1      -7.215   8.429  66.908  1.00  0.00    -0.079 C  
HETATM   11  H   UNL     1      -9.640   9.991  69.631  1.00  0.00     0.000 HD 
HETATM   12  C   UNL     1     -10.095   8.738  66.658  1.00  0.00    -0.358 C  
HETATM   13  C   UNL     1      -8.699   7.858  66.365  1.00  0.00    -0.170 C  
HETATM   14  C   UNL     1      -8.790   6.341  66.569  1.00  0.00    -0.140 C  
HETATM   15  C   UNL     1      -7.673   5.578  66.657  1.00  0.00    -0.100 C  
HETATM   16  C   UNL     1      -6.259   6.128  66.594  1.00  0.00    -0.037 C  
HETATM   17  C   UNL     1      -7.710   4.069  66.786  1.00  0.00    -0.089 C  
HETATM   18  C   UNL     1      -6.130   7.607  66.216  1.00  0.00    -0.041 C  
HETATM   19  C   UNL     1      -9.115   3.546  66.980  1.00  0.00    -0.168 C  
HETATM   20  C   UNL     1     -10.181   4.227  66.172  1.00  0.00    -0.160 C  
HETATM   21  O   UNL     1      -9.355   2.547  67.660  1.00  0.00    -0.187 OA 
ENDROOT
BRANCH   4  22
HETATM   22  C   UNL     1      -7.370  10.629  69.016  1.00  0.00    -0.108 C  
HETATM   23  C   UNL     1      -6.657  11.027  69.891  1.00  0.00    -0.142 C  
ENDBRANCH   4  22
TORSDOF 1
ENDMDL
MODEL      103
REMARK 921   NORMALIZED FREE ENERGY PREDICTED BY IDOCK:   -2.99 KCAL/MOL
REMARK 922        TOTAL FREE ENERGY PREDICTED BY IDOCK:   -3.18 KCAL/MOL
REMARK 923 INTER-LIGAND FREE ENERGY PREDICTED BY IDOCK:   -3.17 KCAL/MOL
REMARK 924 INTRA-LIGAND FREE ENERGY PREDICTED BY IDOCK:   -0.01 KCAL/MOL
REMARK 927      BINDING AFFINITY PREDICTED BY RF-SCORE:    0.00 PKD
ROOT
HETATM    1  C   UNL     1      -8.272   7.225  69.287  1.00  0.00    -0.131 C  
HETATM    2  C   UNL     1      -6.954   7.716  69.114  1.00  0.00    -0.068 C  
HETATM    3  C   UNL     1      -7.928   8.053  68.050  1.00  0.00    -0.128 C  
HETATM    4  C   UNL     1      -9.882   7.585  68.486  1.00  0.00    -0.165 C  
HETATM    5  C   UNL     1      -9.244   8.786  68.620  1.00  0.00    -0.141 C  
HETATM    6  C   UNL     1      -9.283   4.895  64.303  1.00  0.00     0.039 C  
HETATM    7  O   UNL     1     -11.085   7.875  67.773  1.00  0.00    -0.490 OA 
HETATM    8  C   UNL     1      -9.414   8.981  66.767  1.00  0.00    -0.238 C  
HETATM    9  C   UNL     1      -9.520   9.976  69.494  1.00  0.00    -0.245 C  
HETATM   10  C   UNL     1      -8.500   5.779  68.160  1.00  0.00    -0.109 C  
HETATM   11  H   UNL     1     -11.988   7.659  67.974  1.00  0.00     0.000 HD 
HETATM   12  C   UNL     1      -9.440   7.425  65.957  1.00  0.00     0.010 C  
HETATM   13  C   UNL     1      -8.598   6.087  66.512  1.00  0.00    -0.124 C  
HETATM   14  C   UNL     1      -8.806   4.779  65.738  1.00  0.00    -0.131 C  
HETATM   15  C   UNL     1      -8.426   3.588  66.264  1.00  0.00    -0.112 C  
HETATM   16  C   UNL     1      -7.801   3.424  67.638  1.00  0.00    -0.077 C  
HETATM   17  C   UNL     1      -8.542   2.278  65.512  1.00  0.00    -0.112 C  
HETATM   18  C   UNL     1      -7.420   4.718  68.362  1.00  0.00    -0.069 C  
HETATM   19  C   UNL     1      -9.282   2.434  64.202  1.00  0.00    -0.116 C  
HETATM   20  C   UNL     1      -8.983   3.685  63.429  1.00  0.00    -0.099 C  
HETATM   21  O   UNL     1      -9.991   1.539  63.740  1.00  0.00    -0.127 OA 
ENDROOT
BRANCH   4  22
HETATM   22  C   UNL     1     -10.514   7.293  69.881  1.00  0.00    -0.236 C  
HETATM   23  C   UNL     1     -11.053   7.076  70.927  1.00  0.00    -0.300 C  
ENDBRANCH   4  22
TORSDOF 1
ENDMDL
MODEL      104
REMARK 921   NORMALIZED FREE ENERGY PREDICTED BY IDOCK:   -2.83 KCAL/MOL
REMARK 922        TOTAL FREE ENERGY PREDICTED BY IDOCK:   -3.00 KCAL/MOL
REMARK 923 INTER-LIGAND FREE ENERGY PREDICTED BY IDOCK:   -3.02 KCAL/MOL
REMARK 924 INTRA-LIGAND FREE ENERGY PREDICTED BY IDOCK:    0.02 KCAL/MOL
REMARK 927      BINDING AFFINITY PREDICTED BY RF-SCORE:    0.00 PKD
ROOT
HETATM    1  C   UNL     1      -7.262   4.144  68.973  1.00  0.00    -0.054 C  
HETATM    2  C   UNL     1      -5.989   4.752  69.108  1.00  0.00    -0.018 C  
HETATM    3  C   UNL     1      -6.708   4.443  70.366  1.00  0.00    -0.036 C  
HETATM    4  C   UNL     1      -8.400   3.297  70.137  1.00  0.00    -0.048 C  
HETATM    5  C   UNL     1      -7.138   2.895  70.474  1.00  0.00    -0.033 C  
HETATM    6  C   UNL     1     -10.403   7.330  72.332  1.00  0.00    -0.241 C  
HETATM    7  O   UNL     1      -9.258   2.707  71.114  1.00  0.00    -0.101 OA 
HETATM    8  C   UNL     1      -7.483   3.556  72.190  1.00  0.00    -0.057 C  
HETATM    9  C   UNL     1      -6.439   1.573  70.343  1.00  0.00    -0.024 C  
HETATM   10  C   UNL     1      -8.549   5.430  69.294  1.00  0.00    -0.102 C  
HETATM   11  H   UNL     1     -10.039   2.177  71.008  1.00  0.00     0.000 HD 
HETATM   12  C   UNL     1      -8.629   4.884  72.149  1.00  0.00    -0.126 C  
HETATM   13  C   UNL     1      -8.732   5.968  70.875  1.00  0.00    -0.135 C  
HETATM   14  C   UNL     1      -9.853   7.013  70.954  1.00  0.00    -0.190 C  
HETATM   15  C   UNL     1     -10.217   7.731  69.864  1.00  0.00    -0.213 C  
HETATM   16  C   UNL     1      -9.597   7.565  68.488  1.00  0.00    -0.150 C  
HETATM   17  C   UNL     1     -11.267   8.823  69.906  1.00  0.00    -0.059 C  
HETATM   18  C   UNL     1      -8.362   6.662  68.412  1.00  0.00    -0.122 C  
HETATM   19  C   UNL     1     -11.968   8.891  71.245  1.00  0.00    -0.307 C  
HETATM   20  C   UNL     1     -11.097   8.680  72.448  1.00  0.00    -0.328 C  
HETATM   21  O   UNL     1     -13.151   9.218  71.348  1.00  0.00    -0.333 OA 
ENDROOT
BRANCH   4  22
HETATM   22  C   UNL     1      -8.806   2.413  68.919  1.00  0.00    -0.149 C  
HETATM   23  C   UNL     1      -9.139   1.782  67.958  1.00  0.00    -0.198 C  
ENDBRANCH   4  22
TORSDOF 1
ENDMDL
MODEL      105
REMARK 921   NORMALIZED FREE ENERGY PREDICTED BY IDOCK:   -2.81 KCAL/MOL
REMARK 922        TOTAL FREE ENERGY PREDICTED BY IDOCK:   -2.99 KCAL/MOL
REMARK 923 INTER-LIGAND FREE ENERGY PREDICTED BY IDOCK:   -3.04 KCAL/MOL
REMARK 924 INTRA-LIGAND FREE ENERGY PREDICTED BY IDOCK:    0.05 KCAL/MOL
REMARK 927      BINDING AFFINITY PREDICTED BY RF-SCORE:    0.00 PKD
ROOT
HETATM    1  C   UNL     1      -9.992  11.366  65.852  1.00  0.00    -0.274 C  
HETATM    2  C   UNL     1      -9.526  11.289  64.516  1.00  0.00    -0.211 C  
HETATM    3  C   UNL     1      -8.544  10.962  65.576  1.00  0.00    -0.149 C  
HETATM    4  C   UNL     1      -9.335  10.793  67.466  1.00  0.00    -0.147 C  
HETATM    5  C   UNL     1      -9.060   9.801  66.566  1.00  0.00    -0.182 C  
HETATM    6  C   UNL     1      -5.986  14.429  68.275  1.00  0.00    -0.120 C  
HETATM    7  O   UNL     1      -8.730  10.371  68.689  1.00  0.00    -0.124 OA 
HETATM    8  C   UNL     1      -7.259   9.999  67.037  1.00  0.00    -0.090 C  
HETATM    9  C   UNL     1      -9.610   8.414  66.404  1.00  0.00    -0.307 C  
HETATM   10  C   UNL     1      -9.332  12.922  66.601  1.00  0.00    -0.240 C  
HETATM   11  H   UNL     1      -9.096  10.293  69.562  1.00  0.00     0.000 HD 
HETATM   12  C   UNL     1      -6.906  11.637  67.557  1.00  0.00    -0.104 C  
HETATM   13  C   UNL     1      -7.688  12.984  66.940  1.00  0.00     0.196 C  
HETATM   14  C   UNL     1      -7.327  14.334  67.572  1.00  0.00    -0.199 C  
HETATM   15  C   UNL     1      -8.100  15.430  67.370  1.00  0.00    -0.204 C  
HETATM   16  C   UNL     1      -9.376  15.432  66.548  1.00  0.00    -0.311 C  
HETATM   17  C   UNL     1      -7.748  16.801  67.911  1.00  0.00    -0.178 C  
HETATM   18  C   UNL     1      -9.672  14.152  65.762  1.00  0.00    -0.246 C  
HETATM   19  C   UNL     1      -6.550  16.761  68.834  1.00  0.00    -0.189 C  
HETATM   20  C   UNL     1      -5.439  15.843  68.419  1.00  0.00    -0.106 C  
HETATM   21  O   UNL     1      -6.440  17.522  69.796  1.00  0.00    -0.206 OA 
ENDROOT
BRANCH   4  22
HETATM   22  C   UNL     1     -10.826  10.583  67.870  1.00  0.00    -0.333 C  
HETATM   23  C   UNL     1     -11.968  10.370  68.154  1.00  0.00     0.683 C  
ENDBRANCH   4  22
TORSDOF 1
ENDMDL
MODEL      106
REMARK 921   NORMALIZED FREE ENERGY PREDICTED BY IDOCK:   -2.65 KCAL/MOL
REMARK 922        TOTAL FREE ENERGY PREDICTED BY IDOCK:   -2.82 KCAL/MOL
REMARK 923 INTER-LIGAND FREE ENERGY PREDICTED BY IDOCK:   -2.84 KCAL/MOL
REMARK 924 INTRA-LIGAND FREE ENERGY PREDICTED BY IDOCK:    0.03 KCAL/MOL
REMARK 927      BINDING AFFINITY PREDICTED BY RF-SCORE:    0.00 PKD
ROOT
HETATM    1  C   UNL     1      -7.806   4.534  70.204  1.00  0.00    -0.060 C  
HETATM    2  C   UNL     1      -6.956   4.576  71.337  1.00  0.00    -0.042 C  
HETATM    3  C   UNL     1      -8.213   5.355  71.426  1.00  0.00    -0.117 C  
HETATM    4  C   UNL     1      -9.546   5.026  69.896  1.00  0.00    -0.176 C  
HETATM    5  C   UNL     1      -9.522   4.461  71.140  1.00  0.00    -0.228 C  
HETATM    6  C   UNL     1      -8.873   9.964  69.384  1.00  0.00    -0.195 C  
HETATM    7  O   UNL     1     -10.885   5.491  69.719  1.00  0.00    -0.331 OA 
HETATM    8  C   UNL     1     -10.232   6.069  71.784  1.00  0.00    -0.242 C  
HETATM    9  C   UNL     1     -10.080   3.171  71.666  1.00  0.00    -0.077 C  
HETATM   10  C   UNL     1      -7.623   6.130  69.290  1.00  0.00    -0.098 C  
HETATM   11  H   UNL     1     -11.500   5.339  69.011  1.00  0.00     0.000 HD 
HETATM   12  C   UNL     1      -9.746   7.430  70.791  1.00  0.00    -0.171 C  
HETATM   13  C   UNL     1      -8.272   7.508  69.997  1.00  0.00    -0.130 C  
HETATM   14  C   UNL     1      -8.045   8.726  69.094  1.00  0.00    -0.118 C  
HETATM   15  C   UNL     1      -7.039   8.745  68.185  1.00  0.00    -0.078 C  
HETATM   16  C   UNL     1      -6.080   7.591  67.952  1.00  0.00    -0.043 C  
HETATM   17  C   UNL     1      -6.728   9.949  67.320  1.00  0.00    -0.074 C  
HETATM   18  C   UNL     1      -6.165   6.434  68.952  1.00  0.00    -0.033 C  
HETATM   19  C   UNL     1      -7.765  11.041  67.465  1.00  0.00    -0.114 C  
HETATM   20  C   UNL     1      -8.285  11.265  68.855  1.00  0.00    -0.079 C  
HETATM   21  O   UNL     1      -8.074  11.779  66.529  1.00  0.00    -0.135 OA 
ENDROOT
BRANCH   4  22
HETATM   22  C   UNL     1      -9.590   3.830  68.898  1.00  0.00    -0.183 C  
HETATM   23  C   UNL     1      -9.578   2.936  68.103  1.00  0.00    -0.117 C  
ENDBRANCH   4  22
TORSDOF 1
ENDMDL
MODEL      107
REMARK 921   NORMALIZED FREE ENERGY PREDICTED BY IDOCK:   -2.61 KCAL/MOL
REMARK 922        TOTAL FREE ENERGY PREDICTED BY IDOCK:   -2.77 KCAL/MOL
REMARK 923 INTER-LIGAND FREE ENERGY PREDICTED BY IDOCK:   -2.82 KCAL/MOL
REMARK 924 INTRA-LIGAND FREE ENERGY PREDICTED BY IDOCK:    0.04 KCAL/MOL
REMARK 927      BINDING AFFINITY PREDICTED BY RF-SCORE:    0.00 PKD
ROOT
HETATM    1  C   UNL     1      -7.690   6.276  64.234  1.00  0.00    -0.107 C  
HETATM    2  C   UNL     1      -6.601   7.135  63.947  1.00  0.00    -0.044 C  
HETATM    3  C   UNL     1      -6.418   6.196  65.077  1.00  0.00    -0.038 C  
HETATM    4  C   UNL     1      -7.889   4.772  65.267  1.00  0.00    -0.091 C  
HETATM    5  C   UNL     1      -6.670   4.661  64.659  1.00  0.00    -0.044 C  
HETATM    6  C   UNL     1      -8.248   6.961  69.759  1.00  0.00    -0.131 C  
HETATM    7  O   UNL     1      -7.980   3.645  66.139  1.00  0.00    -0.088 OA 
HETATM    8  C   UNL     1      -5.930   4.523  66.372  1.00  0.00    -0.027 C  
HETATM    9  C   UNL     1      -6.166   3.742  63.585  1.00  0.00    -0.021 C  
HETATM   10  C   UNL     1      -8.551   6.922  65.736  1.00  0.00    -0.139 C  
HETATM   11  H   UNL     1      -8.660   2.988  66.226  1.00  0.00     0.000 HD 
HETATM   12  C   UNL     1      -6.895   5.380  67.561  1.00  0.00    -0.060 C  
HETATM   13  C   UNL     1      -7.760   6.771  67.210  1.00  0.00    -0.109 C  
HETATM   14  C   UNL     1      -8.627   7.341  68.340  1.00  0.00    -0.124 C  
HETATM   15  C   UNL     1      -9.585   8.266  68.087  1.00  0.00    -0.163 C  
HETATM   16  C   UNL     1      -9.910   8.800  66.703  1.00  0.00    -0.335 C  
HETATM   17  C   UNL     1     -10.419   8.912  69.175  1.00  0.00    -0.236 C  
HETATM   18  C   UNL     1      -8.952   8.388  65.582  1.00  0.00    -0.183 C  
HETATM   19  C   UNL     1     -10.180   8.282  70.529  1.00  0.00    -0.198 C  
HETATM   20  C   UNL     1      -8.758   7.912  70.833  1.00  0.00    -0.139 C  
HETATM   21  O   UNL     1     -11.070   8.190  71.374  1.00  0.00    -0.237 OA 
ENDROOT
BRANCH   4  22
HETATM   22  C   UNL     1      -8.928   4.314  64.199  1.00  0.00    -0.148 C  
HETATM   23  C   UNL     1      -9.683   3.928  63.355  1.00  0.00    -0.152 C  
ENDBRANCH   4  22
TORSDOF 1
ENDMDL
MODEL      108
REMARK 921   NORMALIZED FREE ENERGY PREDICTED BY IDOCK:   -2.61 KCAL/MOL
REMARK 922        TOTAL FREE ENERGY PREDICTED BY IDOCK:   -2.77 KCAL/MOL
REMARK 923 INTER-LIGAND FREE ENERGY PREDICTED BY IDOCK:   -2.79 KCAL/MOL
REMARK 924 INTRA-LIGAND FREE ENERGY PREDICTED BY IDOCK:    0.02 KCAL/MOL
REMARK 927      BINDING AFFINITY PREDICTED BY RF-SCORE:    0.00 PKD
ROOT
HETATM    1  C   UNL     1      -6.518   9.195  65.644  1.00  0.00    -0.068 C  
HETATM    2  C   UNL     1      -5.270   8.737  66.133  1.00  0.00    -0.030 C  
HETATM    3  C   UNL     1      -6.202   7.701  65.631  1.00  0.00    -0.038 C  
HETATM    4  C   UNL     1      -7.862   8.427  64.660  1.00  0.00    -0.127 C  
HETATM    5  C   UNL     1      -6.689   7.980  64.121  1.00  0.00    -0.065 C  
HETATM    6  C   UNL     1     -10.091   5.811  68.305  1.00  0.00    -0.208 C  
HETATM    7  O   UNL     1      -8.891   7.741  63.946  1.00  0.00    -0.136 OA 
HETATM    8  C   UNL     1      -7.302   6.243  64.456  1.00  0.00    -0.070 C  
HETATM    9  C   UNL     1      -6.017   8.261  62.808  1.00  0.00    -0.082 C  
HETATM   10  C   UNL     1      -7.803   8.832  66.922  1.00  0.00    -0.101 C  
HETATM   11  H   UNL     1      -9.659   8.077  63.498  1.00  0.00     0.000 HD 
HETATM   12  C   UNL     1      -8.385   6.199  65.836  1.00  0.00    -0.140 C  
HETATM   13  C   UNL     1      -8.237   7.226  67.151  1.00  0.00    -0.118 C  
HETATM   14  C   UNL     1      -9.323   7.118  68.229  1.00  0.00    -0.130 C  
HETATM   15  C   UNL     1      -9.475   8.084  69.168  1.00  0.00    -0.155 C  
HETATM   16  C   UNL     1      -8.634   9.346  69.235  1.00  0.00    -0.143 C  
HETATM   17  C   UNL     1     -10.484   7.990  70.295  1.00  0.00    -0.222 C  
HETATM   18  C   UNL     1      -7.432   9.404  68.288  1.00  0.00    -0.078 C  
HETATM   19  C   UNL     1     -11.401   6.797  70.144  1.00  0.00    -0.350 C  
HETATM   20  C   UNL     1     -10.754   5.537  69.649  1.00  0.00    -0.349 C  
HETATM   21  O   UNL     1     -12.574   6.821  70.519  1.00  0.00    -0.211 OA 
ENDROOT
BRANCH   4  22
HETATM   22  C   UNL     1      -8.081   9.848  64.058  1.00  0.00    -0.152 C  
HETATM   23  C   UNL     1      -8.275  10.954  63.646  1.00  0.00     0.187 C  
ENDBRANCH   4  22
TORSDOF 1
ENDMDL
MODEL      109
REMARK 921   NORMALIZED FREE ENERGY PREDICTED BY IDOCK:   -2.55 KCAL/MOL
REMARK 922        TOTAL FREE ENERGY PREDICTED BY IDOCK:   -2.71 KCAL/MOL
REMARK 923 INTER-LIGAND FREE ENERGY PREDICTED BY IDOCK:   -2.72 KCAL/MOL
REMARK 924 INTRA-LIGAND FREE ENERGY PREDICTED BY IDOCK:    0.01 KCAL/MOL
REMARK 927      BINDING AFFINITY PREDICTED BY RF-SCORE:    0.00 PKD
ROOT
HETATM    1  C   UNL     1      -7.457   7.015  66.717  1.00  0.00    -0.082 C  
HETATM    2  C   UNL     1      -6.375   6.116  66.554  1.00  0.00    -0.045 C  
HETATM    3  C   UNL     1      -7.696   5.511  66.841  1.00  0.00    -0.100 C  
HETATM    4  C   UNL     1      -9.280   6.819  66.770  1.00  0.00    -0.150 C  
HETATM    5  C   UNL     1      -8.833   5.972  65.796  1.00  0.00    -0.143 C  
HETATM    6  C   UNL     1      -9.746   5.184  71.482  1.00  0.00    -0.221 C  
HETATM    7  O   UNL     1     -10.685   6.579  66.863  1.00  0.00    -0.308 OA 
HETATM    8  C   UNL     1      -9.660   4.588  66.747  1.00  0.00    -0.206 C  
HETATM    9  C   UNL     1      -8.973   5.998  64.302  1.00  0.00     0.566 C  
HETATM   10  C   UNL     1      -7.830   7.144  68.523  1.00  0.00    -0.122 C  
HETATM   11  H   UNL     1     -11.417   7.183  66.830  1.00  0.00     0.000 HD 
HETATM   12  C   UNL     1      -9.719   4.935  68.466  1.00  0.00    -0.218 C  
HETATM   13  C   UNL     1      -8.538   5.814  69.266  1.00  0.00    -0.111 C  
HETATM   14  C   UNL     1      -8.791   6.108  70.750  1.00  0.00    -0.140 C  
HETATM   15  C   UNL     1      -8.071   7.048  71.409  1.00  0.00    -0.108 C  
HETATM   16  C   UNL     1      -6.993   7.902  70.766  1.00  0.00    -0.045 C  
HETATM   17  C   UNL     1      -8.232   7.325  72.890  1.00  0.00    -0.126 C  
HETATM   18  C   UNL     1      -6.594   7.517  69.338  1.00  0.00    -0.037 C  
HETATM   19  C   UNL     1      -9.393   6.565  73.492  1.00  0.00    -0.137 C  
HETATM   20  C   UNL     1      -9.579   5.161  72.996  1.00  0.00    -0.158 C  
HETATM   21  O   UNL     1     -10.068   7.022  74.415  1.00  0.00    -0.271 OA 
ENDROOT
BRANCH   4  22
HETATM   22  C   UNL     1      -9.338   8.226  66.101  1.00  0.00    -0.254 C  
HETATM   23  C   UNL     1      -9.431   9.288  65.557  1.00  0.00    -0.309 C  
ENDBRANCH   4  22
TORSDOF 1
ENDMDL
MODEL      110
REMARK 921   NORMALIZED FREE ENERGY PREDICTED BY IDOCK:   -2.46 KCAL/MOL
REMARK 922        TOTAL FREE ENERGY PREDICTED BY IDOCK:   -2.61 KCAL/MOL
REMARK 923 INTER-LIGAND FREE ENERGY PREDICTED BY IDOCK:   -2.62 KCAL/MOL
REMARK 924 INTRA-LIGAND FREE ENERGY PREDICTED BY IDOCK:    0.01 KCAL/MOL
REMARK 927      BINDING AFFINITY PREDICTED BY RF-SCORE:    0.00 PKD
ROOT
HETATM    1  C   UNL     1      -9.254   5.747  68.851  1.00  0.00    -0.127 C  
HETATM    2  C   UNL     1     -10.465   5.095  68.513  1.00  0.00    -0.090 C  
HETATM    3  C   UNL     1      -9.247   4.624  67.815  1.00  0.00    -0.150 C  
HETATM    4  C   UNL     1      -7.482   5.381  68.550  1.00  0.00    -0.076 C  
HETATM    5  C   UNL     1      -8.077   4.184  68.832  1.00  0.00    -0.074 C  
HETATM    6  C   UNL     1      -7.165   6.952  63.804  1.00  0.00    -0.066 C  
HETATM    7  O   UNL     1      -6.129   5.061  68.221  1.00  0.00    -0.028 OA 
HETATM    8  C   UNL     1      -7.452   3.584  67.173  1.00  0.00    -0.074 C  
HETATM    9  C   UNL     1      -7.969   3.264  70.014  1.00  0.00    -0.054 C  
HETATM   10  C   UNL     1      -8.824   6.909  67.480  1.00  0.00    -0.118 C  
HETATM   11  H   UNL     1      -5.314   5.411  68.561  1.00  0.00     0.000 HD 
HETATM   12  C   UNL     1      -7.300   4.904  66.028  1.00  0.00    -0.078 C  
HETATM   13  C   UNL     1      -8.312   6.239  66.027  1.00  0.00    -0.138 C  
HETATM   14  C   UNL     1      -7.983   7.347  65.019  1.00  0.00    -0.129 C  
HETATM   15  C   UNL     1      -8.534   8.581  65.131  1.00  0.00    -0.193 C  
HETATM   16  C   UNL     1      -9.481   8.993  66.243  1.00  0.00    -0.306 C  
HETATM   17  C   UNL     1      -8.297   9.687  64.122  1.00  0.00    -0.171 C  
HETATM   18  C   UNL     1      -9.968   7.869  67.162  1.00  0.00    -0.298 C  
HETATM   19  C   UNL     1      -7.254   9.310  63.094  1.00  0.00    -0.095 C  
HETATM   20  C   UNL     1      -7.298   7.890  62.611  1.00  0.00    -0.101 C  
HETATM   21  O   UNL     1      -6.496  10.142  62.595  1.00  0.00    -0.117 OA 
ENDROOT
BRANCH   4  22
HETATM   22  C   UNL     1      -7.223   6.052  69.932  1.00  0.00    -0.074 C  
HETATM   23  C   UNL     1      -6.982   6.527  71.004  1.00  0.00    -0.068 C  
ENDBRANCH   4  22
TORSDOF 1
ENDMDL
MODEL      111
REMARK 921   NORMALIZED FREE ENERGY PREDICTED BY IDOCK:   -2.43 KCAL/MOL
REMARK 922        TOTAL FREE ENERGY PREDICTED BY IDOCK:   -2.59 KCAL/MOL
REMARK 923 INTER-LIGAND FREE ENERGY PREDICTED BY IDOCK:   -2.60 KCAL/MOL
REMARK 924 INTRA-LIGAND FREE ENERGY PREDICTED BY IDOCK:    0.02 KCAL/MOL
REMARK 927      BINDING AFFINITY PREDICTED BY RF-SCORE:    0.00 PKD
ROOT
HETATM    1  C   UNL     1      -8.733   7.120  70.210  1.00  0.00    -0.144 C  
HETATM    2  C   UNL     1      -8.154   6.111  71.018  1.00  0.00    -0.121 C  
HETATM    3  C   UNL     1      -7.277   6.714  69.988  1.00  0.00    -0.080 C  
HETATM    4  C   UNL     1      -8.057   8.369  69.050  1.00  0.00    -0.116 C  
HETATM    5  C   UNL     1      -7.191   8.318  70.106  1.00  0.00    -0.055 C  
HETATM    6  C   UNL     1      -7.319   5.412  65.074  1.00  0.00    -0.068 C  
HETATM    7  O   UNL     1      -7.460   9.271  68.116  1.00  0.00    -0.082 OA 
HETATM    8  C   UNL     1      -5.848   7.906  68.868  1.00  0.00    -0.035 C  
HETATM    9  C   UNL     1      -6.881   9.302  71.196  1.00  0.00    -0.069 C  
HETATM   10  C   UNL     1      -9.108   6.386  68.556  1.00  0.00    -0.126 C  
HETATM   11  H   UNL     1      -7.821  10.035  67.683  1.00  0.00     0.000 HD 
HETATM   12  C   UNL     1      -6.497   7.065  67.472  1.00  0.00    -0.054 C  
HETATM   13  C   UNL     1      -7.809   6.025  67.554  1.00  0.00    -0.098 C  
HETATM   14  C   UNL     1      -8.308   5.447  66.224  1.00  0.00    -0.115 C  
HETATM   15  C   UNL     1      -9.521   4.850  66.133  1.00  0.00    -0.165 C  
HETATM   16  C   UNL     1     -10.495   4.719  67.290  1.00  0.00    -0.033 C  
HETATM   17  C   UNL     1     -10.030   4.199  64.862  1.00  0.00    -0.208 C  
HETATM   18  C   UNL     1      -9.962   5.125  68.667  1.00  0.00    -0.227 C  
HETATM   19  C   UNL     1      -9.113   4.449  63.686  1.00  0.00    -0.136 C  
HETATM   20  C   UNL     1      -7.643   4.399  63.983  1.00  0.00    -0.071 C  
HETATM   21  O   UNL     1      -9.539   4.564  62.536  1.00  0.00    -0.136 OA 
ENDROOT
BRANCH   4  22
HETATM   22  C   UNL     1      -9.232   9.278  69.520  1.00  0.00    -0.168 C  
HETATM   23  C   UNL     1     -10.171   9.942  69.850  1.00  0.00    -0.298 C  
ENDBRANCH   4  22
TORSDOF 1
ENDMDL
MODEL      112
REMARK 921   NORMALIZED FREE ENERGY PREDICTED BY IDOCK:   -2.36 KCAL/MOL
REMARK 922        TOTAL FREE ENERGY PREDICTED BY IDOCK:   -2.50 KCAL/MOL
REMARK 923 INTER-LIGAND FREE ENERGY PREDICTED BY IDOCK:   -2.50 KCAL/MOL
REMARK 924 INTRA-LIGAND FREE ENERGY PREDICTED BY IDOCK:   -0.01 KCAL/MOL
REMARK 927      BINDING AFFINITY PREDICTED BY RF-SCORE:    0.00 PKD
ROOT
HETATM    1  C   UNL     1      -8.019  10.516  66.923  1.00  0.00    -0.121 C  
HETATM    2  C   UNL     1      -8.636  11.233  65.869  1.00  0.00    -0.096 C  
HETATM    3  C   UNL     1      -9.435  10.147  66.483  1.00  0.00    -0.214 C  
HETATM    4  C   UNL     1      -8.628   9.341  68.193  1.00  0.00    -0.125 C  
HETATM    5  C   UNL     1      -9.584  10.310  68.079  1.00  0.00    -0.159 C  
HETATM    6  C   UNL     1      -8.903   5.217  65.362  1.00  0.00    -0.153 C  
HETATM    7  O   UNL     1      -9.166   8.387  69.110  1.00  0.00    -0.150 OA 
HETATM    8  C   UNL     1     -10.794   8.941  67.672  1.00  0.00    -0.112 C  
HETATM    9  C   UNL     1     -10.023  11.400  69.012  1.00  0.00    -0.087 C  
HETATM   10  C   UNL     1      -7.471   8.879  66.262  1.00  0.00    -0.091 C  
HETATM   11  H   UNL     1      -8.793   8.014  69.900  1.00  0.00     0.000 HD 
HETATM   12  C   UNL     1      -9.993   7.583  66.902  1.00  0.00    -0.318 C  
HETATM   13  C   UNL     1      -8.662   7.751  65.899  1.00  0.00    -0.175 C  
HETATM   14  C   UNL     1      -8.025   6.454  65.384  1.00  0.00    -0.116 C  
HETATM   15  C   UNL     1      -6.789   6.455  64.827  1.00  0.00    -0.050 C  
HETATM   16  C   UNL     1      -5.921   7.692  64.683  1.00  0.00    -0.038 C  
HETATM   17  C   UNL     1      -6.146   5.215  64.239  1.00  0.00    -0.022 C  
HETATM   18  C   UNL     1      -6.590   9.027  65.023  1.00  0.00    -0.069 C  
HETATM   19  C   UNL     1      -6.960   3.968  64.504  1.00  0.00    -0.050 C  
HETATM   20  C   UNL     1      -8.448   4.128  64.400  1.00  0.00    -0.108 C  
HETATM   21  O   UNL     1      -6.435   2.867  64.673  1.00  0.00    -0.026 OA 
ENDROOT
BRANCH   4  22
HETATM   22  C   UNL     1      -7.531   9.947  69.119  1.00  0.00    -0.087 C  
HETATM   23  C   UNL     1      -6.702  10.372  69.871  1.00  0.00    -0.134 C  
ENDBRANCH   4  22
TORSDOF 1
ENDMDL
MODEL      113
REMARK 921   NORMALIZED FREE ENERGY PREDICTED BY IDOCK:   -2.35 KCAL/MOL
REMARK 922        TOTAL FREE ENERGY PREDICTED BY IDOCK:   -2.50 KCAL/MOL
REMARK 923 INTER-LIGAND FREE ENERGY PREDICTED BY IDOCK:   -2.53 KCAL/MOL
REMARK 924 INTRA-LIGAND FREE ENERGY PREDICTED BY IDOCK:    0.03 KCAL/MOL
REMARK 927      BINDING AFFINITY PREDICTED BY RF-SCORE:    0.00 PKD
ROOT
HETATM    1  C   UNL     1     -11.358  16.068  69.979  1.00  0.00    -0.353 C  
HETATM    2  C   UNL     1     -11.776  16.795  68.837  1.00  0.00     0.450 C  
HETATM    3  C   UNL     1     -12.023  15.335  68.815  1.00  0.00    -0.279 C  
HETATM    4  C   UNL     1     -11.681  14.372  70.599  1.00  0.00    -0.252 C  
HETATM    5  C   UNL     1     -12.866  14.826  70.090  1.00  0.00    -0.191 C  
HETATM    6  C   UNL     1      -8.502  11.854  67.659  1.00  0.00    -0.156 C  
HETATM    7  O   UNL     1     -11.930  13.020  70.984  1.00  0.00    -0.427 OA 
HETATM    8  C   UNL     1     -12.849  13.332  68.963  1.00  0.00     1.185 C  
HETATM    9  C   UNL     1     -14.158  15.212  70.749  1.00  0.00    -0.017 C  
HETATM   10  C   UNL     1      -9.799  15.173  69.551  1.00  0.00    -0.191 C  
HETATM   11  H   UNL     1     -11.772  12.575  71.808  1.00  0.00     0.000 HD 
HETATM   12  C   UNL     1     -11.211  12.813  68.607  1.00  0.00    -0.322 C  
HETATM   13  C   UNL     1      -9.917  13.871  68.495  1.00  0.00    -0.221 C  
HETATM   14  C   UNL     1      -8.536  13.242  68.272  1.00  0.00    -0.160 C  
HETATM   15  C   UNL     1      -7.402  13.958  68.466  1.00  0.00    -0.116 C  
HETATM   16  C   UNL     1      -7.376  15.402  68.935  1.00  0.00    -0.147 C  
HETATM   17  C   UNL     1      -6.018  13.406  68.191  1.00  0.00    -0.112 C  
HETATM   18  C   UNL     1      -8.731  16.113  68.998  1.00  0.00    -0.254 C  
HETATM   19  C   UNL     1      -6.047  11.932  67.851  1.00  0.00    -0.057 C  
HETATM   20  C   UNL     1      -7.187  11.486  66.984  1.00  0.00    -0.146 C  
HETATM   21  O   UNL     1      -5.131  11.171  68.162  1.00  0.00    -0.040 OA 
ENDROOT
BRANCH   4  22
HETATM   22  C   UNL     1     -11.577  14.995  72.024  1.00  0.00    -0.419 C  
HETATM   23  C   UNL     1     -11.553  15.456  73.128  1.00  0.00    -0.305 C  
ENDBRANCH   4  22
TORSDOF 1
ENDMDL
MODEL      114
REMARK 921   NORMALIZED FREE ENERGY PREDICTED BY IDOCK:   -2.32 KCAL/MOL
REMARK 922        TOTAL FREE ENERGY PREDICTED BY IDOCK:   -2.47 KCAL/MOL
REMARK 923 INTER-LIGAND FREE ENERGY PREDICTED BY IDOCK:   -2.46 KCAL/MOL
REMARK 924 INTRA-LIGAND FREE ENERGY PREDICTED BY IDOCK:   -0.01 KCAL/MOL
REMARK 927      BINDING AFFINITY PREDICTED BY RF-SCORE:    0.00 PKD
ROOT
HETATM    1  C   UNL     1      -7.382  11.375  68.925  1.00  0.00    -0.114 C  
HETATM    2  C   UNL     1      -6.390  11.289  69.932  1.00  0.00    -0.142 C  
HETATM    3  C   UNL     1      -5.962  10.948  68.556  1.00  0.00    -0.043 C  
HETATM    4  C   UNL     1      -7.340  11.375  67.091  1.00  0.00    -0.138 C  
HETATM    5  C   UNL     1      -6.272  12.123  67.498  1.00  0.00    -0.130 C  
HETATM    6  C   UNL     1      -6.796   6.453  66.330  1.00  0.00    -0.061 C  
HETATM    7  O   UNL     1      -7.231  11.305  65.668  1.00  0.00    -0.359 OA 
HETATM    8  C   UNL     1      -5.191  10.945  66.526  1.00  0.00    -0.085 C  
HETATM    9  C   UNL     1      -5.987  13.594  67.410  1.00  0.00     0.158 C  
HETATM   10  C   UNL     1      -7.924   9.659  68.504  1.00  0.00    -0.089 C  
HETATM   11  H   UNL     1      -7.868  11.502  64.992  1.00  0.00     0.000 HD 
HETATM   12  C   UNL     1      -5.903   9.343  66.438  1.00  0.00    -0.058 C  
HETATM   13  C   UNL     1      -6.842   8.689  67.661  1.00  0.00    -0.071 C  
HETATM   14  C   UNL     1      -7.466   7.315  67.384  1.00  0.00    -0.096 C  
HETATM   15  C   UNL     1      -8.470   6.834  68.158  1.00  0.00    -0.121 C  
HETATM   16  C   UNL     1      -9.082   7.588  69.325  1.00  0.00    -0.138 C  
HETATM   17  C   UNL     1      -9.070   5.455  67.972  1.00  0.00    -0.114 C  
HETATM   18  C   UNL     1      -8.370   8.879  69.739  1.00  0.00    -0.125 C  
HETATM   19  C   UNL     1      -8.546   4.767  66.731  1.00  0.00    -0.108 C  
HETATM   20  C   UNL     1      -7.086   4.963  66.444  1.00  0.00    -0.072 C  
HETATM   21  O   UNL     1      -9.241   3.996  66.067  1.00  0.00    -0.136 OA 
ENDROOT
BRANCH   4  22
HETATM   22  C   UNL     1      -8.570  12.328  67.174  1.00  0.00    -0.187 C  
HETATM   23  C   UNL     1      -9.522  13.054  67.180  1.00  0.00    -0.230 C  
ENDBRANCH   4  22
TORSDOF 1
ENDMDL
MODEL      115
REMARK 921   NORMALIZED FREE ENERGY PREDICTED BY IDOCK:   -2.31 KCAL/MOL
REMARK 922        TOTAL FREE ENERGY PREDICTED BY IDOCK:   -2.45 KCAL/MOL
REMARK 923 INTER-LIGAND FREE ENERGY PREDICTED BY IDOCK:   -2.46 KCAL/MOL
REMARK 924 INTRA-LIGAND FREE ENERGY PREDICTED BY IDOCK:    0.01 KCAL/MOL
REMARK 927      BINDING AFFINITY PREDICTED BY RF-SCORE:    0.00 PKD
ROOT
HETATM    1  C   UNL     1      -8.022   3.592  72.404  1.00  0.00    -0.069 C  
HETATM    2  C   UNL     1      -7.520   3.729  73.722  1.00  0.00    -0.069 C  
HETATM    3  C   UNL     1      -8.615   4.648  73.336  1.00  0.00    -0.101 C  
HETATM    4  C   UNL     1      -9.511   4.218  71.536  1.00  0.00    -0.155 C  
HETATM    5  C   UNL     1      -9.918   3.872  72.794  1.00  0.00    -0.209 C  
HETATM    6  C   UNL     1      -7.961   8.891  70.611  1.00  0.00    -0.142 C  
HETATM    7  O   UNL     1     -10.661   4.794  70.913  1.00  0.00    -0.105 OA 
HETATM    8  C   UNL     1     -10.518   5.635  72.987  1.00  0.00    -0.246 C  
HETATM    9  C   UNL     1     -10.793   2.759  73.294  1.00  0.00    -0.275 C  
HETATM   10  C   UNL     1      -7.349   4.980  71.387  1.00  0.00    -0.077 C  
HETATM   11  H   UNL     1     -11.074   4.594  70.082  1.00  0.00     0.000 HD 
HETATM   12  C   UNL     1      -9.571   6.746  72.013  1.00  0.00    -0.151 C  
HETATM   13  C   UNL     1      -7.943   6.522  71.687  1.00  0.00    -0.104 C  
HETATM   14  C   UNL     1      -7.289   7.537  70.740  1.00  0.00    -0.068 C  
HETATM   15  C   UNL     1      -6.083   7.288  70.174  1.00  0.00    -0.024 C  
HETATM   16  C   UNL     1      -5.289   6.012  70.386  1.00  0.00    -0.013 C  
HETATM   17  C   UNL     1      -5.362   8.287  69.292  1.00  0.00    -0.031 C  
HETATM   18  C   UNL     1      -5.825   5.057  71.457  1.00  0.00    -0.013 C  
HETATM   19  C   UNL     1      -6.216   9.497  68.982  1.00  0.00    -0.042 C  
HETATM   20  C   UNL     1      -7.055  10.010  70.115  1.00  0.00    -0.157 C  
HETATM   21  O   UNL     1      -6.137  10.096  67.909  1.00  0.00    -0.052 OA 
ENDROOT
BRANCH   4  22
HETATM   22  C   UNL     1      -9.467   2.883  70.733  1.00  0.00    -0.223 C  
HETATM   23  C   UNL     1      -9.491   1.861  70.111  1.00  0.00    -0.138 C  
ENDBRANCH   4  22
TORSDOF 1
ENDMDL
MODEL      116
REMARK 921   NORMALIZED FREE ENERGY PREDICTED BY IDOCK:   -2.04 KCAL/MOL
REMARK 922        TOTAL FREE ENERGY PREDICTED BY IDOCK:   -2.17 KCAL/MOL
REMARK 923 INTER-LIGAND FREE ENERGY PREDICTED BY IDOCK:   -2.20 KCAL/MOL
REMARK 924 INTRA-LIGAND FREE ENERGY PREDICTED BY IDOCK:    0.03 KCAL/MOL
REMARK 927      BINDING AFFINITY PREDICTED BY RF-SCORE:    0.00 PKD
ROOT
HETATM    1  C   UNL     1     -11.647  15.523  67.754  1.00  0.00    -0.193 C  
HETATM    2  C   UNL     1     -13.031  15.233  67.851  1.00  0.00     2.428 C  
HETATM    3  C   UNL     1     -12.110  14.277  68.508  1.00  0.00    -0.295 C  
HETATM    4  C   UNL     1     -10.150  14.891  68.604  1.00  0.00    -0.237 C  
HETATM    5  C   UNL     1     -11.120  14.989  69.561  1.00  0.00    -0.292 C  
HETATM    6  C   UNL     1      -9.572  10.609  66.068  1.00  0.00    -0.244 C  
HETATM    7  O   UNL     1      -9.027  14.304  69.264  1.00  0.00    -0.383 OA 
HETATM    8  C   UNL     1     -10.855  13.166  69.889  1.00  0.00     0.556 C  
HETATM    9  C   UNL     1     -11.281  15.912  70.734  1.00  0.00    -0.398 C  
HETATM   10  C   UNL     1     -10.910  14.391  66.493  1.00  0.00    -0.310 C  
HETATM   11  H   UNL     1      -8.122  14.588  69.308  1.00  0.00     0.000 HD 
HETATM   12  C   UNL     1     -10.305  12.327  68.449  1.00  0.00    -0.231 C  
HETATM   13  C   UNL     1     -10.763  12.768  66.899  1.00  0.00    -0.272 C  
HETATM   14  C   UNL     1     -10.116  11.989  65.747  1.00  0.00    -0.267 C  
HETATM   15  C   UNL     1     -10.176  12.448  64.473  1.00  0.00    -0.325 C  
HETATM   16  C   UNL     1     -10.841  13.751  64.066  1.00  0.00     0.076 C  
HETATM   17  C   UNL     1      -9.616  11.681  63.291  1.00  0.00    -0.334 C  
HETATM   18  C   UNL     1     -11.646  14.463  65.157  1.00  0.00    -0.361 C  
HETATM   19  C   UNL     1      -8.844  10.454  63.719  1.00  0.00    -0.212 C  
HETATM   20  C   UNL     1      -9.428   9.684  64.867  1.00  0.00    -0.288 C  
HETATM   21  O   UNL     1      -7.867  10.043  63.091  1.00  0.00    -0.135 OA 
ENDROOT
BRANCH   4  22
HETATM   22  C   UNL     1      -9.583  16.333  68.438  1.00  0.00    -0.216 C  
HETATM   23  C   UNL     1      -9.164  17.438  68.253  1.00  0.00    -0.271 C  
ENDBRANCH   4  22
TORSDOF 1
ENDMDL
MODEL      117
REMARK 921   NORMALIZED FREE ENERGY PREDICTED BY IDOCK:   -1.74 KCAL/MOL
REMARK 922        TOTAL FREE ENERGY PREDICTED BY IDOCK:   -1.85 KCAL/MOL
REMARK 923 INTER-LIGAND FREE ENERGY PREDICTED BY IDOCK:   -1.88 KCAL/MOL
REMARK 924 INTRA-LIGAND FREE ENERGY PREDICTED BY IDOCK:    0.03 KCAL/MOL
REMARK 927      BINDING AFFINITY PREDICTED BY RF-SCORE:    0.00 PKD
ROOT
HETATM    1  C   UNL     1      -9.466  14.566  68.413  1.00  0.00    -0.209 C  
HETATM    2  C   UNL     1      -9.499  14.836  69.803  1.00  0.00     0.260 C  
HETATM    3  C   UNL     1      -8.239  14.265  69.274  1.00  0.00     0.192 C  
HETATM    4  C   UNL     1      -8.126  14.172  67.223  1.00  0.00    -0.168 C  
HETATM    5  C   UNL     1      -7.625  15.128  68.060  1.00  0.00    -0.127 C  
HETATM    6  C   UNL     1      -7.514   9.323  68.324  1.00  0.00    -0.079 C  
HETATM    7  O   UNL     1      -7.038  13.809  66.371  1.00  0.00     0.746 OA 
HETATM    8  C   UNL     1      -6.252  13.924  68.468  1.00  0.00    -0.093 C  
HETATM    9  C   UNL     1      -7.271  16.570  67.837  1.00  0.00    -0.153 C  
HETATM   10  C   UNL     1      -9.651  12.742  68.178  1.00  0.00    -0.223 C  
HETATM   11  H   UNL     1      -6.987  13.766  65.424  1.00  0.00     0.000 HD 
HETATM   12  C   UNL     1      -6.787  12.261  68.306  1.00  0.00    -0.075 C  
HETATM   13  C   UNL     1      -8.357  11.767  68.621  1.00  0.00    -0.079 C  
HETATM   14  C   UNL     1      -8.680  10.294  68.338  1.00  0.00    -0.129 C  
HETATM   15  C   UNL     1      -9.963   9.862  68.266  1.00  0.00    -0.172 C  
HETATM   16  C   UNL     1     -11.176  10.762  68.423  1.00  0.00    -0.345 C  
HETATM   17  C   UNL     1     -10.335   8.407  68.061  1.00  0.00    -0.270 C  
HETATM   18  C   UNL     1     -10.893  12.196  68.879  1.00  0.00    -0.241 C  
HETATM   19  C   UNL     1      -9.127   7.543  67.776  1.00  0.00    -0.129 C  
HETATM   20  C   UNL     1      -7.892   7.867  68.565  1.00  0.00    -0.119 C  
HETATM   21  O   UNL     1      -9.185   6.559  67.037  1.00  0.00    -0.127 OA 
ENDROOT
BRANCH   4  22
HETATM   22  C   UNL     1      -8.983  14.945  66.175  1.00  0.00    -0.106 C  
HETATM   23  C   UNL     1      -9.686  15.503  65.384  1.00  0.00    -0.232 C  
ENDBRANCH   4  22
TORSDOF 1
ENDMDL
MODEL      118
REMARK 921   NORMALIZED FREE ENERGY PREDICTED BY IDOCK:   -1.72 KCAL/MOL
REMARK 922        TOTAL FREE ENERGY PREDICTED BY IDOCK:   -1.83 KCAL/MOL
REMARK 923 INTER-LIGAND FREE ENERGY PREDICTED BY IDOCK:   -1.82 KCAL/MOL
REMARK 924 INTRA-LIGAND FREE ENERGY PREDICTED BY IDOCK:   -0.01 KCAL/MOL
REMARK 927      BINDING AFFINITY PREDICTED BY RF-SCORE:    0.00 PKD
ROOT
HETATM    1  C   UNL     1     -10.217  15.473  69.365  1.00  0.00    -0.262 C  
HETATM    2  C   UNL     1     -11.295  16.157  69.979  1.00  0.00    -0.332 C  
HETATM    3  C   UNL     1     -11.267  16.166  68.498  1.00  0.00    -0.365 C  
HETATM    4  C   UNL     1      -9.870  14.918  67.651  1.00  0.00    -0.217 C  
HETATM    5  C   UNL     1     -11.199  14.685  67.868  1.00  0.00    -0.318 C  
HETATM    6  C   UNL     1      -8.385  19.290  65.708  1.00  0.00     0.135 C  
HETATM    7  O   UNL     1      -9.645  14.573  66.284  1.00  0.00    -0.286 OA 
HETATM    8  C   UNL     1     -11.538  15.770  66.381  1.00  0.00     0.410 C  
HETATM    9  C   UNL     1     -11.983  13.414  68.020  1.00  0.00    -0.357 C  
HETATM   10  C   UNL     1      -9.004  16.732  68.765  1.00  0.00    -0.254 C  
HETATM   11  H   UNL     1      -8.999  13.996  65.893  1.00  0.00     0.000 HD 
HETATM   12  C   UNL     1     -10.284  16.978  66.167  1.00  0.00    -0.346 C  
HETATM   13  C   UNL     1      -9.448  17.669  67.444  1.00  0.00    -0.256 C  
HETATM   14  C   UNL     1      -8.318  18.639  67.077  1.00  0.00    -0.274 C  
HETATM   15  C   UNL     1      -7.394  19.015  67.995  1.00  0.00    -0.282 C  
HETATM   16  C   UNL     1      -7.363  18.513  69.427  1.00  0.00     0.008 C  
HETATM   17  C   UNL     1      -6.302  20.024  67.703  1.00  0.00    -0.249 C  
HETATM   18  C   UNL     1      -8.571  17.686  69.876  1.00  0.00     1.723 C  
HETATM   19  C   UNL     1      -6.261  20.417  66.243  1.00  0.00    -0.206 C  
HETATM   20  C   UNL     1      -7.595  20.585  65.576  1.00  0.00     0.114 C  
HETATM   21  O   UNL     1      -5.209  20.701  65.670  1.00  0.00    -0.175 OA 
ENDROOT
BRANCH   4  22
HETATM   22  C   UNL     1      -9.127  13.717  68.310  1.00  0.00    -0.195 C  
HETATM   23  C   UNL     1      -8.523  12.790  68.767  1.00  0.00     0.161 C  
ENDBRANCH   4  22
TORSDOF 1
ENDMDL
MODEL      119
REMARK 921   NORMALIZED FREE ENERGY PREDICTED BY IDOCK:   -1.44 KCAL/MOL
REMARK 922        TOTAL FREE ENERGY PREDICTED BY IDOCK:   -1.53 KCAL/MOL
REMARK 923 INTER-LIGAND FREE ENERGY PREDICTED BY IDOCK:   -1.52 KCAL/MOL
REMARK 924 INTRA-LIGAND FREE ENERGY PREDICTED BY IDOCK:   -0.01 KCAL/MOL
REMARK 927      BINDING AFFINITY PREDICTED BY RF-SCORE:    0.00 PKD
ROOT
HETATM    1  C   UNL     1     -10.169   6.682  70.268  1.00  0.00    -0.215 C  
HETATM    2  C   UNL     1     -10.151   6.242  71.614  1.00  0.00    -0.214 C  
HETATM    3  C   UNL     1      -8.867   6.738  71.066  1.00  0.00    -0.141 C  
HETATM    4  C   UNL     1      -9.005   7.641  69.224  1.00  0.00    -0.135 C  
HETATM    5  C   UNL     1      -8.982   8.226  70.459  1.00  0.00    -0.151 C  
HETATM    6  C   UNL     1      -5.755   3.988  68.133  1.00  0.00    -0.021 C  
HETATM    7  O   UNL     1      -8.021   8.339  68.459  1.00  0.00    -0.118 OA 
HETATM    8  C   UNL     1      -7.138   7.911  70.475  1.00  0.00    -0.046 C  
HETATM    9  C   UNL     1      -9.487   9.552  70.950  1.00  0.00    -0.186 C  
HETATM   10  C   UNL     1      -9.383   5.374  69.226  1.00  0.00    -0.159 C  
HETATM   11  H   UNL     1      -8.085   8.756  67.608  1.00  0.00     0.000 HD 
HETATM   12  C   UNL     1      -6.718   6.499  69.521  1.00  0.00    -0.053 C  
HETATM   13  C   UNL     1      -7.722   5.167  69.364  1.00  0.00    -0.076 C  
HETATM   14  C   UNL     1      -7.244   4.059  68.416  1.00  0.00    -0.055 C  
HETATM   15  C   UNL     1      -8.094   3.095  67.983  1.00  0.00    -0.083 C  
HETATM   16  C   UNL     1      -9.564   3.026  68.354  1.00  0.00    -0.116 C  
HETATM   17  C   UNL     1      -7.656   1.940  67.105  1.00  0.00    -0.060 C  
HETATM   18  C   UNL     1     -10.032   4.008  69.433  1.00  0.00     0.038 C  
HETATM   19  C   UNL     1      -6.226   2.089  66.636  1.00  0.00    -0.023 C  
HETATM   20  C   UNL     1      -5.261   2.631  67.649  1.00  0.00    -0.012 C  
HETATM   21  O   UNL     1      -5.851   1.678  65.537  1.00  0.00    -0.015 OA 
ENDROOT
BRANCH   4  22
HETATM   22  C   UNL     1     -10.276   8.206  68.521  1.00  0.00    -0.233 C  
HETATM   23  C   UNL     1     -11.226   8.628  67.929  1.00  0.00     0.554 C  
ENDBRANCH   4  22
TORSDOF 1
ENDMDL
MODEL      120
REMARK 921   NORMALIZED FREE ENERGY PREDICTED BY IDOCK:   -1.37 KCAL/MOL
REMARK 922        TOTAL FREE ENERGY PREDICTED BY IDOCK:   -1.46 KCAL/MOL
REMARK 923 INTER-LIGAND FREE ENERGY PREDICTED BY IDOCK:   -1.52 KCAL/MOL
REMARK 924 INTRA-LIGAND FREE ENERGY PREDICTED BY IDOCK:    0.06 KCAL/MOL
REMARK 927      BINDING AFFINITY PREDICTED BY RF-SCORE:    0.00 PKD
ROOT
HETATM    1  C   UNL     1      -5.999   8.722  68.523  1.00  0.00    -0.045 C  
HETATM    2  C   UNL     1      -5.337   8.737  67.270  1.00  0.00    -0.037 C  
HETATM    3  C   UNL     1      -6.817   8.675  67.233  1.00  0.00    -0.067 C  
HETATM    4  C   UNL     1      -7.740   8.959  69.048  1.00  0.00    -0.090 C  
HETATM    5  C   UNL     1      -7.511   9.872  68.058  1.00  0.00    -0.085 C  
HETATM    6  C   UNL     1      -9.520   4.420  67.895  1.00  0.00    -0.209 C  
HETATM    7  O   UNL     1      -9.125   9.093  69.372  1.00  0.00    -0.141 OA 
HETATM    8  C   UNL     1      -8.944   9.097  67.137  1.00  0.00    -0.137 C  
HETATM    9  C   UNL     1      -7.400  11.369  68.081  1.00  0.00    -0.092 C  
HETATM   10  C   UNL     1      -6.565   6.994  68.853  1.00  0.00    -0.048 C  
HETATM   11  H   UNL     1      -9.551   9.223  70.210  1.00  0.00     0.000 HD 
HETATM   12  C   UNL     1      -9.128   7.401  67.543  1.00  0.00    -0.128 C  
HETATM   13  C   UNL     1      -7.837   6.404  67.928  1.00  0.00    -0.104 C  
HETATM   14  C   UNL     1      -8.182   4.971  68.351  1.00  0.00    -0.085 C  
HETATM   15  C   UNL     1      -7.264   4.183  68.965  1.00  0.00    -0.054 C  
HETATM   16  C   UNL     1      -5.855   4.629  69.313  1.00  0.00    -0.017 C  
HETATM   17  C   UNL     1      -7.531   2.739  69.338  1.00  0.00    -0.044 C  
HETATM   18  C   UNL     1      -5.422   5.986  68.751  1.00  0.00    -0.007 C  
HETATM   19  C   UNL     1      -8.974   2.346  69.107  1.00  0.00    -0.111 C  
HETATM   20  C   UNL     1      -9.609   2.900  67.866  1.00  0.00    -0.098 C  
HETATM   21  O   UNL     1      -9.552   1.528  69.823  1.00  0.00    -0.089 OA 
ENDROOT
BRANCH   4  22
HETATM   22  C   UNL     1      -7.146   9.593  70.342  1.00  0.00    -0.138 C  
HETATM   23  C   UNL     1      -6.636  10.068  71.314  1.00  0.00     0.309 C  
ENDBRANCH   4  22
TORSDOF 1
ENDMDL
MODEL      121
REMARK 921   NORMALIZED FREE ENERGY PREDICTED BY IDOCK:   -0.37 KCAL/MOL
REMARK 922        TOTAL FREE ENERGY PREDICTED BY IDOCK:   -0.40 KCAL/MOL
REMARK 923 INTER-LIGAND FREE ENERGY PREDICTED BY IDOCK:   -0.46 KCAL/MOL
REMARK 924 INTRA-LIGAND FREE ENERGY PREDICTED BY IDOCK:    0.06 KCAL/MOL
REMARK 927      BINDING AFFINITY PREDICTED BY RF-SCORE:    0.00 PKD
ROOT
HETATM    1  C   UNL     1      -9.571   8.442  70.264  1.00  0.00    -0.170 C  
HETATM    2  C   UNL     1      -8.842   9.600  70.632  1.00  0.00    -0.084 C  
HETATM    3  C   UNL     1      -8.143   8.632  69.756  1.00  0.00    -0.114 C  
HETATM    4  C   UNL     1      -9.329   7.130  69.006  1.00  0.00    -0.140 C  
HETATM    5  C   UNL     1      -8.964   8.304  68.410  1.00  0.00    -0.136 C  
HETATM    6  C   UNL     1      -5.901   4.377  71.407  1.00  0.00    -0.016 C  
HETATM    7  O   UNL     1      -9.040   6.114  68.045  1.00  0.00    -0.117 OA 
HETATM    8  C   UNL     1      -7.294   7.520  68.095  1.00  0.00    -0.096 C  
HETATM    9  C   UNL     1      -9.595   9.110  67.311  1.00  0.00    -0.200 C  
HETATM   10  C   UNL     1      -8.942   7.024  71.268  1.00  0.00    -0.137 C  
HETATM   11  H   UNL     1      -9.589   5.420  67.699  1.00  0.00     0.000 HD 
HETATM   12  C   UNL     1      -6.907   6.321  69.316  1.00  0.00    -0.062 C  
HETATM   13  C   UNL     1      -7.409   6.438  70.910  1.00  0.00    -0.083 C  
HETATM   14  C   UNL     1      -7.065   5.256  71.825  1.00  0.00    -0.075 C  
HETATM   15  C   UNL     1      -7.670   5.104  73.028  1.00  0.00    -0.097 C  
HETATM   16  C   UNL     1      -8.737   6.039  73.569  1.00  0.00    -0.125 C  
HETATM   17  C   UNL     1      -7.314   3.997  73.999  1.00  0.00    -0.067 C  
HETATM   18  C   UNL     1      -8.978   7.321  72.766  1.00  0.00    -0.166 C  
HETATM   19  C   UNL     1      -6.349   2.999  73.399  1.00  0.00    -0.020 C  
HETATM   20  C   UNL     1      -5.266   3.578  72.537  1.00  0.00     0.000 C  
HETATM   21  O   UNL     1      -6.373   1.804  73.696  1.00  0.00    -0.011 OA 
ENDROOT
BRANCH   4  22
HETATM   22  C   UNL     1     -10.885   7.086  68.916  1.00  0.00    -0.203 C  
HETATM   23  C   UNL     1     -12.080   7.111  68.856  1.00  0.00     1.659 C  
ENDBRANCH   4  22
TORSDOF 1
ENDMDL
MODEL      122
REMARK 921   NORMALIZED FREE ENERGY PREDICTED BY IDOCK:   -0.02 KCAL/MOL
REMARK 922        TOTAL FREE ENERGY PREDICTED BY IDOCK:   -0.03 KCAL/MOL
REMARK 923 INTER-LIGAND FREE ENERGY PREDICTED BY IDOCK:   -0.05 KCAL/MOL
REMARK 924 INTRA-LIGAND FREE ENERGY PREDICTED BY IDOCK:    0.02 KCAL/MOL
REMARK 927      BINDING AFFINITY PREDICTED BY RF-SCORE:    0.00 PKD
ROOT
HETATM    1  C   UNL     1      -7.281  13.496  69.794  1.00  0.00     0.492 C  
HETATM    2  C   UNL     1      -6.241  13.250  70.725  1.00  0.00     0.241 C  
HETATM    3  C   UNL     1      -5.827  13.489  69.323  1.00  0.00    -0.086 C  
HETATM    4  C   UNL     1      -7.329  14.136  68.076  1.00  0.00    -0.140 C  
HETATM    5  C   UNL     1      -6.391  14.879  68.735  1.00  0.00    -0.082 C  
HETATM    6  C   UNL     1      -5.962   9.967  65.659  1.00  0.00    -0.073 C  
HETATM    7  O   UNL     1      -7.279  14.583  66.720  1.00  0.00    -0.252 OA 
HETATM    8  C   UNL     1      -5.168  14.327  67.431  1.00  0.00     0.402 C  
HETATM    9  C   UNL     1      -6.375  16.316  69.170  1.00  0.00    -0.168 C  
HETATM   10  C   UNL     1      -7.531  11.962  68.794  1.00  0.00    -0.100 C  
HETATM   11  H   UNL     1      -7.973  14.881  66.145  1.00  0.00     0.000 HD 
HETATM   12  C   UNL     1      -5.589  12.753  66.780  1.00  0.00     0.847 C  
HETATM   13  C   UNL     1      -6.337  11.557  67.684  1.00  0.00    -0.066 C  
HETATM   14  C   UNL     1      -6.721  10.274  66.935  1.00  0.00    -0.081 C  
HETATM   15  C   UNL     1      -7.585   9.381  67.478  1.00  0.00    -0.091 C  
HETATM   16  C   UNL     1      -8.263   9.560  68.824  1.00  0.00    -0.112 C  
HETATM   17  C   UNL     1      -7.941   8.066  66.813  1.00  0.00    -0.103 C  
HETATM   18  C   UNL     1      -7.771  10.737  69.672  1.00  0.00    -0.020 C  
HETATM   19  C   UNL     1      -7.365   7.956  65.418  1.00  0.00    -0.076 C  
HETATM   20  C   UNL     1      -5.979   8.502  65.241  1.00  0.00    -0.048 C  
HETATM   21  O   UNL     1      -7.944   7.350  64.517  1.00  0.00    -0.134 OA 
ENDROOT
BRANCH   4  22
HETATM   22  C   UNL     1      -8.703  14.760  68.467  1.00  0.00    -0.174 C  
HETATM   23  C   UNL     1      -9.781  15.185  68.764  1.00  0.00    -0.221 C  
ENDBRANCH   4  22
TORSDOF 1
ENDMDL
MODEL      123
REMARK 921   NORMALIZED FREE ENERGY PREDICTED BY IDOCK:    1.62 KCAL/MOL
REMARK 922        TOTAL FREE ENERGY PREDICTED BY IDOCK:    1.70 KCAL/MOL
REMARK 923 INTER-LIGAND FREE ENERGY PREDICTED BY IDOCK:    1.69 KCAL/MOL
REMARK 924 INTRA-LIGAND FREE ENERGY PREDICTED BY IDOCK:    0.02 KCAL/MOL
REMARK 927      BINDING AFFINITY PREDICTED BY RF-SCORE:    0.00 PKD
ROOT
HETATM    1  C   UNL     1      -7.126   8.399  66.364  1.00  0.00    -0.071 C  
HETATM    2  C   UNL     1      -5.848   8.015  66.841  1.00  0.00    -0.048 C  
HETATM    3  C   UNL     1      -6.125   7.748  65.410  1.00  0.00    -0.038 C  
HETATM    4  C   UNL     1      -7.859   8.588  64.694  1.00  0.00    -0.131 C  
HETATM    5  C   UNL     1      -6.583   9.068  64.607  1.00  0.00    -0.071 C  
HETATM    6  C   UNL     1      -8.786   3.765  63.706  1.00  0.00    -0.100 C  
HETATM    7  O   UNL     1      -8.377   8.652  63.364  1.00  0.00    -0.253 OA 
HETATM    8  C   UNL     1      -6.300   7.814  63.247  1.00  0.00    -0.067 C  
HETATM    9  C   UNL     1      -6.044  10.457  64.424  1.00  0.00    -0.085 C  
HETATM   10  C   UNL     1      -8.158   6.876  66.197  1.00  0.00    -0.115 C  
HETATM   11  H   UNL     1      -9.178   9.040  63.033  1.00  0.00     0.000 HD 
HETATM   12  C   UNL     1      -7.317   6.399  63.455  1.00  0.00    -0.066 C  
HETATM   13  C   UNL     1      -7.774   5.811  64.956  1.00  0.00    -0.096 C  
HETATM   14  C   UNL     1      -8.743   4.621  64.958  1.00  0.00    -0.143 C  
HETATM   15  C   UNL     1      -9.407   4.263  66.084  1.00  0.00    -0.164 C  
HETATM   16  C   UNL     1      -9.290   4.991  67.411  1.00  0.00    -0.138 C  
HETATM   17  C   UNL     1     -10.319   3.055  66.158  1.00  0.00     1.588 C  
HETATM   18  C   UNL     1      -8.204   6.069  67.492  1.00  0.00    -0.106 C  
HETATM   19  C   UNL     1     -10.531   2.415  64.803  1.00  0.00     0.788 C  
HETATM   20  C   UNL     1      -9.324   2.355  63.915  1.00  0.00    -0.116 C  
HETATM   21  O   UNL     1     -11.592   1.870  64.496  1.00  0.00     1.523 OA 
ENDROOT
BRANCH   4  22
HETATM   22  C   UNL     1      -8.696   9.747  65.315  1.00  0.00    -0.182 C  
HETATM   23  C   UNL     1      -9.371  10.596  65.821  1.00  0.00    -0.223 C  
ENDBRANCH   4  22
TORSDOF 1
ENDMDL
MODEL      124
REMARK 921   NORMALIZED FREE ENERGY PREDICTED BY IDOCK:    1.72 KCAL/MOL
REMARK 922        TOTAL FREE ENERGY PREDICTED BY IDOCK:    1.81 KCAL/MOL
REMARK 923 INTER-LIGAND FREE ENERGY PREDICTED BY IDOCK:    1.75 KCAL/MOL
REMARK 924 INTRA-LIGAND FREE ENERGY PREDICTED BY IDOCK:    0.06 KCAL/MOL
REMARK 927      BINDING AFFINITY PREDICTED BY RF-SCORE:    0.00 PKD
ROOT
HETATM    1  C   UNL     1      -6.961  13.018  67.835  1.00  0.00    -0.127 C  
HETATM    2  C   UNL     1      -7.115  14.140  66.984  1.00  0.00     0.556 C  
HETATM    3  C   UNL     1      -8.281  13.233  67.095  1.00  0.00    -0.123 C  
HETATM    4  C   UNL     1      -8.125  11.799  68.560  1.00  0.00    -0.140 C  
HETATM    5  C   UNL     1      -8.754  13.011  68.619  1.00  0.00     0.055 C  
HETATM    6  C   UNL     1      -8.754   8.853  64.558  1.00  0.00    -0.120 C  
HETATM    7  O   UNL     1      -9.083  10.853  69.036  1.00  0.00    -0.253 OA 
HETATM    8  C   UNL     1     -10.138  12.239  67.624  1.00  0.00    -0.204 C  
HETATM    9  C   UNL     1      -9.111  13.899  69.775  1.00  0.00     1.441 C  
HETATM   10  C   UNL     1      -6.702  11.526  66.776  1.00  0.00    -0.121 C  
HETATM   11  H   UNL     1      -9.010  10.191  69.713  1.00  0.00     0.000 HD 
HETATM   12  C   UNL     1      -9.546  10.951  66.590  1.00  0.00    -0.213 C  
HETATM   13  C   UNL     1      -8.019  10.956  65.902  1.00  0.00    -0.105 C  
HETATM   14  C   UNL     1      -7.625   9.708  65.102  1.00  0.00    -0.114 C  
HETATM   15  C   UNL     1      -6.333   9.473  64.763  1.00  0.00    -0.083 C  
HETATM   16  C   UNL     1      -5.174  10.374  65.150  1.00  0.00    -0.110 C  
HETATM   17  C   UNL     1      -5.902   8.295  63.913  1.00  0.00    -0.066 C  
HETATM   18  C   UNL     1      -5.548  11.712  65.793  1.00  0.00     0.750 C  
HETATM   19  C   UNL     1      -7.041   7.336  63.645  1.00  0.00    -0.066 C  
HETATM   20  C   UNL     1      -8.375   7.969  63.377  1.00  0.00     0.041 C  
HETATM   21  O   UNL     1      -6.863   6.123  63.531  1.00  0.00    -0.038 OA 
ENDROOT
BRANCH   4  22
HETATM   22  C   UNL     1      -7.158  11.773  69.783  1.00  0.00     0.289 C  
HETATM   23  C   UNL     1      -6.382  11.792  70.693  1.00  0.00     0.506 C  
ENDBRANCH   4  22
TORSDOF 1
ENDMDL
MODEL      125
REMARK 921   NORMALIZED FREE ENERGY PREDICTED BY IDOCK:    1.82 KCAL/MOL
REMARK 922        TOTAL FREE ENERGY PREDICTED BY IDOCK:    1.92 KCAL/MOL
REMARK 923 INTER-LIGAND FREE ENERGY PREDICTED BY IDOCK:    1.90 KCAL/MOL
REMARK 924 INTRA-LIGAND FREE ENERGY PREDICTED BY IDOCK:    0.01 KCAL/MOL
REMARK 927      BINDING AFFINITY PREDICTED BY RF-SCORE:    0.00 PKD
ROOT
HETATM    1  C   UNL     1     -11.808  15.307  69.623  1.00  0.00    -0.363 C  
HETATM    2  C   UNL     1     -12.528  15.497  68.418  1.00  0.00     0.622 C  
HETATM    3  C   UNL     1     -12.861  14.284  69.199  1.00  0.00     0.752 C  
HETATM    4  C   UNL     1     -12.019  14.202  71.072  1.00  0.00    -0.275 C  
HETATM    5  C   UNL     1     -13.273  14.615  70.720  1.00  0.00    -0.333 C  
HETATM    6  C   UNL     1     -10.136   9.992  69.117  1.00  0.00    -0.219 C  
HETATM    7  O   UNL     1     -12.214  13.269  72.136  1.00  0.00     0.199 OA 
HETATM    8  C   UNL     1     -13.719  12.806  70.539  1.00  0.00     1.977 C  
HETATM    9  C   UNL     1     -14.253  15.530  71.394  1.00  0.00    -0.399 C  
HETATM   10  C   UNL     1     -10.534  14.001  69.330  1.00  0.00     0.046 C  
HETATM   11  H   UNL     1     -11.825  13.231  73.001  1.00  0.00     0.000 HD 
HETATM   12  C   UNL     1     -12.323  11.841  70.097  1.00  0.00    -0.272 C  
HETATM   13  C   UNL     1     -11.071  12.420  69.145  1.00  0.00    -0.260 C  
HETATM   14  C   UNL     1      -9.881  11.476  68.932  1.00  0.00    -0.091 C  
HETATM   15  C   UNL     1      -8.702  11.936  68.446  1.00  0.00    -0.157 C  
HETATM   16  C   UNL     1      -8.433  13.390  68.098  1.00  0.00    -0.172 C  
HETATM   17  C   UNL     1      -7.521  11.034  68.150  1.00  0.00    -0.092 C  
HETATM   18  C   UNL     1      -9.646  14.324  68.131  1.00  0.00    -0.218 C  
HETATM   19  C   UNL     1      -7.752   9.615  68.621  1.00  0.00    -0.080 C  
HETATM   20  C   UNL     1      -9.139   9.079  68.415  1.00  0.00    -0.133 C  
HETATM   21  O   UNL     1      -6.835   8.904  69.032  1.00  0.00    -0.057 OA 
ENDROOT
BRANCH   4  22
HETATM   22  C   UNL     1     -11.417  15.371  71.909  1.00  0.00    -0.513 C  
HETATM   23  C   UNL     1     -10.901  16.252  72.534  1.00  0.00     1.943 C  
ENDBRANCH   4  22
TORSDOF 1
ENDMDL
MODEL      126
REMARK 921   NORMALIZED FREE ENERGY PREDICTED BY IDOCK:    3.07 KCAL/MOL
REMARK 922        TOTAL FREE ENERGY PREDICTED BY IDOCK:    3.24 KCAL/MOL
REMARK 923 INTER-LIGAND FREE ENERGY PREDICTED BY IDOCK:    3.26 KCAL/MOL
REMARK 924 INTRA-LIGAND FREE ENERGY PREDICTED BY IDOCK:   -0.01 KCAL/MOL
REMARK 927      BINDING AFFINITY PREDICTED BY RF-SCORE:    0.00 PKD
ROOT
HETATM    1  C   UNL     1      -7.580  15.949  70.225  1.00  0.00     1.012 C  
HETATM    2  C   UNL     1      -6.459  16.578  69.629  1.00  0.00    -0.198 C  
HETATM    3  C   UNL     1      -7.307  15.756  68.734  1.00  0.00    -0.141 C  
HETATM    4  C   UNL     1      -9.075  15.116  69.565  1.00  0.00    -0.128 C  
HETATM    5  C   UNL     1      -8.855  16.200  68.763  1.00  0.00    -0.233 C  
HETATM    6  C   UNL     1      -7.040  10.690  68.395  1.00  0.00    -0.078 C  
HETATM    7  O   UNL     1     -10.179  14.428  68.976  1.00  0.00    -0.267 OA 
HETATM    8  C   UNL     1      -8.777  15.005  67.324  1.00  0.00    -0.221 C  
HETATM    9  C   UNL     1      -9.609  17.486  68.586  1.00  0.00    -0.303 C  
HETATM   10  C   UNL     1      -7.182  14.159  70.450  1.00  0.00     0.720 C  
HETATM   11  H   UNL     1     -10.996  14.133  69.360  1.00  0.00     0.000 HD 
HETATM   12  C   UNL     1      -8.208  13.425  67.831  1.00  0.00    -0.162 C  
HETATM   13  C   UNL     1      -7.105  13.202  69.072  1.00  0.00    -0.030 C  
HETATM   14  C   UNL     1      -6.785  11.750  69.451  1.00  0.00    -0.098 C  
HETATM   15  C   UNL     1      -6.156  11.453  70.614  1.00  0.00     0.041 C  
HETATM   16  C   UNL     1      -5.738  12.487  71.645  1.00  0.00     0.560 C  
HETATM   17  C   UNL     1      -5.754  10.044  71.001  1.00  0.00    -0.083 C  
HETATM   18  C   UNL     1      -5.881  13.952  71.223  1.00  0.00    -0.188 C  
HETATM   19  C   UNL     1      -6.288   9.011  70.034  1.00  0.00    -0.038 C  
HETATM   20  C   UNL     1      -6.257   9.398  68.584  1.00  0.00    -0.044 C  
HETATM   21  O   UNL     1      -6.614   7.880  70.397  1.00  0.00    -0.037 OA 
ENDROOT
BRANCH   4  22
HETATM   22  C   UNL     1      -9.804  15.674  70.825  1.00  0.00     1.016 C  
HETATM   23  C   UNL     1     -10.397  16.052  71.792  1.00  0.00     2.157 C  
ENDBRANCH   4  22
TORSDOF 1
ENDMDL
MODEL      127
REMARK 921   NORMALIZED FREE ENERGY PREDICTED BY IDOCK:    4.31 KCAL/MOL
REMARK 922        TOTAL FREE ENERGY PREDICTED BY IDOCK:    4.56 KCAL/MOL
REMARK 923 INTER-LIGAND FREE ENERGY PREDICTED BY IDOCK:    4.49 KCAL/MOL
REMARK 924 INTRA-LIGAND FREE ENERGY PREDICTED BY IDOCK:    0.06 KCAL/MOL
REMARK 927      BINDING AFFINITY PREDICTED BY RF-SCORE:    0.00 PKD
ROOT
HETATM    1  C   UNL     1      -9.936   8.476  70.706  1.00  0.00    -0.230 C  
HETATM    2  C   UNL     1      -9.347   8.160  71.955  1.00  0.00    -0.251 C  
HETATM    3  C   UNL     1      -8.432   8.219  70.792  1.00  0.00    -0.139 C  
HETATM    4  C   UNL     1      -9.268   8.972  69.071  1.00  0.00    -0.140 C  
HETATM    5  C   UNL     1      -8.514   9.623  70.006  1.00  0.00    -0.223 C  
HETATM    6  C   UNL     1      -7.845   4.463  67.416  1.00  0.00    -0.096 C  
HETATM    7  O   UNL     1      -8.670   9.293  67.814  1.00  0.00    -0.120 OA 
HETATM    8  C   UNL     1      -7.018   8.793  69.247  1.00  0.00    -0.058 C  
HETATM    9  C   UNL     1      -8.415  11.073  70.381  1.00  0.00     2.453 C  
HETATM   10  C   UNL     1     -10.066   6.918  69.721  1.00  0.00    -0.196 C  
HETATM   11  H   UNL     1      -9.056   9.641  67.019  1.00  0.00     0.000 HD 
HETATM   12  C   UNL     1      -7.437   7.249  68.527  1.00  0.00    -0.105 C  
HETATM   13  C   UNL     1      -8.642   6.253  69.128  1.00  0.00    -0.120 C  
HETATM   14  C   UNL     1      -8.944   4.982  68.324  1.00  0.00    -0.120 C  
HETATM   15  C   UNL     1     -10.079   4.272  68.539  1.00  0.00     0.096 C  
HETATM   16  C   UNL     1     -11.149   4.659  69.544  1.00  0.00     2.394 C  
HETATM   17  C   UNL     1     -10.389   2.972  67.823  1.00  0.00     2.080 C  
HETATM   18  C   UNL     1     -10.801   5.817  70.483  1.00  0.00    -0.348 C  
HETATM   19  C   UNL     1      -9.385   2.665  66.735  1.00  0.00    -0.017 C  
HETATM   20  C   UNL     1      -7.955   2.987  67.057  1.00  0.00    -0.079 C  
HETATM   21  O   UNL     1      -9.700   2.076  65.700  1.00  0.00     0.218 OA 
ENDROOT
BRANCH   4  22
HETATM   22  C   UNL     1     -10.568   9.820  68.923  1.00  0.00    -0.240 C  
HETATM   23  C   UNL     1     -11.563  10.481  68.867  1.00  0.00    -0.266 C  
ENDBRANCH   4  22
TORSDOF 1
ENDMDL
MODEL      128
REMARK 921   NORMALIZED FREE ENERGY PREDICTED BY IDOCK:    5.67 KCAL/MOL
REMARK 922        TOTAL FREE ENERGY PREDICTED BY IDOCK:    6.00 KCAL/MOL
REMARK 923 INTER-LIGAND FREE ENERGY PREDICTED BY IDOCK:    5.93 KCAL/MOL
REMARK 924 INTRA-LIGAND FREE ENERGY PREDICTED BY IDOCK:    0.06 KCAL/MOL
REMARK 927      BINDING AFFINITY PREDICTED BY RF-SCORE:    0.00 PKD
ROOT
HETATM    1  C   UNL     1      -7.724  12.024  65.917  1.00  0.00     0.980 C  
HETATM    2  C   UNL     1      -6.340  12.299  66.042  1.00  0.00     2.072 C  
HETATM    3  C   UNL     1      -6.715  10.878  65.856  1.00  0.00    -0.038 C  
HETATM    4  C   UNL     1      -8.690  10.560  65.378  1.00  0.00    -0.183 C  
HETATM    5  C   UNL     1      -7.613  10.638  64.540  1.00  0.00     0.161 C  
HETATM    6  C   UNL     1      -8.389   7.847  69.579  1.00  0.00    -0.131 C  
HETATM    7  O   UNL     1      -9.371   9.361  65.006  1.00  0.00    -0.341 OA 
HETATM    8  C   UNL     1      -7.177   8.901  65.084  1.00  0.00    -0.087 C  
HETATM    9  C   UNL     1      -7.500  10.981  63.083  1.00  0.00     0.439 C  
HETATM   10  C   UNL     1      -8.316  11.314  67.517  1.00  0.00    -0.131 C  
HETATM   11  H   UNL     1     -10.283   9.214  64.786  1.00  0.00     0.000 HD 
HETATM   12  C   UNL     1      -7.736   8.580  66.716  1.00  0.00    -0.091 C  
HETATM   13  C   UNL     1      -7.820   9.757  67.906  1.00  0.00    -0.090 C  
HETATM   14  C   UNL     1      -8.420   9.328  69.251  1.00  0.00    -0.137 C  
HETATM   15  C   UNL     1      -8.812  10.248  70.166  1.00  0.00     0.251 C  
HETATM   16  C   UNL     1      -8.728  11.750  69.955  1.00  0.00     2.737 C  
HETATM   17  C   UNL     1      -9.343   9.878  71.536  1.00  0.00     1.778 C  
HETATM   18  C   UNL     1      -7.975  12.211  68.704  1.00  0.00    -0.063 C  
HETATM   19  C   UNL     1      -9.546   8.386  71.687  1.00  0.00    -0.221 C  
HETATM   20  C   UNL     1      -8.492   7.519  71.063  1.00  0.00    -0.117 C  
HETATM   21  O   UNL     1     -10.448   7.915  72.379  1.00  0.00    -0.232 OA 
ENDROOT
BRANCH   4  22
HETATM   22  C   UNL     1      -9.723  11.586  64.823  1.00  0.00    -0.250 C  
HETATM   23  C   UNL     1     -10.472  12.411  64.387  1.00  0.00    -0.371 C  
ENDBRANCH   4  22
TORSDOF 1
ENDMDL
MODEL      129
REMARK 921   NORMALIZED FREE ENERGY PREDICTED BY IDOCK:    9.18 KCAL/MOL
REMARK 922        TOTAL FREE ENERGY PREDICTED BY IDOCK:    9.71 KCAL/MOL
REMARK 923 INTER-LIGAND FREE ENERGY PREDICTED BY IDOCK:    9.65 KCAL/MOL
REMARK 924 INTRA-LIGAND FREE ENERGY PREDICTED BY IDOCK:    0.06 KCAL/MOL
REMARK 927      BINDING AFFINITY PREDICTED BY RF-SCORE:    0.00 PKD
ROOT
HETATM    1  C   UNL     1      -6.899  12.161  67.639  1.00  0.00    -0.119 C  
HETATM    2  C   UNL     1      -5.801  12.616  66.867  1.00  0.00     0.435 C  
HETATM    3  C   UNL     1      -6.975  13.517  66.939  1.00  0.00     0.884 C  
HETATM    4  C   UNL     1      -8.410  12.961  68.303  1.00  0.00    -0.157 C  
HETATM    5  C   UNL     1      -7.398  13.868  68.453  1.00  0.00    -0.115 C  
HETATM    6  C   UNL     1     -11.175  12.975  64.125  1.00  0.00    -0.439 C  
HETATM    7  O   UNL     1      -9.591  13.640  68.732  1.00  0.00    -0.382 OA 
HETATM    8  C   UNL     1      -8.430  15.051  67.433  1.00  0.00    -0.202 C  
HETATM    9  C   UNL     1      -6.698  14.396  69.671  1.00  0.00    -0.137 C  
HETATM   10  C   UNL     1      -8.213  11.576  66.480  1.00  0.00    -0.129 C  
HETATM   11  H   UNL     1     -10.254  13.383  69.362  1.00  0.00     0.000 HD 
HETATM   12  C   UNL     1      -9.466  14.193  66.306  1.00  0.00    -0.264 C  
HETATM   13  C   UNL     1      -9.039  12.738  65.593  1.00  0.00     0.410 C  
HETATM   14  C   UNL     1     -10.100  12.075  64.705  1.00  0.00    -0.286 C  
HETATM   15  C   UNL     1      -9.985  10.777  64.330  1.00  0.00    -0.403 C  
HETATM   16  C   UNL     1      -8.849   9.865  64.755  1.00  0.00    -0.232 C  
HETATM   17  C   UNL     1     -10.966  10.097  63.397  1.00  0.00     2.645 C  
HETATM   18  C   UNL     1      -7.687  10.537  65.492  1.00  0.00    -0.127 C  
HETATM   19  C   UNL     1     -12.160  10.971  63.085  1.00  0.00     1.348 C  
HETATM   20  C   UNL     1     -11.865  12.428  62.883  1.00  0.00     0.181 C  
HETATM   21  O   UNL     1     -13.282  10.502  62.888  1.00  0.00     3.235 OA 
ENDROOT
BRANCH   4  22
HETATM   22  C   UNL     1      -8.267  11.979  69.504  1.00  0.00     1.064 C  
HETATM   23  C   UNL     1      -8.104  11.209  70.406  1.00  0.00     2.435 C  
ENDBRANCH   4  22
TORSDOF 1
ENDMDL
MODEL      130
REMARK 921   NORMALIZED FREE ENERGY PREDICTED BY IDOCK:   11.24 KCAL/MOL
REMARK 922        TOTAL FREE ENERGY PREDICTED BY IDOCK:   11.89 KCAL/MOL
REMARK 923 INTER-LIGAND FREE ENERGY PREDICTED BY IDOCK:   11.86 KCAL/MOL
REMARK 924 INTRA-LIGAND FREE ENERGY PREDICTED BY IDOCK:    0.03 KCAL/MOL
REMARK 927      BINDING AFFINITY PREDICTED BY RF-SCORE:    0.00 PKD
ROOT
HETATM    1  C   UNL     1      -6.775  16.030  69.259  1.00  0.00    -0.185 C  
HETATM    2  C   UNL     1      -5.526  16.638  69.533  1.00  0.00    -0.152 C  
HETATM    3  C   UNL     1      -5.526  15.566  68.512  1.00  0.00    -0.102 C  
HETATM    4  C   UNL     1      -7.390  14.925  67.930  1.00  0.00    -0.147 C  
HETATM    5  C   UNL     1      -6.577  15.839  67.322  1.00  0.00    -0.169 C  
HETATM    6  C   UNL     1      -5.485  10.596  69.580  1.00  0.00    -0.038 C  
HETATM    7  O   UNL     1      -7.777  14.018  66.896  1.00  0.00    -0.336 OA 
HETATM    8  C   UNL     1      -5.576  14.391  66.686  1.00  0.00     2.773 C  
HETATM    9  C   UNL     1      -6.869  16.974  66.384  1.00  0.00    -0.248 C  
HETATM   10  C   UNL     1      -6.801  14.376  70.082  1.00  0.00     0.012 C  
HETATM   11  H   UNL     1      -8.639  13.722  66.628  1.00  0.00     0.000 HD 
HETATM   12  C   UNL     1      -5.671  13.017  67.774  1.00  0.00    -0.134 C  
HETATM   13  C   UNL     1      -5.826  13.171  69.435  1.00  0.00    -0.095 C  
HETATM   14  C   UNL     1      -5.991  11.869  70.230  1.00  0.00    -0.150 C  
HETATM   15  C   UNL     1      -6.421  11.886  71.516  1.00  0.00     2.860 C  
HETATM   16  C   UNL     1      -6.799  13.147  72.272  1.00  0.00     5.184 C  
HETATM   17  C   UNL     1      -6.532  10.636  72.366  1.00  0.00     2.656 C  
HETATM   18  C   UNL     1      -6.480  14.471  71.572  1.00  0.00     0.639 C  
HETATM   19  C   UNL     1      -6.280   9.377  71.568  1.00  0.00    -0.011 C  
HETATM   20  C   UNL     1      -5.182   9.460  70.549  1.00  0.00    -0.031 C  
HETATM   21  O   UNL     1      -6.852   8.316  71.820  1.00  0.00    -0.066 OA 
ENDROOT
BRANCH   4  22
HETATM   22  C   UNL     1      -8.759  15.647  68.117  1.00  0.00    -0.168 C  
HETATM   23  C   UNL     1      -9.807  16.217  68.203  1.00  0.00    -0.229 C  
ENDBRANCH   4  22
TORSDOF 1
ENDMDL
MODEL      131
REMARK 921   NORMALIZED FREE ENERGY PREDICTED BY IDOCK:   13.55 KCAL/MOL
REMARK 922        TOTAL FREE ENERGY PREDICTED BY IDOCK:   14.33 KCAL/MOL
REMARK 923 INTER-LIGAND FREE ENERGY PREDICTED BY IDOCK:   14.33 KCAL/MOL
REMARK 924 INTRA-LIGAND FREE ENERGY PREDICTED BY IDOCK:   -0.00 KCAL/MOL
REMARK 927      BINDING AFFINITY PREDICTED BY RF-SCORE:    0.00 PKD
ROOT
HETATM    1  C   UNL     1      -9.064  16.719  69.734  1.00  0.00     0.794 C  
HETATM    2  C   UNL     1      -9.130  17.901  68.956  1.00  0.00    -0.029 C  
HETATM    3  C   UNL     1     -10.401  17.164  69.144  1.00  0.00    -0.297 C  
HETATM    4  C   UNL     1     -10.321  15.635  70.516  1.00  0.00     0.020 C  
HETATM    5  C   UNL     1     -10.756  16.918  70.696  1.00  0.00     0.625 C  
HETATM    6  C   UNL     1     -11.752  13.060  66.464  1.00  0.00    -0.437 C  
HETATM    7  O   UNL     1     -11.359  14.808  71.042  1.00  0.00    -0.467 OA 
HETATM    8  C   UNL     1     -12.326  16.414  69.812  1.00  0.00     0.864 C  
HETATM    9  C   UNL     1     -10.868  17.776  71.923  1.00  0.00     2.765 C  
HETATM   10  C   UNL     1      -9.129  15.272  68.585  1.00  0.00    -0.193 C  
HETATM   11  H   UNL     1     -11.322  14.101  71.676  1.00  0.00     0.000 HD 
HETATM   12  C   UNL     1     -12.031  15.121  68.663  1.00  0.00    -0.270 C  
HETATM   13  C   UNL     1     -10.591  14.951  67.824  1.00  0.00    -0.262 C  
HETATM   14  C   UNL     1     -10.463  13.711  66.930  1.00  0.00    -0.272 C  
HETATM   15  C   UNL     1      -9.257  13.316  66.451  1.00  0.00    -0.133 C  
HETATM   16  C   UNL     1      -7.947  14.017  66.759  1.00  0.00     0.364 C  
HETATM   17  C   UNL     1      -9.087  12.143  65.507  1.00  0.00     0.204 C  
HETATM   18  C   UNL     1      -8.057  15.353  67.500  1.00  0.00    -0.187 C  
HETATM   19  C   UNL     1     -10.375  11.374  65.311  1.00  0.00    -0.282 C  
HETATM   20  C   UNL     1     -11.620  12.205  65.211  1.00  0.00    -0.376 C  
HETATM   21  O   UNL     1     -10.389  10.157  65.123  1.00  0.00    -0.257 OA 
ENDROOT
BRANCH   4  22
HETATM   22  C   UNL     1      -9.258  15.397  71.631  1.00  0.00     4.244 C  
HETATM   23  C   UNL     1      -8.439  15.158  72.470  1.00  0.00     7.913 C  
ENDBRANCH   4  22
TORSDOF 1
ENDMDL
MODEL      132
REMARK 921   NORMALIZED FREE ENERGY PREDICTED BY IDOCK:   16.43 KCAL/MOL
REMARK 922        TOTAL FREE ENERGY PREDICTED BY IDOCK:   17.38 KCAL/MOL
REMARK 923 INTER-LIGAND FREE ENERGY PREDICTED BY IDOCK:   17.33 KCAL/MOL
REMARK 924 INTRA-LIGAND FREE ENERGY PREDICTED BY IDOCK:    0.05 KCAL/MOL
REMARK 927      BINDING AFFINITY PREDICTED BY RF-SCORE:    0.00 PKD
ROOT
HETATM    1  C   UNL     1     -12.893  13.764  68.958  1.00  0.00     1.048 C  
HETATM    2  C   UNL     1     -13.988  13.603  69.843  1.00  0.00     3.635 C  
HETATM    3  C   UNL     1     -12.662  13.818  70.467  1.00  0.00    -0.293 C  
HETATM    4  C   UNL     1     -11.165  14.346  69.161  1.00  0.00    -0.272 C  
HETATM    5  C   UNL     1     -11.937  15.157  69.944  1.00  0.00    -0.372 C  
HETATM    6  C   UNL     1      -9.169  10.177  71.094  1.00  0.00     1.871 C  
HETATM    7  O   UNL     1      -9.819  14.750  69.411  1.00  0.00    -0.373 OA 
HETATM    8  C   UNL     1     -10.870  14.628  71.387  1.00  0.00     0.772 C  
HETATM    9  C   UNL     1     -12.310  16.606  69.823  1.00  0.00     1.681 C  
HETATM   10  C   UNL     1     -11.928  12.189  68.945  1.00  0.00    -0.296 C  
HETATM   11  H   UNL     1      -9.127  14.994  68.807  1.00  0.00     0.000 HD 
HETATM   12  C   UNL     1     -10.223  13.014  71.151  1.00  0.00     7.180 C  
HETATM   13  C   UNL     1     -11.042  11.810  70.321  1.00  0.00     0.516 C  
HETATM   14  C   UNL     1     -10.293  10.486  70.123  1.00  0.00    -0.001 C  
HETATM   15  C   UNL     1     -10.725   9.567  69.224  1.00  0.00    -0.240 C  
HETATM   16  C   UNL     1     -11.936   9.754  68.328  1.00  0.00     1.611 C  
HETATM   17  C   UNL     1     -10.064   8.215  69.042  1.00  0.00    -0.211 C  
HETATM   18  C   UNL     1     -12.805  10.981  68.621  1.00  0.00     1.958 C  
HETATM   19  C   UNL     1      -8.787   8.090  69.842  1.00  0.00    -0.144 C  
HETATM   20  C   UNL     1      -8.813   8.701  71.212  1.00  0.00    -0.263 C  
HETATM   21  O   UNL     1      -7.828   7.426  69.445  1.00  0.00    -0.116 OA 
ENDROOT
BRANCH   4  22
HETATM   22  C   UNL     1     -11.304  14.910  67.715  1.00  0.00    -0.341 C  
HETATM   23  C   UNL     1     -11.434  15.393  66.628  1.00  0.00    -0.019 C  
ENDBRANCH   4  22
TORSDOF 1
ENDMDL
MODEL      133
REMARK 921   NORMALIZED FREE ENERGY PREDICTED BY IDOCK:   18.41 KCAL/MOL
REMARK 922        TOTAL FREE ENERGY PREDICTED BY IDOCK:   19.48 KCAL/MOL
REMARK 923 INTER-LIGAND FREE ENERGY PREDICTED BY IDOCK:   19.46 KCAL/MOL
REMARK 924 INTRA-LIGAND FREE ENERGY PREDICTED BY IDOCK:    0.02 KCAL/MOL
REMARK 927      BINDING AFFINITY PREDICTED BY RF-SCORE:    0.00 PKD
ROOT
HETATM    1  C   UNL     1      -6.367  12.936  69.410  1.00  0.00    -0.109 C  
HETATM    2  C   UNL     1      -6.225  13.889  68.372  1.00  0.00    -0.101 C  
HETATM    3  C   UNL     1      -7.580  13.321  68.564  1.00  0.00    -0.128 C  
HETATM    4  C   UNL     1      -7.807  12.180  70.259  1.00  0.00     3.278 C  
HETATM    5  C   UNL     1      -8.121  13.496  70.071  1.00  0.00     2.117 C  
HETATM    6  C   UNL     1      -9.062   8.794  66.787  1.00  0.00    -0.180 C  
HETATM    7  O   UNL     1      -8.977  11.591  70.829  1.00  0.00     3.619 OA 
HETATM    8  C   UNL     1      -9.633  12.909  69.138  1.00  0.00     0.561 C  
HETATM    9  C   UNL     1      -8.273  14.638  71.034  1.00  0.00     2.981 C  
HETATM   10  C   UNL     1      -6.461  11.259  68.640  1.00  0.00    -0.050 C  
HETATM   11  H   UNL     1      -9.081  11.063  71.612  1.00  0.00     0.000 HD 
HETATM   12  C   UNL     1      -9.355  11.352  68.378  1.00  0.00    -0.194 C  
HETATM   13  C   UNL     1      -7.860  10.870  67.795  1.00  0.00    -0.109 C  
HETATM   14  C   UNL     1      -7.768   9.440  67.246  1.00  0.00    -0.091 C  
HETATM   15  C   UNL     1      -6.567   8.848  67.034  1.00  0.00    -0.061 C  
HETATM   16  C   UNL     1      -5.230   9.503  67.333  1.00  0.00    -0.036 C  
HETATM   17  C   UNL     1      -6.422   7.468  66.427  1.00  0.00    -0.049 C  
HETATM   18  C   UNL     1      -5.278  10.985  67.714  1.00  0.00    -0.039 C  
HETATM   19  C   UNL     1      -7.755   6.775  66.255  1.00  0.00    -0.098 C  
HETATM   20  C   UNL     1      -8.889   7.647  65.800  1.00  0.00    -0.134 C  
HETATM   21  O   UNL     1      -7.877   5.554  66.361  1.00  0.00    -0.098 OA 
ENDROOT
BRANCH   4  22
HETATM   22  C   UNL     1      -6.900  12.147  71.526  1.00  0.00     4.720 C  
HETATM   23  C   UNL     1      -6.248  12.147  72.529  1.00  0.00     3.659 C  
ENDBRANCH   4  22
TORSDOF 1
ENDMDL
MODEL      134
REMARK 921   NORMALIZED FREE ENERGY PREDICTED BY IDOCK:   18.84 KCAL/MOL
REMARK 922        TOTAL FREE ENERGY PREDICTED BY IDOCK:   19.93 KCAL/MOL
REMARK 923 INTER-LIGAND FREE ENERGY PREDICTED BY IDOCK:   19.93 KCAL/MOL
REMARK 924 INTRA-LIGAND FREE ENERGY PREDICTED BY IDOCK:    0.01 KCAL/MOL
REMARK 927      BINDING AFFINITY PREDICTED BY RF-SCORE:    0.00 PKD
ROOT
HETATM    1  C   UNL     1      -6.465  13.550  71.593  1.00  0.00     1.677 C  
HETATM    2  C   UNL     1      -5.138  13.203  71.949  1.00  0.00    -0.123 C  
HETATM    3  C   UNL     1      -5.426  13.306  70.499  1.00  0.00    -0.155 C  
HETATM    4  C   UNL     1      -7.264  14.100  70.037  1.00  0.00     0.341 C  
HETATM    5  C   UNL     1      -6.053  14.731  70.089  1.00  0.00    -0.156 C  
HETATM    6  C   UNL     1      -7.667   9.656  67.760  1.00  0.00    -0.094 C  
HETATM    7  O   UNL     1      -7.825  14.464  68.774  1.00  0.00    -0.135 OA 
HETATM    8  C   UNL     1      -5.671  13.939  68.437  1.00  0.00    -0.103 C  
HETATM    9  C   UNL     1      -5.681  16.171  70.296  1.00  0.00    -0.149 C  
HETATM   10  C   UNL     1      -7.322  12.020  71.011  1.00  0.00     5.000 C  
HETATM   11  H   UNL     1      -8.675  14.831  68.561  1.00  0.00     0.000 HD 
HETATM   12  C   UNL     1      -6.514  12.412  68.246  1.00  0.00    -0.061 C  
HETATM   13  C   UNL     1      -6.857  11.387  69.526  1.00  0.00    -0.097 C  
HETATM   14  C   UNL     1      -7.684  10.137  69.199  1.00  0.00    -0.112 C  
HETATM   15  C   UNL     1      -8.270   9.409  70.182  1.00  0.00    -0.180 C  
HETATM   16  C   UNL     1      -8.196   9.756  71.658  1.00  0.00     1.661 C  
HETATM   17  C   UNL     1      -9.035   8.129  69.918  1.00  0.00    -0.143 C  
HETATM   18  C   UNL     1      -7.238  10.890  72.035  1.00  0.00     5.606 C  
HETATM   19  C   UNL     1      -9.214   7.863  68.440  1.00  0.00    -0.134 C  
HETATM   20  C   UNL     1      -8.035   8.190  67.572  1.00  0.00    -0.122 C  
HETATM   21  O   UNL     1     -10.215   7.302  67.991  1.00  0.00    -0.169 OA 
ENDROOT
BRANCH   4  22
HETATM   22  C   UNL     1      -8.209  14.939  70.950  1.00  0.00     2.350 C  
HETATM   23  C   UNL     1      -8.939  15.622  71.607  1.00  0.00     5.224 C  
ENDBRANCH   4  22
TORSDOF 1
ENDMDL
MODEL      135
REMARK 921   NORMALIZED FREE ENERGY PREDICTED BY IDOCK:   25.91 KCAL/MOL
REMARK 922        TOTAL FREE ENERGY PREDICTED BY IDOCK:   27.42 KCAL/MOL
REMARK 923 INTER-LIGAND FREE ENERGY PREDICTED BY IDOCK:   27.43 KCAL/MOL
REMARK 924 INTRA-LIGAND FREE ENERGY PREDICTED BY IDOCK:   -0.01 KCAL/MOL
REMARK 927      BINDING AFFINITY PREDICTED BY RF-SCORE:    0.00 PKD
ROOT
HETATM    1  C   UNL     1     -12.538  15.161  71.263  1.00  0.00    -0.421 C  
HETATM    2  C   UNL     1     -13.933  15.294  71.468  1.00  0.00    -0.627 C  
HETATM    3  C   UNL     1     -13.376  13.928  71.598  1.00  0.00    -0.437 C  
HETATM    4  C   UNL     1     -11.322  13.827  71.592  1.00  0.00     2.071 C  
HETATM    5  C   UNL     1     -12.170  13.845  72.663  1.00  0.00     0.317 C  
HETATM    6  C   UNL     1     -12.323  10.882  67.665  1.00  0.00     1.866 C  
HETATM    7  O   UNL     1     -10.449  12.721  71.821  1.00  0.00     6.797 OA 
HETATM    8  C   UNL     1     -12.536  12.048  72.289  1.00  0.00     0.584 C  
HETATM    9  C   UNL     1     -11.970  14.252  74.094  1.00  0.00     1.215 C  
HETATM   10  C   UNL     1     -12.272  14.428  69.587  1.00  0.00    -0.353 C  
HETATM   11  H   UNL     1      -9.500  12.675  71.818  1.00  0.00     0.000 HD 
HETATM   12  C   UNL     1     -12.351  11.697  70.580  1.00  0.00    -0.410 C  
HETATM   13  C   UNL     1     -12.678  12.813  69.373  1.00  0.00     0.718 C  
HETATM   14  C   UNL     1     -12.372  12.374  67.935  1.00  0.00     0.489 C  
HETATM   15  C   UNL     1     -12.310  13.279  66.927  1.00  0.00    -0.220 C  
HETATM   16  C   UNL     1     -12.501  14.774  67.110  1.00  0.00     0.401 C  
HETATM   17  C   UNL     1     -12.083  12.890  65.480  1.00  0.00    -0.507 C  
HETATM   18  C   UNL     1     -12.979  15.225  68.493  1.00  0.00     1.708 C  
HETATM   19  C   UNL     1     -11.765  11.419  65.326  1.00  0.00     0.329 C  
HETATM   20  C   UNL     1     -12.542  10.489  66.210  1.00  0.00     6.781 C  
HETATM   21  O   UNL     1     -11.008  11.001  64.449  1.00  0.00    -0.293 OA 
ENDROOT
BRANCH   4  22
HETATM   22  C   UNL     1     -10.301  14.976  71.852  1.00  0.00     1.779 C  
HETATM   23  C   UNL     1      -9.474  15.820  72.037  1.00  0.00     5.642 C  
ENDBRANCH   4  22
TORSDOF 1
ENDMDL
MODEL      136
REMARK 921   NORMALIZED FREE ENERGY PREDICTED BY IDOCK:   28.01 KCAL/MOL
REMARK 922        TOTAL FREE ENERGY PREDICTED BY IDOCK:   29.64 KCAL/MOL
REMARK 923 INTER-LIGAND FREE ENERGY PREDICTED BY IDOCK:   29.58 KCAL/MOL
REMARK 924 INTRA-LIGAND FREE ENERGY PREDICTED BY IDOCK:    0.06 KCAL/MOL
REMARK 927      BINDING AFFINITY PREDICTED BY RF-SCORE:    0.00 PKD
ROOT
HETATM    1  C   UNL     1      -7.482  12.083  65.634  1.00  0.00     1.681 C  
HETATM    2  C   UNL     1      -6.544  12.685  64.760  1.00  0.00     8.817 C  
HETATM    3  C   UNL     1      -6.036  12.277  66.090  1.00  0.00     1.703 C  
HETATM    4  C   UNL     1      -7.342  11.144  67.203  1.00  0.00    -0.121 C  
HETATM    5  C   UNL     1      -6.311  10.722  66.411  1.00  0.00    -0.122 C  
HETATM    6  C   UNL     1      -6.664  14.984  70.348  1.00  0.00     0.060 C  
HETATM    7  O   UNL     1      -7.156  10.475  68.452  1.00  0.00    -0.075 OA 
HETATM    8  C   UNL     1      -5.158  11.247  67.788  1.00  0.00    -0.041 C  
HETATM    9  C   UNL     1      -6.050   9.418  65.716  1.00  0.00    -0.056 C  
HETATM   10  C   UNL     1      -7.967  13.335  66.905  1.00  0.00     0.143 C  
HETATM   11  H   UNL     1      -7.759   9.952  68.966  1.00  0.00     0.000 HD 
HETATM   12  C   UNL     1      -5.833  12.569  68.724  1.00  0.00    -0.064 C  
HETATM   13  C   UNL     1      -6.824  13.748  68.064  1.00  0.00    -0.140 C  
HETATM   14  C   UNL     1      -7.406  14.777  69.041  1.00  0.00    -0.139 C  
HETATM   15  C   UNL     1      -8.440  15.576  68.680  1.00  0.00    -0.174 C  
HETATM   16  C   UNL     1      -9.128  15.521  67.328  1.00  0.00    -0.215 C  
HETATM   17  C   UNL     1      -9.003  16.657  69.581  1.00  0.00     0.499 C  
HETATM   18  C   UNL     1      -8.464  14.632  66.272  1.00  0.00     0.425 C  
HETATM   19  C   UNL     1      -8.401  16.617  70.968  1.00  0.00     5.724 C  
HETATM   20  C   UNL     1      -6.932  16.318  71.031  1.00  0.00     2.722 C  
HETATM   21  O   UNL     1      -9.044  16.930  71.970  1.00  0.00     9.325 OA 
ENDROOT
BRANCH   4  22
HETATM   22  C   UNL     1      -8.593  10.354  66.711  1.00  0.00    -0.125 C  
HETATM   23  C   UNL     1      -9.534   9.756  66.278  1.00  0.00    -0.250 C  
ENDBRANCH   4  22
TORSDOF 1
ENDMDL
MODEL      137
REMARK 921   NORMALIZED FREE ENERGY PREDICTED BY IDOCK:   38.44 KCAL/MOL
REMARK 922        TOTAL FREE ENERGY PREDICTED BY IDOCK:   40.68 KCAL/MOL
REMARK 923 INTER-LIGAND FREE ENERGY PREDICTED BY IDOCK:   40.62 KCAL/MOL
REMARK 924 INTRA-LIGAND FREE ENERGY PREDICTED BY IDOCK:    0.06 KCAL/MOL
REMARK 927      BINDING AFFINITY PREDICTED BY RF-SCORE:    0.00 PKD
ROOT
HETATM    1  C   UNL     1     -10.279  13.259  67.441  1.00  0.00    -0.229 C  
HETATM    2  C   UNL     1     -10.177  13.925  66.195  1.00  0.00    -0.307 C  
HETATM    3  C   UNL     1      -8.916  13.745  66.951  1.00  0.00    -0.234 C  
HETATM    4  C   UNL     1      -9.061  12.518  68.594  1.00  0.00     0.043 C  
HETATM    5  C   UNL     1      -8.634  12.206  67.334  1.00  0.00    -0.175 C  
HETATM    6  C   UNL     1      -7.443  16.711  70.809  1.00  0.00     3.489 C  
HETATM    7  O   UNL     1      -8.048  12.020  69.469  1.00  0.00    -0.023 OA 
HETATM    8  C   UNL     1      -7.024  13.058  67.765  1.00  0.00    -0.143 C  
HETATM    9  C   UNL     1      -8.579  10.904  66.588  1.00  0.00    -0.148 C  
HETATM   10  C   UNL     1     -10.162  14.527  68.781  1.00  0.00    -0.244 C  
HETATM   11  H   UNL     1      -8.115  11.453  70.229  1.00  0.00     0.000 HD 
HETATM   12  C   UNL     1      -7.266  14.328  68.951  1.00  0.00    -0.125 C  
HETATM   13  C   UNL     1      -8.666  15.245  69.040  1.00  0.00    -0.226 C  
HETATM   14  C   UNL     1      -8.753  16.250  70.196  1.00  0.00     1.413 C  
HETATM   15  C   UNL     1      -9.934  16.817  70.542  1.00  0.00     1.639 C  
HETATM   16  C   UNL     1     -11.258  16.509  69.865  1.00  0.00    -0.159 C  
HETATM   17  C   UNL     1     -10.061  17.867  71.627  1.00  0.00     5.181 C  
HETATM   18  C   UNL     1     -11.181  15.649  68.600  1.00  0.00    -0.338 C  
HETATM   19  C   UNL     1      -8.766  18.071  72.381  1.00  0.00    16.039 C  
HETATM   20  C   UNL     1      -7.517  18.039  71.549  1.00  0.00     7.066 C  
HETATM   21  O   UNL     1      -8.743  18.365  73.576  1.00  0.00     8.573 OA 
ENDROOT
BRANCH   4  22
HETATM   22  C   UNL     1     -10.174  11.479  68.925  1.00  0.00    -0.166 C  
HETATM   23  C   UNL     1     -11.063  10.707  69.139  1.00  0.00    -0.309 C  
ENDBRANCH   4  22
TORSDOF 1
ENDMDL
MODEL      138
REMARK 921   NORMALIZED FREE ENERGY PREDICTED BY IDOCK:   41.50 KCAL/MOL
REMARK 922        TOTAL FREE ENERGY PREDICTED BY IDOCK:   43.92 KCAL/MOL
REMARK 923 INTER-LIGAND FREE ENERGY PREDICTED BY IDOCK:   43.93 KCAL/MOL
REMARK 924 INTRA-LIGAND FREE ENERGY PREDICTED BY IDOCK:   -0.01 KCAL/MOL
REMARK 927      BINDING AFFINITY PREDICTED BY RF-SCORE:    0.00 PKD
ROOT
HETATM    1  C   UNL     1     -10.364  12.512  65.976  1.00  0.00    -0.277 C  
HETATM    2  C   UNL     1      -9.826  12.918  64.730  1.00  0.00    -0.045 C  
HETATM    3  C   UNL     1      -9.099  13.369  65.939  1.00  0.00     0.324 C  
HETATM    4  C   UNL     1      -9.732  12.513  67.698  1.00  0.00    -0.196 C  
HETATM    5  C   UNL     1      -8.680  12.150  66.905  1.00  0.00    -0.194 C  
HETATM    6  C   UNL     1     -10.479  17.344  68.793  1.00  0.00    -0.333 C  
HETATM    7  O   UNL     1      -9.194  12.605  69.018  1.00  0.00    -0.358 OA 
HETATM    8  C   UNL     1      -7.751  13.606  67.625  1.00  0.00    -0.184 C  
HETATM    9  C   UNL     1      -7.953  10.847  66.739  1.00  0.00    -0.143 C  
HETATM   10  C   UNL     1     -11.230  13.961  66.728  1.00  0.00    -0.328 C  
HETATM   11  H   UNL     1      -9.486  12.209  69.831  1.00  0.00     0.000 HD 
HETATM   12  C   UNL     1      -8.843  14.894  68.100  1.00  0.00    -0.174 C  
HETATM   13  C   UNL     1     -10.279  15.221  67.302  1.00  0.00    -0.248 C  
HETATM   14  C   UNL     1     -11.162  16.321  67.906  1.00  0.00    -0.213 C  
HETATM   15  C   UNL     1     -12.458  16.460  67.532  1.00  0.00     2.331 C  
HETATM   16  C   UNL     1     -13.159  15.557  66.532  1.00  0.00     3.126 C  
HETATM   17  C   UNL     1     -13.351  17.572  68.044  1.00  0.00     7.702 C  
HETATM   18  C   UNL     1     -12.265  14.565  65.782  1.00  0.00    -0.270 C  
HETATM   19  C   UNL     1     -12.687  18.384  69.134  1.00  0.00    11.559 C  
HETATM   20  C   UNL     1     -11.226  18.664  68.938  1.00  0.00     1.795 C  
HETATM   21  O   UNL     1     -13.326  18.886  70.058  1.00  0.00    20.587 OA 
ENDROOT
BRANCH   4  22
HETATM   22  C   UNL     1     -10.575  11.216  67.889  1.00  0.00    -0.235 C  
HETATM   23  C   UNL     1     -11.231  10.237  68.093  1.00  0.00    -0.294 C  
ENDBRANCH   4  22
TORSDOF 1
ENDMDL
MODEL      139
REMARK 921   NORMALIZED FREE ENERGY PREDICTED BY IDOCK:   49.81 KCAL/MOL
REMARK 922        TOTAL FREE ENERGY PREDICTED BY IDOCK:   52.71 KCAL/MOL
REMARK 923 INTER-LIGAND FREE ENERGY PREDICTED BY IDOCK:   52.71 KCAL/MOL
REMARK 924 INTRA-LIGAND FREE ENERGY PREDICTED BY IDOCK:   -0.00 KCAL/MOL
REMARK 927      BINDING AFFINITY PREDICTED BY RF-SCORE:    0.00 PKD
ROOT
HETATM    1  C   UNL     1      -6.101  16.391  69.048  1.00  0.00    -0.152 C  
HETATM    2  C   UNL     1      -5.431  15.726  70.105  1.00  0.00    -0.150 C  
HETATM    3  C   UNL     1      -6.576  15.009  69.496  1.00  0.00    -0.155 C  
HETATM    4  C   UNL     1      -7.321  15.867  67.783  1.00  0.00    -0.144 C  
HETATM    5  C   UNL     1      -6.427  14.840  67.901  1.00  0.00    -0.176 C  
HETATM    6  C   UNL     1     -11.450  15.920  70.620  1.00  0.00    -0.426 C  
HETATM    7  O   UNL     1      -8.315  15.398  66.869  1.00  0.00    -0.218 OA 
HETATM    8  C   UNL     1      -7.883  13.740  68.316  1.00  0.00    -0.144 C  
HETATM    9  C   UNL     1      -5.375  14.314  66.968  1.00  0.00     1.256 C  
HETATM   10  C   UNL     1      -7.690  17.064  69.709  1.00  0.00     0.845 C  
HETATM   11  H   UNL     1      -8.659  15.795  66.078  1.00  0.00     0.000 HD 
HETATM   12  C   UNL     1      -9.175  14.645  69.083  1.00  0.00    -0.039 C  
HETATM   13  C   UNL     1      -8.905  15.965  70.079  1.00  0.00     0.603 C  
HETATM   14  C   UNL     1     -10.149  16.701  70.592  1.00  0.00     1.530 C  
HETATM   15  C   UNL     1     -10.053  17.936  71.143  1.00  0.00     3.792 C  
HETATM   16  C   UNL     1      -8.753  18.709  71.281  1.00  0.00     6.875 C  
HETATM   17  C   UNL     1     -11.239  18.674  71.729  1.00  0.00     4.434 C  
HETATM   18  C   UNL     1      -7.474  17.938  70.943  1.00  0.00     4.547 C  
HETATM   19  C   UNL     1     -12.545  17.956  71.470  1.00  0.00    10.402 C  
HETATM   20  C   UNL     1     -12.499  16.461  71.582  1.00  0.00     0.260 C  
HETATM   21  O   UNL     1     -13.603  18.563  71.300  1.00  0.00    20.279 OA 
ENDROOT
BRANCH   4  22
HETATM   22  C   UNL     1      -6.635  16.909  66.850  1.00  0.00    -0.249 C  
HETATM   23  C   UNL     1      -6.153  17.746  66.143  1.00  0.00    -0.261 C  
ENDBRANCH   4  22
TORSDOF 1
ENDMDL
