MODEL        1
REMARK 921   NORMALIZED FREE ENERGY PREDICTED BY IDOCK:   -5.83 KCAL/MOL
REMARK 922        TOTAL FREE ENERGY PREDICTED BY IDOCK:   -6.59 KCAL/MOL
REMARK 923 INTER-LIGAND FREE ENERGY PREDICTED BY IDOCK:   -6.51 KCAL/MOL
REMARK 924 INTRA-LIGAND FREE ENERGY PREDICTED BY IDOCK:   -0.08 KCAL/MOL
REMARK 927      BINDING AFFINITY PREDICTED BY RF-SCORE:    0.00 PKD
ROOT
HETATM    1  N   UNL     1     -11.331  16.452  63.975  1.00  0.00    -1.539 NA 
HETATM    2  C   UNL     1     -11.195  15.314  64.895  1.00  0.00    -0.415 C  
HETATM    3  H1  UNL     1     -10.745  17.239  64.254  1.00  0.00     0.000 HD 
HETATM    4  H2  UNL     1     -12.306  16.733  63.875  1.00  0.00     0.000 HD 
ENDROOT
BRANCH   2   5
HETATM    5  C   UNL     1     -12.083  14.121  64.473  1.00  0.00    -0.468 C  
HETATM    6  H   UNL     1     -13.791  13.342  65.050  1.00  0.00     0.000 HD 
HETATM    7  O   UNL     1     -13.245  14.075  65.310  1.00  0.00    -0.782 OA 
BRANCH   5   8
HETATM    8  C   UNL     1     -11.321  12.811  64.552  1.00  0.00    -0.378 A  
HETATM    9  C   UNL     1     -10.918  12.118  63.396  1.00  0.00    -0.480 A  
HETATM   10  C   UNL     1     -10.258  10.899  63.520  1.00  0.00    -0.317 A  
HETATM   11  O   UNL     1      -9.838  10.190  62.427  1.00  0.00    -0.677 OA 
HETATM   12  C   UNL     1     -10.008  10.354  64.777  1.00  0.00    -0.339 A  
HETATM   13  H   UNL     1      -9.387   9.358  62.511  1.00  0.00     0.000 HD 
HETATM   14  C   UNL     1     -10.401  11.020  65.926  1.00  0.00    -0.315 A  
HETATM   15  O   UNL     1      -9.377   9.148  64.886  1.00  0.00    -0.436 OA 
HETATM   16  H   UNL     1      -9.207   8.776  65.743  1.00  0.00     0.000 HD 
HETATM   17  C   UNL     1     -11.054  12.249  65.814  1.00  0.00    -0.362 A  
ENDBRANCH   5   8
ENDBRANCH   2   5
TORSDOF 2
ENDMDL
MODEL        2
REMARK 921   NORMALIZED FREE ENERGY PREDICTED BY IDOCK:   -5.78 KCAL/MOL
REMARK 922        TOTAL FREE ENERGY PREDICTED BY IDOCK:   -6.53 KCAL/MOL
REMARK 923 INTER-LIGAND FREE ENERGY PREDICTED BY IDOCK:   -6.43 KCAL/MOL
REMARK 924 INTRA-LIGAND FREE ENERGY PREDICTED BY IDOCK:   -0.10 KCAL/MOL
REMARK 927      BINDING AFFINITY PREDICTED BY RF-SCORE:    0.00 PKD
ROOT
HETATM    1  N   UNL     1     -11.442  16.362  63.864  1.00  0.00    -1.618 NA 
HETATM    2  C   UNL     1     -10.789  15.537  64.891  1.00  0.00    -0.427 C  
HETATM    3  H1  UNL     1     -11.029  17.292  63.802  1.00  0.00     0.000 HD 
HETATM    4  H2  UNL     1     -12.450  16.413  64.014  1.00  0.00     0.000 HD 
ENDROOT
BRANCH   2   5
HETATM    5  C   UNL     1     -11.416  14.128  64.983  1.00  0.00    -0.352 C  
HETATM    6  H   UNL     1     -13.099  13.278  64.431  1.00  0.00     0.000 HD 
HETATM    7  O   UNL     1     -12.714  14.145  64.375  1.00  0.00    -0.667 OA 
BRANCH   5   8
HETATM    8  C   UNL     1     -11.513  13.661  66.424  1.00  0.00    -0.358 A  
HETATM    9  C   UNL     1     -11.744  12.313  66.752  1.00  0.00    -0.411 A  
HETATM   10  C   UNL     1     -11.866  11.940  68.087  1.00  0.00    -0.270 A  
HETATM   11  O   UNL     1     -12.081  10.640  68.458  1.00  0.00    -0.801 OA 
HETATM   12  C   UNL     1     -11.779  12.894  69.099  1.00  0.00    -0.324 A  
HETATM   13  H   UNL     1     -12.165  10.386  69.370  1.00  0.00     0.000 HD 
HETATM   14  C   UNL     1     -11.556  14.227  68.795  1.00  0.00    -0.357 A  
HETATM   15  O   UNL     1     -11.920  12.520  70.404  1.00  0.00    -0.463 OA 
HETATM   16  H   UNL     1     -11.860  13.170  71.094  1.00  0.00     0.000 HD 
HETATM   17  C   UNL     1     -11.420  14.609  67.460  1.00  0.00    -0.378 A  
ENDBRANCH   5   8
ENDBRANCH   2   5
TORSDOF 2
ENDMDL
MODEL        3
REMARK 921   NORMALIZED FREE ENERGY PREDICTED BY IDOCK:   -5.70 KCAL/MOL
REMARK 922        TOTAL FREE ENERGY PREDICTED BY IDOCK:   -6.44 KCAL/MOL
REMARK 923 INTER-LIGAND FREE ENERGY PREDICTED BY IDOCK:   -6.36 KCAL/MOL
REMARK 924 INTRA-LIGAND FREE ENERGY PREDICTED BY IDOCK:   -0.08 KCAL/MOL
REMARK 927      BINDING AFFINITY PREDICTED BY RF-SCORE:    0.00 PKD
ROOT
HETATM    1  N   UNL     1      -9.811  11.330  69.335  1.00  0.00    -0.412 NA 
HETATM    2  C   UNL     1      -9.905  12.267  68.206  1.00  0.00    -0.217 C  
HETATM    3  H1  UNL     1      -8.844  11.169  69.618  1.00  0.00     0.000 HD 
HETATM    4  H2  UNL     1     -10.287  10.451  69.129  1.00  0.00     0.000 HD 
ENDROOT
BRANCH   2   5
HETATM    5  C   UNL     1     -11.370  12.509  67.778  1.00  0.00    -0.296 C  
HETATM    6  H   UNL     1     -12.841  11.426  67.055  1.00  0.00     0.000 HD 
HETATM    7  O   UNL     1     -11.940  11.277  67.318  1.00  0.00    -0.529 OA 
BRANCH   5   8
HETATM    8  C   UNL     1     -11.460  13.571  66.698  1.00  0.00    -0.366 A  
HETATM    9  C   UNL     1     -12.052  13.308  65.449  1.00  0.00    -0.464 A  
HETATM   10  C   UNL     1     -12.074  14.302  64.475  1.00  0.00    -0.480 A  
HETATM   11  O   UNL     1     -12.645  14.099  63.248  1.00  0.00    -1.080 OA 
HETATM   12  C   UNL     1     -11.500  15.547  64.721  1.00  0.00    -0.313 A  
HETATM   13  H   UNL     1     -12.660  14.778  62.583  1.00  0.00     0.000 HD 
HETATM   14  C   UNL     1     -10.909  15.822  65.944  1.00  0.00    -0.272 A  
HETATM   15  O   UNL     1     -11.510  16.508  63.752  1.00  0.00    -1.615 OA 
HETATM   16  H   UNL     1     -11.119  17.357  63.920  1.00  0.00     0.000 HD 
HETATM   17  C   UNL     1     -10.892  14.837  66.932  1.00  0.00    -0.316 A  
ENDBRANCH   5   8
ENDBRANCH   2   5
TORSDOF 2
ENDMDL
MODEL        4
REMARK 921   NORMALIZED FREE ENERGY PREDICTED BY IDOCK:   -5.57 KCAL/MOL
REMARK 922        TOTAL FREE ENERGY PREDICTED BY IDOCK:   -6.30 KCAL/MOL
REMARK 923 INTER-LIGAND FREE ENERGY PREDICTED BY IDOCK:   -6.19 KCAL/MOL
REMARK 924 INTRA-LIGAND FREE ENERGY PREDICTED BY IDOCK:   -0.10 KCAL/MOL
REMARK 927      BINDING AFFINITY PREDICTED BY RF-SCORE:    0.00 PKD
ROOT
HETATM    1  N   UNL     1     -12.683  14.950  69.886  1.00  0.00    -0.589 NA 
HETATM    2  C   UNL     1     -11.600  15.593  69.128  1.00  0.00    -0.383 C  
HETATM    3  H1  UNL     1     -13.264  15.632  70.373  1.00  0.00     0.000 HD 
HETATM    4  H2  UNL     1     -12.319  14.247  70.530  1.00  0.00     0.000 HD 
ENDROOT
BRANCH   2   5
HETATM    5  C   UNL     1     -10.719  14.559  68.391  1.00  0.00    -0.243 C  
HETATM    6  H   UNL     1      -8.802  14.313  68.038  1.00  0.00     0.000 HD 
HETATM    7  O   UNL     1      -9.343  14.950  68.491  1.00  0.00    -0.183 OA 
BRANCH   5   8
HETATM    8  C   UNL     1     -11.127  14.425  66.936  1.00  0.00    -0.325 A  
HETATM    9  C   UNL     1     -11.113  15.524  66.058  1.00  0.00    -0.185 A  
HETATM   10  C   UNL     1     -11.536  15.360  64.743  1.00  0.00    -0.336 A  
HETATM   11  O   UNL     1     -11.532  16.396  63.848  1.00  0.00    -1.569 OA 
HETATM   12  C   UNL     1     -11.988  14.122  64.294  1.00  0.00    -0.435 A  
HETATM   13  H   UNL     1     -11.821  16.284  62.949  1.00  0.00     0.000 HD 
HETATM   14  C   UNL     1     -12.014  13.029  65.145  1.00  0.00    -0.440 A  
HETATM   15  O   UNL     1     -12.420  13.977  63.007  1.00  0.00    -1.101 OA 
HETATM   16  H   UNL     1     -12.728  13.132  62.701  1.00  0.00     0.000 HD 
HETATM   17  C   UNL     1     -11.581  13.179  66.463  1.00  0.00    -0.402 A  
ENDBRANCH   5   8
ENDBRANCH   2   5
TORSDOF 2
ENDMDL
MODEL        5
REMARK 921   NORMALIZED FREE ENERGY PREDICTED BY IDOCK:   -5.51 KCAL/MOL
REMARK 922        TOTAL FREE ENERGY PREDICTED BY IDOCK:   -6.23 KCAL/MOL
REMARK 923 INTER-LIGAND FREE ENERGY PREDICTED BY IDOCK:   -6.13 KCAL/MOL
REMARK 924 INTRA-LIGAND FREE ENERGY PREDICTED BY IDOCK:   -0.10 KCAL/MOL
REMARK 927      BINDING AFFINITY PREDICTED BY RF-SCORE:    0.00 PKD
ROOT
HETATM    1  N   UNL     1     -11.573  16.345  63.839  1.00  0.00    -1.602 NA 
HETATM    2  C   UNL     1     -10.853  15.495  64.799  1.00  0.00    -0.363 C  
HETATM    3  H1  UNL     1     -11.204  17.295  63.820  1.00  0.00     0.000 HD 
HETATM    4  H2  UNL     1     -12.577  16.341  64.020  1.00  0.00     0.000 HD 
ENDROOT
BRANCH   2   5
HETATM    5  C   UNL     1     -11.414  14.055  64.829  1.00  0.00    -0.369 C  
HETATM    6  H   UNL     1     -13.032  13.142  64.189  1.00  0.00     0.000 HD 
HETATM    7  O   UNL     1     -12.687  14.028  64.172  1.00  0.00    -0.662 OA 
BRANCH   5   8
HETATM    8  C   UNL     1     -11.541  13.542  66.251  1.00  0.00    -0.374 A  
HETATM    9  C   UNL     1     -11.975  14.371  67.301  1.00  0.00    -0.409 A  
HETATM   10  C   UNL     1     -12.035  13.866  68.597  1.00  0.00    -0.366 A  
HETATM   11  O   UNL     1     -12.459  14.629  69.651  1.00  0.00    -0.509 OA 
HETATM   12  C   UNL     1     -11.653  12.553  68.863  1.00  0.00    -0.318 A  
HETATM   13  H   UNL     1     -12.500  14.284  70.536  1.00  0.00     0.000 HD 
HETATM   14  C   UNL     1     -11.219  11.724  67.842  1.00  0.00    -0.331 A  
HETATM   15  O   UNL     1     -11.697  12.074  70.141  1.00  0.00    -0.453 OA 
HETATM   16  H   UNL     1     -11.437  11.179  70.322  1.00  0.00     0.000 HD 
HETATM   17  C   UNL     1     -11.166  12.216  66.537  1.00  0.00    -0.378 A  
ENDBRANCH   5   8
ENDBRANCH   2   5
TORSDOF 2
ENDMDL
MODEL        6
REMARK 921   NORMALIZED FREE ENERGY PREDICTED BY IDOCK:   -5.49 KCAL/MOL
REMARK 922        TOTAL FREE ENERGY PREDICTED BY IDOCK:   -6.21 KCAL/MOL
REMARK 923 INTER-LIGAND FREE ENERGY PREDICTED BY IDOCK:   -6.12 KCAL/MOL
REMARK 924 INTRA-LIGAND FREE ENERGY PREDICTED BY IDOCK:   -0.10 KCAL/MOL
REMARK 927      BINDING AFFINITY PREDICTED BY RF-SCORE:    0.00 PKD
ROOT
HETATM    1  N   UNL     1     -11.920  13.011  70.603  1.00  0.00    -0.528 NA 
HETATM    2  C   UNL     1     -11.652  12.747  69.181  1.00  0.00    -0.319 C  
HETATM    3  H1  UNL     1     -12.340  12.205  71.067  1.00  0.00     0.000 HD 
HETATM    4  H2  UNL     1     -12.490  13.847  70.724  1.00  0.00     0.000 HD 
ENDROOT
BRANCH   2   5
HETATM    5  C   UNL     1     -11.016  13.968  68.478  1.00  0.00    -0.256 C  
HETATM    6  H   UNL     1     -11.080  15.921  68.679  1.00  0.00     0.000 HD 
HETATM    7  O   UNL     1     -11.472  15.171  69.111  1.00  0.00    -0.270 OA 
BRANCH   5   8
HETATM    8  C   UNL     1     -11.351  13.988  66.998  1.00  0.00    -0.346 A  
HETATM    9  C   UNL     1     -11.127  15.128  66.204  1.00  0.00    -0.311 A  
HETATM   10  C   UNL     1     -11.489  15.112  64.860  1.00  0.00    -0.374 A  
HETATM   11  O   UNL     1     -11.284  16.191  64.044  1.00  0.00    -1.164 OA 
HETATM   12  C   UNL     1     -12.085  13.984  64.301  1.00  0.00    -0.445 A  
HETATM   13  H   UNL     1     -11.531  16.180  63.126  1.00  0.00     0.000 HD 
HETATM   14  C   UNL     1     -12.318  12.854  65.069  1.00  0.00    -0.541 A  
HETATM   15  O   UNL     1     -12.455  13.986  62.987  1.00  0.00    -1.101 OA 
HETATM   16  H   UNL     1     -12.861  13.217  62.606  1.00  0.00     0.000 HD 
HETATM   17  C   UNL     1     -11.948  12.855  66.415  1.00  0.00    -0.462 A  
ENDBRANCH   5   8
ENDBRANCH   2   5
TORSDOF 2
ENDMDL
MODEL        7
REMARK 921   NORMALIZED FREE ENERGY PREDICTED BY IDOCK:   -5.40 KCAL/MOL
REMARK 922        TOTAL FREE ENERGY PREDICTED BY IDOCK:   -6.10 KCAL/MOL
REMARK 923 INTER-LIGAND FREE ENERGY PREDICTED BY IDOCK:   -6.00 KCAL/MOL
REMARK 924 INTRA-LIGAND FREE ENERGY PREDICTED BY IDOCK:   -0.11 KCAL/MOL
REMARK 927      BINDING AFFINITY PREDICTED BY RF-SCORE:    0.00 PKD
ROOT
HETATM    1  N   UNL     1     -11.529  11.511  62.999  1.00  0.00    -0.844 NA 
HETATM    2  C   UNL     1     -11.106  11.464  64.407  1.00  0.00    -0.259 C  
HETATM    3  H1  UNL     1     -10.953  10.911  62.408  1.00  0.00     0.000 HD 
HETATM    4  H2  UNL     1     -11.548  12.469  62.649  1.00  0.00     0.000 HD 
ENDROOT
BRANCH   2   5
HETATM    5  C   UNL     1     -11.980  12.373  65.301  1.00  0.00    -0.404 C  
HETATM    6  H   UNL     1     -13.822  13.055  65.273  1.00  0.00     0.000 HD 
HETATM    7  O   UNL     1     -13.285  12.497  64.722  1.00  0.00    -0.839 OA 
BRANCH   5   8
HETATM    8  C   UNL     1     -11.347  13.741  65.481  1.00  0.00    -0.313 A  
HETATM    9  C   UNL     1     -11.712  14.836  64.677  1.00  0.00    -0.426 A  
HETATM   10  C   UNL     1     -11.074  16.061  64.852  1.00  0.00    -0.370 A  
HETATM   11  O   UNL     1     -11.398  17.158  64.102  1.00  0.00    -1.102 OA 
HETATM   12  C   UNL     1     -10.068  16.205  65.804  1.00  0.00    -0.363 A  
HETATM   13  H   UNL     1     -10.963  17.995  64.221  1.00  0.00     0.000 HD 
HETATM   14  C   UNL     1      -9.693  15.136  66.602  1.00  0.00    -0.274 A  
HETATM   15  O   UNL     1      -9.435  17.405  65.954  1.00  0.00    -0.512 OA 
HETATM   16  H   UNL     1      -8.749  17.503  66.603  1.00  0.00     0.000 HD 
HETATM   17  C   UNL     1     -10.334  13.907  66.443  1.00  0.00    -0.289 A  
ENDBRANCH   5   8
ENDBRANCH   2   5
TORSDOF 2
ENDMDL
MODEL        8
REMARK 921   NORMALIZED FREE ENERGY PREDICTED BY IDOCK:   -5.29 KCAL/MOL
REMARK 922        TOTAL FREE ENERGY PREDICTED BY IDOCK:   -5.99 KCAL/MOL
REMARK 923 INTER-LIGAND FREE ENERGY PREDICTED BY IDOCK:   -5.89 KCAL/MOL
REMARK 924 INTRA-LIGAND FREE ENERGY PREDICTED BY IDOCK:   -0.10 KCAL/MOL
REMARK 927      BINDING AFFINITY PREDICTED BY RF-SCORE:    0.00 PKD
ROOT
HETATM    1  N   UNL     1     -11.932  10.483  68.512  1.00  0.00    -0.786 NA 
HETATM    2  C   UNL     1     -11.391  11.256  67.385  1.00  0.00    -0.276 C  
HETATM    3  H1  UNL     1     -12.277   9.569  68.217  1.00  0.00     0.000 HD 
HETATM    4  H2  UNL     1     -12.651  11.007  69.010  1.00  0.00     0.000 HD 
ENDROOT
BRANCH   2   5
HETATM    5  C   UNL     1     -10.869  12.640  67.833  1.00  0.00    -0.219 C  
HETATM    6  H   UNL     1     -11.256  13.908  69.282  1.00  0.00     0.000 HD 
HETATM    7  O   UNL     1     -11.577  13.058  69.007  1.00  0.00    -0.278 OA 
BRANCH   5   8
HETATM    8  C   UNL     1     -11.019  13.670  66.729  1.00  0.00    -0.297 A  
HETATM    9  C   UNL     1     -10.310  14.884  66.747  1.00  0.00    -0.269 A  
HETATM   10  C   UNL     1     -10.513  15.815  65.733  1.00  0.00    -0.367 A  
HETATM   11  O   UNL     1      -9.840  17.007  65.700  1.00  0.00    -0.547 OA 
HETATM   12  C   UNL     1     -11.424  15.561  64.711  1.00  0.00    -0.313 A  
HETATM   13  H   UNL     1      -9.979  17.643  65.008  1.00  0.00     0.000 HD 
HETATM   14  C   UNL     1     -12.135  14.372  64.679  1.00  0.00    -0.485 A  
HETATM   15  O   UNL     1     -11.630  16.490  63.732  1.00  0.00    -1.617 OA 
HETATM   16  H   UNL     1     -12.251  16.316  63.035  1.00  0.00     0.000 HD 
HETATM   17  C   UNL     1     -11.931  13.427  65.684  1.00  0.00    -0.439 A  
ENDBRANCH   5   8
ENDBRANCH   2   5
TORSDOF 2
ENDMDL
MODEL        9
REMARK 921   NORMALIZED FREE ENERGY PREDICTED BY IDOCK:   -5.29 KCAL/MOL
REMARK 922        TOTAL FREE ENERGY PREDICTED BY IDOCK:   -5.99 KCAL/MOL
REMARK 923 INTER-LIGAND FREE ENERGY PREDICTED BY IDOCK:   -5.90 KCAL/MOL
REMARK 924 INTRA-LIGAND FREE ENERGY PREDICTED BY IDOCK:   -0.09 KCAL/MOL
REMARK 927      BINDING AFFINITY PREDICTED BY RF-SCORE:    0.00 PKD
ROOT
HETATM    1  N   UNL     1     -13.584  16.310  73.687  1.00  0.00    -0.853 NA 
HETATM    2  C   UNL     1     -12.990  15.019  73.311  1.00  0.00    -0.525 C  
HETATM    3  H1  UNL     1     -13.672  16.409  74.698  1.00  0.00     0.000 HD 
HETATM    4  H2  UNL     1     -14.480  16.455  73.221  1.00  0.00     0.000 HD 
ENDROOT
BRANCH   2   5
HETATM    5  C   UNL     1     -12.858  14.870  71.779  1.00  0.00    -0.330 C  
HETATM    6  H   UNL     1     -13.902  15.395  70.200  1.00  0.00     0.000 HD 
HETATM    7  O   UNL     1     -13.984  15.487  71.142  1.00  0.00    -0.547 OA 
BRANCH   5   8
HETATM    8  C   UNL     1     -12.755  13.410  71.374  1.00  0.00    -0.411 A  
HETATM    9  C   UNL     1     -13.286  12.382  72.173  1.00  0.00    -0.508 A  
HETATM   10  C   UNL     1     -13.130  11.055  71.781  1.00  0.00    -0.449 A  
HETATM   11  O   UNL     1     -13.636  10.019  72.518  1.00  0.00    -0.643 OA 
HETATM   12  C   UNL     1     -12.439  10.739  70.613  1.00  0.00    -0.370 A  
HETATM   13  H   UNL     1     -13.530   9.114  72.250  1.00  0.00     0.000 HD 
HETATM   14  C   UNL     1     -11.906  11.739  69.816  1.00  0.00    -0.420 A  
HETATM   15  O   UNL     1     -12.275   9.434  70.248  1.00  0.00    -0.469 OA 
HETATM   16  H   UNL     1     -11.804   9.219  69.452  1.00  0.00     0.000 HD 
HETATM   17  C   UNL     1     -12.066  13.073  70.195  1.00  0.00    -0.377 A  
ENDBRANCH   5   8
ENDBRANCH   2   5
TORSDOF 2
ENDMDL
MODEL       10
REMARK 921   NORMALIZED FREE ENERGY PREDICTED BY IDOCK:   -5.17 KCAL/MOL
REMARK 922        TOTAL FREE ENERGY PREDICTED BY IDOCK:   -5.85 KCAL/MOL
REMARK 923 INTER-LIGAND FREE ENERGY PREDICTED BY IDOCK:   -5.74 KCAL/MOL
REMARK 924 INTRA-LIGAND FREE ENERGY PREDICTED BY IDOCK:   -0.10 KCAL/MOL
REMARK 927      BINDING AFFINITY PREDICTED BY RF-SCORE:    0.00 PKD
ROOT
HETATM    1  N   UNL     1     -10.683  11.145  62.967  1.00  0.00    -0.818 NA 
HETATM    2  C   UNL     1     -10.698  12.360  63.795  1.00  0.00    -0.451 C  
HETATM    3  H1  UNL     1      -9.781  11.005  62.513  1.00  0.00     0.000 HD 
HETATM    4  H2  UNL     1     -11.443  11.151  62.287  1.00  0.00     0.000 HD 
ENDROOT
BRANCH   2   5
HETATM    5  C   UNL     1     -12.066  12.573  64.483  1.00  0.00    -0.425 C  
HETATM    6  H   UNL     1     -13.564  13.832  64.316  1.00  0.00     0.000 HD 
HETATM    7  O   UNL     1     -12.723  13.702  63.893  1.00  0.00    -0.675 OA 
BRANCH   5   8
HETATM    8  C   UNL     1     -11.905  12.775  65.978  1.00  0.00    -0.495 A  
HETATM    9  C   UNL     1     -12.226  13.996  66.599  1.00  0.00    -0.463 A  
HETATM   10  C   UNL     1     -12.023  14.147  67.967  1.00  0.00    -0.337 A  
HETATM   11  O   UNL     1     -12.327  15.311  68.620  1.00  0.00    -0.580 OA 
HETATM   12  C   UNL     1     -11.489  13.105  68.722  1.00  0.00    -0.307 A  
HETATM   13  H   UNL     1     -12.188  15.414  69.554  1.00  0.00     0.000 HD 
HETATM   14  C   UNL     1     -11.163  11.897  68.128  1.00  0.00    -0.316 A  
HETATM   15  O   UNL     1     -11.275  13.271  70.061  1.00  0.00    -0.490 OA 
HETATM   16  H   UNL     1     -10.911  12.560  70.575  1.00  0.00     0.000 HD 
HETATM   17  C   UNL     1     -11.374  11.731  66.758  1.00  0.00    -0.385 A  
ENDBRANCH   5   8
ENDBRANCH   2   5
TORSDOF 2
ENDMDL
MODEL       11
REMARK 921   NORMALIZED FREE ENERGY PREDICTED BY IDOCK:   -5.15 KCAL/MOL
REMARK 922        TOTAL FREE ENERGY PREDICTED BY IDOCK:   -5.83 KCAL/MOL
REMARK 923 INTER-LIGAND FREE ENERGY PREDICTED BY IDOCK:   -5.73 KCAL/MOL
REMARK 924 INTRA-LIGAND FREE ENERGY PREDICTED BY IDOCK:   -0.10 KCAL/MOL
REMARK 927      BINDING AFFINITY PREDICTED BY RF-SCORE:    0.00 PKD
ROOT
HETATM    1  N   UNL     1     -10.911   8.904  67.632  1.00  0.00    -0.487 NA 
HETATM    2  C   UNL     1     -10.138  10.151  67.538  1.00  0.00    -0.201 C  
HETATM    3  H1  UNL     1     -10.329   8.082  67.469  1.00  0.00     0.000 HD 
HETATM    4  H2  UNL     1     -11.715   8.917  67.004  1.00  0.00     0.000 HD 
ENDROOT
BRANCH   2   5
HETATM    5  C   UNL     1     -11.021  11.396  67.783  1.00  0.00    -0.247 C  
HETATM    6  H   UNL     1     -12.734  11.777  68.667  1.00  0.00     0.000 HD 
HETATM    7  O   UNL     1     -12.191  11.011  68.516  1.00  0.00    -0.582 OA 
BRANCH   5   8
HETATM    8  C   UNL     1     -11.410  12.062  66.476  1.00  0.00    -0.413 A  
HETATM    9  C   UNL     1     -10.948  11.585  65.236  1.00  0.00    -0.291 A  
HETATM   10  C   UNL     1     -11.298  12.254  64.068  1.00  0.00    -0.399 A  
HETATM   11  O   UNL     1     -10.883  11.825  62.836  1.00  0.00    -0.649 OA 
HETATM   12  C   UNL     1     -12.087  13.401  64.119  1.00  0.00    -0.433 A  
HETATM   13  H   UNL     1     -11.122  12.282  62.038  1.00  0.00     0.000 HD 
HETATM   14  C   UNL     1     -12.547  13.889  65.331  1.00  0.00    -0.538 A  
HETATM   15  O   UNL     1     -12.408  14.062  62.968  1.00  0.00    -1.101 OA 
HETATM   16  H   UNL     1     -12.946  14.844  63.002  1.00  0.00     0.000 HD 
HETATM   17  C   UNL     1     -12.211  13.218  66.508  1.00  0.00    -0.389 A  
ENDBRANCH   5   8
ENDBRANCH   2   5
TORSDOF 2
ENDMDL
MODEL       12
REMARK 921   NORMALIZED FREE ENERGY PREDICTED BY IDOCK:   -5.13 KCAL/MOL
REMARK 922        TOTAL FREE ENERGY PREDICTED BY IDOCK:   -5.81 KCAL/MOL
REMARK 923 INTER-LIGAND FREE ENERGY PREDICTED BY IDOCK:   -5.73 KCAL/MOL
REMARK 924 INTRA-LIGAND FREE ENERGY PREDICTED BY IDOCK:   -0.09 KCAL/MOL
REMARK 927      BINDING AFFINITY PREDICTED BY RF-SCORE:    0.00 PKD
ROOT
HETATM    1  N   UNL     1     -11.543  14.197  70.574  1.00  0.00    -0.494 NA 
HETATM    2  C   UNL     1     -12.424  13.021  70.528  1.00  0.00    -0.231 C  
HETATM    3  H1  UNL     1     -11.999  14.998  71.011  1.00  0.00     0.000 HD 
HETATM    4  H2  UNL     1     -11.190  14.433  69.646  1.00  0.00     0.000 HD 
ENDROOT
BRANCH   2   5
HETATM    5  C   UNL     1     -11.733  11.809  69.864  1.00  0.00    -0.323 C  
HETATM    6  H   UNL     1     -11.931  10.794  68.193  1.00  0.00     0.000 HD 
HETATM    7  O   UNL     1     -12.356  11.539  68.602  1.00  0.00    -0.445 OA 
BRANCH   5   8
HETATM    8  C   UNL     1     -11.793  10.583  70.757  1.00  0.00    -0.465 A  
HETATM    9  C   UNL     1     -12.885  10.341  71.609  1.00  0.00    -0.568 A  
HETATM   10  C   UNL     1     -12.876   9.224  72.440  1.00  0.00    -0.346 A  
HETATM   11  O   UNL     1     -13.918   8.939  73.280  1.00  0.00    -1.203 OA 
HETATM   12  C   UNL     1     -11.786   8.356  72.446  1.00  0.00    -0.384 A  
HETATM   13  H   UNL     1     -13.911   8.177  73.847  1.00  0.00     0.000 HD 
HETATM   14  C   UNL     1     -10.699   8.581  71.617  1.00  0.00    -0.351 A  
HETATM   15  O   UNL     1     -11.778   7.275  73.280  1.00  0.00    -0.515 OA 
HETATM   16  H   UNL     1     -11.036   6.683  73.283  1.00  0.00     0.000 HD 
HETATM   17  C   UNL     1     -10.704   9.692  70.771  1.00  0.00    -0.401 A  
ENDBRANCH   5   8
ENDBRANCH   2   5
TORSDOF 2
ENDMDL
MODEL       13
REMARK 921   NORMALIZED FREE ENERGY PREDICTED BY IDOCK:   -5.13 KCAL/MOL
REMARK 922        TOTAL FREE ENERGY PREDICTED BY IDOCK:   -5.81 KCAL/MOL
REMARK 923 INTER-LIGAND FREE ENERGY PREDICTED BY IDOCK:   -5.70 KCAL/MOL
REMARK 924 INTRA-LIGAND FREE ENERGY PREDICTED BY IDOCK:   -0.11 KCAL/MOL
REMARK 927      BINDING AFFINITY PREDICTED BY RF-SCORE:    0.00 PKD
ROOT
HETATM    1  N   UNL     1     -10.762  18.300  68.059  1.00  0.00    -0.328 NA 
HETATM    2  C   UNL     1     -10.121  16.983  67.930  1.00  0.00    -0.306 C  
HETATM    3  H1  UNL     1     -10.948  18.540  69.033  1.00  0.00     0.000 HD 
HETATM    4  H2  UNL     1     -11.611  18.355  67.496  1.00  0.00     0.000 HD 
ENDROOT
BRANCH   2   5
HETATM    5  C   UNL     1      -9.841  16.620  66.455  1.00  0.00    -0.292 C  
HETATM    6  H   UNL     1      -9.879  17.552  64.726  1.00  0.00     0.000 HD 
HETATM    7  O   UNL     1     -10.052  17.775  65.633  1.00  0.00    -0.570 OA 
BRANCH   5   8
HETATM    8  C   UNL     1     -10.722  15.474  65.993  1.00  0.00    -0.331 A  
HETATM    9  C   UNL     1     -11.096  15.325  64.645  1.00  0.00    -0.346 A  
HETATM   10  C   UNL     1     -11.940  14.281  64.276  1.00  0.00    -0.425 A  
HETATM   11  O   UNL     1     -12.326  14.087  62.978  1.00  0.00    -1.101 OA 
HETATM   12  C   UNL     1     -12.428  13.394  65.234  1.00  0.00    -0.483 A  
HETATM   13  H   UNL     1     -12.902  13.374  62.726  1.00  0.00     0.000 HD 
HETATM   14  C   UNL     1     -12.073  13.528  66.566  1.00  0.00    -0.460 A  
HETATM   15  O   UNL     1     -13.270  12.385  64.864  1.00  0.00    -0.714 OA 
HETATM   16  H   UNL     1     -13.603  11.780  65.517  1.00  0.00     0.000 HD 
HETATM   17  C   UNL     1     -11.218  14.564  66.944  1.00  0.00    -0.340 A  
ENDBRANCH   5   8
ENDBRANCH   2   5
TORSDOF 2
ENDMDL
MODEL       14
REMARK 921   NORMALIZED FREE ENERGY PREDICTED BY IDOCK:   -5.09 KCAL/MOL
REMARK 922        TOTAL FREE ENERGY PREDICTED BY IDOCK:   -5.76 KCAL/MOL
REMARK 923 INTER-LIGAND FREE ENERGY PREDICTED BY IDOCK:   -5.67 KCAL/MOL
REMARK 924 INTRA-LIGAND FREE ENERGY PREDICTED BY IDOCK:   -0.09 KCAL/MOL
REMARK 927      BINDING AFFINITY PREDICTED BY RF-SCORE:    0.00 PKD
ROOT
HETATM    1  N   UNL     1      -9.098   8.700  62.575  1.00  0.00    -0.465 NA 
HETATM    2  C   UNL     1      -9.276  10.142  62.794  1.00  0.00    -0.301 C  
HETATM    3  H1  UNL     1      -9.089   8.463  61.583  1.00  0.00     0.000 HD 
HETATM    4  H2  UNL     1      -9.800   8.158  63.079  1.00  0.00     0.000 HD 
ENDROOT
BRANCH   2   5
HETATM    5  C   UNL     1      -9.290  10.500  64.298  1.00  0.00    -0.267 C  
HETATM    6  H   UNL     1      -9.410   9.519  65.995  1.00  0.00     0.000 HD 
HETATM    7  O   UNL     1      -9.402   9.298  65.071  1.00  0.00    -0.229 OA 
BRANCH   5   8
HETATM    8  C   UNL     1     -10.426  11.451  64.628  1.00  0.00    -0.373 A  
HETATM    9  C   UNL     1     -11.011  12.273  63.648  1.00  0.00    -0.532 A  
HETATM   10  C   UNL     1     -12.023  13.159  64.008  1.00  0.00    -0.460 A  
HETATM   11  O   UNL     1     -12.631  13.973  63.092  1.00  0.00    -1.062 OA 
HETATM   12  C   UNL     1     -12.447  13.248  65.332  1.00  0.00    -0.489 A  
HETATM   13  H   UNL     1     -13.322  14.578  63.337  1.00  0.00     0.000 HD 
HETATM   14  C   UNL     1     -11.879  12.449  66.311  1.00  0.00    -0.431 A  
HETATM   15  O   UNL     1     -13.426  14.134  65.678  1.00  0.00    -0.725 OA 
HETATM   16  H   UNL     1     -13.716  14.195  66.580  1.00  0.00     0.000 HD 
HETATM   17  C   UNL     1     -10.872  11.549  65.959  1.00  0.00    -0.330 A  
ENDBRANCH   5   8
ENDBRANCH   2   5
TORSDOF 2
ENDMDL
MODEL       15
REMARK 921   NORMALIZED FREE ENERGY PREDICTED BY IDOCK:   -5.03 KCAL/MOL
REMARK 922        TOTAL FREE ENERGY PREDICTED BY IDOCK:   -5.69 KCAL/MOL
REMARK 923 INTER-LIGAND FREE ENERGY PREDICTED BY IDOCK:   -5.60 KCAL/MOL
REMARK 924 INTRA-LIGAND FREE ENERGY PREDICTED BY IDOCK:   -0.09 KCAL/MOL
REMARK 927      BINDING AFFINITY PREDICTED BY RF-SCORE:    0.00 PKD
ROOT
HETATM    1  N   UNL     1     -12.485  10.487  69.576  1.00  0.00    -0.655 NA 
HETATM    2  C   UNL     1     -11.660  10.728  68.384  1.00  0.00    -0.239 C  
HETATM    3  H1  UNL     1     -12.666   9.494  69.721  1.00  0.00     0.000 HD 
HETATM    4  H2  UNL     1     -13.355  11.020  69.539  1.00  0.00     0.000 HD 
ENDROOT
BRANCH   2   5
HETATM    5  C   UNL     1     -11.387  12.233  68.165  1.00  0.00    -0.295 C  
HETATM    6  H   UNL     1     -12.005  13.923  68.954  1.00  0.00     0.000 HD 
HETATM    7  O   UNL     1     -12.173  12.997  69.088  1.00  0.00    -0.225 OA 
BRANCH   5   8
HETATM    8  C   UNL     1     -11.697  12.647  66.738  1.00  0.00    -0.460 A  
HETATM    9  C   UNL     1     -11.515  11.767  65.655  1.00  0.00    -0.249 A  
HETATM   10  C   UNL     1     -11.773  12.206  64.360  1.00  0.00    -0.355 A  
HETATM   11  O   UNL     1     -11.621  11.386  63.275  1.00  0.00    -0.827 OA 
HETATM   12  C   UNL     1     -12.192  13.514  64.127  1.00  0.00    -0.394 A  
HETATM   13  H   UNL     1     -11.797  11.686  62.391  1.00  0.00     0.000 HD 
HETATM   14  C   UNL     1     -12.372  14.396  65.180  1.00  0.00    -0.383 A  
HETATM   15  O   UNL     1     -12.423  13.940  62.851  1.00  0.00    -1.034 OA 
HETATM   16  H   UNL     1     -12.709  14.832  62.692  1.00  0.00     0.000 HD 
HETATM   17  C   UNL     1     -12.128  13.962  66.484  1.00  0.00    -0.484 A  
ENDBRANCH   5   8
ENDBRANCH   2   5
TORSDOF 2
ENDMDL
MODEL       16
REMARK 921   NORMALIZED FREE ENERGY PREDICTED BY IDOCK:   -4.99 KCAL/MOL
REMARK 922        TOTAL FREE ENERGY PREDICTED BY IDOCK:   -5.65 KCAL/MOL
REMARK 923 INTER-LIGAND FREE ENERGY PREDICTED BY IDOCK:   -5.57 KCAL/MOL
REMARK 924 INTRA-LIGAND FREE ENERGY PREDICTED BY IDOCK:   -0.09 KCAL/MOL
REMARK 927      BINDING AFFINITY PREDICTED BY RF-SCORE:    0.00 PKD
ROOT
HETATM    1  N   UNL     1     -10.505  19.071  65.852  1.00  0.00    -0.532 NA 
HETATM    2  C   UNL     1     -10.536  17.695  66.369  1.00  0.00    -0.208 C  
HETATM    3  H1  UNL     1     -10.519  19.761  66.603  1.00  0.00     0.000 HD 
HETATM    4  H2  UNL     1     -11.260  19.234  65.185  1.00  0.00     0.000 HD 
ENDROOT
BRANCH   2   5
HETATM    5  C   UNL     1     -10.516  16.651  65.231  1.00  0.00    -0.173 C  
HETATM    6  H   UNL     1     -11.372  16.439  63.475  1.00  0.00     0.000 HD 
HETATM    7  O   UNL     1     -11.385  17.081  64.176  1.00  0.00    -1.164 OA 
BRANCH   5   8
HETATM    8  C   UNL     1     -10.931  15.280  65.733  1.00  0.00    -0.340 A  
HETATM    9  C   UNL     1     -11.871  14.493  65.044  1.00  0.00    -0.399 A  
HETATM   10  C   UNL     1     -12.251  13.260  65.566  1.00  0.00    -0.457 A  
HETATM   11  O   UNL     1     -13.155  12.452  64.930  1.00  0.00    -0.765 OA 
HETATM   12  C   UNL     1     -11.720  12.808  66.772  1.00  0.00    -0.392 A  
HETATM   13  H   UNL     1     -13.414  11.611  65.286  1.00  0.00     0.000 HD 
HETATM   14  C   UNL     1     -10.797  13.572  67.467  1.00  0.00    -0.276 A  
HETATM   15  O   UNL     1     -12.115  11.606  67.286  1.00  0.00    -0.595 OA 
HETATM   16  H   UNL     1     -11.753  11.298  68.108  1.00  0.00     0.000 HD 
HETATM   17  C   UNL     1     -10.400  14.805  66.946  1.00  0.00    -0.267 A  
ENDBRANCH   5   8
ENDBRANCH   2   5
TORSDOF 2
ENDMDL
MODEL       17
REMARK 921   NORMALIZED FREE ENERGY PREDICTED BY IDOCK:   -4.97 KCAL/MOL
REMARK 922        TOTAL FREE ENERGY PREDICTED BY IDOCK:   -5.62 KCAL/MOL
REMARK 923 INTER-LIGAND FREE ENERGY PREDICTED BY IDOCK:   -5.51 KCAL/MOL
REMARK 924 INTRA-LIGAND FREE ENERGY PREDICTED BY IDOCK:   -0.11 KCAL/MOL
REMARK 927      BINDING AFFINITY PREDICTED BY RF-SCORE:    0.00 PKD
ROOT
HETATM    1  N   UNL     1     -12.985  16.283  74.501  1.00  0.00    -0.931 NA 
HETATM    2  C   UNL     1     -12.476  15.096  73.799  1.00  0.00    -0.586 C  
HETATM    3  H1  UNL     1     -12.418  16.517  75.316  1.00  0.00     0.000 HD 
HETATM    4  H2  UNL     1     -13.967  16.172  74.753  1.00  0.00     0.000 HD 
ENDROOT
BRANCH   2   5
HETATM    5  C   UNL     1     -13.336  14.742  72.565  1.00  0.00    -0.434 C  
HETATM    6  H   UNL     1     -14.360  13.186  71.940  1.00  0.00     0.000 HD 
HETATM    7  O   UNL     1     -13.830  13.403  72.699  1.00  0.00    -0.726 OA 
BRANCH   5   8
HETATM    8  C   UNL     1     -12.543  14.889  71.280  1.00  0.00    -0.402 A  
HETATM    9  C   UNL     1     -11.884  16.087  70.949  1.00  0.00    -0.409 A  
HETATM   10  C   UNL     1     -11.204  16.186  69.739  1.00  0.00    -0.343 A  
HETATM   11  O   UNL     1     -10.539  17.326  69.375  1.00  0.00    -0.360 OA 
HETATM   12  C   UNL     1     -11.186  15.116  68.847  1.00  0.00    -0.283 A  
HETATM   13  H   UNL     1     -10.075  17.394  68.549  1.00  0.00     0.000 HD 
HETATM   14  C   UNL     1     -11.833  13.931  69.154  1.00  0.00    -0.401 A  
HETATM   15  O   UNL     1     -10.532  15.232  67.654  1.00  0.00    -0.254 OA 
HETATM   16  H   UNL     1     -10.520  14.503  67.046  1.00  0.00     0.000 HD 
HETATM   17  C   UNL     1     -12.508  13.816  70.370  1.00  0.00    -0.384 A  
ENDBRANCH   5   8
ENDBRANCH   2   5
TORSDOF 2
ENDMDL
MODEL       18
REMARK 921   NORMALIZED FREE ENERGY PREDICTED BY IDOCK:   -4.96 KCAL/MOL
REMARK 922        TOTAL FREE ENERGY PREDICTED BY IDOCK:   -5.62 KCAL/MOL
REMARK 923 INTER-LIGAND FREE ENERGY PREDICTED BY IDOCK:   -5.52 KCAL/MOL
REMARK 924 INTRA-LIGAND FREE ENERGY PREDICTED BY IDOCK:   -0.10 KCAL/MOL
REMARK 927      BINDING AFFINITY PREDICTED BY RF-SCORE:    0.00 PKD
ROOT
HETATM    1  N   UNL     1     -12.758  15.070  70.090  1.00  0.00    -0.584 NA 
HETATM    2  C   UNL     1     -11.726  15.598  69.186  1.00  0.00    -0.390 C  
HETATM    3  H1  UNL     1     -13.253  15.815  70.581  1.00  0.00     0.000 HD 
HETATM    4  H2  UNL     1     -12.367  14.393  70.745  1.00  0.00     0.000 HD 
ENDROOT
BRANCH   2   5
HETATM    5  C   UNL     1     -10.977  14.468  68.444  1.00  0.00    -0.245 C  
HETATM    6  H   UNL     1      -9.104  14.004  68.074  1.00  0.00     0.000 HD 
HETATM    7  O   UNL     1      -9.565  14.699  68.530  1.00  0.00    -0.209 OA 
BRANCH   5   8
HETATM    8  C   UNL     1     -11.411  14.379  66.992  1.00  0.00    -0.376 A  
HETATM    9  C   UNL     1     -12.101  13.259  66.493  1.00  0.00    -0.435 A  
HETATM   10  C   UNL     1     -12.441  13.205  65.145  1.00  0.00    -0.483 A  
HETATM   11  O   UNL     1     -13.120  12.143  64.613  1.00  0.00    -0.673 OA 
HETATM   12  C   UNL     1     -12.091  14.244  64.285  1.00  0.00    -0.441 A  
HETATM   13  H   UNL     1     -13.353  12.106  63.692  1.00  0.00     0.000 HD 
HETATM   14  C   UNL     1     -11.409  15.353  64.757  1.00  0.00    -0.381 A  
HETATM   15  O   UNL     1     -12.413  14.171  62.960  1.00  0.00    -1.077 OA 
HETATM   16  H   UNL     1     -12.174  14.879  62.373  1.00  0.00     0.000 HD 
HETATM   17  C   UNL     1     -11.072  15.422  66.110  1.00  0.00    -0.230 A  
ENDBRANCH   5   8
ENDBRANCH   2   5
TORSDOF 2
ENDMDL
MODEL       19
REMARK 921   NORMALIZED FREE ENERGY PREDICTED BY IDOCK:   -4.94 KCAL/MOL
REMARK 922        TOTAL FREE ENERGY PREDICTED BY IDOCK:   -5.59 KCAL/MOL
REMARK 923 INTER-LIGAND FREE ENERGY PREDICTED BY IDOCK:   -5.48 KCAL/MOL
REMARK 924 INTRA-LIGAND FREE ENERGY PREDICTED BY IDOCK:   -0.11 KCAL/MOL
REMARK 927      BINDING AFFINITY PREDICTED BY RF-SCORE:    0.00 PKD
ROOT
HETATM    1  N   UNL     1     -11.681  11.668  67.056  1.00  0.00    -0.581 NA 
HETATM    2  C   UNL     1     -11.316  11.918  68.458  1.00  0.00    -0.276 C  
HETATM    3  H1  UNL     1     -12.074  12.497  66.610  1.00  0.00     0.000 HD 
HETATM    4  H2  UNL     1     -12.311  10.870  66.973  1.00  0.00     0.000 HD 
ENDROOT
BRANCH   2   5
HETATM    5  C   UNL     1     -10.722  10.661  69.133  1.00  0.00    -0.228 C  
HETATM    6  H   UNL     1     -10.253   8.835  68.581  1.00  0.00     0.000 HD 
HETATM    7  O   UNL     1     -10.619   9.608  68.166  1.00  0.00    -0.211 OA 
BRANCH   5   8
HETATM    8  C   UNL     1     -11.568  10.217  70.312  1.00  0.00    -0.396 A  
HETATM    9  C   UNL     1     -11.446   8.930  70.867  1.00  0.00    -0.339 A  
HETATM   10  C   UNL     1     -12.273   8.555  71.922  1.00  0.00    -0.352 A  
HETATM   11  O   UNL     1     -12.189   7.318  72.502  1.00  0.00    -0.502 OA 
HETATM   12  C   UNL     1     -13.229   9.437  72.420  1.00  0.00    -0.403 A  
HETATM   13  H   UNL     1     -12.753   7.062  73.222  1.00  0.00     0.000 HD 
HETATM   14  C   UNL     1     -13.366  10.707  71.884  1.00  0.00    -0.454 A  
HETATM   15  O   UNL     1     -14.048   9.051  73.442  1.00  0.00    -1.231 OA 
HETATM   16  H   UNL     1     -14.700   9.653  73.782  1.00  0.00     0.000 HD 
HETATM   17  C   UNL     1     -12.534  11.097  70.833  1.00  0.00    -0.509 A  
ENDBRANCH   5   8
ENDBRANCH   2   5
TORSDOF 2
ENDMDL
MODEL       20
REMARK 921   NORMALIZED FREE ENERGY PREDICTED BY IDOCK:   -4.91 KCAL/MOL
REMARK 922        TOTAL FREE ENERGY PREDICTED BY IDOCK:   -5.56 KCAL/MOL
REMARK 923 INTER-LIGAND FREE ENERGY PREDICTED BY IDOCK:   -5.48 KCAL/MOL
REMARK 924 INTRA-LIGAND FREE ENERGY PREDICTED BY IDOCK:   -0.08 KCAL/MOL
REMARK 927      BINDING AFFINITY PREDICTED BY RF-SCORE:    0.00 PKD
ROOT
HETATM    1  N   UNL     1     -10.390  10.625  62.646  1.00  0.00    -0.721 NA 
HETATM    2  C   UNL     1     -10.345  11.910  63.359  1.00  0.00    -0.444 C  
HETATM    3  H1  UNL     1      -9.557  10.476  62.077  1.00  0.00     0.000 HD 
HETATM    4  H2  UNL     1     -11.240  10.541  62.088  1.00  0.00     0.000 HD 
ENDROOT
BRANCH   2   5
HETATM    5  C   UNL     1     -11.608  12.136  64.221  1.00  0.00    -0.370 C  
HETATM    6  H   UNL     1     -13.491  12.594  63.898  1.00  0.00     0.000 HD 
HETATM    7  O   UNL     1     -12.714  12.456  63.368  1.00  0.00    -0.722 OA 
BRANCH   5   8
HETATM    8  C   UNL     1     -11.390  13.239  65.240  1.00  0.00    -0.317 A  
HETATM    9  C   UNL     1     -12.067  13.252  66.473  1.00  0.00    -0.435 A  
HETATM   10  C   UNL     1     -11.865  14.307  67.358  1.00  0.00    -0.409 A  
HETATM   11  O   UNL     1     -12.492  14.362  68.573  1.00  0.00    -0.585 OA 
HETATM   12  C   UNL     1     -11.011  15.356  67.025  1.00  0.00    -0.306 A  
HETATM   13  H   UNL     1     -12.354  15.082  69.178  1.00  0.00     0.000 HD 
HETATM   14  C   UNL     1     -10.339  15.363  65.814  1.00  0.00    -0.381 A  
HETATM   15  O   UNL     1     -10.836  16.396  67.892  1.00  0.00    -0.333 OA 
HETATM   16  H   UNL     1     -10.253  17.111  67.666  1.00  0.00     0.000 HD 
HETATM   17  C   UNL     1     -10.526  14.304  64.924  1.00  0.00    -0.454 A  
ENDBRANCH   5   8
ENDBRANCH   2   5
TORSDOF 2
ENDMDL
MODEL       21
REMARK 921   NORMALIZED FREE ENERGY PREDICTED BY IDOCK:   -4.90 KCAL/MOL
REMARK 922        TOTAL FREE ENERGY PREDICTED BY IDOCK:   -5.55 KCAL/MOL
REMARK 923 INTER-LIGAND FREE ENERGY PREDICTED BY IDOCK:   -5.46 KCAL/MOL
REMARK 924 INTRA-LIGAND FREE ENERGY PREDICTED BY IDOCK:   -0.09 KCAL/MOL
REMARK 927      BINDING AFFINITY PREDICTED BY RF-SCORE:    0.00 PKD
ROOT
HETATM    1  N   UNL     1     -12.779   8.115  72.922  1.00  0.00    -0.579 NA 
HETATM    2  C   UNL     1     -13.311   9.341  72.310  1.00  0.00    -0.477 C  
HETATM    3  H1  UNL     1     -13.405   7.743  73.637  1.00  0.00     0.000 HD 
HETATM    4  H2  UNL     1     -11.840   8.262  73.293  1.00  0.00     0.000 HD 
ENDROOT
BRANCH   2   5
HETATM    5  C   UNL     1     -12.361   9.904  71.229  1.00  0.00    -0.381 C  
HETATM    6  H   UNL     1     -10.426   9.903  70.891  1.00  0.00     0.000 HD 
HETATM    7  O   UNL     1     -11.010   9.557  71.556  1.00  0.00    -0.364 OA 
BRANCH   5   8
HETATM    8  C   UNL     1     -12.505  11.410  71.099  1.00  0.00    -0.465 A  
HETATM    9  C   UNL     1     -13.249  12.165  72.023  1.00  0.00    -0.496 A  
HETATM   10  C   UNL     1     -13.387  13.537  71.838  1.00  0.00    -0.443 A  
HETATM   11  O   UNL     1     -14.093  14.318  72.714  1.00  0.00    -0.575 OA 
HETATM   12  C   UNL     1     -12.808  14.165  70.737  1.00  0.00    -0.310 A  
HETATM   13  H   UNL     1     -14.186  15.255  72.588  1.00  0.00     0.000 HD 
HETATM   14  C   UNL     1     -12.076  13.436  69.814  1.00  0.00    -0.374 A  
HETATM   15  O   UNL     1     -12.967  15.508  70.555  1.00  0.00    -0.599 OA 
HETATM   16  H   UNL     1     -12.572  15.936  69.805  1.00  0.00     0.000 HD 
HETATM   17  C   UNL     1     -11.922  12.061  69.996  1.00  0.00    -0.400 A  
ENDBRANCH   5   8
ENDBRANCH   2   5
TORSDOF 2
ENDMDL
MODEL       22
REMARK 921   NORMALIZED FREE ENERGY PREDICTED BY IDOCK:   -4.89 KCAL/MOL
REMARK 922        TOTAL FREE ENERGY PREDICTED BY IDOCK:   -5.54 KCAL/MOL
REMARK 923 INTER-LIGAND FREE ENERGY PREDICTED BY IDOCK:   -5.46 KCAL/MOL
REMARK 924 INTRA-LIGAND FREE ENERGY PREDICTED BY IDOCK:   -0.08 KCAL/MOL
REMARK 927      BINDING AFFINITY PREDICTED BY RF-SCORE:    0.00 PKD
ROOT
HETATM    1  N   UNL     1     -10.868  12.128  69.604  1.00  0.00    -0.436 NA 
HETATM    2  C   UNL     1     -10.598  12.203  68.161  1.00  0.00    -0.216 C  
HETATM    3  H1  UNL     1     -10.094  11.703  70.115  1.00  0.00     0.000 HD 
HETATM    4  H2  UNL     1     -11.746  11.644  69.792  1.00  0.00     0.000 HD 
ENDROOT
BRANCH   2   5
HETATM    5  C   UNL     1     -11.771  12.845  67.387  1.00  0.00    -0.372 C  
HETATM    6  H   UNL     1     -12.843  12.405  65.800  1.00  0.00     0.000 HD 
HETATM    7  O   UNL     1     -12.121  12.010  66.276  1.00  0.00    -0.596 OA 
BRANCH   5   8
HETATM    8  C   UNL     1     -11.417  14.241  66.909  1.00  0.00    -0.377 A  
HETATM    9  C   UNL     1     -11.596  14.633  65.569  1.00  0.00    -0.335 A  
HETATM   10  C   UNL     1     -11.218  15.911  65.170  1.00  0.00    -0.224 A  
HETATM   11  O   UNL     1     -11.380  16.343  63.881  1.00  0.00    -1.510 OA 
HETATM   12  C   UNL     1     -10.649  16.798  66.081  1.00  0.00    -0.210 A  
HETATM   13  H   UNL     1     -11.122  17.216  63.608  1.00  0.00     0.000 HD 
HETATM   14  C   UNL     1     -10.461  16.428  67.402  1.00  0.00    -0.309 A  
HETATM   15  O   UNL     1     -10.263  18.043  65.673  1.00  0.00    -0.584 OA 
HETATM   16  H   UNL     1      -9.875  18.647  66.294  1.00  0.00     0.000 HD 
HETATM   17  C   UNL     1     -10.847  15.153  67.817  1.00  0.00    -0.292 A  
ENDBRANCH   5   8
ENDBRANCH   2   5
TORSDOF 2
ENDMDL
MODEL       23
REMARK 921   NORMALIZED FREE ENERGY PREDICTED BY IDOCK:   -4.88 KCAL/MOL
REMARK 922        TOTAL FREE ENERGY PREDICTED BY IDOCK:   -5.53 KCAL/MOL
REMARK 923 INTER-LIGAND FREE ENERGY PREDICTED BY IDOCK:   -5.43 KCAL/MOL
REMARK 924 INTRA-LIGAND FREE ENERGY PREDICTED BY IDOCK:   -0.10 KCAL/MOL
REMARK 927      BINDING AFFINITY PREDICTED BY RF-SCORE:    0.00 PKD
ROOT
HETATM    1  N   UNL     1     -11.373  11.578  63.056  1.00  0.00    -0.834 NA 
HETATM    2  C   UNL     1     -10.848  11.908  64.390  1.00  0.00    -0.332 C  
HETATM    3  H1  UNL     1     -10.636  11.267  62.423  1.00  0.00     0.000 HD 
HETATM    4  H2  UNL     1     -11.896  12.359  62.660  1.00  0.00     0.000 HD 
ENDROOT
BRANCH   2   5
HETATM    5  C   UNL     1     -11.965  12.381  65.348  1.00  0.00    -0.398 C  
HETATM    6  H   UNL     1     -13.868  12.846  65.199  1.00  0.00     0.000 HD 
HETATM    7  O   UNL     1     -13.181  12.556  64.610  1.00  0.00    -0.848 OA 
BRANCH   5   8
HETATM    8  C   UNL     1     -11.580  13.671  66.049  1.00  0.00    -0.358 A  
HETATM    9  C   UNL     1     -10.899  14.703  65.378  1.00  0.00    -0.365 A  
HETATM   10  C   UNL     1     -10.531  15.850  66.075  1.00  0.00    -0.345 A  
HETATM   11  O   UNL     1      -9.875  16.886  65.466  1.00  0.00    -0.559 OA 
HETATM   12  C   UNL     1     -10.817  15.977  67.432  1.00  0.00    -0.277 A  
HETATM   13  H   UNL     1      -9.624  17.670  65.942  1.00  0.00     0.000 HD 
HETATM   14  C   UNL     1     -11.484  14.969  68.110  1.00  0.00    -0.355 A  
HETATM   15  O   UNL     1     -10.434  17.098  68.110  1.00  0.00    -0.330 OA 
HETATM   16  H   UNL     1     -10.629  17.184  69.035  1.00  0.00     0.000 HD 
HETATM   17  C   UNL     1     -11.867  13.819  67.418  1.00  0.00    -0.431 A  
ENDBRANCH   5   8
ENDBRANCH   2   5
TORSDOF 2
ENDMDL
MODEL       24
REMARK 921   NORMALIZED FREE ENERGY PREDICTED BY IDOCK:   -4.87 KCAL/MOL
REMARK 922        TOTAL FREE ENERGY PREDICTED BY IDOCK:   -5.51 KCAL/MOL
REMARK 923 INTER-LIGAND FREE ENERGY PREDICTED BY IDOCK:   -5.43 KCAL/MOL
REMARK 924 INTRA-LIGAND FREE ENERGY PREDICTED BY IDOCK:   -0.08 KCAL/MOL
REMARK 927      BINDING AFFINITY PREDICTED BY RF-SCORE:    0.00 PKD
ROOT
HETATM    1  N   UNL     1     -10.718   8.262  67.899  1.00  0.00    -0.459 NA 
HETATM    2  C   UNL     1     -10.385   9.108  66.744  1.00  0.00    -0.238 C  
HETATM    3  H1  UNL     1     -10.796   7.278  67.641  1.00  0.00     0.000 HD 
HETATM    4  H2  UNL     1     -11.563   8.590  68.368  1.00  0.00     0.000 HD 
ENDROOT
BRANCH   2   5
HETATM    5  C   UNL     1     -10.268  10.599  67.136  1.00  0.00    -0.216 C  
HETATM    6  H   UNL     1     -10.882  11.736  68.616  1.00  0.00     0.000 HD 
HETATM    7  O   UNL     1     -10.954  10.819  68.375  1.00  0.00    -0.210 OA 
BRANCH   5   8
HETATM    8  C   UNL     1     -10.830  11.500  66.052  1.00  0.00    -0.330 A  
HETATM    9  C   UNL     1     -11.911  12.366  66.296  1.00  0.00    -0.431 A  
HETATM   10  C   UNL     1     -12.418  13.143  65.258  1.00  0.00    -0.495 A  
HETATM   11  O   UNL     1     -13.462  14.008  65.446  1.00  0.00    -0.679 OA 
HETATM   12  C   UNL     1     -11.875  13.056  63.978  1.00  0.00    -0.445 A  
HETATM   13  H   UNL     1     -13.808  14.538  64.738  1.00  0.00     0.000 HD 
HETATM   14  C   UNL     1     -10.813  12.205  63.718  1.00  0.00    -0.490 A  
HETATM   15  O   UNL     1     -12.393  13.807  62.963  1.00  0.00    -1.089 OA 
HETATM   16  H   UNL     1     -12.023  13.748  62.091  1.00  0.00     0.000 HD 
HETATM   17  C   UNL     1     -10.289  11.430  64.755  1.00  0.00    -0.349 A  
ENDBRANCH   5   8
ENDBRANCH   2   5
TORSDOF 2
ENDMDL
MODEL       25
REMARK 921   NORMALIZED FREE ENERGY PREDICTED BY IDOCK:   -4.80 KCAL/MOL
REMARK 922        TOTAL FREE ENERGY PREDICTED BY IDOCK:   -5.44 KCAL/MOL
REMARK 923 INTER-LIGAND FREE ENERGY PREDICTED BY IDOCK:   -5.32 KCAL/MOL
REMARK 924 INTRA-LIGAND FREE ENERGY PREDICTED BY IDOCK:   -0.11 KCAL/MOL
REMARK 927      BINDING AFFINITY PREDICTED BY RF-SCORE:    0.00 PKD
ROOT
HETATM    1  N   UNL     1     -12.928  16.235  74.453  1.00  0.00    -0.946 NA 
HETATM    2  C   UNL     1     -12.473  15.014  73.771  1.00  0.00    -0.533 C  
HETATM    3  H1  UNL     1     -12.373  16.435  75.285  1.00  0.00     0.000 HD 
HETATM    4  H2  UNL     1     -13.923  16.188  74.673  1.00  0.00     0.000 HD 
ENDROOT
BRANCH   2   5
HETATM    5  C   UNL     1     -13.314  14.710  72.511  1.00  0.00    -0.448 C  
HETATM    6  H   UNL     1     -14.485  13.258  71.895  1.00  0.00     0.000 HD 
HETATM    7  O   UNL     1     -13.967  13.444  72.669  1.00  0.00    -0.755 OA 
BRANCH   5   8
HETATM    8  C   UNL     1     -12.454  14.709  71.260  1.00  0.00    -0.408 A  
HETATM    9  C   UNL     1     -12.527  13.673  70.312  1.00  0.00    -0.335 A  
HETATM   10  C   UNL     1     -11.688  13.695  69.202  1.00  0.00    -0.329 A  
HETATM   11  O   UNL     1     -11.727  12.716  68.247  1.00  0.00    -0.308 OA 
HETATM   12  C   UNL     1     -10.766  14.726  69.032  1.00  0.00    -0.250 A  
HETATM   13  H   UNL     1     -11.154  12.731  67.489  1.00  0.00     0.000 HD 
HETATM   14  C   UNL     1     -10.677  15.752  69.958  1.00  0.00    -0.347 A  
HETATM   15  O   UNL     1      -9.934  14.727  67.950  1.00  0.00    -0.211 OA 
HETATM   16  H   UNL     1      -9.306  15.430  67.834  1.00  0.00     0.000 HD 
HETATM   17  C   UNL     1     -11.522  15.746  71.069  1.00  0.00    -0.451 A  
ENDBRANCH   5   8
ENDBRANCH   2   5
TORSDOF 2
ENDMDL
MODEL       26
REMARK 921   NORMALIZED FREE ENERGY PREDICTED BY IDOCK:   -4.75 KCAL/MOL
REMARK 922        TOTAL FREE ENERGY PREDICTED BY IDOCK:   -5.38 KCAL/MOL
REMARK 923 INTER-LIGAND FREE ENERGY PREDICTED BY IDOCK:   -5.29 KCAL/MOL
REMARK 924 INTRA-LIGAND FREE ENERGY PREDICTED BY IDOCK:   -0.10 KCAL/MOL
REMARK 927      BINDING AFFINITY PREDICTED BY RF-SCORE:    0.00 PKD
ROOT
HETATM    1  N   UNL     1     -10.596  11.063  63.041  1.00  0.00    -0.805 NA 
HETATM    2  C   UNL     1     -10.665  12.311  63.816  1.00  0.00    -0.449 C  
HETATM    3  H1  UNL     1      -9.718  10.981  62.528  1.00  0.00     0.000 HD 
HETATM    4  H2  UNL     1     -11.399  10.967  62.420  1.00  0.00     0.000 HD 
ENDROOT
BRANCH   2   5
HETATM    5  C   UNL     1     -11.995  12.434  64.593  1.00  0.00    -0.394 C  
HETATM    6  H   UNL     1     -13.639  13.500  64.446  1.00  0.00     0.000 HD 
HETATM    7  O   UNL     1     -12.821  13.425  63.968  1.00  0.00    -0.621 OA 
BRANCH   5   8
HETATM    8  C   UNL     1     -11.752  12.788  66.049  1.00  0.00    -0.470 A  
HETATM    9  C   UNL     1     -11.154  11.880  66.941  1.00  0.00    -0.356 A  
HETATM   10  C   UNL     1     -10.989  12.235  68.277  1.00  0.00    -0.232 A  
HETATM   11  O   UNL     1     -10.405  11.392  69.183  1.00  0.00    -0.343 OA 
HETATM   12  C   UNL     1     -11.428  13.474  68.739  1.00  0.00    -0.311 A  
HETATM   13  H   UNL     1     -10.293  11.635  70.094  1.00  0.00     0.000 HD 
HETATM   14  C   UNL     1     -12.024  14.379  67.875  1.00  0.00    -0.348 A  
HETATM   15  O   UNL     1     -11.280  13.805  70.055  1.00  0.00    -0.472 OA 
HETATM   16  H   UNL     1     -11.579  14.649  70.370  1.00  0.00     0.000 HD 
HETATM   17  C   UNL     1     -12.183  14.037  66.531  1.00  0.00    -0.485 A  
ENDBRANCH   5   8
ENDBRANCH   2   5
TORSDOF 2
ENDMDL
MODEL       27
REMARK 921   NORMALIZED FREE ENERGY PREDICTED BY IDOCK:   -4.73 KCAL/MOL
REMARK 922        TOTAL FREE ENERGY PREDICTED BY IDOCK:   -5.36 KCAL/MOL
REMARK 923 INTER-LIGAND FREE ENERGY PREDICTED BY IDOCK:   -5.27 KCAL/MOL
REMARK 924 INTRA-LIGAND FREE ENERGY PREDICTED BY IDOCK:   -0.09 KCAL/MOL
REMARK 927      BINDING AFFINITY PREDICTED BY RF-SCORE:    0.00 PKD
ROOT
HETATM    1  N   UNL     1     -10.775  14.340  69.559  1.00  0.00    -0.428 NA 
HETATM    2  C   UNL     1     -11.597  14.694  68.393  1.00  0.00    -0.323 C  
HETATM    3  H1  UNL     1     -11.343  14.182  70.392  1.00  0.00     0.000 HD 
HETATM    4  H2  UNL     1     -10.054  15.040  69.731  1.00  0.00     0.000 HD 
ENDROOT
BRANCH   2   5
HETATM    5  C   UNL     1     -10.736  14.935  67.132  1.00  0.00    -0.296 C  
HETATM    6  H   UNL     1     -10.355  16.443  65.932  1.00  0.00     0.000 HD 
HETATM    7  O   UNL     1     -10.885  16.295  66.707  1.00  0.00    -0.253 OA 
BRANCH   5   8
HETATM    8  C   UNL     1     -11.121  13.985  66.012  1.00  0.00    -0.303 A  
HETATM    9  C   UNL     1     -10.178  13.523  65.076  1.00  0.00    -0.345 A  
HETATM   10  C   UNL     1     -10.587  12.686  64.042  1.00  0.00    -0.427 A  
HETATM   11  O   UNL     1      -9.708  12.203  63.112  1.00  0.00    -0.569 OA 
HETATM   12  C   UNL     1     -11.925  12.317  63.919  1.00  0.00    -0.491 A  
HETATM   13  H   UNL     1      -9.987  11.631  62.407  1.00  0.00     0.000 HD 
HETATM   14  C   UNL     1     -12.868  12.766  64.828  1.00  0.00    -0.374 A  
HETATM   15  O   UNL     1     -12.319  11.512  62.889  1.00  0.00    -0.958 OA 
HETATM   16  H   UNL     1     -13.231  11.260  62.805  1.00  0.00     0.000 HD 
HETATM   17  C   UNL     1     -12.466  13.596  65.876  1.00  0.00    -0.502 A  
ENDBRANCH   5   8
ENDBRANCH   2   5
TORSDOF 2
ENDMDL
MODEL       28
REMARK 921   NORMALIZED FREE ENERGY PREDICTED BY IDOCK:   -4.71 KCAL/MOL
REMARK 922        TOTAL FREE ENERGY PREDICTED BY IDOCK:   -5.34 KCAL/MOL
REMARK 923 INTER-LIGAND FREE ENERGY PREDICTED BY IDOCK:   -5.25 KCAL/MOL
REMARK 924 INTRA-LIGAND FREE ENERGY PREDICTED BY IDOCK:   -0.09 KCAL/MOL
REMARK 927      BINDING AFFINITY PREDICTED BY RF-SCORE:    0.00 PKD
ROOT
HETATM    1  N   UNL     1     -10.256  14.370  67.989  1.00  0.00    -0.225 NA 
HETATM    2  C   UNL     1     -10.587  13.064  68.579  1.00  0.00    -0.258 C  
HETATM    3  H1  UNL     1      -9.496  14.832  68.487  1.00  0.00     0.000 HD 
HETATM    4  H2  UNL     1     -11.079  14.969  67.931  1.00  0.00     0.000 HD 
ENDROOT
BRANCH   2   5
HETATM    5  C   UNL     1     -11.740  12.365  67.824  1.00  0.00    -0.350 C  
HETATM    6  H   UNL     1     -12.833  10.752  68.071  1.00  0.00     0.000 HD 
HETATM    7  O   UNL     1     -12.124  11.181  68.536  1.00  0.00    -0.586 OA 
BRANCH   5   8
HETATM    8  C   UNL     1     -11.339  12.022  66.402  1.00  0.00    -0.411 A  
HETATM    9  C   UNL     1     -11.806  12.763  65.301  1.00  0.00    -0.442 A  
HETATM   10  C   UNL     1     -11.443  12.384  64.012  1.00  0.00    -0.408 A  
HETATM   11  O   UNL     1     -11.863  13.078  62.910  1.00  0.00    -0.790 OA 
HETATM   12  C   UNL     1     -10.636  11.268  63.803  1.00  0.00    -0.392 A  
HETATM   13  H   UNL     1     -11.616  12.819  62.029  1.00  0.00     0.000 HD 
HETATM   14  C   UNL     1     -10.171  10.523  64.875  1.00  0.00    -0.371 A  
HETATM   15  O   UNL     1     -10.303  10.893  62.533  1.00  0.00    -0.730 OA 
HETATM   16  H   UNL     1      -9.753  10.132  62.391  1.00  0.00     0.000 HD 
HETATM   17  C   UNL     1     -10.519  10.901  66.172  1.00  0.00    -0.290 A  
ENDBRANCH   5   8
ENDBRANCH   2   5
TORSDOF 2
ENDMDL
MODEL       29
REMARK 921   NORMALIZED FREE ENERGY PREDICTED BY IDOCK:   -4.70 KCAL/MOL
REMARK 922        TOTAL FREE ENERGY PREDICTED BY IDOCK:   -5.33 KCAL/MOL
REMARK 923 INTER-LIGAND FREE ENERGY PREDICTED BY IDOCK:   -5.23 KCAL/MOL
REMARK 924 INTRA-LIGAND FREE ENERGY PREDICTED BY IDOCK:   -0.10 KCAL/MOL
REMARK 927      BINDING AFFINITY PREDICTED BY RF-SCORE:    0.00 PKD
ROOT
HETATM    1  N   UNL     1     -12.435  13.897  63.012  1.00  0.00    -1.009 NA 
HETATM    2  C   UNL     1     -11.812  12.861  63.849  1.00  0.00    -0.473 C  
HETATM    3  H1  UNL     1     -12.008  13.947  62.087  1.00  0.00     0.000 HD 
HETATM    4  H2  UNL     1     -12.422  14.806  63.476  1.00  0.00     0.000 HD 
ENDROOT
BRANCH   2   5
HETATM    5  C   UNL     1     -12.458  12.786  65.251  1.00  0.00    -0.465 C  
HETATM    6  H   UNL     1     -13.478  13.994  66.417  1.00  0.00     0.000 HD 
HETATM    7  O   UNL     1     -13.080  14.041  65.555  1.00  0.00    -0.713 OA 
BRANCH   5   8
HETATM    8  C   UNL     1     -11.433  12.432  66.312  1.00  0.00    -0.423 A  
HETATM    9  C   UNL     1     -11.760  12.413  67.680  1.00  0.00    -0.412 A  
HETATM   10  C   UNL     1     -10.775  12.123  68.620  1.00  0.00    -0.233 A  
HETATM   11  O   UNL     1     -11.044  12.083  69.961  1.00  0.00    -0.472 OA 
HETATM   12  C   UNL     1      -9.466  11.869  68.217  1.00  0.00    -0.197 A  
HETATM   13  H   UNL     1     -10.371  11.885  70.602  1.00  0.00     0.000 HD 
HETATM   14  C   UNL     1      -9.124  11.888  66.874  1.00  0.00    -0.196 A  
HETATM   15  O   UNL     1      -8.503  11.606  69.148  1.00  0.00    -0.369 OA 
HETATM   16  H   UNL     1      -7.611  11.432  68.873  1.00  0.00     0.000 HD 
HETATM   17  C   UNL     1     -10.107  12.166  65.923  1.00  0.00    -0.270 A  
ENDBRANCH   5   8
ENDBRANCH   2   5
TORSDOF 2
ENDMDL
MODEL       30
REMARK 921   NORMALIZED FREE ENERGY PREDICTED BY IDOCK:   -4.69 KCAL/MOL
REMARK 922        TOTAL FREE ENERGY PREDICTED BY IDOCK:   -5.32 KCAL/MOL
REMARK 923 INTER-LIGAND FREE ENERGY PREDICTED BY IDOCK:   -5.21 KCAL/MOL
REMARK 924 INTRA-LIGAND FREE ENERGY PREDICTED BY IDOCK:   -0.11 KCAL/MOL
REMARK 927      BINDING AFFINITY PREDICTED BY RF-SCORE:    0.00 PKD
ROOT
HETATM    1  N   UNL     1      -7.777  10.599  70.057  1.00  0.00    -0.398 NA 
HETATM    2  C   UNL     1      -8.673   9.496  69.683  1.00  0.00    -0.182 C  
HETATM    3  H1  UNL     1      -6.842  10.266  70.295  1.00  0.00     0.000 HD 
HETATM    4  H2  UNL     1      -8.173  11.160  70.812  1.00  0.00     0.000 HD 
ENDROOT
BRANCH   2   5
HETATM    5  C   UNL     1     -10.089  10.000  69.324  1.00  0.00    -0.213 C  
HETATM    6  H   UNL     1     -10.906  11.714  68.819  1.00  0.00     0.000 HD 
HETATM    7  O   UNL     1     -10.036  11.404  69.040  1.00  0.00    -0.171 OA 
BRANCH   5   8
HETATM    8  C   UNL     1     -11.074   9.724  70.446  1.00  0.00    -0.367 A  
HETATM    9  C   UNL     1     -10.811   8.767  71.443  1.00  0.00    -0.359 A  
HETATM   10  C   UNL     1     -11.763   8.520  72.427  1.00  0.00    -0.358 A  
HETATM   11  O   UNL     1     -11.551   7.606  73.424  1.00  0.00    -0.641 OA 
HETATM   12  C   UNL     1     -12.979   9.200  72.423  1.00  0.00    -0.398 A  
HETATM   13  H   UNL     1     -12.201   7.437  74.096  1.00  0.00     0.000 HD 
HETATM   14  C   UNL     1     -13.257  10.142  71.447  1.00  0.00    -0.474 A  
HETATM   15  O   UNL     1     -13.913   8.935  73.382  1.00  0.00    -1.236 OA 
HETATM   16  H   UNL     1     -14.742   9.399  73.379  1.00  0.00     0.000 HD 
HETATM   17  C   UNL     1     -12.304  10.406  70.461  1.00  0.00    -0.410 A  
ENDBRANCH   5   8
ENDBRANCH   2   5
TORSDOF 2
ENDMDL
MODEL       31
REMARK 921   NORMALIZED FREE ENERGY PREDICTED BY IDOCK:   -4.68 KCAL/MOL
REMARK 922        TOTAL FREE ENERGY PREDICTED BY IDOCK:   -5.30 KCAL/MOL
REMARK 923 INTER-LIGAND FREE ENERGY PREDICTED BY IDOCK:   -5.21 KCAL/MOL
REMARK 924 INTRA-LIGAND FREE ENERGY PREDICTED BY IDOCK:   -0.09 KCAL/MOL
REMARK 927      BINDING AFFINITY PREDICTED BY RF-SCORE:    0.00 PKD
ROOT
HETATM    1  N   UNL     1      -9.212  18.527  65.918  1.00  0.00    -0.441 NA 
HETATM    2  C   UNL     1     -10.060  17.442  66.432  1.00  0.00    -0.327 C  
HETATM    3  H1  UNL     1      -9.036  19.241  66.625  1.00  0.00     0.000 HD 
HETATM    4  H2  UNL     1      -9.605  18.936  65.070  1.00  0.00     0.000 HD 
ENDROOT
BRANCH   2   5
HETATM    5  C   UNL     1     -10.326  16.361  65.360  1.00  0.00    -0.262 C  
HETATM    6  H   UNL     1     -11.446  16.193  63.754  1.00  0.00     0.000 HD 
HETATM    7  O   UNL     1     -11.283  16.857  64.414  1.00  0.00    -1.159 OA 
BRANCH   5   8
HETATM    8  C   UNL     1     -10.822  15.072  65.988  1.00  0.00    -0.334 A  
HETATM    9  C   UNL     1     -10.677  14.815  67.363  1.00  0.00    -0.281 A  
HETATM   10  C   UNL     1     -11.110  13.600  67.886  1.00  0.00    -0.261 A  
HETATM   11  O   UNL     1     -11.000  13.305  69.218  1.00  0.00    -0.391 OA 
HETATM   12  C   UNL     1     -11.669  12.631  67.055  1.00  0.00    -0.369 A  
HETATM   13  H   UNL     1     -11.296  12.476  69.574  1.00  0.00     0.000 HD 
HETATM   14  C   UNL     1     -11.815  12.865  65.697  1.00  0.00    -0.464 A  
HETATM   15  O   UNL     1     -12.072  11.435  67.575  1.00  0.00    -0.592 OA 
HETATM   16  H   UNL     1     -12.453  10.775  67.008  1.00  0.00     0.000 HD 
HETATM   17  C   UNL     1     -11.395  14.085  65.165  1.00  0.00    -0.328 A  
ENDBRANCH   5   8
ENDBRANCH   2   5
TORSDOF 2
ENDMDL
MODEL       32
REMARK 921   NORMALIZED FREE ENERGY PREDICTED BY IDOCK:   -4.67 KCAL/MOL
REMARK 922        TOTAL FREE ENERGY PREDICTED BY IDOCK:   -5.29 KCAL/MOL
REMARK 923 INTER-LIGAND FREE ENERGY PREDICTED BY IDOCK:   -5.20 KCAL/MOL
REMARK 924 INTRA-LIGAND FREE ENERGY PREDICTED BY IDOCK:   -0.10 KCAL/MOL
REMARK 927      BINDING AFFINITY PREDICTED BY RF-SCORE:    0.00 PKD
ROOT
HETATM    1  N   UNL     1      -9.794  12.861  64.058  1.00  0.00    -0.688 NA 
HETATM    2  C   UNL     1     -10.989  13.534  64.589  1.00  0.00    -0.385 C  
HETATM    3  H1  UNL     1      -9.269  13.462  63.423  1.00  0.00     0.000 HD 
HETATM    4  H2  UNL     1     -10.034  11.974  63.615  1.00  0.00     0.000 HD 
ENDROOT
BRANCH   2   5
HETATM    5  C   UNL     1     -11.785  12.622  65.550  1.00  0.00    -0.402 C  
HETATM    6  H   UNL     1     -13.616  11.918  65.658  1.00  0.00     0.000 HD 
HETATM    7  O   UNL     1     -13.127  12.479  65.067  1.00  0.00    -0.765 OA 
BRANCH   5   8
HETATM    8  C   UNL     1     -11.786  13.178  66.962  1.00  0.00    -0.431 A  
HETATM    9  C   UNL     1     -11.786  12.336  68.089  1.00  0.00    -0.408 A  
HETATM   10  C   UNL     1     -11.829  12.892  69.364  1.00  0.00    -0.312 A  
HETATM   11  O   UNL     1     -11.822  12.117  70.492  1.00  0.00    -0.500 OA 
HETATM   12  C   UNL     1     -11.889  14.274  69.531  1.00  0.00    -0.329 A  
HETATM   13  H   UNL     1     -11.851  12.497  71.362  1.00  0.00     0.000 HD 
HETATM   14  C   UNL     1     -11.895  15.119  68.433  1.00  0.00    -0.293 A  
HETATM   15  O   UNL     1     -11.952  14.809  70.786  1.00  0.00    -0.275 OA 
HETATM   16  H   UNL     1     -11.993  15.750  70.900  1.00  0.00     0.000 HD 
HETATM   17  C   UNL     1     -11.840  14.571  67.150  1.00  0.00    -0.412 A  
ENDBRANCH   5   8
ENDBRANCH   2   5
TORSDOF 2
ENDMDL
MODEL       33
REMARK 921   NORMALIZED FREE ENERGY PREDICTED BY IDOCK:   -4.66 KCAL/MOL
REMARK 922        TOTAL FREE ENERGY PREDICTED BY IDOCK:   -5.29 KCAL/MOL
REMARK 923 INTER-LIGAND FREE ENERGY PREDICTED BY IDOCK:   -5.17 KCAL/MOL
REMARK 924 INTRA-LIGAND FREE ENERGY PREDICTED BY IDOCK:   -0.11 KCAL/MOL
REMARK 927      BINDING AFFINITY PREDICTED BY RF-SCORE:    0.00 PKD
ROOT
HETATM    1  N   UNL     1     -11.385   6.580  67.455  1.00  0.00    -0.758 NA 
HETATM    2  C   UNL     1     -10.915   5.993  68.718  1.00  0.00    -0.312 C  
HETATM    3  H1  UNL     1     -11.789   5.877  66.835  1.00  0.00     0.000 HD 
HETATM    4  H2  UNL     1     -10.642   7.101  66.988  1.00  0.00     0.000 HD 
ENDROOT
BRANCH   2   5
HETATM    5  C   UNL     1     -10.302   7.059  69.655  1.00  0.00    -0.209 C  
HETATM    6  H   UNL     1      -8.792   7.157  70.908  1.00  0.00     0.000 HD 
HETATM    7  O   UNL     1      -9.169   6.501  70.332  1.00  0.00    -0.154 OA 
BRANCH   5   8
HETATM    8  C   UNL     1     -11.323   7.562  70.659  1.00  0.00    -0.301 A  
HETATM    9  C   UNL     1     -12.405   6.766  71.078  1.00  0.00    -0.370 A  
HETATM   10  C   UNL     1     -13.339   7.287  71.969  1.00  0.00    -0.111 A  
HETATM   11  O   UNL     1     -14.403   6.550  72.413  1.00  0.00    -0.701 OA 
HETATM   12  C   UNL     1     -13.219   8.594  72.435  1.00  0.00    -0.346 A  
HETATM   13  H   UNL     1     -15.040   6.906  73.022  1.00  0.00     0.000 HD 
HETATM   14  C   UNL     1     -12.163   9.394  72.031  1.00  0.00    -0.396 A  
HETATM   15  O   UNL     1     -14.152   9.102  73.294  1.00  0.00    -1.165 OA 
HETATM   16  H   UNL     1     -14.070   9.992  73.612  1.00  0.00     0.000 HD 
HETATM   17  C   UNL     1     -11.215   8.878  71.146  1.00  0.00    -0.352 A  
ENDBRANCH   5   8
ENDBRANCH   2   5
TORSDOF 2
ENDMDL
MODEL       34
REMARK 921   NORMALIZED FREE ENERGY PREDICTED BY IDOCK:   -4.62 KCAL/MOL
REMARK 922        TOTAL FREE ENERGY PREDICTED BY IDOCK:   -5.24 KCAL/MOL
REMARK 923 INTER-LIGAND FREE ENERGY PREDICTED BY IDOCK:   -5.15 KCAL/MOL
REMARK 924 INTRA-LIGAND FREE ENERGY PREDICTED BY IDOCK:   -0.09 KCAL/MOL
REMARK 927      BINDING AFFINITY PREDICTED BY RF-SCORE:    0.00 PKD
ROOT
HETATM    1  N   UNL     1     -10.259  17.870  68.651  1.00  0.00    -0.388 NA 
HETATM    2  C   UNL     1     -10.430  17.640  67.209  1.00  0.00    -0.338 C  
HETATM    3  H1  UNL     1     -10.746  18.711  68.963  1.00  0.00     0.000 HD 
HETATM    4  H2  UNL     1      -9.273  17.897  68.908  1.00  0.00     0.000 HD 
ENDROOT
BRANCH   2   5
HETATM    5  C   UNL     1      -9.692  16.366  66.737  1.00  0.00    -0.251 C  
HETATM    6  H   UNL     1      -8.302  15.931  65.419  1.00  0.00     0.000 HD 
HETATM    7  O   UNL     1      -8.756  16.714  65.709  1.00  0.00    -0.482 OA 
BRANCH   5   8
HETATM    8  C   UNL     1     -10.667  15.318  66.234  1.00  0.00    -0.315 A  
HETATM    9  C   UNL     1     -11.019  14.200  67.012  1.00  0.00    -0.303 A  
HETATM   10  C   UNL     1     -11.886  13.244  66.491  1.00  0.00    -0.398 A  
HETATM   11  O   UNL     1     -12.266  12.144  67.211  1.00  0.00    -0.496 OA 
HETATM   12  C   UNL     1     -12.393  13.378  65.200  1.00  0.00    -0.456 A  
HETATM   13  H   UNL     1     -12.858  11.492  66.855  1.00  0.00     0.000 HD 
HETATM   14  C   UNL     1     -12.054  14.469  64.418  1.00  0.00    -0.492 A  
HETATM   15  O   UNL     1     -13.226  12.424  64.692  1.00  0.00    -0.822 OA 
HETATM   16  H   UNL     1     -13.572  12.515  63.812  1.00  0.00     0.000 HD 
HETATM   17  C   UNL     1     -11.194  15.440  64.935  1.00  0.00    -0.410 A  
ENDBRANCH   5   8
ENDBRANCH   2   5
TORSDOF 2
ENDMDL
MODEL       35
REMARK 921   NORMALIZED FREE ENERGY PREDICTED BY IDOCK:   -4.62 KCAL/MOL
REMARK 922        TOTAL FREE ENERGY PREDICTED BY IDOCK:   -5.23 KCAL/MOL
REMARK 923 INTER-LIGAND FREE ENERGY PREDICTED BY IDOCK:   -5.12 KCAL/MOL
REMARK 924 INTRA-LIGAND FREE ENERGY PREDICTED BY IDOCK:   -0.11 KCAL/MOL
REMARK 927      BINDING AFFINITY PREDICTED BY RF-SCORE:    0.00 PKD
ROOT
HETATM    1  N   UNL     1     -10.436  17.373  69.050  1.00  0.00    -0.333 NA 
HETATM    2  C   UNL     1      -9.471  17.034  67.994  1.00  0.00    -0.256 C  
HETATM    3  H1  UNL     1     -10.535  18.382  69.167  1.00  0.00     0.000 HD 
HETATM    4  H2  UNL     1     -10.196  16.920  69.932  1.00  0.00     0.000 HD 
ENDROOT
BRANCH   2   5
HETATM    5  C   UNL     1      -9.321  15.506  67.818  1.00  0.00    -0.195 C  
HETATM    6  H   UNL     1      -7.838  14.231  67.637  1.00  0.00     0.000 HD 
HETATM    7  O   UNL     1      -7.930  15.171  67.745  1.00  0.00    -0.125 OA 
BRANCH   5   8
HETATM    8  C   UNL     1     -10.050  15.020  66.579  1.00  0.00    -0.286 A  
HETATM    9  C   UNL     1     -10.594  15.916  65.641  1.00  0.00    -0.393 A  
HETATM   10  C   UNL     1     -11.289  15.423  64.541  1.00  0.00    -0.313 A  
HETATM   11  O   UNL     1     -11.829  16.252  63.596  1.00  0.00    -1.404 OA 
HETATM   12  C   UNL     1     -11.465  14.051  64.372  1.00  0.00    -0.344 A  
HETATM   13  H   UNL     1     -12.304  15.915  62.845  1.00  0.00     0.000 HD 
HETATM   14  C   UNL     1     -10.940  13.154  65.288  1.00  0.00    -0.304 A  
HETATM   15  O   UNL     1     -12.166  13.579  63.300  1.00  0.00    -0.880 OA 
HETATM   16  H   UNL     1     -12.286  12.644  63.184  1.00  0.00     0.000 HD 
HETATM   17  C   UNL     1     -10.231  13.638  66.388  1.00  0.00    -0.292 A  
ENDBRANCH   5   8
ENDBRANCH   2   5
TORSDOF 2
ENDMDL
MODEL       36
REMARK 921   NORMALIZED FREE ENERGY PREDICTED BY IDOCK:   -4.62 KCAL/MOL
REMARK 922        TOTAL FREE ENERGY PREDICTED BY IDOCK:   -5.23 KCAL/MOL
REMARK 923 INTER-LIGAND FREE ENERGY PREDICTED BY IDOCK:   -5.14 KCAL/MOL
REMARK 924 INTRA-LIGAND FREE ENERGY PREDICTED BY IDOCK:   -0.10 KCAL/MOL
REMARK 927      BINDING AFFINITY PREDICTED BY RF-SCORE:    0.00 PKD
ROOT
HETATM    1  N   UNL     1      -7.796  12.699  68.846  1.00  0.00    -0.326 NA 
HETATM    2  C   UNL     1      -8.916  12.344  67.962  1.00  0.00    -0.194 C  
HETATM    3  H1  UNL     1      -7.592  11.960  69.519  1.00  0.00     0.000 HD 
HETATM    4  H2  UNL     1      -7.960  13.591  69.313  1.00  0.00     0.000 HD 
ENDROOT
BRANCH   2   5
HETATM    5  C   UNL     1      -9.224  13.465  66.943  1.00  0.00    -0.248 C  
HETATM    6  H   UNL     1     -10.087  15.229  66.982  1.00  0.00     0.000 HD 
HETATM    7  O   UNL     1      -9.898  14.540  67.609  1.00  0.00    -0.220 OA 
BRANCH   5   8
HETATM    8  C   UNL     1     -10.063  12.946  65.790  1.00  0.00    -0.294 A  
HETATM    9  C   UNL     1     -10.844  13.806  64.997  1.00  0.00    -0.377 A  
HETATM   10  C   UNL     1     -11.630  13.278  63.977  1.00  0.00    -0.409 A  
HETATM   11  O   UNL     1     -12.401  14.073  63.173  1.00  0.00    -1.133 OA 
HETATM   12  C   UNL     1     -11.661  11.904  63.747  1.00  0.00    -0.462 A  
HETATM   13  H   UNL     1     -12.937  13.712  62.476  1.00  0.00     0.000 HD 
HETATM   14  C   UNL     1     -10.901  11.042  64.520  1.00  0.00    -0.257 A  
HETATM   15  O   UNL     1     -12.451  11.395  62.756  1.00  0.00    -0.929 OA 
HETATM   16  H   UNL     1     -12.471  10.459  62.599  1.00  0.00     0.000 HD 
HETATM   17  C   UNL     1     -10.101  11.562  65.538  1.00  0.00    -0.286 A  
ENDBRANCH   5   8
ENDBRANCH   2   5
TORSDOF 2
ENDMDL
MODEL       37
REMARK 921   NORMALIZED FREE ENERGY PREDICTED BY IDOCK:   -4.61 KCAL/MOL
REMARK 922        TOTAL FREE ENERGY PREDICTED BY IDOCK:   -5.23 KCAL/MOL
REMARK 923 INTER-LIGAND FREE ENERGY PREDICTED BY IDOCK:   -5.10 KCAL/MOL
REMARK 924 INTRA-LIGAND FREE ENERGY PREDICTED BY IDOCK:   -0.13 KCAL/MOL
REMARK 927      BINDING AFFINITY PREDICTED BY RF-SCORE:    0.00 PKD
ROOT
HETATM    1  N   UNL     1     -11.294  11.406  63.186  1.00  0.00    -0.864 NA 
HETATM    2  C   UNL     1     -11.838  12.743  63.465  1.00  0.00    -0.546 C  
HETATM    3  H1  UNL     1     -10.889  11.346  62.252  1.00  0.00     0.000 HD 
HETATM    4  H2  UNL     1     -11.998  10.682  63.332  1.00  0.00     0.000 HD 
ENDROOT
BRANCH   2   5
HETATM    5  C   UNL     1     -12.452  12.833  64.880  1.00  0.00    -0.497 C  
HETATM    6  H   UNL     1     -13.615  14.082  65.853  1.00  0.00     0.000 HD 
HETATM    7  O   UNL     1     -13.237  14.028  64.983  1.00  0.00    -0.720 OA 
BRANCH   5   8
HETATM    8  C   UNL     1     -11.376  12.811  65.950  1.00  0.00    -0.363 A  
HETATM    9  C   UNL     1     -10.235  13.629  65.869  1.00  0.00    -0.318 A  
HETATM   10  C   UNL     1      -9.255  13.544  66.854  1.00  0.00    -0.249 A  
HETATM   11  O   UNL     1      -8.131  14.324  66.825  1.00  0.00    -0.382 OA 
HETATM   12  C   UNL     1      -9.389  12.644  67.909  1.00  0.00    -0.204 A  
HETATM   13  H   UNL     1      -7.463  14.266  67.498  1.00  0.00     0.000 HD 
HETATM   14  C   UNL     1     -10.504  11.828  68.003  1.00  0.00    -0.221 A  
HETATM   15  O   UNL     1      -8.413  12.555  68.859  1.00  0.00    -0.350 OA 
HETATM   16  H   UNL     1      -8.504  11.941  69.578  1.00  0.00     0.000 HD 
HETATM   17  C   UNL     1     -11.498  11.913  67.027  1.00  0.00    -0.384 A  
ENDBRANCH   5   8
ENDBRANCH   2   5
TORSDOF 2
ENDMDL
MODEL       38
REMARK 921   NORMALIZED FREE ENERGY PREDICTED BY IDOCK:   -4.57 KCAL/MOL
REMARK 922        TOTAL FREE ENERGY PREDICTED BY IDOCK:   -5.18 KCAL/MOL
REMARK 923 INTER-LIGAND FREE ENERGY PREDICTED BY IDOCK:   -5.08 KCAL/MOL
REMARK 924 INTRA-LIGAND FREE ENERGY PREDICTED BY IDOCK:   -0.10 KCAL/MOL
REMARK 927      BINDING AFFINITY PREDICTED BY RF-SCORE:    0.00 PKD
ROOT
HETATM    1  N   UNL     1      -8.797  12.343  68.624  1.00  0.00    -0.378 NA 
HETATM    2  C   UNL     1     -10.131  12.793  68.198  1.00  0.00    -0.239 C  
HETATM    3  H1  UNL     1      -8.058  12.937  68.249  1.00  0.00     0.000 HD 
HETATM    4  H2  UNL     1      -8.642  11.364  68.385  1.00  0.00     0.000 HD 
ENDROOT
BRANCH   2   5
HETATM    5  C   UNL     1     -11.251  11.892  68.766  1.00  0.00    -0.259 C  
HETATM    6  H   UNL     1     -12.828  10.960  68.056  1.00  0.00     0.000 HD 
HETATM    7  O   UNL     1     -12.140  11.514  67.707  1.00  0.00    -0.626 OA 
BRANCH   5   8
HETATM    8  C   UNL     1     -12.015  12.595  69.873  1.00  0.00    -0.365 A  
HETATM    9  C   UNL     1     -12.176  13.992  69.890  1.00  0.00    -0.399 A  
HETATM   10  C   UNL     1     -12.850  14.595  70.948  1.00  0.00    -0.365 A  
HETATM   11  O   UNL     1     -13.041  15.949  71.007  1.00  0.00    -0.585 OA 
HETATM   12  C   UNL     1     -13.349  13.827  71.998  1.00  0.00    -0.447 A  
HETATM   13  H   UNL     1     -13.501  16.360  71.729  1.00  0.00     0.000 HD 
HETATM   14  C   UNL     1     -13.196  12.450  72.001  1.00  0.00    -0.514 A  
HETATM   15  O   UNL     1     -13.991  14.430  73.041  1.00  0.00    -0.490 OA 
HETATM   16  H   UNL     1     -14.332  13.907  73.756  1.00  0.00     0.000 HD 
HETATM   17  C   UNL     1     -12.533  11.835  70.938  1.00  0.00    -0.416 A  
ENDBRANCH   5   8
ENDBRANCH   2   5
TORSDOF 2
ENDMDL
MODEL       39
REMARK 921   NORMALIZED FREE ENERGY PREDICTED BY IDOCK:   -4.56 KCAL/MOL
REMARK 922        TOTAL FREE ENERGY PREDICTED BY IDOCK:   -5.17 KCAL/MOL
REMARK 923 INTER-LIGAND FREE ENERGY PREDICTED BY IDOCK:   -5.10 KCAL/MOL
REMARK 924 INTRA-LIGAND FREE ENERGY PREDICTED BY IDOCK:   -0.08 KCAL/MOL
REMARK 927      BINDING AFFINITY PREDICTED BY RF-SCORE:    0.00 PKD
ROOT
HETATM    1  N   UNL     1      -9.656  12.425  68.766  1.00  0.00    -0.410 NA 
HETATM    2  C   UNL     1      -8.727  12.466  67.628  1.00  0.00    -0.178 C  
HETATM    3  H1  UNL     1      -9.204  12.700  69.638  1.00  0.00     0.000 HD 
HETATM    4  H2  UNL     1     -10.098  11.509  68.851  1.00  0.00     0.000 HD 
ENDROOT
BRANCH   2   5
HETATM    5  C   UNL     1      -9.413  12.048  66.308  1.00  0.00    -0.229 C  
HETATM    6  H   UNL     1      -8.864  11.203  64.621  1.00  0.00     0.000 HD 
HETATM    7  O   UNL     1      -8.442  11.461  65.433  1.00  0.00     0.029 OA 
BRANCH   5   8
HETATM    8  C   UNL     1     -10.084  13.232  65.636  1.00  0.00    -0.281 A  
HETATM    9  C   UNL     1     -11.078  13.062  64.655  1.00  0.00    -0.357 A  
HETATM   10  C   UNL     1     -11.634  14.178  64.037  1.00  0.00    -0.126 A  
HETATM   11  O   UNL     1     -12.610  14.066  63.084  1.00  0.00    -1.062 OA 
HETATM   12  C   UNL     1     -11.202  15.460  64.371  1.00  0.00    -0.202 A  
HETATM   13  H   UNL     1     -12.989  14.828  62.663  1.00  0.00     0.000 HD 
HETATM   14  C   UNL     1     -10.221  15.647  65.331  1.00  0.00    -0.401 A  
HETATM   15  O   UNL     1     -11.740  16.547  63.744  1.00  0.00    -1.548 OA 
HETATM   16  H   UNL     1     -11.446  17.421  63.972  1.00  0.00     0.000 HD 
HETATM   17  C   UNL     1      -9.665  14.535  65.965  1.00  0.00    -0.331 A  
ENDBRANCH   5   8
ENDBRANCH   2   5
TORSDOF 2
ENDMDL
MODEL       40
REMARK 921   NORMALIZED FREE ENERGY PREDICTED BY IDOCK:   -4.56 KCAL/MOL
REMARK 922        TOTAL FREE ENERGY PREDICTED BY IDOCK:   -5.17 KCAL/MOL
REMARK 923 INTER-LIGAND FREE ENERGY PREDICTED BY IDOCK:   -5.08 KCAL/MOL
REMARK 924 INTRA-LIGAND FREE ENERGY PREDICTED BY IDOCK:   -0.09 KCAL/MOL
REMARK 927      BINDING AFFINITY PREDICTED BY RF-SCORE:    0.00 PKD
ROOT
HETATM    1  N   UNL     1     -12.035  16.588  72.355  1.00  0.00    -0.598 NA 
HETATM    2  C   UNL     1     -11.683  15.171  72.184  1.00  0.00    -0.414 C  
HETATM    3  H1  UNL     1     -11.234  17.146  72.651  1.00  0.00     0.000 HD 
HETATM    4  H2  UNL     1     -12.821  16.700  72.996  1.00  0.00     0.000 HD 
ENDROOT
BRANCH   2   5
HETATM    5  C   UNL     1     -12.896  14.325  71.737  1.00  0.00    -0.348 C  
HETATM    6  H   UNL     1     -14.318  13.295  72.618  1.00  0.00     0.000 HD 
HETATM    7  O   UNL     1     -13.572  13.815  72.893  1.00  0.00    -0.681 OA 
BRANCH   5   8
HETATM    8  C   UNL     1     -12.471  13.187  70.827  1.00  0.00    -0.389 A  
HETATM    9  C   UNL     1     -11.895  13.424  69.565  1.00  0.00    -0.391 A  
HETATM   10  C   UNL     1     -11.559  12.348  68.749  1.00  0.00    -0.326 A  
HETATM   11  O   UNL     1     -10.988  12.524  67.518  1.00  0.00    -0.235 OA 
HETATM   12  C   UNL     1     -11.804  11.041  69.165  1.00  0.00    -0.337 A  
HETATM   13  H   UNL     1     -10.758  11.790  66.961  1.00  0.00     0.000 HD 
HETATM   14  C   UNL     1     -12.375  10.789  70.402  1.00  0.00    -0.438 A  
HETATM   15  O   UNL     1     -11.489   9.993  68.348  1.00  0.00    -0.520 OA 
HETATM   16  H   UNL     1     -11.656   9.103  68.632  1.00  0.00     0.000 HD 
HETATM   17  C   UNL     1     -12.705  11.861  71.233  1.00  0.00    -0.401 A  
ENDBRANCH   5   8
ENDBRANCH   2   5
TORSDOF 2
ENDMDL
MODEL       41
REMARK 921   NORMALIZED FREE ENERGY PREDICTED BY IDOCK:   -4.55 KCAL/MOL
REMARK 922        TOTAL FREE ENERGY PREDICTED BY IDOCK:   -5.16 KCAL/MOL
REMARK 923 INTER-LIGAND FREE ENERGY PREDICTED BY IDOCK:   -5.05 KCAL/MOL
REMARK 924 INTRA-LIGAND FREE ENERGY PREDICTED BY IDOCK:   -0.11 KCAL/MOL
REMARK 927      BINDING AFFINITY PREDICTED BY RF-SCORE:    0.00 PKD
ROOT
HETATM    1  N   UNL     1      -8.135   7.139  69.908  1.00  0.00    -0.123 NA 
HETATM    2  C   UNL     1      -9.432   7.667  69.459  1.00  0.00    -0.152 C  
HETATM    3  H1  UNL     1      -7.366   7.472  69.326  1.00  0.00     0.000 HD 
HETATM    4  H2  UNL     1      -8.146   6.121  69.959  1.00  0.00     0.000 HD 
ENDROOT
BRANCH   2   5
HETATM    5  C   UNL     1     -10.596   7.162  70.341  1.00  0.00    -0.224 C  
HETATM    6  H   UNL     1     -12.153   5.986  70.109  1.00  0.00     0.000 HD 
HETATM    7  O   UNL     1     -11.438   6.297  69.567  1.00  0.00    -0.428 OA 
BRANCH   5   8
HETATM    8  C   UNL     1     -11.401   8.317  70.906  1.00  0.00    -0.292 A  
HETATM    9  C   UNL     1     -12.394   8.120  71.883  1.00  0.00    -0.371 A  
HETATM   10  C   UNL     1     -13.135   9.206  72.341  1.00  0.00    -0.423 A  
HETATM   11  O   UNL     1     -14.105   9.068  73.296  1.00  0.00    -1.218 OA 
HETATM   12  C   UNL     1     -12.911  10.482  71.827  1.00  0.00    -0.476 A  
HETATM   13  H   UNL     1     -14.611   9.810  73.608  1.00  0.00     0.000 HD 
HETATM   14  C   UNL     1     -11.940  10.694  70.862  1.00  0.00    -0.469 A  
HETATM   15  O   UNL     1     -13.657  11.536  72.269  1.00  0.00    -0.535 OA 
HETATM   16  H   UNL     1     -13.504  12.406  71.920  1.00  0.00     0.000 HD 
HETATM   17  C   UNL     1     -11.184   9.614  70.405  1.00  0.00    -0.342 A  
ENDBRANCH   5   8
ENDBRANCH   2   5
TORSDOF 2
ENDMDL
MODEL       42
REMARK 921   NORMALIZED FREE ENERGY PREDICTED BY IDOCK:   -4.54 KCAL/MOL
REMARK 922        TOTAL FREE ENERGY PREDICTED BY IDOCK:   -5.14 KCAL/MOL
REMARK 923 INTER-LIGAND FREE ENERGY PREDICTED BY IDOCK:   -5.02 KCAL/MOL
REMARK 924 INTRA-LIGAND FREE ENERGY PREDICTED BY IDOCK:   -0.12 KCAL/MOL
REMARK 927      BINDING AFFINITY PREDICTED BY RF-SCORE:    0.00 PKD
ROOT
HETATM    1  N   UNL     1      -9.415  12.867  68.706  1.00  0.00    -0.413 NA 
HETATM    2  C   UNL     1     -10.845  12.608  68.487  1.00  0.00    -0.252 C  
HETATM    3  H1  UNL     1      -8.865  12.008  68.686  1.00  0.00     0.000 HD 
HETATM    4  H2  UNL     1      -9.260  13.386  69.570  1.00  0.00     0.000 HD 
ENDROOT
BRANCH   2   5
HETATM    5  C   UNL     1     -11.678  13.909  68.518  1.00  0.00    -0.355 C  
HETATM    6  H   UNL     1     -11.417  15.781  67.981  1.00  0.00     0.000 HD 
HETATM    7  O   UNL     1     -10.905  14.981  67.963  1.00  0.00    -0.256 OA 
BRANCH   5   8
HETATM    8  C   UNL     1     -12.117  14.249  69.930  1.00  0.00    -0.404 A  
HETATM    9  C   UNL     1     -12.876  13.353  70.706  1.00  0.00    -0.221 A  
HETATM   10  C   UNL     1     -13.290  13.727  71.980  1.00  0.00    -0.447 A  
HETATM   11  O   UNL     1     -14.022  12.889  72.778  1.00  0.00    -0.730 OA 
HETATM   12  C   UNL     1     -12.975  14.986  72.486  1.00  0.00    -0.374 A  
HETATM   13  H   UNL     1     -14.305  13.144  73.648  1.00  0.00     0.000 HD 
HETATM   14  C   UNL     1     -12.233  15.883  71.735  1.00  0.00    -0.551 A  
HETATM   15  O   UNL     1     -13.404  15.350  73.730  1.00  0.00    -0.630 OA 
HETATM   16  H   UNL     1     -13.188  16.208  74.075  1.00  0.00     0.000 HD 
HETATM   17  C   UNL     1     -11.802  15.514  70.460  1.00  0.00    -0.388 A  
ENDBRANCH   5   8
ENDBRANCH   2   5
TORSDOF 2
ENDMDL
MODEL       43
REMARK 921   NORMALIZED FREE ENERGY PREDICTED BY IDOCK:   -4.54 KCAL/MOL
REMARK 922        TOTAL FREE ENERGY PREDICTED BY IDOCK:   -5.14 KCAL/MOL
REMARK 923 INTER-LIGAND FREE ENERGY PREDICTED BY IDOCK:   -5.06 KCAL/MOL
REMARK 924 INTRA-LIGAND FREE ENERGY PREDICTED BY IDOCK:   -0.08 KCAL/MOL
REMARK 927      BINDING AFFINITY PREDICTED BY RF-SCORE:    0.00 PKD
ROOT
HETATM    1  N   UNL     1     -10.616  15.199  69.678  1.00  0.00    -0.259 NA 
HETATM    2  C   UNL     1     -11.275  15.142  68.365  1.00  0.00    -0.299 C  
HETATM    3  H1  UNL     1     -11.285  15.123  70.444  1.00  0.00     0.000 HD 
HETATM    4  H2  UNL     1     -10.043  16.038  69.769  1.00  0.00     0.000 HD 
ENDROOT
BRANCH   2   5
HETATM    5  C   UNL     1     -10.260  15.258  67.205  1.00  0.00    -0.248 C  
HETATM    6  H   UNL     1      -9.639  16.672  65.990  1.00  0.00     0.000 HD 
HETATM    7  O   UNL     1     -10.264  16.600  66.703  1.00  0.00    -0.286 OA 
BRANCH   5   8
HETATM    8  C   UNL     1     -10.578  14.275  66.093  1.00  0.00    -0.293 A  
HETATM    9  C   UNL     1     -11.425  14.618  65.023  1.00  0.00    -0.386 A  
HETATM   10  C   UNL     1     -11.721  13.669  64.049  1.00  0.00    -0.364 A  
HETATM   11  O   UNL     1     -12.530  13.955  62.983  1.00  0.00    -1.099 OA 
HETATM   12  C   UNL     1     -11.199  12.380  64.135  1.00  0.00    -0.376 A  
HETATM   13  H   UNL     1     -12.732  13.307  62.318  1.00  0.00     0.000 HD 
HETATM   14  C   UNL     1     -10.367  12.024  65.184  1.00  0.00    -0.313 A  
HETATM   15  O   UNL     1     -11.512  11.451  63.184  1.00  0.00    -0.849 OA 
HETATM   16  H   UNL     1     -11.156  10.573  63.243  1.00  0.00     0.000 HD 
HETATM   17  C   UNL     1     -10.055  12.971  66.160  1.00  0.00    -0.287 A  
ENDBRANCH   5   8
ENDBRANCH   2   5
TORSDOF 2
ENDMDL
MODEL       44
REMARK 921   NORMALIZED FREE ENERGY PREDICTED BY IDOCK:   -4.52 KCAL/MOL
REMARK 922        TOTAL FREE ENERGY PREDICTED BY IDOCK:   -5.13 KCAL/MOL
REMARK 923 INTER-LIGAND FREE ENERGY PREDICTED BY IDOCK:   -5.02 KCAL/MOL
REMARK 924 INTRA-LIGAND FREE ENERGY PREDICTED BY IDOCK:   -0.11 KCAL/MOL
REMARK 927      BINDING AFFINITY PREDICTED BY RF-SCORE:    0.00 PKD
ROOT
HETATM    1  N   UNL     1     -11.519   6.660  67.274  1.00  0.00    -0.749 NA 
HETATM    2  C   UNL     1     -10.878   6.279  68.541  1.00  0.00    -0.323 C  
HETATM    3  H1  UNL     1     -11.825   5.845  66.742  1.00  0.00     0.000 HD 
HETATM    4  H2  UNL     1     -10.910   7.258  66.716  1.00  0.00     0.000 HD 
ENDROOT
BRANCH   2   5
HETATM    5  C   UNL     1     -10.414   7.514  69.346  1.00  0.00    -0.222 C  
HETATM    6  H   UNL     1      -8.896   7.971  70.507  1.00  0.00     0.000 HD 
HETATM    7  O   UNL     1      -9.181   7.211  70.012  1.00  0.00    -0.146 OA 
BRANCH   5   8
HETATM    8  C   UNL     1     -11.467   7.946  70.350  1.00  0.00    -0.154 A  
HETATM    9  C   UNL     1     -11.637   9.295  70.711  1.00  0.00    -0.345 A  
HETATM   10  C   UNL     1     -12.588   9.637  71.668  1.00  0.00    -0.402 A  
HETATM   11  O   UNL     1     -12.799  10.935  72.046  1.00  0.00    -0.393 OA 
HETATM   12  C   UNL     1     -13.360   8.653  72.281  1.00  0.00    -0.375 A  
HETATM   13  H   UNL     1     -13.448  11.168  72.699  1.00  0.00     0.000 HD 
HETATM   14  C   UNL     1     -13.203   7.319  71.942  1.00  0.00    -0.289 A  
HETATM   15  O   UNL     1     -14.276   8.997  73.233  1.00  0.00    -1.192 OA 
HETATM   16  H   UNL     1     -14.802   8.326  73.651  1.00  0.00     0.000 HD 
HETATM   17  C   UNL     1     -12.260   6.966  70.975  1.00  0.00    -0.427 A  
ENDBRANCH   5   8
ENDBRANCH   2   5
TORSDOF 2
ENDMDL
MODEL       45
REMARK 921   NORMALIZED FREE ENERGY PREDICTED BY IDOCK:   -4.51 KCAL/MOL
REMARK 922        TOTAL FREE ENERGY PREDICTED BY IDOCK:   -5.12 KCAL/MOL
REMARK 923 INTER-LIGAND FREE ENERGY PREDICTED BY IDOCK:   -5.00 KCAL/MOL
REMARK 924 INTRA-LIGAND FREE ENERGY PREDICTED BY IDOCK:   -0.12 KCAL/MOL
REMARK 927      BINDING AFFINITY PREDICTED BY RF-SCORE:    0.00 PKD
ROOT
HETATM    1  N   UNL     1     -11.093  15.100  71.195  1.00  0.00    -0.539 NA 
HETATM    2  C   UNL     1     -11.974  14.244  70.389  1.00  0.00    -0.332 C  
HETATM    3  H1  UNL     1     -10.406  15.590  70.621  1.00  0.00     0.000 HD 
HETATM    4  H2  UNL     1     -10.641  14.570  71.941  1.00  0.00     0.000 HD 
ENDROOT
BRANCH   2   5
HETATM    5  C   UNL     1     -13.013  13.503  71.260  1.00  0.00    -0.304 C  
HETATM    6  H   UNL     1     -13.585  13.542  73.139  1.00  0.00     0.000 HD 
HETATM    7  O   UNL     1     -12.946  13.998  72.604  1.00  0.00    -0.416 OA 
BRANCH   5   8
HETATM    8  C   UNL     1     -12.783  12.003  71.237  1.00  0.00    -0.382 A  
HETATM    9  C   UNL     1     -13.411  11.143  72.156  1.00  0.00    -0.270 A  
HETATM   10  C   UNL     1     -13.135   9.779  72.121  1.00  0.00    -0.422 A  
HETATM   11  O   UNL     1     -13.727   8.900  72.987  1.00  0.00    -0.920 OA 
HETATM   12  C   UNL     1     -12.231   9.263  71.195  1.00  0.00    -0.301 A  
HETATM   13  H   UNL     1     -13.539   7.968  72.963  1.00  0.00     0.000 HD 
HETATM   14  C   UNL     1     -11.600  10.095  70.285  1.00  0.00    -0.379 A  
HETATM   15  O   UNL     1     -11.954   7.926  71.183  1.00  0.00    -0.296 OA 
HETATM   16  H   UNL     1     -11.338   7.574  70.552  1.00  0.00     0.000 HD 
HETATM   17  C   UNL     1     -11.878  11.463  70.304  1.00  0.00    -0.438 A  
ENDBRANCH   5   8
ENDBRANCH   2   5
TORSDOF 2
ENDMDL
MODEL       46
REMARK 921   NORMALIZED FREE ENERGY PREDICTED BY IDOCK:   -4.50 KCAL/MOL
REMARK 922        TOTAL FREE ENERGY PREDICTED BY IDOCK:   -5.11 KCAL/MOL
REMARK 923 INTER-LIGAND FREE ENERGY PREDICTED BY IDOCK:   -5.01 KCAL/MOL
REMARK 924 INTRA-LIGAND FREE ENERGY PREDICTED BY IDOCK:   -0.10 KCAL/MOL
REMARK 927      BINDING AFFINITY PREDICTED BY RF-SCORE:    0.00 PKD
ROOT
HETATM    1  N   UNL     1      -9.629   9.519  66.040  1.00  0.00    -0.230 NA 
HETATM    2  C   UNL     1     -10.019  10.886  66.415  1.00  0.00    -0.221 C  
HETATM    3  H1  UNL     1      -9.024   9.089  66.740  1.00  0.00     0.000 HD 
HETATM    4  H2  UNL     1      -9.198   9.497  65.115  1.00  0.00     0.000 HD 
ENDROOT
BRANCH   2   5
HETATM    5  C   UNL     1     -10.934  11.536  65.352  1.00  0.00    -0.226 C  
HETATM    6  H   UNL     1     -11.170  11.411  63.406  1.00  0.00     0.000 HD 
HETATM    7  O   UNL     1     -10.607  11.011  64.059  1.00  0.00    -0.366 OA 
BRANCH   5   8
HETATM    8  C   UNL     1     -10.799  13.048  65.360  1.00  0.00    -0.304 A  
HETATM    9  C   UNL     1     -11.604  13.867  64.548  1.00  0.00    -0.409 A  
HETATM   10  C   UNL     1     -11.414  15.246  64.558  1.00  0.00    -0.315 A  
HETATM   11  O   UNL     1     -12.177  16.087  63.794  1.00  0.00    -1.269 OA 
HETATM   12  C   UNL     1     -10.424  15.818  65.354  1.00  0.00    -0.414 A  
HETATM   13  H   UNL     1     -12.048  17.028  63.802  1.00  0.00     0.000 HD 
HETATM   14  C   UNL     1      -9.619  15.027  66.157  1.00  0.00    -0.345 A  
HETATM   15  O   UNL     1     -10.233  17.170  65.342  1.00  0.00    -0.605 OA 
HETATM   16  H   UNL     1      -9.559  17.560  65.884  1.00  0.00     0.000 HD 
HETATM   17  C   UNL     1      -9.808  13.644  66.162  1.00  0.00    -0.304 A  
ENDBRANCH   5   8
ENDBRANCH   2   5
TORSDOF 2
ENDMDL
MODEL       47
REMARK 921   NORMALIZED FREE ENERGY PREDICTED BY IDOCK:   -4.49 KCAL/MOL
REMARK 922        TOTAL FREE ENERGY PREDICTED BY IDOCK:   -5.10 KCAL/MOL
REMARK 923 INTER-LIGAND FREE ENERGY PREDICTED BY IDOCK:   -4.98 KCAL/MOL
REMARK 924 INTRA-LIGAND FREE ENERGY PREDICTED BY IDOCK:   -0.11 KCAL/MOL
REMARK 927      BINDING AFFINITY PREDICTED BY RF-SCORE:    0.00 PKD
ROOT
HETATM    1  N   UNL     1      -9.034  12.093  68.660  1.00  0.00    -0.378 NA 
HETATM    2  C   UNL     1     -10.180  11.176  68.572  1.00  0.00    -0.198 C  
HETATM    3  H1  UNL     1      -9.165  12.923  68.081  1.00  0.00     0.000 HD 
HETATM    4  H2  UNL     1      -8.161  11.617  68.433  1.00  0.00     0.000 HD 
ENDROOT
BRANCH   2   5
HETATM    5  C   UNL     1      -9.981   9.919  69.448  1.00  0.00    -0.212 C  
HETATM    6  H   UNL     1      -9.706   7.998  69.142  1.00  0.00     0.000 HD 
HETATM    7  O   UNL     1      -9.829   8.771  68.603  1.00  0.00    -0.160 OA 
BRANCH   5   8
HETATM    8  C   UNL     1     -11.144   9.723  70.403  1.00  0.00    -0.367 A  
HETATM    9  C   UNL     1     -11.876  10.811  70.912  1.00  0.00    -0.400 A  
HETATM   10  C   UNL     1     -12.908  10.584  71.818  1.00  0.00    -0.454 A  
HETATM   11  O   UNL     1     -13.656  11.607  72.334  1.00  0.00    -0.554 OA 
HETATM   12  C   UNL     1     -13.209   9.290  72.237  1.00  0.00    -0.460 A  
HETATM   13  H   UNL     1     -14.360  11.452  72.952  1.00  0.00     0.000 HD 
HETATM   14  C   UNL     1     -12.497   8.206  71.750  1.00  0.00    -0.363 A  
HETATM   15  O   UNL     1     -14.210   9.080  73.141  1.00  0.00    -1.142 OA 
HETATM   16  H   UNL     1     -14.416   8.198  73.426  1.00  0.00     0.000 HD 
HETATM   17  C   UNL     1     -11.467   8.422  70.832  1.00  0.00    -0.295 A  
ENDBRANCH   5   8
ENDBRANCH   2   5
TORSDOF 2
ENDMDL
MODEL       48
REMARK 921   NORMALIZED FREE ENERGY PREDICTED BY IDOCK:   -4.49 KCAL/MOL
REMARK 922        TOTAL FREE ENERGY PREDICTED BY IDOCK:   -5.09 KCAL/MOL
REMARK 923 INTER-LIGAND FREE ENERGY PREDICTED BY IDOCK:   -5.01 KCAL/MOL
REMARK 924 INTRA-LIGAND FREE ENERGY PREDICTED BY IDOCK:   -0.09 KCAL/MOL
REMARK 927      BINDING AFFINITY PREDICTED BY RF-SCORE:    0.00 PKD
ROOT
HETATM    1  N   UNL     1     -11.476   8.143  70.226  1.00  0.00    -0.457 NA 
HETATM    2  C   UNL     1     -11.454   9.613  70.203  1.00  0.00    -0.189 C  
HETATM    3  H1  UNL     1     -11.025   7.742  69.404  1.00  0.00     0.000 HD 
HETATM    4  H2  UNL     1     -12.426   7.788  70.337  1.00  0.00     0.000 HD 
ENDROOT
BRANCH   2   5
HETATM    5  C   UNL     1     -12.139  10.220  71.448  1.00  0.00    -0.362 C  
HETATM    6  H   UNL     1     -13.706   9.804  72.557  1.00  0.00     0.000 HD 
HETATM    7  O   UNL     1     -13.285   9.431  71.791  1.00  0.00    -0.358 OA 
BRANCH   5   8
HETATM    8  C   UNL     1     -12.541  11.663  71.207  1.00  0.00    -0.425 A  
HETATM    9  C   UNL     1     -12.042  12.399  70.118  1.00  0.00    -0.366 A  
HETATM   10  C   UNL     1     -12.408  13.733  69.962  1.00  0.00    -0.300 A  
HETATM   11  O   UNL     1     -11.957  14.489  68.915  1.00  0.00    -0.378 OA 
HETATM   12  C   UNL     1     -13.250  14.348  70.886  1.00  0.00    -0.288 A  
HETATM   13  H   UNL     1     -12.207  15.400  68.809  1.00  0.00     0.000 HD 
HETATM   14  C   UNL     1     -13.749  13.640  71.968  1.00  0.00    -0.583 A  
HETATM   15  O   UNL     1     -13.587  15.662  70.735  1.00  0.00    -0.827 OA 
HETATM   16  H   UNL     1     -14.162  16.081  71.364  1.00  0.00     0.000 HD 
HETATM   17  C   UNL     1     -13.397  12.299  72.126  1.00  0.00    -0.473 A  
ENDBRANCH   5   8
ENDBRANCH   2   5
TORSDOF 2
ENDMDL
MODEL       49
REMARK 921   NORMALIZED FREE ENERGY PREDICTED BY IDOCK:   -4.48 KCAL/MOL
REMARK 922        TOTAL FREE ENERGY PREDICTED BY IDOCK:   -5.08 KCAL/MOL
REMARK 923 INTER-LIGAND FREE ENERGY PREDICTED BY IDOCK:   -4.99 KCAL/MOL
REMARK 924 INTRA-LIGAND FREE ENERGY PREDICTED BY IDOCK:   -0.09 KCAL/MOL
REMARK 927      BINDING AFFINITY PREDICTED BY RF-SCORE:    0.00 PKD
ROOT
HETATM    1  N   UNL     1     -11.030  16.588  67.912  1.00  0.00    -0.325 NA 
HETATM    2  C   UNL     1     -11.682  15.669  68.857  1.00  0.00    -0.384 C  
HETATM    3  H1  UNL     1     -11.346  17.550  68.036  1.00  0.00     0.000 HD 
HETATM    4  H2  UNL     1     -11.155  16.278  66.948  1.00  0.00     0.000 HD 
ENDROOT
BRANCH   2   5
HETATM    5  C   UNL     1     -11.202  14.212  68.668  1.00  0.00    -0.266 C  
HETATM    6  H   UNL     1     -11.196  12.891  67.214  1.00  0.00     0.000 HD 
HETATM    7  O   UNL     1     -11.491  13.787  67.330  1.00  0.00    -0.311 OA 
BRANCH   5   8
HETATM    8  C   UNL     1     -11.857  13.282  69.673  1.00  0.00    -0.391 A  
HETATM    9  C   UNL     1     -12.550  13.773  70.794  1.00  0.00    -0.410 A  
HETATM   10  C   UNL     1     -13.098  12.880  71.710  1.00  0.00    -0.360 A  
HETATM   11  O   UNL     1     -13.789  13.307  72.812  1.00  0.00    -0.692 OA 
HETATM   12  C   UNL     1     -12.951  11.506  71.533  1.00  0.00    -0.380 A  
HETATM   13  H   UNL     1     -14.163  12.697  73.437  1.00  0.00     0.000 HD 
HETATM   14  C   UNL     1     -12.269  11.004  70.437  1.00  0.00    -0.461 A  
HETATM   15  O   UNL     1     -13.476  10.639  72.448  1.00  0.00    -0.603 OA 
HETATM   16  H   UNL     1     -13.376   9.703  72.328  1.00  0.00     0.000 HD 
HETATM   17  C   UNL     1     -11.725  11.891  69.507  1.00  0.00    -0.410 A  
ENDBRANCH   5   8
ENDBRANCH   2   5
TORSDOF 2
ENDMDL
MODEL       50
REMARK 921   NORMALIZED FREE ENERGY PREDICTED BY IDOCK:   -4.38 KCAL/MOL
REMARK 922        TOTAL FREE ENERGY PREDICTED BY IDOCK:   -4.97 KCAL/MOL
REMARK 923 INTER-LIGAND FREE ENERGY PREDICTED BY IDOCK:   -4.87 KCAL/MOL
REMARK 924 INTRA-LIGAND FREE ENERGY PREDICTED BY IDOCK:   -0.10 KCAL/MOL
REMARK 927      BINDING AFFINITY PREDICTED BY RF-SCORE:    0.00 PKD
ROOT
HETATM    1  N   UNL     1     -11.245  16.083  64.024  1.00  0.00    -1.099 NA 
HETATM    2  C   UNL     1     -11.856  14.828  64.487  1.00  0.00    -0.419 C  
HETATM    3  H1  UNL     1     -11.410  16.242  63.030  1.00  0.00     0.000 HD 
HETATM    4  H2  UNL     1     -10.250  16.113  64.244  1.00  0.00     0.000 HD 
ENDROOT
BRANCH   2   5
HETATM    5  C   UNL     1     -11.606  14.587  65.993  1.00  0.00    -0.356 C  
HETATM    6  H   UNL     1     -10.371  15.270  67.360  1.00  0.00     0.000 HD 
HETATM    7  O   UNL     1     -10.525  15.418  66.434  1.00  0.00    -0.287 OA 
BRANCH   5   8
HETATM    8  C   UNL     1     -11.300  13.127  66.274  1.00  0.00    -0.348 A  
HETATM    9  C   UNL     1     -11.849  12.455  67.380  1.00  0.00    -0.360 A  
HETATM   10  C   UNL     1     -11.506  11.127  67.619  1.00  0.00    -0.250 A  
HETATM   11  O   UNL     1     -12.020  10.426  68.676  1.00  0.00    -0.715 OA 
HETATM   12  C   UNL     1     -10.610  10.466  66.782  1.00  0.00    -0.205 A  
HETATM   13  H   UNL     1     -11.786   9.520  68.840  1.00  0.00     0.000 HD 
HETATM   14  C   UNL     1     -10.056  11.114  65.690  1.00  0.00    -0.304 A  
HETATM   15  O   UNL     1     -10.265   9.170  67.037  1.00  0.00    -0.226 OA 
HETATM   16  H   UNL     1      -9.655   8.720  66.466  1.00  0.00     0.000 HD 
HETATM   17  C   UNL     1     -10.402  12.441  65.434  1.00  0.00    -0.303 A  
ENDBRANCH   5   8
ENDBRANCH   2   5
TORSDOF 2
ENDMDL
MODEL       51
REMARK 921   NORMALIZED FREE ENERGY PREDICTED BY IDOCK:   -4.37 KCAL/MOL
REMARK 922        TOTAL FREE ENERGY PREDICTED BY IDOCK:   -4.96 KCAL/MOL
REMARK 923 INTER-LIGAND FREE ENERGY PREDICTED BY IDOCK:   -4.89 KCAL/MOL
REMARK 924 INTRA-LIGAND FREE ENERGY PREDICTED BY IDOCK:   -0.07 KCAL/MOL
REMARK 927      BINDING AFFINITY PREDICTED BY RF-SCORE:    0.00 PKD
ROOT
HETATM    1  N   UNL     1     -10.478   7.740  67.576  1.00  0.00    -0.300 NA 
HETATM    2  C   UNL     1      -9.661   8.048  68.759  1.00  0.00    -0.149 C  
HETATM    3  H1  UNL     1     -10.236   6.835  67.171  1.00  0.00     0.000 HD 
HETATM    4  H2  UNL     1     -10.419   8.484  66.881  1.00  0.00     0.000 HD 
ENDROOT
BRANCH   2   5
HETATM    5  C   UNL     1     -10.026   9.419  69.371  1.00  0.00    -0.183 C  
HETATM    6  H   UNL     1      -9.087  10.837  70.354  1.00  0.00     0.000 HD 
HETATM    7  O   UNL     1      -8.862   9.994  69.978  1.00  0.00    -0.192 OA 
BRANCH   5   8
HETATM    8  C   UNL     1     -11.144   9.288  70.390  1.00  0.00    -0.300 A  
HETATM    9  C   UNL     1     -11.542   8.037  70.895  1.00  0.00    -0.284 A  
HETATM   10  C   UNL     1     -12.600   7.963  71.796  1.00  0.00    -0.328 A  
HETATM   11  O   UNL     1     -13.019   6.772  72.324  1.00  0.00    -0.542 OA 
HETATM   12  C   UNL     1     -13.277   9.116  72.187  1.00  0.00    -0.458 A  
HETATM   13  H   UNL     1     -13.741   6.722  72.939  1.00  0.00     0.000 HD 
HETATM   14  C   UNL     1     -12.902  10.356  71.697  1.00  0.00    -0.579 A  
HETATM   15  O   UNL     1     -14.327   9.030  73.056  1.00  0.00    -1.108 OA 
HETATM   16  H   UNL     1     -14.788   9.816  73.323  1.00  0.00     0.000 HD 
HETATM   17  C   UNL     1     -11.835  10.442  70.801  1.00  0.00    -0.466 A  
ENDBRANCH   5   8
ENDBRANCH   2   5
TORSDOF 2
ENDMDL
MODEL       52
REMARK 921   NORMALIZED FREE ENERGY PREDICTED BY IDOCK:   -4.36 KCAL/MOL
REMARK 922        TOTAL FREE ENERGY PREDICTED BY IDOCK:   -4.95 KCAL/MOL
REMARK 923 INTER-LIGAND FREE ENERGY PREDICTED BY IDOCK:   -4.85 KCAL/MOL
REMARK 924 INTRA-LIGAND FREE ENERGY PREDICTED BY IDOCK:   -0.10 KCAL/MOL
REMARK 927      BINDING AFFINITY PREDICTED BY RF-SCORE:    0.00 PKD
ROOT
HETATM    1  N   UNL     1     -12.519   6.514  72.340  1.00  0.00    -0.538 NA 
HETATM    2  C   UNL     1     -12.852   7.681  71.510  1.00  0.00    -0.344 C  
HETATM    3  H1  UNL     1     -12.401   5.670  71.780  1.00  0.00     0.000 HD 
HETATM    4  H2  UNL     1     -13.210   6.375  73.078  1.00  0.00     0.000 HD 
ENDROOT
BRANCH   2   5
HETATM    5  C   UNL     1     -13.032   8.960  72.359  1.00  0.00    -0.404 C  
HETATM    6  H   UNL     1     -14.509   9.846  73.304  1.00  0.00     0.000 HD 
HETATM    7  O   UNL     1     -14.398   9.060  72.782  1.00  0.00    -0.596 OA 
BRANCH   5   8
HETATM    8  C   UNL     1     -12.626  10.199  71.582  1.00  0.00    -0.533 A  
HETATM    9  C   UNL     1     -13.118  11.475  71.914  1.00  0.00    -0.492 A  
HETATM   10  C   UNL     1     -12.749  12.576  71.146  1.00  0.00    -0.245 A  
HETATM   11  O   UNL     1     -13.192  13.838  71.432  1.00  0.00    -0.336 OA 
HETATM   12  C   UNL     1     -11.912  12.421  70.043  1.00  0.00    -0.299 A  
HETATM   13  H   UNL     1     -12.940  14.590  70.908  1.00  0.00     0.000 HD 
HETATM   14  C   UNL     1     -11.422  11.171  69.699  1.00  0.00    -0.383 A  
HETATM   15  O   UNL     1     -11.573  13.504  69.285  1.00  0.00    -0.278 OA 
HETATM   16  H   UNL     1     -11.002  13.398  68.534  1.00  0.00     0.000 HD 
HETATM   17  C   UNL     1     -11.776  10.063  70.469  1.00  0.00    -0.400 A  
ENDBRANCH   5   8
ENDBRANCH   2   5
TORSDOF 2
ENDMDL
MODEL       53
REMARK 921   NORMALIZED FREE ENERGY PREDICTED BY IDOCK:   -4.34 KCAL/MOL
REMARK 922        TOTAL FREE ENERGY PREDICTED BY IDOCK:   -4.92 KCAL/MOL
REMARK 923 INTER-LIGAND FREE ENERGY PREDICTED BY IDOCK:   -4.85 KCAL/MOL
REMARK 924 INTRA-LIGAND FREE ENERGY PREDICTED BY IDOCK:   -0.07 KCAL/MOL
REMARK 927      BINDING AFFINITY PREDICTED BY RF-SCORE:    0.00 PKD
ROOT
HETATM    1  N   UNL     1      -9.813  20.230  66.432  1.00  0.00    -0.596 NA 
HETATM    2  C   UNL     1     -10.408  18.888  66.350  1.00  0.00    -0.443 C  
HETATM    3  H1  UNL     1     -10.488  20.961  66.207  1.00  0.00     0.000 HD 
HETATM    4  H2  UNL     1      -8.980  20.303  65.847  1.00  0.00     0.000 HD 
ENDROOT
BRANCH   2   5
HETATM    5  C   UNL     1      -9.384  17.782  66.690  1.00  0.00    -0.287 C  
HETATM    6  H   UNL     1      -7.604  17.244  66.057  1.00  0.00     0.000 HD 
HETATM    7  O   UNL     1      -8.234  17.924  65.848  1.00  0.00    -0.522 OA 
BRANCH   5   8
HETATM    8  C   UNL     1      -9.991  16.400  66.529  1.00  0.00    -0.294 A  
HETATM    9  C   UNL     1      -9.784  15.632  65.369  1.00  0.00    -0.193 A  
HETATM   10  C   UNL     1     -10.397  14.387  65.250  1.00  0.00    -0.403 A  
HETATM   11  O   UNL     1     -10.220  13.597  64.147  1.00  0.00    -0.718 OA 
HETATM   12  C   UNL     1     -11.225  13.906  66.262  1.00  0.00    -0.309 A  
HETATM   13  H   UNL     1     -10.638  12.748  64.065  1.00  0.00     0.000 HD 
HETATM   14  C   UNL     1     -11.444  14.651  67.409  1.00  0.00    -0.384 A  
HETATM   15  O   UNL     1     -11.836  12.693  66.126  1.00  0.00    -0.394 OA 
HETATM   16  H   UNL     1     -12.400  12.365  66.816  1.00  0.00     0.000 HD 
HETATM   17  C   UNL     1     -10.825  15.895  67.544  1.00  0.00    -0.305 A  
ENDBRANCH   5   8
ENDBRANCH   2   5
TORSDOF 2
ENDMDL
MODEL       54
REMARK 921   NORMALIZED FREE ENERGY PREDICTED BY IDOCK:   -4.32 KCAL/MOL
REMARK 922        TOTAL FREE ENERGY PREDICTED BY IDOCK:   -4.90 KCAL/MOL
REMARK 923 INTER-LIGAND FREE ENERGY PREDICTED BY IDOCK:   -4.81 KCAL/MOL
REMARK 924 INTRA-LIGAND FREE ENERGY PREDICTED BY IDOCK:   -0.09 KCAL/MOL
REMARK 927      BINDING AFFINITY PREDICTED BY RF-SCORE:    0.00 PKD
ROOT
HETATM    1  N   UNL     1     -11.150  15.045  64.524  1.00  0.00    -0.643 NA 
HETATM    2  C   UNL     1     -11.895  14.260  65.519  1.00  0.00    -0.363 C  
HETATM    3  H1  UNL     1     -11.243  14.657  63.585  1.00  0.00     0.000 HD 
HETATM    4  H2  UNL     1     -10.170  15.145  64.788  1.00  0.00     0.000 HD 
ENDROOT
BRANCH   2   5
HETATM    5  C   UNL     1     -11.753  14.848  66.941  1.00  0.00    -0.248 C  
HETATM    6  H   UNL     1     -10.433  15.934  67.910  1.00  0.00     0.000 HD 
HETATM    7  O   UNL     1     -10.520  15.572  67.035  1.00  0.00    -0.291 OA 
BRANCH   5   8
HETATM    8  C   UNL     1     -11.810  13.758  67.996  1.00  0.00    -0.408 A  
HETATM    9  C   UNL     1     -11.775  12.394  67.654  1.00  0.00    -0.412 A  
HETATM   10  C   UNL     1     -11.871  11.431  68.655  1.00  0.00    -0.310 A  
HETATM   11  O   UNL     1     -11.833  10.092  68.375  1.00  0.00    -0.676 OA 
HETATM   12  C   UNL     1     -12.019  11.808  69.988  1.00  0.00    -0.344 A  
HETATM   13  H   UNL     1     -11.899   9.435  69.058  1.00  0.00     0.000 HD 
HETATM   14  C   UNL     1     -12.060  13.147  70.343  1.00  0.00    -0.392 A  
HETATM   15  O   UNL     1     -12.133  10.855  70.959  1.00  0.00    -0.338 OA 
HETATM   16  H   UNL     1     -12.233  11.112  71.867  1.00  0.00     0.000 HD 
HETATM   17  C   UNL     1     -11.952  14.120  69.348  1.00  0.00    -0.382 A  
ENDBRANCH   5   8
ENDBRANCH   2   5
TORSDOF 2
ENDMDL
MODEL       55
REMARK 921   NORMALIZED FREE ENERGY PREDICTED BY IDOCK:   -4.31 KCAL/MOL
REMARK 922        TOTAL FREE ENERGY PREDICTED BY IDOCK:   -4.89 KCAL/MOL
REMARK 923 INTER-LIGAND FREE ENERGY PREDICTED BY IDOCK:   -4.78 KCAL/MOL
REMARK 924 INTRA-LIGAND FREE ENERGY PREDICTED BY IDOCK:   -0.11 KCAL/MOL
REMARK 927      BINDING AFFINITY PREDICTED BY RF-SCORE:    0.00 PKD
ROOT
HETATM    1  N   UNL     1     -11.757   8.029  70.549  1.00  0.00    -0.459 NA 
HETATM    2  C   UNL     1     -11.073   9.316  70.744  1.00  0.00    -0.285 C  
HETATM    3  H1  UNL     1     -11.118   7.305  70.220  1.00  0.00     0.000 HD 
HETATM    4  H2  UNL     1     -12.560   8.126  69.928  1.00  0.00     0.000 HD 
ENDROOT
BRANCH   2   5
HETATM    5  C   UNL     1     -12.041  10.413  71.242  1.00  0.00    -0.362 C  
HETATM    6  H   UNL     1     -13.958  10.544  71.652  1.00  0.00     0.000 HD 
HETATM    7  O   UNL     1     -13.363   9.870  71.344  1.00  0.00    -0.383 OA 
BRANCH   5   8
HETATM    8  C   UNL     1     -12.033  11.617  70.318  1.00  0.00    -0.445 A  
HETATM    9  C   UNL     1     -12.419  12.895  70.763  1.00  0.00    -0.370 A  
HETATM   10  C   UNL     1     -12.435  13.960  69.867  1.00  0.00    -0.229 A  
HETATM   11  O   UNL     1     -12.792  15.223  70.252  1.00  0.00    -0.594 OA 
HETATM   12  C   UNL     1     -12.089  13.766  68.531  1.00  0.00    -0.292 A  
HETATM   13  H   UNL     1     -12.803  15.950  69.640  1.00  0.00     0.000 HD 
HETATM   14  C   UNL     1     -11.712  12.514  68.074  1.00  0.00    -0.410 A  
HETATM   15  O   UNL     1     -12.128  14.813  67.656  1.00  0.00    -0.545 OA 
HETATM   16  H   UNL     1     -11.892  14.681  66.746  1.00  0.00     0.000 HD 
HETATM   17  C   UNL     1     -11.681  11.441  68.967  1.00  0.00    -0.409 A  
ENDBRANCH   5   8
ENDBRANCH   2   5
TORSDOF 2
ENDMDL
MODEL       56
REMARK 921   NORMALIZED FREE ENERGY PREDICTED BY IDOCK:   -4.30 KCAL/MOL
REMARK 922        TOTAL FREE ENERGY PREDICTED BY IDOCK:   -4.89 KCAL/MOL
REMARK 923 INTER-LIGAND FREE ENERGY PREDICTED BY IDOCK:   -4.79 KCAL/MOL
REMARK 924 INTRA-LIGAND FREE ENERGY PREDICTED BY IDOCK:   -0.09 KCAL/MOL
REMARK 927      BINDING AFFINITY PREDICTED BY RF-SCORE:    0.00 PKD
ROOT
HETATM    1  N   UNL     1     -10.782  16.795  67.976  1.00  0.00    -0.352 NA 
HETATM    2  C   UNL     1     -11.559  15.861  68.804  1.00  0.00    -0.386 C  
HETATM    3  H1  UNL     1     -10.856  17.755  68.313  1.00  0.00     0.000 HD 
HETATM    4  H2  UNL     1     -11.044  16.726  66.993  1.00  0.00     0.000 HD 
ENDROOT
BRANCH   2   5
HETATM    5  C   UNL     1     -11.447  14.407  68.292  1.00  0.00    -0.305 C  
HETATM    6  H   UNL     1     -12.161  13.366  66.786  1.00  0.00     0.000 HD 
HETATM    7  O   UNL     1     -12.231  14.261  67.101  1.00  0.00    -0.410 OA 
BRANCH   5   8
HETATM    8  C   UNL     1     -11.897  13.415  69.348  1.00  0.00    -0.390 A  
HETATM    9  C   UNL     1     -11.820  12.026  69.140  1.00  0.00    -0.369 A  
HETATM   10  C   UNL     1     -12.284  11.155  70.122  1.00  0.00    -0.337 A  
HETATM   11  O   UNL     1     -12.223   9.797  69.972  1.00  0.00    -0.472 OA 
HETATM   12  C   UNL     1     -12.839  11.650  71.300  1.00  0.00    -0.328 A  
HETATM   13  H   UNL     1     -12.540   9.203  70.642  1.00  0.00     0.000 HD 
HETATM   14  C   UNL     1     -12.928  13.015  71.521  1.00  0.00    -0.398 A  
HETATM   15  O   UNL     1     -13.310  10.787  72.248  1.00  0.00    -0.623 OA 
HETATM   16  H   UNL     1     -13.688  11.124  73.052  1.00  0.00     0.000 HD 
HETATM   17  C   UNL     1     -12.455  13.896  70.547  1.00  0.00    -0.422 A  
ENDBRANCH   5   8
ENDBRANCH   2   5
TORSDOF 2
ENDMDL
MODEL       57
REMARK 921   NORMALIZED FREE ENERGY PREDICTED BY IDOCK:   -4.29 KCAL/MOL
REMARK 922        TOTAL FREE ENERGY PREDICTED BY IDOCK:   -4.87 KCAL/MOL
REMARK 923 INTER-LIGAND FREE ENERGY PREDICTED BY IDOCK:   -4.81 KCAL/MOL
REMARK 924 INTRA-LIGAND FREE ENERGY PREDICTED BY IDOCK:   -0.06 KCAL/MOL
REMARK 927      BINDING AFFINITY PREDICTED BY RF-SCORE:    0.00 PKD
ROOT
HETATM    1  N   UNL     1      -7.212  10.962  64.980  1.00  0.00    -0.339 NA 
HETATM    2  C   UNL     1      -8.396  10.673  65.803  1.00  0.00    -0.162 C  
HETATM    3  H1  UNL     1      -6.385  11.139  65.551  1.00  0.00     0.000 HD 
HETATM    4  H2  UNL     1      -7.388  11.732  64.334  1.00  0.00     0.000 HD 
ENDROOT
BRANCH   2   5
HETATM    5  C   UNL     1      -9.648  10.406  64.938  1.00  0.00    -0.289 C  
HETATM    6  H   UNL     1     -10.031   9.559  63.207  1.00  0.00     0.000 HD 
HETATM    7  O   UNL     1      -9.261   9.723  63.739  1.00  0.00    -0.258 OA 
BRANCH   5   8
HETATM    8  C   UNL     1     -10.371  11.698  64.601  1.00  0.00    -0.341 A  
HETATM    9  C   UNL     1     -10.066  12.908  65.251  1.00  0.00    -0.254 A  
HETATM   10  C   UNL     1     -10.786  14.057  64.938  1.00  0.00    -0.418 A  
HETATM   11  O   UNL     1     -10.522  15.260  65.534  1.00  0.00    -0.317 OA 
HETATM   12  C   UNL     1     -11.815  14.014  63.999  1.00  0.00    -0.308 A  
HETATM   13  H   UNL     1     -11.013  16.045  65.320  1.00  0.00     0.000 HD 
HETATM   14  C   UNL     1     -12.132  12.831  63.353  1.00  0.00    -0.619 A  
HETATM   15  O   UNL     1     -12.527  15.144  63.714  1.00  0.00    -1.020 OA 
HETATM   16  H   UNL     1     -13.228  15.114  63.075  1.00  0.00     0.000 HD 
HETATM   17  C   UNL     1     -11.409  11.675  63.651  1.00  0.00    -0.485 A  
ENDBRANCH   5   8
ENDBRANCH   2   5
TORSDOF 2
ENDMDL
MODEL       58
REMARK 921   NORMALIZED FREE ENERGY PREDICTED BY IDOCK:   -4.26 KCAL/MOL
REMARK 922        TOTAL FREE ENERGY PREDICTED BY IDOCK:   -4.83 KCAL/MOL
REMARK 923 INTER-LIGAND FREE ENERGY PREDICTED BY IDOCK:   -4.71 KCAL/MOL
REMARK 924 INTRA-LIGAND FREE ENERGY PREDICTED BY IDOCK:   -0.12 KCAL/MOL
REMARK 927      BINDING AFFINITY PREDICTED BY RF-SCORE:    0.00 PKD
ROOT
HETATM    1  N   UNL     1      -9.958  10.526  69.986  1.00  0.00    -0.400 NA 
HETATM    2  C   UNL     1     -11.357  10.192  70.293  1.00  0.00    -0.315 C  
HETATM    3  H1  UNL     1      -9.304   9.916  70.477  1.00  0.00     0.000 HD 
HETATM    4  H2  UNL     1      -9.761  11.509  70.176  1.00  0.00     0.000 HD 
ENDROOT
BRANCH   2   5
HETATM    5  C   UNL     1     -12.347  11.117  69.551  1.00  0.00    -0.194 C  
HETATM    6  H   UNL     1     -12.623  11.717  67.700  1.00  0.00     0.000 HD 
HETATM    7  O   UNL     1     -12.014  11.148  68.157  1.00  0.00    -0.615 OA 
BRANCH   5   8
HETATM    8  C   UNL     1     -12.332  12.520  70.130  1.00  0.00    -0.210 A  
HETATM    9  C   UNL     1     -12.884  12.805  71.392  1.00  0.00    -0.371 A  
HETATM   10  C   UNL     1     -12.884  14.115  71.863  1.00  0.00    -0.341 A  
HETATM   11  O   UNL     1     -13.401  14.443  73.087  1.00  0.00    -0.626 OA 
HETATM   12  C   UNL     1     -12.356  15.145  71.089  1.00  0.00    -0.341 A  
HETATM   13  H   UNL     1     -13.400  15.337  73.409  1.00  0.00     0.000 HD 
HETATM   14  C   UNL     1     -11.812  14.884  69.842  1.00  0.00    -0.355 A  
HETATM   15  O   UNL     1     -12.379  16.429  71.552  1.00  0.00    -0.551 OA 
HETATM   16  H   UNL     1     -12.019  17.132  71.024  1.00  0.00     0.000 HD 
HETATM   17  C   UNL     1     -11.797  13.572  69.365  1.00  0.00    -0.389 A  
ENDBRANCH   5   8
ENDBRANCH   2   5
TORSDOF 2
ENDMDL
MODEL       59
REMARK 921   NORMALIZED FREE ENERGY PREDICTED BY IDOCK:   -4.24 KCAL/MOL
REMARK 922        TOTAL FREE ENERGY PREDICTED BY IDOCK:   -4.81 KCAL/MOL
REMARK 923 INTER-LIGAND FREE ENERGY PREDICTED BY IDOCK:   -4.72 KCAL/MOL
REMARK 924 INTRA-LIGAND FREE ENERGY PREDICTED BY IDOCK:   -0.10 KCAL/MOL
REMARK 927      BINDING AFFINITY PREDICTED BY RF-SCORE:    0.00 PKD
ROOT
HETATM    1  N   UNL     1     -11.220  15.888  64.222  1.00  0.00    -0.942 NA 
HETATM    2  C   UNL     1     -11.881  14.653  64.667  1.00  0.00    -0.452 C  
HETATM    3  H1  UNL     1     -11.291  16.016  63.212  1.00  0.00     0.000 HD 
HETATM    4  H2  UNL     1     -10.249  15.922  64.532  1.00  0.00     0.000 HD 
ENDROOT
BRANCH   2   5
HETATM    5  C   UNL     1     -11.773  14.459  66.196  1.00  0.00    -0.378 C  
HETATM    6  H   UNL     1     -10.710  15.228  67.658  1.00  0.00     0.000 HD 
HETATM    7  O   UNL     1     -10.776  15.347  66.718  1.00  0.00    -0.304 OA 
BRANCH   5   8
HETATM    8  C   UNL     1     -11.437  13.021  66.547  1.00  0.00    -0.385 A  
HETATM    9  C   UNL     1     -10.898  12.134  65.599  1.00  0.00    -0.323 A  
HETATM   10  C   UNL     1     -10.646  10.813  65.957  1.00  0.00    -0.156 A  
HETATM   11  O   UNL     1     -10.113   9.913  65.074  1.00  0.00    -0.356 OA 
HETATM   12  C   UNL     1     -10.939  10.360  67.242  1.00  0.00    -0.240 A  
HETATM   13  H   UNL     1      -9.941   9.011  65.319  1.00  0.00     0.000 HD 
HETATM   14  C   UNL     1     -11.474  11.219  68.188  1.00  0.00    -0.376 A  
HETATM   15  O   UNL     1     -10.706   9.057  67.577  1.00  0.00    -0.386 OA 
HETATM   16  H   UNL     1     -10.906   8.749  68.452  1.00  0.00     0.000 HD 
HETATM   17  C   UNL     1     -11.720  12.548  67.842  1.00  0.00    -0.416 A  
ENDBRANCH   5   8
ENDBRANCH   2   5
TORSDOF 2
ENDMDL
MODEL       60
REMARK 921   NORMALIZED FREE ENERGY PREDICTED BY IDOCK:   -4.20 KCAL/MOL
REMARK 922        TOTAL FREE ENERGY PREDICTED BY IDOCK:   -4.77 KCAL/MOL
REMARK 923 INTER-LIGAND FREE ENERGY PREDICTED BY IDOCK:   -4.66 KCAL/MOL
REMARK 924 INTRA-LIGAND FREE ENERGY PREDICTED BY IDOCK:   -0.11 KCAL/MOL
REMARK 927      BINDING AFFINITY PREDICTED BY RF-SCORE:    0.00 PKD
ROOT
HETATM    1  N   UNL     1     -12.215  11.043  68.514  1.00  0.00    -0.781 NA 
HETATM    2  C   UNL     1     -11.903  11.315  69.925  1.00  0.00    -0.360 C  
HETATM    3  H1  UNL     1     -11.640  11.601  67.883  1.00  0.00     0.000 HD 
HETATM    4  H2  UNL     1     -13.208  11.172  68.322  1.00  0.00     0.000 HD 
ENDROOT
BRANCH   2   5
HETATM    5  C   UNL     1     -12.775  10.469  70.881  1.00  0.00    -0.402 C  
HETATM    6  H   UNL     1     -13.730  10.762  72.573  1.00  0.00     0.000 HD 
HETATM    7  O   UNL     1     -13.193  11.282  71.986  1.00  0.00    -0.506 OA 
BRANCH   5   8
HETATM    8  C   UNL     1     -12.024   9.247  71.377  1.00  0.00    -0.424 A  
HETATM    9  C   UNL     1     -12.695   8.077  71.775  1.00  0.00    -0.352 A  
HETATM   10  C   UNL     1     -11.965   6.997  72.262  1.00  0.00    -0.211 A  
HETATM   11  O   UNL     1     -12.569   5.833  72.654  1.00  0.00    -0.499 OA 
HETATM   12  C   UNL     1     -10.578   7.073  72.374  1.00  0.00    -0.223 A  
HETATM   13  H   UNL     1     -12.070   5.096  72.986  1.00  0.00     0.000 HD 
HETATM   14  C   UNL     1      -9.901   8.219  71.991  1.00  0.00    -0.327 A  
HETATM   15  O   UNL     1      -9.873   6.015  72.872  1.00  0.00    -0.165 OA 
HETATM   16  H   UNL     1      -8.928   6.066  72.947  1.00  0.00     0.000 HD 
HETATM   17  C   UNL     1     -10.622   9.304  71.490  1.00  0.00    -0.405 A  
ENDBRANCH   5   8
ENDBRANCH   2   5
TORSDOF 2
ENDMDL
MODEL       61
REMARK 921   NORMALIZED FREE ENERGY PREDICTED BY IDOCK:   -4.19 KCAL/MOL
REMARK 922        TOTAL FREE ENERGY PREDICTED BY IDOCK:   -4.75 KCAL/MOL
REMARK 923 INTER-LIGAND FREE ENERGY PREDICTED BY IDOCK:   -4.65 KCAL/MOL
REMARK 924 INTRA-LIGAND FREE ENERGY PREDICTED BY IDOCK:   -0.10 KCAL/MOL
REMARK 927      BINDING AFFINITY PREDICTED BY RF-SCORE:    0.00 PKD
ROOT
HETATM    1  N   UNL     1      -9.405  20.507  66.978  1.00  0.00    -0.581 NA 
HETATM    2  C   UNL     1     -10.464  19.655  67.540  1.00  0.00    -0.458 C  
HETATM    3  H1  UNL     1      -9.786  21.321  66.497  1.00  0.00     0.000 HD 
HETATM    4  H2  UNL     1      -8.784  19.974  66.370  1.00  0.00     0.000 HD 
ENDROOT
BRANCH   2   5
HETATM    5  C   UNL     1      -9.885  18.421  68.269  1.00  0.00    -0.359 C  
HETATM    6  H   UNL     1      -8.101  17.670  68.603  1.00  0.00     0.000 HD 
HETATM    7  O   UNL     1      -8.457  18.428  68.154  1.00  0.00    -0.269 OA 
BRANCH   5   8
HETATM    8  C   UNL     1     -10.455  17.132  67.707  1.00  0.00    -0.362 A  
HETATM    9  C   UNL     1     -11.142  16.211  68.519  1.00  0.00    -0.357 A  
HETATM   10  C   UNL     1     -11.611  15.022  67.967  1.00  0.00    -0.338 A  
HETATM   11  O   UNL     1     -12.292  14.098  68.711  1.00  0.00    -0.549 OA 
HETATM   12  C   UNL     1     -11.390  14.732  66.622  1.00  0.00    -0.347 A  
HETATM   13  H   UNL     1     -12.612  13.287  68.334  1.00  0.00     0.000 HD 
HETATM   14  C   UNL     1     -10.712  15.625  65.809  1.00  0.00    -0.350 A  
HETATM   15  O   UNL     1     -11.836  13.554  66.095  1.00  0.00    -0.351 OA 
HETATM   16  H   UNL     1     -11.686  13.356  65.179  1.00  0.00     0.000 HD 
HETATM   17  C   UNL     1     -10.248  16.825  66.350  1.00  0.00    -0.329 A  
ENDBRANCH   5   8
ENDBRANCH   2   5
TORSDOF 2
ENDMDL
MODEL       62
REMARK 921   NORMALIZED FREE ENERGY PREDICTED BY IDOCK:   -4.19 KCAL/MOL
REMARK 922        TOTAL FREE ENERGY PREDICTED BY IDOCK:   -4.75 KCAL/MOL
REMARK 923 INTER-LIGAND FREE ENERGY PREDICTED BY IDOCK:   -4.67 KCAL/MOL
REMARK 924 INTRA-LIGAND FREE ENERGY PREDICTED BY IDOCK:   -0.08 KCAL/MOL
REMARK 927      BINDING AFFINITY PREDICTED BY RF-SCORE:    0.00 PKD
ROOT
HETATM    1  N   UNL     1     -11.298  14.511  69.131  1.00  0.00    -0.262 NA 
HETATM    2  C   UNL     1     -11.298  14.348  67.670  1.00  0.00    -0.329 C  
HETATM    3  H1  UNL     1     -10.777  15.339  69.421  1.00  0.00     0.000 HD 
HETATM    4  H2  UNL     1     -10.952  13.673  69.598  1.00  0.00     0.000 HD 
ENDROOT
BRANCH   2   5
HETATM    5  C   UNL     1     -12.088  13.094  67.230  1.00  0.00    -0.274 C  
HETATM    6  H   UNL     1     -12.566  11.361  68.021  1.00  0.00     0.000 HD 
HETATM    7  O   UNL     1     -12.080  12.132  68.292  1.00  0.00    -0.407 OA 
BRANCH   5   8
HETATM    8  C   UNL     1     -11.505  12.491  65.965  1.00  0.00    -0.423 A  
HETATM    9  C   UNL     1     -10.210  11.943  65.935  1.00  0.00    -0.270 A  
HETATM   10  C   UNL     1      -9.703  11.439  64.740  1.00  0.00    -0.244 A  
HETATM   11  O   UNL     1      -8.454  10.887  64.661  1.00  0.00    -0.353 OA 
HETATM   12  C   UNL     1     -10.462  11.490  63.573  1.00  0.00    -0.428 A  
HETATM   13  H   UNL     1      -8.108  10.543  63.845  1.00  0.00     0.000 HD 
HETATM   14  C   UNL     1     -11.737  12.031  63.582  1.00  0.00    -0.587 A  
HETATM   15  O   UNL     1      -9.947  11.012  62.402  1.00  0.00    -0.564 OA 
HETATM   16  H   UNL     1     -10.464  11.046  61.607  1.00  0.00     0.000 HD 
HETATM   17  C   UNL     1     -12.259  12.528  64.778  1.00  0.00    -0.532 A  
ENDBRANCH   5   8
ENDBRANCH   2   5
TORSDOF 2
ENDMDL
MODEL       63
REMARK 921   NORMALIZED FREE ENERGY PREDICTED BY IDOCK:   -4.18 KCAL/MOL
REMARK 922        TOTAL FREE ENERGY PREDICTED BY IDOCK:   -4.75 KCAL/MOL
REMARK 923 INTER-LIGAND FREE ENERGY PREDICTED BY IDOCK:   -4.65 KCAL/MOL
REMARK 924 INTRA-LIGAND FREE ENERGY PREDICTED BY IDOCK:   -0.10 KCAL/MOL
REMARK 927      BINDING AFFINITY PREDICTED BY RF-SCORE:    0.00 PKD
ROOT
HETATM    1  N   UNL     1      -9.961  12.661  64.311  1.00  0.00    -0.593 NA 
HETATM    2  C   UNL     1     -10.825  13.841  64.464  1.00  0.00    -0.387 C  
HETATM    3  H1  UNL     1      -9.563  12.599  63.374  1.00  0.00     0.000 HD 
HETATM    4  H2  UNL     1     -10.455  11.804  64.561  1.00  0.00     0.000 HD 
ENDROOT
BRANCH   2   5
HETATM    5  C   UNL     1     -11.428  13.933  65.884  1.00  0.00    -0.325 C  
HETATM    6  H   UNL     1     -13.220  13.826  66.682  1.00  0.00     0.000 HD 
HETATM    7  O   UNL     1     -12.850  13.770  65.809  1.00  0.00    -0.482 OA 
BRANCH   5   8
HETATM    8  C   UNL     1     -11.081  15.254  66.545  1.00  0.00    -0.271 A  
HETATM    9  C   UNL     1     -10.465  16.299  65.833  1.00  0.00    -0.359 A  
HETATM   10  C   UNL     1     -10.128  17.478  66.493  1.00  0.00    -0.331 A  
HETATM   11  O   UNL     1      -9.536  18.526  65.843  1.00  0.00    -0.494 OA 
HETATM   12  C   UNL     1     -10.381  17.623  67.855  1.00  0.00    -0.371 A  
HETATM   13  H   UNL     1      -9.307  19.331  66.294  1.00  0.00     0.000 HD 
HETATM   14  C   UNL     1     -10.983  16.603  68.574  1.00  0.00    -0.339 A  
HETATM   15  O   UNL     1     -10.028  18.775  68.497  1.00  0.00    -0.365 OA 
HETATM   16  H   UNL     1     -10.201  18.874  69.425  1.00  0.00     0.000 HD 
HETATM   17  C   UNL     1     -11.335  15.421  67.919  1.00  0.00    -0.328 A  
ENDBRANCH   5   8
ENDBRANCH   2   5
TORSDOF 2
ENDMDL
MODEL       64
REMARK 921   NORMALIZED FREE ENERGY PREDICTED BY IDOCK:   -4.11 KCAL/MOL
REMARK 922        TOTAL FREE ENERGY PREDICTED BY IDOCK:   -4.67 KCAL/MOL
REMARK 923 INTER-LIGAND FREE ENERGY PREDICTED BY IDOCK:   -4.68 KCAL/MOL
REMARK 924 INTRA-LIGAND FREE ENERGY PREDICTED BY IDOCK:    0.01 KCAL/MOL
REMARK 927      BINDING AFFINITY PREDICTED BY RF-SCORE:    0.00 PKD
ROOT
HETATM    1  N   UNL     1     -10.177   5.850  72.273  1.00  0.00    -0.186 NA 
HETATM    2  C   UNL     1      -9.697   6.481  71.035  1.00  0.00    -0.175 C  
HETATM    3  H1  UNL     1      -9.407   5.551  72.871  1.00  0.00     0.000 HD 
HETATM    4  H2  UNL     1     -10.813   5.078  72.074  1.00  0.00     0.000 HD 
ENDROOT
BRANCH   2   5
HETATM    5  C   UNL     1     -10.865   6.934  70.129  1.00  0.00    -0.263 C  
HETATM    6  H   UNL     1     -11.080   7.510  68.263  1.00  0.00     0.000 HD 
HETATM    7  O   UNL     1     -10.362   7.233  68.820  1.00  0.00    -0.191 OA 
BRANCH   5   8
HETATM    8  C   UNL     1     -11.577   8.141  70.711  1.00  0.00    -0.249 A  
HETATM    9  C   UNL     1     -12.639   8.005  71.623  1.00  0.00    -0.346 A  
HETATM   10  C   UNL     1     -13.289   9.141  72.097  1.00  0.00    -0.463 A  
HETATM   11  O   UNL     1     -14.321   9.063  72.992  1.00  0.00    -1.108 OA 
HETATM   12  C   UNL     1     -12.907  10.408  71.662  1.00  0.00    -0.474 A  
HETATM   13  H   UNL     1     -14.765   9.838  73.316  1.00  0.00     0.000 HD 
HETATM   14  C   UNL     1     -11.867  10.561  70.761  1.00  0.00    -0.465 A  
HETATM   15  O   UNL     1     -13.565  11.514  72.118  1.00  0.00    -0.477 OA 
HETATM   16  H   UNL     1     -13.304  12.378  71.822  1.00  0.00     0.000 HD 
HETATM   17  C   UNL     1     -11.201   9.429  70.288  1.00  0.00    -0.286 A  
ENDBRANCH   5   8
ENDBRANCH   2   5
TORSDOF 2
ENDMDL
MODEL       65
REMARK 921   NORMALIZED FREE ENERGY PREDICTED BY IDOCK:   -4.11 KCAL/MOL
REMARK 922        TOTAL FREE ENERGY PREDICTED BY IDOCK:   -4.67 KCAL/MOL
REMARK 923 INTER-LIGAND FREE ENERGY PREDICTED BY IDOCK:   -4.53 KCAL/MOL
REMARK 924 INTRA-LIGAND FREE ENERGY PREDICTED BY IDOCK:   -0.13 KCAL/MOL
REMARK 927      BINDING AFFINITY PREDICTED BY RF-SCORE:    0.00 PKD
ROOT
HETATM    1  N   UNL     1     -11.767  11.724  66.978  1.00  0.00    -0.594 NA 
HETATM    2  C   UNL     1     -11.935  12.391  65.679  1.00  0.00    -0.386 C  
HETATM    3  H1  UNL     1     -11.463  10.756  66.873  1.00  0.00     0.000 HD 
HETATM    4  H2  UNL     1     -12.617  11.786  67.540  1.00  0.00     0.000 HD 
ENDROOT
BRANCH   2   5
HETATM    5  C   UNL     1     -12.397  13.857  65.839  1.00  0.00    -0.483 C  
HETATM    6  H   UNL     1     -13.025  15.292  64.652  1.00  0.00     0.000 HD 
HETATM    7  O   UNL     1     -12.740  14.390  64.553  1.00  0.00    -0.663 OA 
BRANCH   5   8
HETATM    8  C   UNL     1     -11.323  14.705  66.494  1.00  0.00    -0.353 A  
HETATM    9  C   UNL     1     -11.519  15.308  67.750  1.00  0.00    -0.312 A  
HETATM   10  C   UNL     1     -10.519  16.111  68.292  1.00  0.00    -0.276 A  
HETATM   11  O   UNL     1     -10.657  16.712  69.514  1.00  0.00    -0.315 OA 
HETATM   12  C   UNL     1      -9.335  16.335  67.592  1.00  0.00    -0.218 A  
HETATM   13  H   UNL     1      -9.974  17.260  69.883  1.00  0.00     0.000 HD 
HETATM   14  C   UNL     1      -9.127  15.754  66.352  1.00  0.00    -0.357 A  
HETATM   15  O   UNL     1      -8.370  17.141  68.124  1.00  0.00    -0.211 OA 
HETATM   16  H   UNL     1      -7.563  17.294  67.647  1.00  0.00     0.000 HD 
HETATM   17  C   UNL     1     -10.118  14.938  65.805  1.00  0.00    -0.367 A  
ENDBRANCH   5   8
ENDBRANCH   2   5
TORSDOF 2
ENDMDL
MODEL       66
REMARK 921   NORMALIZED FREE ENERGY PREDICTED BY IDOCK:   -4.09 KCAL/MOL
REMARK 922        TOTAL FREE ENERGY PREDICTED BY IDOCK:   -4.64 KCAL/MOL
REMARK 923 INTER-LIGAND FREE ENERGY PREDICTED BY IDOCK:   -4.53 KCAL/MOL
REMARK 924 INTRA-LIGAND FREE ENERGY PREDICTED BY IDOCK:   -0.11 KCAL/MOL
REMARK 927      BINDING AFFINITY PREDICTED BY RF-SCORE:    0.00 PKD
ROOT
HETATM    1  N   UNL     1     -10.700   8.529  72.419  1.00  0.00    -0.342 NA 
HETATM    2  C   UNL     1     -11.749   8.714  71.405  1.00  0.00    -0.297 C  
HETATM    3  H1  UNL     1      -9.925   7.966  72.068  1.00  0.00     0.000 HD 
HETATM    4  H2  UNL     1     -11.082   8.138  73.280  1.00  0.00     0.000 HD 
ENDROOT
BRANCH   2   5
HETATM    5  C   UNL     1     -12.922   9.566  71.938  1.00  0.00    -0.425 C  
HETATM    6  H   UNL     1     -14.882   9.541  71.796  1.00  0.00     0.000 HD 
HETATM    7  O   UNL     1     -14.160   9.017  71.468  1.00  0.00    -0.354 OA 
BRANCH   5   8
HETATM    8  C   UNL     1     -12.789  11.016  71.510  1.00  0.00    -0.555 A  
HETATM    9  C   UNL     1     -11.907  11.408  70.487  1.00  0.00    -0.394 A  
HETATM   10  C   UNL     1     -11.789  12.755  70.158  1.00  0.00    -0.251 A  
HETATM   11  O   UNL     1     -10.952  13.186  69.164  1.00  0.00    -0.353 OA 
HETATM   12  C   UNL     1     -12.526  13.718  70.844  1.00  0.00    -0.377 A  
HETATM   13  H   UNL     1     -10.872  14.106  68.940  1.00  0.00     0.000 HD 
HETATM   14  C   UNL     1     -13.396  13.351  71.857  1.00  0.00    -0.539 A  
HETATM   15  O   UNL     1     -12.388  15.039  70.527  1.00  0.00    -0.310 OA 
HETATM   16  H   UNL     1     -12.890  15.695  70.994  1.00  0.00     0.000 HD 
HETATM   17  C   UNL     1     -13.530  12.002  72.187  1.00  0.00    -0.338 A  
ENDBRANCH   5   8
ENDBRANCH   2   5
TORSDOF 2
ENDMDL
MODEL       67
REMARK 921   NORMALIZED FREE ENERGY PREDICTED BY IDOCK:   -4.05 KCAL/MOL
REMARK 922        TOTAL FREE ENERGY PREDICTED BY IDOCK:   -4.60 KCAL/MOL
REMARK 923 INTER-LIGAND FREE ENERGY PREDICTED BY IDOCK:   -4.64 KCAL/MOL
REMARK 924 INTRA-LIGAND FREE ENERGY PREDICTED BY IDOCK:    0.04 KCAL/MOL
REMARK 927      BINDING AFFINITY PREDICTED BY RF-SCORE:    0.00 PKD
ROOT
HETATM    1  N   UNL     1      -8.210  16.759  69.014  1.00  0.00    -0.215 NA 
HETATM    2  C   UNL     1      -7.904  15.471  68.373  1.00  0.00    -0.126 C  
HETATM    3  H1  UNL     1      -7.407  17.388  69.006  1.00  0.00     0.000 HD 
HETATM    4  H2  UNL     1      -8.567  16.626  69.961  1.00  0.00     0.000 HD 
ENDROOT
BRANCH   2   5
HETATM    5  C   UNL     1      -9.119  14.517  68.386  1.00  0.00    -0.191 C  
HETATM    6  H   UNL     1      -9.411  12.583  68.563  1.00  0.00     0.000 HD 
HETATM    7  O   UNL     1      -8.663  13.169  68.554  1.00  0.00    -0.146 OA 
BRANCH   5   8
HETATM    8  C   UNL     1      -9.935  14.646  67.112  1.00  0.00    -0.240 A  
HETATM    9  C   UNL     1     -10.062  15.872  66.435  1.00  0.00    -0.306 A  
HETATM   10  C   UNL     1     -10.855  15.949  65.294  1.00  0.00    -0.387 A  
HETATM   11  O   UNL     1     -11.004  17.116  64.594  1.00  0.00    -1.005 OA 
HETATM   12  C   UNL     1     -11.535  14.826  64.827  1.00  0.00    -0.410 A  
HETATM   13  H   UNL     1     -11.545  17.168  63.815  1.00  0.00     0.000 HD 
HETATM   14  C   UNL     1     -11.424  13.611  65.484  1.00  0.00    -0.317 A  
HETATM   15  O   UNL     1     -12.325  14.918  63.718  1.00  0.00    -1.022 OA 
HETATM   16  H   UNL     1     -12.788  14.152  63.400  1.00  0.00     0.000 HD 
HETATM   17  C   UNL     1     -10.623  13.520  66.623  1.00  0.00    -0.280 A  
ENDBRANCH   5   8
ENDBRANCH   2   5
TORSDOF 2
ENDMDL
MODEL       68
REMARK 921   NORMALIZED FREE ENERGY PREDICTED BY IDOCK:   -4.03 KCAL/MOL
REMARK 922        TOTAL FREE ENERGY PREDICTED BY IDOCK:   -4.58 KCAL/MOL
REMARK 923 INTER-LIGAND FREE ENERGY PREDICTED BY IDOCK:   -4.50 KCAL/MOL
REMARK 924 INTRA-LIGAND FREE ENERGY PREDICTED BY IDOCK:   -0.08 KCAL/MOL
REMARK 927      BINDING AFFINITY PREDICTED BY RF-SCORE:    0.00 PKD
ROOT
HETATM    1  N   UNL     1     -14.222  15.030  72.128  1.00  0.00    -0.511 NA 
HETATM    2  C   UNL     1     -13.476  13.948  71.470  1.00  0.00    -0.309 C  
HETATM    3  H1  UNL     1     -15.090  14.694  72.547  1.00  0.00     0.000 HD 
HETATM    4  H2  UNL     1     -14.396  15.804  71.486  1.00  0.00     0.000 HD 
ENDROOT
BRANCH   2   5
HETATM    5  C   UNL     1     -12.162  14.457  70.836  1.00  0.00    -0.342 C  
HETATM    6  H   UNL     1     -11.410  16.196  70.317  1.00  0.00     0.000 HD 
HETATM    7  O   UNL     1     -12.218  15.883  70.706  1.00  0.00    -0.402 OA 
BRANCH   5   8
HETATM    8  C   UNL     1     -11.916  13.811  69.484  1.00  0.00    -0.399 A  
HETATM    9  C   UNL     1     -12.029  14.539  68.285  1.00  0.00    -0.303 A  
HETATM   10  C   UNL     1     -11.835  13.893  67.068  1.00  0.00    -0.415 A  
HETATM   11  O   UNL     1     -11.924  14.558  65.875  1.00  0.00    -0.366 OA 
HETATM   12  C   UNL     1     -11.548  12.531  67.027  1.00  0.00    -0.368 A  
HETATM   13  H   UNL     1     -11.792  14.117  65.043  1.00  0.00     0.000 HD 
HETATM   14  C   UNL     1     -11.437  11.797  68.197  1.00  0.00    -0.382 A  
HETATM   15  O   UNL     1     -11.379  11.903  65.827  1.00  0.00    -0.332 OA 
HETATM   16  H   UNL     1     -11.183  10.974  65.799  1.00  0.00     0.000 HD 
HETATM   17  C   UNL     1     -11.618  12.438  69.424  1.00  0.00    -0.371 A  
ENDBRANCH   5   8
ENDBRANCH   2   5
TORSDOF 2
ENDMDL
MODEL       69
REMARK 921   NORMALIZED FREE ENERGY PREDICTED BY IDOCK:   -4.01 KCAL/MOL
REMARK 922        TOTAL FREE ENERGY PREDICTED BY IDOCK:   -4.56 KCAL/MOL
REMARK 923 INTER-LIGAND FREE ENERGY PREDICTED BY IDOCK:   -4.43 KCAL/MOL
REMARK 924 INTRA-LIGAND FREE ENERGY PREDICTED BY IDOCK:   -0.12 KCAL/MOL
REMARK 927      BINDING AFFINITY PREDICTED BY RF-SCORE:    0.00 PKD
ROOT
HETATM    1  N   UNL     1      -9.263   6.476  72.330  1.00  0.00    -0.139 NA 
HETATM    2  C   UNL     1      -9.662   6.643  70.924  1.00  0.00    -0.179 C  
HETATM    3  H1  UNL     1      -8.249   6.473  72.440  1.00  0.00     0.000 HD 
HETATM    4  H2  UNL     1      -9.682   5.640  72.738  1.00  0.00     0.000 HD 
ENDROOT
BRANCH   2   5
HETATM    5  C   UNL     1     -11.198   6.646  70.758  1.00  0.00    -0.315 C  
HETATM    6  H   UNL     1     -12.477   6.252  69.319  1.00  0.00     0.000 HD 
HETATM    7  O   UNL     1     -11.532   6.250  69.421  1.00  0.00    -0.427 OA 
BRANCH   5   8
HETATM    8  C   UNL     1     -11.783   8.012  71.067  1.00  0.00    -0.295 A  
HETATM    9  C   UNL     1     -11.235   9.191  70.531  1.00  0.00    -0.309 A  
HETATM   10  C   UNL     1     -11.781  10.424  70.877  1.00  0.00    -0.360 A  
HETATM   11  O   UNL     1     -11.290  11.598  70.375  1.00  0.00    -0.479 OA 
HETATM   12  C   UNL     1     -12.853  10.499  71.762  1.00  0.00    -0.454 A  
HETATM   13  H   UNL     1     -11.662  12.440  70.611  1.00  0.00     0.000 HD 
HETATM   14  C   UNL     1     -13.404   9.349  72.304  1.00  0.00    -0.539 A  
HETATM   15  O   UNL     1     -13.368  11.714  72.111  1.00  0.00    -0.576 OA 
HETATM   16  H   UNL     1     -14.100  11.765  72.714  1.00  0.00     0.000 HD 
HETATM   17  C   UNL     1     -12.871   8.107  71.954  1.00  0.00    -0.360 A  
ENDBRANCH   5   8
ENDBRANCH   2   5
TORSDOF 2
ENDMDL
MODEL       70
REMARK 921   NORMALIZED FREE ENERGY PREDICTED BY IDOCK:   -3.99 KCAL/MOL
REMARK 922        TOTAL FREE ENERGY PREDICTED BY IDOCK:   -4.54 KCAL/MOL
REMARK 923 INTER-LIGAND FREE ENERGY PREDICTED BY IDOCK:   -4.47 KCAL/MOL
REMARK 924 INTRA-LIGAND FREE ENERGY PREDICTED BY IDOCK:   -0.07 KCAL/MOL
REMARK 927      BINDING AFFINITY PREDICTED BY RF-SCORE:    0.00 PKD
ROOT
HETATM    1  N   UNL     1     -10.675  19.475  66.551  1.00  0.00    -0.450 NA 
HETATM    2  C   UNL     1      -9.725  18.364  66.708  1.00  0.00    -0.326 C  
HETATM    3  H1  UNL     1     -10.370  20.311  67.051  1.00  0.00     0.000 HD 
HETATM    4  H2  UNL     1     -11.617  19.201  66.830  1.00  0.00     0.000 HD 
ENDROOT
BRANCH   2   5
HETATM    5  C   UNL     1     -10.189  17.099  65.951  1.00  0.00    -0.276 C  
HETATM    6  H   UNL     1     -11.429  16.690  64.483  1.00  0.00     0.000 HD 
HETATM    7  O   UNL     1     -11.144  17.468  64.949  1.00  0.00    -0.860 OA 
BRANCH   5   8
HETATM    8  C   UNL     1     -10.785  16.076  66.901  1.00  0.00    -0.262 A  
HETATM    9  C   UNL     1     -11.229  16.431  68.188  1.00  0.00    -0.273 A  
HETATM   10  C   UNL     1     -11.731  15.450  69.038  1.00  0.00    -0.361 A  
HETATM   11  O   UNL     1     -12.184  15.745  70.295  1.00  0.00    -0.386 OA 
HETATM   12  C   UNL     1     -11.780  14.119  68.630  1.00  0.00    -0.350 A  
HETATM   13  H   UNL     1     -12.527  15.076  70.875  1.00  0.00     0.000 HD 
HETATM   14  C   UNL     1     -11.343  13.750  67.369  1.00  0.00    -0.348 A  
HETATM   15  O   UNL     1     -12.256  13.161  69.480  1.00  0.00    -0.258 OA 
HETATM   16  H   UNL     1     -12.290  12.254  69.202  1.00  0.00     0.000 HD 
HETATM   17  C   UNL     1     -10.849  14.728  66.504  1.00  0.00    -0.319 A  
ENDBRANCH   5   8
ENDBRANCH   2   5
TORSDOF 2
ENDMDL
MODEL       71
REMARK 921   NORMALIZED FREE ENERGY PREDICTED BY IDOCK:   -3.99 KCAL/MOL
REMARK 922        TOTAL FREE ENERGY PREDICTED BY IDOCK:   -4.53 KCAL/MOL
REMARK 923 INTER-LIGAND FREE ENERGY PREDICTED BY IDOCK:   -4.40 KCAL/MOL
REMARK 924 INTRA-LIGAND FREE ENERGY PREDICTED BY IDOCK:   -0.13 KCAL/MOL
REMARK 927      BINDING AFFINITY PREDICTED BY RF-SCORE:    0.00 PKD
ROOT
HETATM    1  N   UNL     1      -8.020  10.513  64.805  1.00  0.00    -0.309 NA 
HETATM    2  C   UNL     1      -9.423  10.091  64.923  1.00  0.00    -0.293 C  
HETATM    3  H1  UNL     1      -7.385   9.856  65.258  1.00  0.00     0.000 HD 
HETATM    4  H2  UNL     1      -7.887  11.460  65.159  1.00  0.00     0.000 HD 
ENDROOT
BRANCH   2   5
HETATM    5  C   UNL     1     -10.385  11.088  64.238  1.00  0.00    -0.364 C  
HETATM    6  H   UNL     1     -10.349  12.238  62.646  1.00  0.00     0.000 HD 
HETATM    7  O   UNL     1      -9.757  11.625  63.067  1.00  0.00    -0.396 OA 
BRANCH   5   8
HETATM    8  C   UNL     1     -10.787  12.205  65.184  1.00  0.00    -0.343 A  
HETATM    9  C   UNL     1     -10.520  13.554  64.891  1.00  0.00    -0.417 A  
HETATM   10  C   UNL     1     -10.871  14.540  65.809  1.00  0.00    -0.315 A  
HETATM   11  O   UNL     1     -10.641  15.867  65.568  1.00  0.00    -0.363 OA 
HETATM   12  C   UNL     1     -11.467  14.198  67.021  1.00  0.00    -0.352 A  
HETATM   13  H   UNL     1     -10.881  16.540  66.194  1.00  0.00     0.000 HD 
HETATM   14  C   UNL     1     -11.733  12.874  67.328  1.00  0.00    -0.431 A  
HETATM   15  O   UNL     1     -11.789  15.172  67.923  1.00  0.00    -0.421 OA 
HETATM   16  H   UNL     1     -12.196  14.939  68.748  1.00  0.00     0.000 HD 
HETATM   17  C   UNL     1     -11.397  11.879  66.409  1.00  0.00    -0.400 A  
ENDBRANCH   5   8
ENDBRANCH   2   5
TORSDOF 2
ENDMDL
MODEL       72
REMARK 921   NORMALIZED FREE ENERGY PREDICTED BY IDOCK:   -3.99 KCAL/MOL
REMARK 922        TOTAL FREE ENERGY PREDICTED BY IDOCK:   -4.53 KCAL/MOL
REMARK 923 INTER-LIGAND FREE ENERGY PREDICTED BY IDOCK:   -4.44 KCAL/MOL
REMARK 924 INTRA-LIGAND FREE ENERGY PREDICTED BY IDOCK:   -0.10 KCAL/MOL
REMARK 927      BINDING AFFINITY PREDICTED BY RF-SCORE:    0.00 PKD
ROOT
HETATM    1  N   UNL     1     -11.012   8.461  71.763  1.00  0.00    -0.269 NA 
HETATM    2  C   UNL     1     -11.908   9.252  70.908  1.00  0.00    -0.282 C  
HETATM    3  H1  UNL     1     -10.884   7.513  71.409  1.00  0.00     0.000 HD 
HETATM    4  H2  UNL     1     -11.334   8.454  72.731  1.00  0.00     0.000 HD 
ENDROOT
BRANCH   2   5
HETATM    5  C   UNL     1     -12.102  10.688  71.446  1.00  0.00    -0.242 C  
HETATM    6  H   UNL     1     -13.449  11.641  72.511  1.00  0.00     0.000 HD 
HETATM    7  O   UNL     1     -13.331  10.758  72.180  1.00  0.00    -0.442 OA 
BRANCH   5   8
HETATM    8  C   UNL     1     -12.098  11.704  70.319  1.00  0.00    -0.443 A  
HETATM    9  C   UNL     1     -11.970  11.316  68.973  1.00  0.00    -0.393 A  
HETATM   10  C   UNL     1     -11.930  12.289  67.978  1.00  0.00    -0.187 A  
HETATM   11  O   UNL     1     -11.815  11.963  66.653  1.00  0.00    -0.591 OA 
HETATM   12  C   UNL     1     -11.999  13.641  68.306  1.00  0.00    -0.350 A  
HETATM   13  H   UNL     1     -11.788  12.627  65.974  1.00  0.00     0.000 HD 
HETATM   14  C   UNL     1     -12.122  14.041  69.626  1.00  0.00    -0.408 A  
HETATM   15  O   UNL     1     -11.939  14.586  67.323  1.00  0.00    -0.438 OA 
HETATM   16  H   UNL     1     -11.987  15.508  67.547  1.00  0.00     0.000 HD 
HETATM   17  C   UNL     1     -12.174  13.074  70.631  1.00  0.00    -0.390 A  
ENDBRANCH   5   8
ENDBRANCH   2   5
TORSDOF 2
ENDMDL
MODEL       73
REMARK 921   NORMALIZED FREE ENERGY PREDICTED BY IDOCK:   -3.98 KCAL/MOL
REMARK 922        TOTAL FREE ENERGY PREDICTED BY IDOCK:   -4.52 KCAL/MOL
REMARK 923 INTER-LIGAND FREE ENERGY PREDICTED BY IDOCK:   -4.41 KCAL/MOL
REMARK 924 INTRA-LIGAND FREE ENERGY PREDICTED BY IDOCK:   -0.11 KCAL/MOL
REMARK 927      BINDING AFFINITY PREDICTED BY RF-SCORE:    0.00 PKD
ROOT
HETATM    1  N   UNL     1     -10.477  15.053  70.669  1.00  0.00    -0.507 NA 
HETATM    2  C   UNL     1     -11.519  15.469  69.718  1.00  0.00    -0.331 C  
HETATM    3  H1  UNL     1     -10.000  15.852  71.085  1.00  0.00     0.000 HD 
HETATM    4  H2  UNL     1      -9.814  14.411  70.234  1.00  0.00     0.000 HD 
ENDROOT
BRANCH   2   5
HETATM    5  C   UNL     1     -12.241  14.257  69.087  1.00  0.00    -0.237 C  
HETATM    6  H   UNL     1     -12.666  12.415  69.620  1.00  0.00     0.000 HD 
HETATM    7  O   UNL     1     -12.221  13.160  70.008  1.00  0.00    -0.306 OA 
BRANCH   5   8
HETATM    8  C   UNL     1     -11.599  13.857  67.771  1.00  0.00    -0.381 A  
HETATM    9  C   UNL     1     -11.900  14.521  66.568  1.00  0.00    -0.367 A  
HETATM   10  C   UNL     1     -11.316  14.090  65.380  1.00  0.00    -0.315 A  
HETATM   11  O   UNL     1     -11.569  14.708  64.185  1.00  0.00    -0.628 OA 
HETATM   12  C   UNL     1     -10.451  12.998  65.372  1.00  0.00    -0.296 A  
HETATM   13  H   UNL     1     -11.171  14.414  63.374  1.00  0.00     0.000 HD 
HETATM   14  C   UNL     1     -10.147  12.330  66.546  1.00  0.00    -0.232 A  
HETATM   15  O   UNL     1      -9.901  12.572  64.197  1.00  0.00    -0.570 OA 
HETATM   16  H   UNL     1      -9.311  11.828  64.192  1.00  0.00     0.000 HD 
HETATM   17  C   UNL     1     -10.717  12.760  67.745  1.00  0.00    -0.237 A  
ENDBRANCH   5   8
ENDBRANCH   2   5
TORSDOF 2
ENDMDL
MODEL       74
REMARK 921   NORMALIZED FREE ENERGY PREDICTED BY IDOCK:   -3.97 KCAL/MOL
REMARK 922        TOTAL FREE ENERGY PREDICTED BY IDOCK:   -4.51 KCAL/MOL
REMARK 923 INTER-LIGAND FREE ENERGY PREDICTED BY IDOCK:   -4.42 KCAL/MOL
REMARK 924 INTRA-LIGAND FREE ENERGY PREDICTED BY IDOCK:   -0.10 KCAL/MOL
REMARK 927      BINDING AFFINITY PREDICTED BY RF-SCORE:    0.00 PKD
ROOT
HETATM    1  N   UNL     1      -8.304  16.862  67.807  1.00  0.00    -0.192 NA 
HETATM    2  C   UNL     1      -9.064  16.094  66.809  1.00  0.00    -0.230 C  
HETATM    3  H1  UNL     1      -7.305  16.870  67.601  1.00  0.00     0.000 HD 
HETATM    4  H2  UNL     1      -8.484  16.522  68.752  1.00  0.00     0.000 HD 
ENDROOT
BRANCH   2   5
HETATM    5  C   UNL     1     -10.577  16.081  67.123  1.00  0.00    -0.305 C  
HETATM    6  H   UNL     1     -11.781  16.996  68.376  1.00  0.00     0.000 HD 
HETATM    7  O   UNL     1     -10.850  17.004  68.184  1.00  0.00    -0.370 OA 
BRANCH   5   8
HETATM    8  C   UNL     1     -11.050  14.688  67.497  1.00  0.00    -0.319 A  
HETATM    9  C   UNL     1     -11.233  14.304  68.838  1.00  0.00    -0.289 A  
HETATM   10  C   UNL     1     -11.628  13.003  69.134  1.00  0.00    -0.316 A  
HETATM   11  O   UNL     1     -11.829  12.583  70.421  1.00  0.00    -0.516 OA 
HETATM   12  C   UNL     1     -11.826  12.075  68.114  1.00  0.00    -0.286 A  
HETATM   13  H   UNL     1     -12.099  11.694  70.622  1.00  0.00     0.000 HD 
HETATM   14  C   UNL     1     -11.646  12.434  66.788  1.00  0.00    -0.444 A  
HETATM   15  O   UNL     1     -12.194  10.795  68.416  1.00  0.00    -0.832 OA 
HETATM   16  H   UNL     1     -12.330  10.163  67.721  1.00  0.00     0.000 HD 
HETATM   17  C   UNL     1     -11.261  13.740  66.480  1.00  0.00    -0.319 A  
ENDBRANCH   5   8
ENDBRANCH   2   5
TORSDOF 2
ENDMDL
MODEL       75
REMARK 921   NORMALIZED FREE ENERGY PREDICTED BY IDOCK:   -3.96 KCAL/MOL
REMARK 922        TOTAL FREE ENERGY PREDICTED BY IDOCK:   -4.51 KCAL/MOL
REMARK 923 INTER-LIGAND FREE ENERGY PREDICTED BY IDOCK:   -4.39 KCAL/MOL
REMARK 924 INTRA-LIGAND FREE ENERGY PREDICTED BY IDOCK:   -0.11 KCAL/MOL
REMARK 927      BINDING AFFINITY PREDICTED BY RF-SCORE:    0.00 PKD
ROOT
HETATM    1  N   UNL     1     -13.425  15.539  70.742  1.00  0.00    -0.809 NA 
HETATM    2  C   UNL     1     -12.067  15.208  70.286  1.00  0.00    -0.341 C  
HETATM    3  H1  UNL     1     -13.448  15.764  71.737  1.00  0.00     0.000 HD 
HETATM    4  H2  UNL     1     -14.084  14.795  70.515  1.00  0.00     0.000 HD 
ENDROOT
BRANCH   2   5
HETATM    5  C   UNL     1     -12.032  14.867  68.779  1.00  0.00    -0.249 C  
HETATM    6  H   UNL     1     -11.609  13.291  67.684  1.00  0.00     0.000 HD 
HETATM    7  O   UNL     1     -11.630  13.501  68.611  1.00  0.00    -0.283 OA 
BRANCH   5   8
HETATM    8  C   UNL     1     -11.094  15.792  68.026  1.00  0.00    -0.337 A  
HETATM    9  C   UNL     1     -10.791  17.083  68.497  1.00  0.00    -0.310 A  
HETATM   10  C   UNL     1      -9.958  17.910  67.750  1.00  0.00    -0.331 A  
HETATM   11  O   UNL     1      -9.626  19.170  68.168  1.00  0.00    -0.314 OA 
HETATM   12  C   UNL     1      -9.437  17.476  66.533  1.00  0.00    -0.272 A  
HETATM   13  H   UNL     1      -9.057  19.735  67.658  1.00  0.00     0.000 HD 
HETATM   14  C   UNL     1      -9.728  16.210  66.051  1.00  0.00    -0.376 A  
HETATM   15  O   UNL     1      -8.637  18.303  65.798  1.00  0.00    -0.462 OA 
HETATM   16  H   UNL     1      -8.281  18.007  64.969  1.00  0.00     0.000 HD 
HETATM   17  C   UNL     1     -10.553  15.368  66.799  1.00  0.00    -0.309 A  
ENDBRANCH   5   8
ENDBRANCH   2   5
TORSDOF 2
ENDMDL
MODEL       76
REMARK 921   NORMALIZED FREE ENERGY PREDICTED BY IDOCK:   -3.94 KCAL/MOL
REMARK 922        TOTAL FREE ENERGY PREDICTED BY IDOCK:   -4.48 KCAL/MOL
REMARK 923 INTER-LIGAND FREE ENERGY PREDICTED BY IDOCK:   -4.40 KCAL/MOL
REMARK 924 INTRA-LIGAND FREE ENERGY PREDICTED BY IDOCK:   -0.08 KCAL/MOL
REMARK 927      BINDING AFFINITY PREDICTED BY RF-SCORE:    0.00 PKD
ROOT
HETATM    1  N   UNL     1     -12.034  11.473  67.778  1.00  0.00    -0.637 NA 
HETATM    2  C   UNL     1     -11.358  11.328  69.075  1.00  0.00    -0.278 C  
HETATM    3  H1  UNL     1     -11.370  11.599  67.014  1.00  0.00     0.000 HD 
HETATM    4  H2  UNL     1     -12.721  12.227  67.800  1.00  0.00     0.000 HD 
ENDROOT
BRANCH   2   5
HETATM    5  C   UNL     1     -12.364  11.137  70.232  1.00  0.00    -0.315 C  
HETATM    6  H   UNL     1     -13.085  12.238  71.690  1.00  0.00     0.000 HD 
HETATM    7  O   UNL     1     -12.466  12.356  70.979  1.00  0.00    -0.368 OA 
BRANCH   5   8
HETATM    8  C   UNL     1     -11.951   9.992  71.139  1.00  0.00    -0.484 A  
HETATM    9  C   UNL     1     -10.601   9.644  71.322  1.00  0.00    -0.269 A  
HETATM   10  C   UNL     1     -10.274   8.559  72.132  1.00  0.00    -0.333 A  
HETATM   11  O   UNL     1      -8.976   8.185  72.350  1.00  0.00    -0.159 OA 
HETATM   12  C   UNL     1     -11.273   7.808  72.746  1.00  0.00    -0.398 A  
HETATM   13  H   UNL     1      -8.753   7.445  72.902  1.00  0.00     0.000 HD 
HETATM   14  C   UNL     1     -12.609   8.134  72.573  1.00  0.00    -0.200 A  
HETATM   15  O   UNL     1     -10.942   6.735  73.522  1.00  0.00    -0.487 OA 
HETATM   16  H   UNL     1     -11.624   6.223  73.941  1.00  0.00     0.000 HD 
HETATM   17  C   UNL     1     -12.947   9.227  71.773  1.00  0.00    -0.471 A  
ENDBRANCH   5   8
ENDBRANCH   2   5
TORSDOF 2
ENDMDL
MODEL       77
REMARK 921   NORMALIZED FREE ENERGY PREDICTED BY IDOCK:   -3.88 KCAL/MOL
REMARK 922        TOTAL FREE ENERGY PREDICTED BY IDOCK:   -4.42 KCAL/MOL
REMARK 923 INTER-LIGAND FREE ENERGY PREDICTED BY IDOCK:   -4.30 KCAL/MOL
REMARK 924 INTRA-LIGAND FREE ENERGY PREDICTED BY IDOCK:   -0.12 KCAL/MOL
REMARK 927      BINDING AFFINITY PREDICTED BY RF-SCORE:    0.00 PKD
ROOT
HETATM    1  N   UNL     1      -9.416  19.460  69.090  1.00  0.00    -0.332 NA 
HETATM    2  C   UNL     1      -8.725  18.765  67.993  1.00  0.00    -0.297 C  
HETATM    3  H1  UNL     1      -8.902  19.389  69.969  1.00  0.00     0.000 HD 
HETATM    4  H2  UNL     1     -10.375  19.128  69.194  1.00  0.00     0.000 HD 
ENDROOT
BRANCH   2   5
HETATM    5  C   UNL     1      -9.504  18.871  66.663  1.00  0.00    -0.334 C  
HETATM    6  H   UNL     1     -11.100  19.817  66.017  1.00  0.00     0.000 HD 
HETATM    7  O   UNL     1     -10.622  19.752  66.836  1.00  0.00    -0.458 OA 
BRANCH   5   8
HETATM    8  C   UNL     1      -9.972  17.508  66.188  1.00  0.00    -0.280 A  
HETATM    9  C   UNL     1     -10.836  17.364  65.087  1.00  0.00     0.136 A  
HETATM   10  C   UNL     1     -11.271  16.096  64.714  1.00  0.00    -0.304 A  
HETATM   11  O   UNL     1     -12.104  15.902  63.646  1.00  0.00    -1.223 OA 
HETATM   12  C   UNL     1     -10.871  14.971  65.433  1.00  0.00    -0.364 A  
HETATM   13  H   UNL     1     -12.401  15.036  63.391  1.00  0.00     0.000 HD 
HETATM   14  C   UNL     1     -10.024  15.094  66.522  1.00  0.00    -0.279 A  
HETATM   15  O   UNL     1     -11.320  13.734  65.071  1.00  0.00    -0.310 OA 
HETATM   16  H   UNL     1     -11.047  12.967  65.560  1.00  0.00     0.000 HD 
HETATM   17  C   UNL     1      -9.573  16.361  66.897  1.00  0.00    -0.255 A  
ENDBRANCH   5   8
ENDBRANCH   2   5
TORSDOF 2
ENDMDL
MODEL       78
REMARK 921   NORMALIZED FREE ENERGY PREDICTED BY IDOCK:   -3.88 KCAL/MOL
REMARK 922        TOTAL FREE ENERGY PREDICTED BY IDOCK:   -4.41 KCAL/MOL
REMARK 923 INTER-LIGAND FREE ENERGY PREDICTED BY IDOCK:   -4.31 KCAL/MOL
REMARK 924 INTRA-LIGAND FREE ENERGY PREDICTED BY IDOCK:   -0.10 KCAL/MOL
REMARK 927      BINDING AFFINITY PREDICTED BY RF-SCORE:    0.00 PKD
ROOT
HETATM    1  N   UNL     1     -11.735   7.667  73.293  1.00  0.00    -0.601 NA 
HETATM    2  C   UNL     1     -10.799   7.649  72.159  1.00  0.00    -0.247 C  
HETATM    3  H1  UNL     1     -11.486   8.377  73.981  1.00  0.00     0.000 HD 
HETATM    4  H2  UNL     1     -11.813   6.745  73.724  1.00  0.00     0.000 HD 
ENDROOT
BRANCH   2   5
HETATM    5  C   UNL     1     -11.177   6.571  71.117  1.00  0.00    -0.302 C  
HETATM    6  H   UNL     1     -10.638   4.725  70.717  1.00  0.00     0.000 HD 
HETATM    7  O   UNL     1     -10.405   5.387  71.357  1.00  0.00    -0.213 OA 
BRANCH   5   8
HETATM    8  C   UNL     1     -10.953   7.071  69.702  1.00  0.00    -0.268 A  
HETATM    9  C   UNL     1     -11.115   6.230  68.586  1.00  0.00    -0.409 A  
HETATM   10  C   UNL     1     -10.858   6.723  67.310  1.00  0.00    -0.373 A  
HETATM   11  O   UNL     1     -11.009   5.949  66.191  1.00  0.00    -0.647 OA 
HETATM   12  C   UNL     1     -10.426   8.036  67.132  1.00  0.00    -0.338 A  
HETATM   13  H   UNL     1     -10.833   6.286  65.320  1.00  0.00     0.000 HD 
HETATM   14  C   UNL     1     -10.257   8.877  68.220  1.00  0.00    -0.239 A  
HETATM   15  O   UNL     1     -10.158   8.503  65.878  1.00  0.00    -0.445 OA 
HETATM   16  H   UNL     1      -9.864   9.398  65.756  1.00  0.00     0.000 HD 
HETATM   17  C   UNL     1     -10.523   8.396  69.503  1.00  0.00    -0.225 A  
ENDBRANCH   5   8
ENDBRANCH   2   5
TORSDOF 2
ENDMDL
MODEL       79
REMARK 921   NORMALIZED FREE ENERGY PREDICTED BY IDOCK:   -3.88 KCAL/MOL
REMARK 922        TOTAL FREE ENERGY PREDICTED BY IDOCK:   -4.41 KCAL/MOL
REMARK 923 INTER-LIGAND FREE ENERGY PREDICTED BY IDOCK:   -4.67 KCAL/MOL
REMARK 924 INTRA-LIGAND FREE ENERGY PREDICTED BY IDOCK:    0.26 KCAL/MOL
REMARK 927      BINDING AFFINITY PREDICTED BY RF-SCORE:    0.00 PKD
ROOT
HETATM    1  N   UNL     1      -8.290  14.220  69.182  1.00  0.00    -0.354 NA 
HETATM    2  C   UNL     1      -8.511  15.402  68.335  1.00  0.00    -0.160 C  
HETATM    3  H1  UNL     1      -8.339  14.448  70.175  1.00  0.00     0.000 HD 
HETATM    4  H2  UNL     1      -7.410  13.758  68.951  1.00  0.00     0.000 HD 
ENDROOT
BRANCH   2   5
HETATM    5  C   UNL     1      -8.436  15.057  66.831  1.00  0.00    -0.236 C  
HETATM    6  H   UNL     1      -8.146  16.040  65.155  1.00  0.00     0.000 HD 
HETATM    7  O   UNL     1      -8.193  16.253  66.080  1.00  0.00    -0.315 OA 
BRANCH   5   8
HETATM    8  C   UNL     1      -9.709  14.382  66.356  1.00  0.00    -0.320 A  
HETATM    9  C   UNL     1     -10.264  13.284  67.037  1.00  0.00    -0.244 A  
HETATM   10  C   UNL     1     -11.411  12.673  66.539  1.00  0.00    -0.353 A  
HETATM   11  O   UNL     1     -11.995  11.607  67.170  1.00  0.00    -0.614 OA 
HETATM   12  C   UNL     1     -12.003  13.130  65.364  1.00  0.00    -0.406 A  
HETATM   13  H   UNL     1     -12.778  11.190  66.829  1.00  0.00     0.000 HD 
HETATM   14  C   UNL     1     -11.468  14.208  64.677  1.00  0.00    -0.392 A  
HETATM   15  O   UNL     1     -13.116  12.511  64.873  1.00  0.00    -0.833 OA 
HETATM   16  H   UNL     1     -13.520  12.823  64.072  1.00  0.00     0.000 HD 
HETATM   17  C   UNL     1     -10.325  14.835  65.174  1.00  0.00    -0.439 A  
ENDBRANCH   5   8
ENDBRANCH   2   5
TORSDOF 2
ENDMDL
MODEL       80
REMARK 921   NORMALIZED FREE ENERGY PREDICTED BY IDOCK:   -3.87 KCAL/MOL
REMARK 922        TOTAL FREE ENERGY PREDICTED BY IDOCK:   -4.40 KCAL/MOL
REMARK 923 INTER-LIGAND FREE ENERGY PREDICTED BY IDOCK:   -4.31 KCAL/MOL
REMARK 924 INTRA-LIGAND FREE ENERGY PREDICTED BY IDOCK:   -0.08 KCAL/MOL
REMARK 927      BINDING AFFINITY PREDICTED BY RF-SCORE:    0.00 PKD
ROOT
HETATM    1  N   UNL     1     -11.948  15.310  68.497  1.00  0.00    -0.556 NA 
HETATM    2  C   UNL     1     -11.412  13.979  68.177  1.00  0.00    -0.309 C  
HETATM    3  H1  UNL     1     -12.092  15.432  69.499  1.00  0.00     0.000 HD 
HETATM    4  H2  UNL     1     -12.803  15.502  67.974  1.00  0.00     0.000 HD 
ENDROOT
BRANCH   2   5
HETATM    5  C   UNL     1     -11.196  13.795  66.658  1.00  0.00    -0.318 C  
HETATM    6  H   UNL     1     -12.251  14.070  65.024  1.00  0.00     0.000 HD 
HETATM    7  O   UNL     1     -12.385  14.183  65.958  1.00  0.00    -0.444 OA 
BRANCH   5   8
HETATM    8  C   UNL     1     -10.828  12.361  66.323  1.00  0.00    -0.299 A  
HETATM    9  C   UNL     1     -11.043  11.310  67.234  1.00  0.00    -0.367 A  
HETATM   10  C   UNL     1     -10.652  10.017  66.898  1.00  0.00    -0.192 A  
HETATM   11  O   UNL     1     -10.847   8.960  67.744  1.00  0.00    -0.461 OA 
HETATM   12  C   UNL     1     -10.034   9.760  65.676  1.00  0.00    -0.282 A  
HETATM   13  H   UNL     1     -10.580   8.077  67.515  1.00  0.00     0.000 HD 
HETATM   14  C   UNL     1      -9.810  10.783  64.769  1.00  0.00    -0.358 A  
HETATM   15  O   UNL     1      -9.636   8.492  65.365  1.00  0.00    -0.420 OA 
HETATM   16  H   UNL     1      -9.215   8.317  64.532  1.00  0.00     0.000 HD 
HETATM   17  C   UNL     1     -10.210  12.081  65.091  1.00  0.00    -0.308 A  
ENDBRANCH   5   8
ENDBRANCH   2   5
TORSDOF 2
ENDMDL
MODEL       81
REMARK 921   NORMALIZED FREE ENERGY PREDICTED BY IDOCK:   -3.85 KCAL/MOL
REMARK 922        TOTAL FREE ENERGY PREDICTED BY IDOCK:   -4.38 KCAL/MOL
REMARK 923 INTER-LIGAND FREE ENERGY PREDICTED BY IDOCK:   -4.30 KCAL/MOL
REMARK 924 INTRA-LIGAND FREE ENERGY PREDICTED BY IDOCK:   -0.08 KCAL/MOL
REMARK 927      BINDING AFFINITY PREDICTED BY RF-SCORE:    0.00 PKD
ROOT
HETATM    1  N   UNL     1      -7.498   7.188  69.324  1.00  0.00    -0.091 NA 
HETATM    2  C   UNL     1      -8.696   7.279  70.172  1.00  0.00    -0.140 C  
HETATM    3  H1  UNL     1      -7.267   6.221  69.094  1.00  0.00     0.000 HD 
HETATM    4  H2  UNL     1      -6.705   7.667  69.751  1.00  0.00     0.000 HD 
ENDROOT
BRANCH   2   5
HETATM    5  C   UNL     1      -9.045   8.743  70.521  1.00  0.00    -0.177 C  
HETATM    6  H   UNL     1      -8.278  10.163  71.640  1.00  0.00     0.000 HD 
HETATM    7  O   UNL     1      -8.063   9.263  71.426  1.00  0.00    -0.330 OA 
BRANCH   5   8
HETATM    8  C   UNL     1     -10.433   8.850  71.126  1.00  0.00    -0.336 A  
HETATM    9  C   UNL     1     -11.209  10.016  70.997  1.00  0.00    -0.387 A  
HETATM   10  C   UNL     1     -12.459  10.081  71.605  1.00  0.00    -0.418 A  
HETATM   11  O   UNL     1     -13.256  11.189  71.502  1.00  0.00    -0.388 OA 
HETATM   12  C   UNL     1     -12.939   9.008  72.353  1.00  0.00    -0.405 A  
HETATM   13  H   UNL     1     -14.110  11.234  71.918  1.00  0.00     0.000 HD 
HETATM   14  C   UNL     1     -12.187   7.854  72.494  1.00  0.00    -0.245 A  
HETATM   15  O   UNL     1     -14.158   9.091  72.962  1.00  0.00    -1.086 OA 
HETATM   16  H   UNL     1     -14.486   8.359  73.471  1.00  0.00     0.000 HD 
HETATM   17  C   UNL     1     -10.937   7.773  71.879  1.00  0.00    -0.294 A  
ENDBRANCH   5   8
ENDBRANCH   2   5
TORSDOF 2
ENDMDL
MODEL       82
REMARK 921   NORMALIZED FREE ENERGY PREDICTED BY IDOCK:   -3.84 KCAL/MOL
REMARK 922        TOTAL FREE ENERGY PREDICTED BY IDOCK:   -4.36 KCAL/MOL
REMARK 923 INTER-LIGAND FREE ENERGY PREDICTED BY IDOCK:   -4.29 KCAL/MOL
REMARK 924 INTRA-LIGAND FREE ENERGY PREDICTED BY IDOCK:   -0.07 KCAL/MOL
REMARK 927      BINDING AFFINITY PREDICTED BY RF-SCORE:    0.00 PKD
ROOT
HETATM    1  N   UNL     1      -8.738   9.592  68.099  1.00  0.00    -0.120 NA 
HETATM    2  C   UNL     1      -9.549  10.168  69.181  1.00  0.00    -0.212 C  
HETATM    3  H1  UNL     1      -7.760   9.490  68.368  1.00  0.00     0.000 HD 
HETATM    4  H2  UNL     1      -8.832  10.131  67.238  1.00  0.00     0.000 HD 
ENDROOT
BRANCH   2   5
HETATM    5  C   UNL     1     -11.032  10.322  68.772  1.00  0.00    -0.243 C  
HETATM    6  H   UNL     1     -12.019  11.072  67.248  1.00  0.00     0.000 HD 
HETATM    7  O   UNL     1     -11.108  10.978  67.500  1.00  0.00    -0.266 OA 
BRANCH   5   8
HETATM    8  C   UNL     1     -11.814  11.097  69.816  1.00  0.00    -0.422 A  
HETATM    9  C   UNL     1     -11.890  12.502  69.792  1.00  0.00    -0.380 A  
HETATM   10  C   UNL     1     -12.585  13.171  70.795  1.00  0.00    -0.260 A  
HETATM   11  O   UNL     1     -12.697  14.535  70.811  1.00  0.00    -0.330 OA 
HETATM   12  C   UNL     1     -13.191  12.462  71.830  1.00  0.00    -0.334 A  
HETATM   13  H   UNL     1     -13.171  14.991  71.496  1.00  0.00     0.000 HD 
HETATM   14  C   UNL     1     -13.123  11.079  71.872  1.00  0.00    -0.525 A  
HETATM   15  O   UNL     1     -13.853  13.129  72.819  1.00  0.00    -0.721 OA 
HETATM   16  H   UNL     1     -14.267  12.646  73.525  1.00  0.00     0.000 HD 
HETATM   17  C   UNL     1     -12.438  10.397  70.865  1.00  0.00    -0.478 A  
ENDBRANCH   5   8
ENDBRANCH   2   5
TORSDOF 2
ENDMDL
MODEL       83
REMARK 921   NORMALIZED FREE ENERGY PREDICTED BY IDOCK:   -3.82 KCAL/MOL
REMARK 922        TOTAL FREE ENERGY PREDICTED BY IDOCK:   -4.34 KCAL/MOL
REMARK 923 INTER-LIGAND FREE ENERGY PREDICTED BY IDOCK:   -4.25 KCAL/MOL
REMARK 924 INTRA-LIGAND FREE ENERGY PREDICTED BY IDOCK:   -0.08 KCAL/MOL
REMARK 927      BINDING AFFINITY PREDICTED BY RF-SCORE:    0.00 PKD
ROOT
HETATM    1  N   UNL     1      -7.900   5.793  74.219  1.00  0.00    -0.101 NA 
HETATM    2  C   UNL     1      -9.100   6.530  73.796  1.00  0.00    -0.136 C  
HETATM    3  H1  UNL     1      -8.130   5.013  74.835  1.00  0.00     0.000 HD 
HETATM    4  H2  UNL     1      -7.215   6.415  74.649  1.00  0.00     0.000 HD 
ENDROOT
BRANCH   2   5
HETATM    5  C   UNL     1      -8.751   7.712  72.863  1.00  0.00    -0.153 C  
HETATM    6  H   UNL     1      -7.787   9.416  73.021  1.00  0.00     0.000 HD 
HETATM    7  O   UNL     1      -8.001   8.689  73.595  1.00  0.00    -0.412 OA 
BRANCH   5   8
HETATM    8  C   UNL     1     -10.002   8.336  72.273  1.00  0.00    -0.366 A  
HETATM    9  C   UNL     1     -11.284   8.032  72.766  1.00  0.00    -0.448 A  
HETATM   10  C   UNL     1     -12.405   8.598  72.165  1.00  0.00    -0.386 A  
HETATM   11  O   UNL     1     -13.672   8.343  72.613  1.00  0.00    -0.612 OA 
HETATM   12  C   UNL     1     -12.267   9.448  71.070  1.00  0.00    -0.279 A  
HETATM   13  H   UNL     1     -14.437   8.729  72.202  1.00  0.00     0.000 HD 
HETATM   14  C   UNL     1     -11.012   9.755  70.568  1.00  0.00    -0.384 A  
HETATM   15  O   UNL     1     -13.373   9.982  70.475  1.00  0.00    -0.605 OA 
HETATM   16  H   UNL     1     -13.279  10.562  69.729  1.00  0.00     0.000 HD 
HETATM   17  C   UNL     1      -9.882   9.202  71.171  1.00  0.00    -0.371 A  
ENDBRANCH   5   8
ENDBRANCH   2   5
TORSDOF 2
ENDMDL
MODEL       84
REMARK 921   NORMALIZED FREE ENERGY PREDICTED BY IDOCK:   -3.80 KCAL/MOL
REMARK 922        TOTAL FREE ENERGY PREDICTED BY IDOCK:   -4.32 KCAL/MOL
REMARK 923 INTER-LIGAND FREE ENERGY PREDICTED BY IDOCK:   -4.23 KCAL/MOL
REMARK 924 INTRA-LIGAND FREE ENERGY PREDICTED BY IDOCK:   -0.09 KCAL/MOL
REMARK 927      BINDING AFFINITY PREDICTED BY RF-SCORE:    0.00 PKD
ROOT
HETATM    1  N   UNL     1      -8.403  15.798  67.162  1.00  0.00    -0.183 NA 
HETATM    2  C   UNL     1      -8.925  14.835  68.142  1.00  0.00    -0.179 C  
HETATM    3  H1  UNL     1      -7.406  15.973  67.293  1.00  0.00     0.000 HD 
HETATM    4  H2  UNL     1      -8.936  16.668  67.175  1.00  0.00     0.000 HD 
ENDROOT
BRANCH   2   5
HETATM    5  C   UNL     1     -10.435  14.571  67.943  1.00  0.00    -0.242 C  
HETATM    6  H   UNL     1     -11.902  15.387  66.922  1.00  0.00     0.000 HD 
HETATM    7  O   UNL     1     -10.974  15.550  67.045  1.00  0.00    -0.321 OA 
BRANCH   5   8
HETATM    8  C   UNL     1     -11.178  14.600  69.266  1.00  0.00    -0.306 A  
HETATM    9  C   UNL     1     -11.213  15.753  70.071  1.00  0.00    -0.346 A  
HETATM   10  C   UNL     1     -11.873  15.717  71.295  1.00  0.00    -0.437 A  
HETATM   11  O   UNL     1     -11.943  16.814  72.111  1.00  0.00    -0.574 OA 
HETATM   12  C   UNL     1     -12.484  14.546  71.736  1.00  0.00    -0.348 A  
HETATM   13  H   UNL     1     -12.394  16.790  72.947  1.00  0.00     0.000 HD 
HETATM   14  C   UNL     1     -12.457  13.399  70.959  1.00  0.00    -0.437 A  
HETATM   15  O   UNL     1     -13.112  14.516  72.948  1.00  0.00    -0.467 OA 
HETATM   16  H   UNL     1     -13.529  13.718  73.249  1.00  0.00     0.000 HD 
HETATM   17  C   UNL     1     -11.807  13.427  69.724  1.00  0.00    -0.393 A  
ENDBRANCH   5   8
ENDBRANCH   2   5
TORSDOF 2
ENDMDL
MODEL       85
REMARK 921   NORMALIZED FREE ENERGY PREDICTED BY IDOCK:   -3.79 KCAL/MOL
REMARK 922        TOTAL FREE ENERGY PREDICTED BY IDOCK:   -4.31 KCAL/MOL
REMARK 923 INTER-LIGAND FREE ENERGY PREDICTED BY IDOCK:   -4.23 KCAL/MOL
REMARK 924 INTRA-LIGAND FREE ENERGY PREDICTED BY IDOCK:   -0.09 KCAL/MOL
REMARK 927      BINDING AFFINITY PREDICTED BY RF-SCORE:    0.00 PKD
ROOT
HETATM    1  N   UNL     1     -11.737  14.302  71.167  1.00  0.00    -0.497 NA 
HETATM    2  C   UNL     1     -12.447  14.711  69.945  1.00  0.00    -0.245 C  
HETATM    3  H1  UNL     1     -12.156  14.708  72.004  1.00  0.00     0.000 HD 
HETATM    4  H2  UNL     1     -10.742  14.519  71.108  1.00  0.00     0.000 HD 
ENDROOT
BRANCH   2   5
HETATM    5  C   UNL     1     -11.811  14.097  68.677  1.00  0.00    -0.348 C  
HETATM    6  H   UNL     1     -10.513  12.678  68.278  1.00  0.00     0.000 HD 
HETATM    7  O   UNL     1     -10.903  13.055  69.058  1.00  0.00    -0.231 OA 
BRANCH   5   8
HETATM    8  C   UNL     1     -11.094  15.151  67.855  1.00  0.00    -0.322 A  
HETATM    9  C   UNL     1     -11.365  15.333  66.486  1.00  0.00    -0.168 A  
HETATM   10  C   UNL     1     -10.651  16.285  65.764  1.00  0.00    -0.324 A  
HETATM   11  O   UNL     1     -10.883  16.507  64.434  1.00  0.00    -1.027 OA 
HETATM   12  C   UNL     1      -9.661  17.046  66.382  1.00  0.00    -0.282 A  
HETATM   13  H   UNL     1     -10.396  17.157  63.941  1.00  0.00     0.000 HD 
HETATM   14  C   UNL     1      -9.377  16.877  67.728  1.00  0.00    -0.235 A  
HETATM   15  O   UNL     1      -8.953  17.963  65.660  1.00  0.00    -0.331 OA 
HETATM   16  H   UNL     1      -8.278  18.482  66.081  1.00  0.00     0.000 HD 
HETATM   17  C   UNL     1     -10.095  15.933  68.464  1.00  0.00    -0.217 A  
ENDBRANCH   5   8
ENDBRANCH   2   5
TORSDOF 2
ENDMDL
MODEL       86
REMARK 921   NORMALIZED FREE ENERGY PREDICTED BY IDOCK:   -3.79 KCAL/MOL
REMARK 922        TOTAL FREE ENERGY PREDICTED BY IDOCK:   -4.31 KCAL/MOL
REMARK 923 INTER-LIGAND FREE ENERGY PREDICTED BY IDOCK:   -4.27 KCAL/MOL
REMARK 924 INTRA-LIGAND FREE ENERGY PREDICTED BY IDOCK:   -0.04 KCAL/MOL
REMARK 927      BINDING AFFINITY PREDICTED BY RF-SCORE:    0.00 PKD
ROOT
HETATM    1  N   UNL     1     -13.205  15.675  70.364  1.00  0.00    -0.748 NA 
HETATM    2  C   UNL     1     -11.985  14.880  70.568  1.00  0.00    -0.309 C  
HETATM    3  H1  UNL     1     -13.996  15.299  70.887  1.00  0.00     0.000 HD 
HETATM    4  H2  UNL     1     -13.426  15.767  69.373  1.00  0.00     0.000 HD 
ENDROOT
BRANCH   2   5
HETATM    5  C   UNL     1     -10.787  15.448  69.775  1.00  0.00    -0.288 C  
HETATM    6  H   UNL     1     -10.293  17.178  68.984  1.00  0.00     0.000 HD 
HETATM    7  O   UNL     1     -11.030  16.828  69.471  1.00  0.00    -0.297 OA 
BRANCH   5   8
HETATM    8  C   UNL     1     -10.545  14.660  68.500  1.00  0.00    -0.245 A  
HETATM    9  C   UNL     1     -11.604  14.084  67.775  1.00  0.00    -0.378 A  
HETATM   10  C   UNL     1     -11.329  13.335  66.634  1.00  0.00    -0.321 A  
HETATM   11  O   UNL     1     -12.323  12.761  65.889  1.00  0.00    -0.551 OA 
HETATM   12  C   UNL     1     -10.014  13.138  66.217  1.00  0.00    -0.285 A  
HETATM   13  H   UNL     1     -12.135  12.250  65.110  1.00  0.00     0.000 HD 
HETATM   14  C   UNL     1      -8.959  13.694  66.922  1.00  0.00    -0.229 A  
HETATM   15  O   UNL     1      -9.755  12.385  65.108  1.00  0.00    -0.425 OA 
HETATM   16  H   UNL     1      -8.859  12.251  64.824  1.00  0.00     0.000 HD 
HETATM   17  C   UNL     1      -9.225  14.457  68.060  1.00  0.00    -0.193 A  
ENDBRANCH   5   8
ENDBRANCH   2   5
TORSDOF 2
ENDMDL
MODEL       87
REMARK 921   NORMALIZED FREE ENERGY PREDICTED BY IDOCK:   -3.78 KCAL/MOL
REMARK 922        TOTAL FREE ENERGY PREDICTED BY IDOCK:   -4.30 KCAL/MOL
REMARK 923 INTER-LIGAND FREE ENERGY PREDICTED BY IDOCK:   -4.23 KCAL/MOL
REMARK 924 INTRA-LIGAND FREE ENERGY PREDICTED BY IDOCK:   -0.06 KCAL/MOL
REMARK 927      BINDING AFFINITY PREDICTED BY RF-SCORE:    0.00 PKD
ROOT
HETATM    1  N   UNL     1      -8.395  19.674  68.074  1.00  0.00    -0.302 NA 
HETATM    2  C   UNL     1      -7.902  18.289  68.089  1.00  0.00    -0.288 C  
HETATM    3  H1  UNL     1      -7.907  20.259  68.753  1.00  0.00     0.000 HD 
HETATM    4  H2  UNL     1      -9.405  19.710  68.213  1.00  0.00     0.000 HD 
ENDROOT
BRANCH   2   5
HETATM    5  C   UNL     1      -8.642  17.403  67.061  1.00  0.00    -0.233 C  
HETATM    6  H   UNL     1      -9.628  17.685  65.385  1.00  0.00     0.000 HD 
HETATM    7  O   UNL     1      -9.173  18.230  66.017  1.00  0.00    -0.508 OA 
BRANCH   5   8
HETATM    8  C   UNL     1      -9.750  16.603  67.720  1.00  0.00    -0.240 A  
HETATM    9  C   UNL     1     -10.571  15.729  66.983  1.00  0.00    -0.316 A  
HETATM   10  C   UNL     1     -11.601  15.049  67.624  1.00  0.00    -0.312 A  
HETATM   11  O   UNL     1     -12.421  14.181  66.955  1.00  0.00    -0.571 OA 
HETATM   12  C   UNL     1     -11.837  15.239  68.984  1.00  0.00    -0.318 A  
HETATM   13  H   UNL     1     -13.125  13.716  67.393  1.00  0.00     0.000 HD 
HETATM   14  C   UNL     1     -11.042  16.099  69.725  1.00  0.00    -0.350 A  
HETATM   15  O   UNL     1     -12.863  14.581  69.599  1.00  0.00    -0.545 OA 
HETATM   16  H   UNL     1     -13.023  14.711  70.526  1.00  0.00     0.000 HD 
HETATM   17  C   UNL     1      -9.998  16.778  69.094  1.00  0.00    -0.252 A  
ENDBRANCH   5   8
ENDBRANCH   2   5
TORSDOF 2
ENDMDL
MODEL       88
REMARK 921   NORMALIZED FREE ENERGY PREDICTED BY IDOCK:   -3.77 KCAL/MOL
REMARK 922        TOTAL FREE ENERGY PREDICTED BY IDOCK:   -4.29 KCAL/MOL
REMARK 923 INTER-LIGAND FREE ENERGY PREDICTED BY IDOCK:   -4.18 KCAL/MOL
REMARK 924 INTRA-LIGAND FREE ENERGY PREDICTED BY IDOCK:   -0.10 KCAL/MOL
REMARK 927      BINDING AFFINITY PREDICTED BY RF-SCORE:    0.00 PKD
ROOT
HETATM    1  N   UNL     1     -10.882  15.029  69.447  1.00  0.00    -0.251 NA 
HETATM    2  C   UNL     1     -11.356  16.040  68.491  1.00  0.00    -0.382 C  
HETATM    3  H1  UNL     1     -11.518  14.925  70.238  1.00  0.00     0.000 HD 
HETATM    4  H2  UNL     1      -9.932  15.232  69.760  1.00  0.00     0.000 HD 
ENDROOT
BRANCH   2   5
HETATM    5  C   UNL     1     -10.392  16.198  67.293  1.00  0.00    -0.287 C  
HETATM    6  H   UNL     1      -8.775  15.297  66.637  1.00  0.00     0.000 HD 
HETATM    7  O   UNL     1      -9.368  15.199  67.374  1.00  0.00    -0.192 OA 
BRANCH   5   8
HETATM    8  C   UNL     1      -9.778  17.586  67.260  1.00  0.00    -0.276 A  
HETATM    9  C   UNL     1     -10.106  18.517  66.258  1.00  0.00    -0.422 A  
HETATM   10  C   UNL     1      -9.485  19.762  66.246  1.00  0.00    -0.406 A  
HETATM   11  O   UNL     1      -9.776  20.706  65.298  1.00  0.00    -0.311 OA 
HETATM   12  C   UNL     1      -8.531  20.087  67.207  1.00  0.00    -0.334 A  
HETATM   13  H   UNL     1      -9.353  21.556  65.290  1.00  0.00     0.000 HD 
HETATM   14  C   UNL     1      -8.192  19.181  68.199  1.00  0.00    -0.353 A  
HETATM   15  O   UNL     1      -7.913  21.304  67.174  1.00  0.00    -0.693 OA 
HETATM   16  H   UNL     1      -7.263  21.525  67.829  1.00  0.00     0.000 HD 
HETATM   17  C   UNL     1      -8.817  17.933  68.227  1.00  0.00    -0.277 A  
ENDBRANCH   5   8
ENDBRANCH   2   5
TORSDOF 2
ENDMDL
MODEL       89
REMARK 921   NORMALIZED FREE ENERGY PREDICTED BY IDOCK:   -3.77 KCAL/MOL
REMARK 922        TOTAL FREE ENERGY PREDICTED BY IDOCK:   -4.29 KCAL/MOL
REMARK 923 INTER-LIGAND FREE ENERGY PREDICTED BY IDOCK:   -4.19 KCAL/MOL
REMARK 924 INTRA-LIGAND FREE ENERGY PREDICTED BY IDOCK:   -0.09 KCAL/MOL
REMARK 927      BINDING AFFINITY PREDICTED BY RF-SCORE:    0.00 PKD
ROOT
HETATM    1  N   UNL     1     -11.471  16.254  63.832  1.00  0.00    -1.539 NA 
HETATM    2  C   UNL     1     -11.719  14.969  64.503  1.00  0.00    -0.368 C  
HETATM    3  H1  UNL     1     -11.825  16.258  62.876  1.00  0.00     0.000 HD 
HETATM    4  H2  UNL     1     -10.482  16.502  63.862  1.00  0.00     0.000 HD 
ENDROOT
BRANCH   2   5
HETATM    5  C   UNL     1     -11.180  14.962  65.952  1.00  0.00    -0.328 C  
HETATM    6  H   UNL     1     -10.150  16.182  67.095  1.00  0.00     0.000 HD 
HETATM    7  O   UNL     1     -10.480  16.187  66.204  1.00  0.00    -0.314 OA 
BRANCH   5   8
HETATM    8  C   UNL     1     -10.271  13.772  66.196  1.00  0.00    -0.305 A  
HETATM    9  C   UNL     1      -9.085  13.888  66.944  1.00  0.00    -0.257 A  
HETATM   10  C   UNL     1      -8.262  12.777  67.105  1.00  0.00    -0.146 A  
HETATM   11  O   UNL     1      -7.103  12.835  67.831  1.00  0.00    -0.091 OA 
HETATM   12  C   UNL     1      -8.595  11.558  66.519  1.00  0.00    -0.172 A  
HETATM   13  H   UNL     1      -6.541  12.077  67.941  1.00  0.00     0.000 HD 
HETATM   14  C   UNL     1      -9.757  11.427  65.775  1.00  0.00    -0.263 A  
HETATM   15  O   UNL     1      -7.770  10.480  66.667  1.00  0.00    -0.112 OA 
HETATM   16  H   UNL     1      -7.998   9.649  66.267  1.00  0.00     0.000 HD 
HETATM   17  C   UNL     1     -10.595  12.531  65.617  1.00  0.00    -0.298 A  
ENDBRANCH   5   8
ENDBRANCH   2   5
TORSDOF 2
ENDMDL
MODEL       90
REMARK 921   NORMALIZED FREE ENERGY PREDICTED BY IDOCK:   -3.76 KCAL/MOL
REMARK 922        TOTAL FREE ENERGY PREDICTED BY IDOCK:   -4.28 KCAL/MOL
REMARK 923 INTER-LIGAND FREE ENERGY PREDICTED BY IDOCK:   -4.18 KCAL/MOL
REMARK 924 INTRA-LIGAND FREE ENERGY PREDICTED BY IDOCK:   -0.10 KCAL/MOL
REMARK 927      BINDING AFFINITY PREDICTED BY RF-SCORE:    0.00 PKD
ROOT
HETATM    1  N   UNL     1     -10.765  17.465  67.527  1.00  0.00    -0.322 NA 
HETATM    2  C   UNL     1     -10.438  16.046  67.728  1.00  0.00    -0.298 C  
HETATM    3  H1  UNL     1      -9.930  18.050  67.511  1.00  0.00     0.000 HD 
HETATM    4  H2  UNL     1     -11.435  17.794  68.223  1.00  0.00     0.000 HD 
ENDROOT
BRANCH   2   5
HETATM    5  C   UNL     1     -11.705  15.160  67.753  1.00  0.00    -0.232 C  
HETATM    6  H   UNL     1     -12.561  13.933  69.025  1.00  0.00     0.000 HD 
HETATM    7  O   UNL     1     -11.782  14.477  69.010  1.00  0.00    -0.278 OA 
BRANCH   5   8
HETATM    8  C   UNL     1     -11.703  14.164  66.608  1.00  0.00    -0.422 A  
HETATM    9  C   UNL     1     -11.056  12.920  66.710  1.00  0.00    -0.315 A  
HETATM   10  C   UNL     1     -11.046  12.057  65.618  1.00  0.00    -0.313 A  
HETATM   11  O   UNL     1     -10.439  10.832  65.670  1.00  0.00    -0.243 OA 
HETATM   12  C   UNL     1     -11.658  12.424  64.421  1.00  0.00    -0.354 A  
HETATM   13  H   UNL     1     -10.433  10.243  64.924  1.00  0.00     0.000 HD 
HETATM   14  C   UNL     1     -12.296  13.647  64.301  1.00  0.00    -0.388 A  
HETATM   15  O   UNL     1     -11.625  11.578  63.350  1.00  0.00    -0.731 OA 
HETATM   16  H   UNL     1     -12.042  11.828  62.534  1.00  0.00     0.000 HD 
HETATM   17  C   UNL     1     -12.321  14.515  65.393  1.00  0.00    -0.286 A  
ENDBRANCH   5   8
ENDBRANCH   2   5
TORSDOF 2
ENDMDL
MODEL       91
REMARK 921   NORMALIZED FREE ENERGY PREDICTED BY IDOCK:   -3.75 KCAL/MOL
REMARK 922        TOTAL FREE ENERGY PREDICTED BY IDOCK:   -4.27 KCAL/MOL
REMARK 923 INTER-LIGAND FREE ENERGY PREDICTED BY IDOCK:   -4.18 KCAL/MOL
REMARK 924 INTRA-LIGAND FREE ENERGY PREDICTED BY IDOCK:   -0.09 KCAL/MOL
REMARK 927      BINDING AFFINITY PREDICTED BY RF-SCORE:    0.00 PKD
ROOT
HETATM    1  N   UNL     1     -10.431   5.712  69.203  1.00  0.00    -0.257 NA 
HETATM    2  C   UNL     1     -11.297   6.776  69.732  1.00  0.00    -0.296 C  
HETATM    3  H1  UNL     1     -10.876   4.796  69.258  1.00  0.00     0.000 HD 
HETATM    4  H2  UNL     1      -9.521   5.710  69.664  1.00  0.00     0.000 HD 
ENDROOT
BRANCH   2   5
HETATM    5  C   UNL     1     -10.622   8.164  69.648  1.00  0.00    -0.223 C  
HETATM    6  H   UNL     1      -8.901   8.946  70.183  1.00  0.00     0.000 HD 
HETATM    7  O   UNL     1      -9.316   8.093  70.235  1.00  0.00    -0.154 OA 
BRANCH   5   8
HETATM    8  C   UNL     1     -11.457   9.225  70.340  1.00  0.00    -0.255 A  
HETATM    9  C   UNL     1     -11.350  10.587  70.004  1.00  0.00    -0.392 A  
HETATM   10  C   UNL     1     -12.106  11.528  70.696  1.00  0.00    -0.353 A  
HETATM   11  O   UNL     1     -12.045  12.863  70.401  1.00  0.00    -0.395 OA 
HETATM   12  C   UNL     1     -12.955  11.134  71.727  1.00  0.00    -0.421 A  
HETATM   13  H   UNL     1     -12.562  13.506  70.873  1.00  0.00     0.000 HD 
HETATM   14  C   UNL     1     -13.071   9.798  72.075  1.00  0.00    -0.546 A  
HETATM   15  O   UNL     1     -13.678  12.068  72.412  1.00  0.00    -0.520 OA 
HETATM   16  H   UNL     1     -14.257  11.799  73.116  1.00  0.00     0.000 HD 
HETATM   17  C   UNL     1     -12.325   8.845  71.380  1.00  0.00    -0.368 A  
ENDBRANCH   5   8
ENDBRANCH   2   5
TORSDOF 2
ENDMDL
MODEL       92
REMARK 921   NORMALIZED FREE ENERGY PREDICTED BY IDOCK:   -3.75 KCAL/MOL
REMARK 922        TOTAL FREE ENERGY PREDICTED BY IDOCK:   -4.26 KCAL/MOL
REMARK 923 INTER-LIGAND FREE ENERGY PREDICTED BY IDOCK:   -4.18 KCAL/MOL
REMARK 924 INTRA-LIGAND FREE ENERGY PREDICTED BY IDOCK:   -0.08 KCAL/MOL
REMARK 927      BINDING AFFINITY PREDICTED BY RF-SCORE:    0.00 PKD
ROOT
HETATM    1  N   UNL     1     -12.650  14.953  63.726  1.00  0.00    -0.981 NA 
HETATM    2  C   UNL     1     -11.513  15.150  64.636  1.00  0.00    -0.362 C  
HETATM    3  H1  UNL     1     -13.241  15.782  63.669  1.00  0.00     0.000 HD 
HETATM    4  H2  UNL     1     -13.193  14.128  63.983  1.00  0.00     0.000 HD 
ENDROOT
BRANCH   2   5
HETATM    5  C   UNL     1     -10.619  13.892  64.722  1.00  0.00    -0.426 C  
HETATM    6  H   UNL     1     -10.889  11.946  64.691  1.00  0.00     0.000 HD 
HETATM    7  O   UNL     1     -11.439  12.720  64.639  1.00  0.00    -0.302 OA 
BRANCH   5   8
HETATM    8  C   UNL     1      -9.806  13.880  66.004  1.00  0.00    -0.306 A  
HETATM    9  C   UNL     1      -9.772  12.756  66.848  1.00  0.00    -0.234 A  
HETATM   10  C   UNL     1      -9.045  12.807  68.034  1.00  0.00    -0.207 A  
HETATM   11  O   UNL     1      -8.973  11.738  68.885  1.00  0.00    -0.376 OA 
HETATM   12  C   UNL     1      -8.367  13.968  68.399  1.00  0.00    -0.162 A  
HETATM   13  H   UNL     1      -8.477  11.773  69.695  1.00  0.00     0.000 HD 
HETATM   14  C   UNL     1      -8.394  15.087  67.582  1.00  0.00    -0.175 A  
HETATM   15  O   UNL     1      -7.674  14.015  69.574  1.00  0.00    -0.337 OA 
HETATM   16  H   UNL     1      -7.212  14.806  69.822  1.00  0.00     0.000 HD 
HETATM   17  C   UNL     1      -9.110  15.042  66.385  1.00  0.00    -0.312 A  
ENDBRANCH   5   8
ENDBRANCH   2   5
TORSDOF 2
ENDMDL
MODEL       93
REMARK 921   NORMALIZED FREE ENERGY PREDICTED BY IDOCK:   -3.74 KCAL/MOL
REMARK 922        TOTAL FREE ENERGY PREDICTED BY IDOCK:   -4.26 KCAL/MOL
REMARK 923 INTER-LIGAND FREE ENERGY PREDICTED BY IDOCK:   -4.15 KCAL/MOL
REMARK 924 INTRA-LIGAND FREE ENERGY PREDICTED BY IDOCK:   -0.11 KCAL/MOL
REMARK 927      BINDING AFFINITY PREDICTED BY RF-SCORE:    0.00 PKD
ROOT
HETATM    1  N   UNL     1     -13.974   8.773  72.910  1.00  0.00    -1.011 NA 
HETATM    2  C   UNL     1     -13.271   9.273  71.720  1.00  0.00    -0.403 C  
HETATM    3  H1  UNL     1     -14.987   8.861  72.820  1.00  0.00     0.000 HD 
HETATM    4  H2  UNL     1     -13.637   9.227  73.759  1.00  0.00     0.000 HD 
ENDROOT
BRANCH   2   5
HETATM    5  C   UNL     1     -11.737   9.139  71.858  1.00  0.00    -0.366 C  
HETATM    6  H   UNL     1     -10.158   9.740  70.855  1.00  0.00     0.000 HD 
HETATM    7  O   UNL     1     -11.101   9.822  70.770  1.00  0.00    -0.293 OA 
BRANCH   5   8
HETATM    8  C   UNL     1     -11.312   7.683  71.891  1.00  0.00    -0.308 A  
HETATM    9  C   UNL     1     -10.856   7.071  73.072  1.00  0.00    -0.342 A  
HETATM   10  C   UNL     1     -10.437   5.744  73.043  1.00  0.00    -0.221 A  
HETATM   11  O   UNL     1      -9.994   5.101  74.167  1.00  0.00    -0.163 OA 
HETATM   12  C   UNL     1     -10.450   5.024  71.851  1.00  0.00    -0.187 A  
HETATM   13  H   UNL     1      -9.708   4.195  74.147  1.00  0.00     0.000 HD 
HETATM   14  C   UNL     1     -10.892   5.611  70.676  1.00  0.00    -0.304 A  
HETATM   15  O   UNL     1     -10.019   3.729  71.829  1.00  0.00    -0.183 OA 
HETATM   16  H   UNL     1     -10.028   3.238  71.017  1.00  0.00     0.000 HD 
HETATM   17  C   UNL     1     -11.325   6.938  70.697  1.00  0.00    -0.366 A  
ENDBRANCH   5   8
ENDBRANCH   2   5
TORSDOF 2
ENDMDL
MODEL       94
REMARK 921   NORMALIZED FREE ENERGY PREDICTED BY IDOCK:   -3.73 KCAL/MOL
REMARK 922        TOTAL FREE ENERGY PREDICTED BY IDOCK:   -4.25 KCAL/MOL
REMARK 923 INTER-LIGAND FREE ENERGY PREDICTED BY IDOCK:   -4.14 KCAL/MOL
REMARK 924 INTRA-LIGAND FREE ENERGY PREDICTED BY IDOCK:   -0.11 KCAL/MOL
REMARK 927      BINDING AFFINITY PREDICTED BY RF-SCORE:    0.00 PKD
ROOT
HETATM    1  N   UNL     1      -8.993  19.236  68.545  1.00  0.00    -0.360 NA 
HETATM    2  C   UNL     1      -8.645  18.015  67.803  1.00  0.00    -0.244 C  
HETATM    3  H1  UNL     1      -8.489  19.301  69.429  1.00  0.00     0.000 HD 
HETATM    4  H2  UNL     1     -10.000  19.309  68.686  1.00  0.00     0.000 HD 
ENDROOT
BRANCH   2   5
HETATM    5  C   UNL     1      -9.410  17.916  66.464  1.00  0.00    -0.280 C  
HETATM    6  H   UNL     1     -10.646  19.050  65.442  1.00  0.00     0.000 HD 
HETATM    7  O   UNL     1     -10.177  19.111  66.266  1.00  0.00    -0.393 OA 
BRANCH   5   8
HETATM    8  C   UNL     1     -10.312  16.696  66.432  1.00  0.00    -0.310 A  
HETATM    9  C   UNL     1     -10.955  16.221  67.589  1.00  0.00    -0.245 A  
HETATM   10  C   UNL     1     -11.740  15.074  67.518  1.00  0.00    -0.253 A  
HETATM   11  O   UNL     1     -12.394  14.576  68.613  1.00  0.00    -0.578 OA 
HETATM   12  C   UNL     1     -11.878  14.384  66.316  1.00  0.00    -0.379 A  
HETATM   13  H   UNL     1     -12.929  13.793  68.564  1.00  0.00     0.000 HD 
HETATM   14  C   UNL     1     -11.248  14.835  65.167  1.00  0.00    -0.384 A  
HETATM   15  O   UNL     1     -12.634  13.248  66.262  1.00  0.00    -0.334 OA 
HETATM   16  H   UNL     1     -12.728  12.779  65.442  1.00  0.00     0.000 HD 
HETATM   17  C   UNL     1     -10.468  15.991  65.225  1.00  0.00    -0.384 A  
ENDBRANCH   5   8
ENDBRANCH   2   5
TORSDOF 2
ENDMDL
MODEL       95
REMARK 921   NORMALIZED FREE ENERGY PREDICTED BY IDOCK:   -3.73 KCAL/MOL
REMARK 922        TOTAL FREE ENERGY PREDICTED BY IDOCK:   -4.25 KCAL/MOL
REMARK 923 INTER-LIGAND FREE ENERGY PREDICTED BY IDOCK:   -4.14 KCAL/MOL
REMARK 924 INTRA-LIGAND FREE ENERGY PREDICTED BY IDOCK:   -0.10 KCAL/MOL
REMARK 927      BINDING AFFINITY PREDICTED BY RF-SCORE:    0.00 PKD
ROOT
HETATM    1  N   UNL     1      -9.861  20.729  67.141  1.00  0.00    -0.591 NA 
HETATM    2  C   UNL     1     -10.468  19.509  67.693  1.00  0.00    -0.467 C  
HETATM    3  H1  UNL     1     -10.531  21.278  66.601  1.00  0.00     0.000 HD 
HETATM    4  H2  UNL     1      -9.030  20.514  66.591  1.00  0.00     0.000 HD 
ENDROOT
BRANCH   2   5
HETATM    5  C   UNL     1      -9.453  18.679  68.510  1.00  0.00    -0.350 C  
HETATM    6  H   UNL     1      -7.541  18.796  68.948  1.00  0.00     0.000 HD 
HETATM    7  O   UNL     1      -8.165  19.306  68.445  1.00  0.00    -0.322 OA 
BRANCH   5   8
HETATM    8  C   UNL     1      -9.373  17.251  68.003  1.00  0.00    -0.264 A  
HETATM    9  C   UNL     1      -9.519  16.150  68.865  1.00  0.00    -0.244 A  
HETATM   10  C   UNL     1      -9.397  14.859  68.360  1.00  0.00    -0.197 A  
HETATM   11  O   UNL     1      -9.539  13.754  69.155  1.00  0.00    -0.405 OA 
HETATM   12  C   UNL     1      -9.114  14.651  67.012  1.00  0.00    -0.238 A  
HETATM   13  H   UNL     1      -9.456  12.873  68.810  1.00  0.00     0.000 HD 
HETATM   14  C   UNL     1      -8.962  15.723  66.148  1.00  0.00    -0.372 A  
HETATM   15  O   UNL     1      -8.976  13.380  66.531  1.00  0.00    -0.417 OA 
HETATM   16  H   UNL     1      -8.784  13.238  65.612  1.00  0.00     0.000 HD 
HETATM   17  C   UNL     1      -9.095  17.022  66.643  1.00  0.00    -0.278 A  
ENDBRANCH   5   8
ENDBRANCH   2   5
TORSDOF 2
ENDMDL
MODEL       96
REMARK 921   NORMALIZED FREE ENERGY PREDICTED BY IDOCK:   -3.71 KCAL/MOL
REMARK 922        TOTAL FREE ENERGY PREDICTED BY IDOCK:   -4.22 KCAL/MOL
REMARK 923 INTER-LIGAND FREE ENERGY PREDICTED BY IDOCK:   -4.14 KCAL/MOL
REMARK 924 INTRA-LIGAND FREE ENERGY PREDICTED BY IDOCK:   -0.09 KCAL/MOL
REMARK 927      BINDING AFFINITY PREDICTED BY RF-SCORE:    0.00 PKD
ROOT
HETATM    1  N   UNL     1      -6.505  18.779  68.275  1.00  0.00    -0.218 NA 
HETATM    2  C   UNL     1      -7.788  18.316  67.726  1.00  0.00    -0.240 C  
HETATM    3  H1  UNL     1      -6.178  19.629  67.815  1.00  0.00     0.000 HD 
HETATM    4  H2  UNL     1      -5.799  18.044  68.239  1.00  0.00     0.000 HD 
ENDROOT
BRANCH   2   5
HETATM    5  C   UNL     1      -8.283  17.028  68.422  1.00  0.00    -0.250 C  
HETATM    6  H   UNL     1      -7.474  15.363  69.080  1.00  0.00     0.000 HD 
HETATM    7  O   UNL     1      -7.169  16.155  68.651  1.00  0.00    -0.144 OA 
BRANCH   5   8
HETATM    8  C   UNL     1      -9.345  16.328  67.595  1.00  0.00    -0.218 A  
HETATM    9  C   UNL     1      -9.615  16.703  66.266  1.00  0.00    -0.325 A  
HETATM   10  C   UNL     1     -10.628  16.058  65.562  1.00  0.00    -0.398 A  
HETATM   11  O   UNL     1     -10.924  16.379  64.265  1.00  0.00    -1.132 OA 
HETATM   12  C   UNL     1     -11.384  15.057  66.167  1.00  0.00    -0.270 A  
HETATM   13  H   UNL     1     -11.615  15.939  63.784  1.00  0.00     0.000 HD 
HETATM   14  C   UNL     1     -11.135  14.677  67.476  1.00  0.00    -0.319 A  
HETATM   15  O   UNL     1     -12.388  14.445  65.474  1.00  0.00    -0.392 OA 
HETATM   16  H   UNL     1     -12.903  13.762  65.886  1.00  0.00     0.000 HD 
HETATM   17  C   UNL     1     -10.114  15.310  68.188  1.00  0.00    -0.229 A  
ENDBRANCH   5   8
ENDBRANCH   2   5
TORSDOF 2
ENDMDL
MODEL       97
REMARK 921   NORMALIZED FREE ENERGY PREDICTED BY IDOCK:   -3.71 KCAL/MOL
REMARK 922        TOTAL FREE ENERGY PREDICTED BY IDOCK:   -4.22 KCAL/MOL
REMARK 923 INTER-LIGAND FREE ENERGY PREDICTED BY IDOCK:   -4.13 KCAL/MOL
REMARK 924 INTRA-LIGAND FREE ENERGY PREDICTED BY IDOCK:   -0.09 KCAL/MOL
REMARK 927      BINDING AFFINITY PREDICTED BY RF-SCORE:    0.00 PKD
ROOT
HETATM    1  N   UNL     1     -11.270  14.517  70.328  1.00  0.00    -0.454 NA 
HETATM    2  C   UNL     1     -11.057  15.811  69.663  1.00  0.00    -0.307 C  
HETATM    3  H1  UNL     1     -12.129  14.509  70.879  1.00  0.00     0.000 HD 
HETATM    4  H2  UNL     1     -10.464  14.255  70.895  1.00  0.00     0.000 HD 
ENDROOT
BRANCH   2   5
HETATM    5  C   UNL     1      -9.756  15.823  68.829  1.00  0.00    -0.213 C  
HETATM    6  H   UNL     1      -7.847  15.501  69.163  1.00  0.00     0.000 HD 
HETATM    7  O   UNL     1      -8.647  15.494  69.676  1.00  0.00    -0.246 OA 
BRANCH   5   8
HETATM    8  C   UNL     1      -9.537  17.172  68.170  1.00  0.00    -0.270 A  
HETATM    9  C   UNL     1      -8.642  17.335  67.097  1.00  0.00    -0.222 A  
HETATM   10  C   UNL     1      -8.443  18.600  66.552  1.00  0.00    -0.291 A  
HETATM   11  O   UNL     1      -7.591  18.810  65.502  1.00  0.00    -0.476 OA 
HETATM   12  C   UNL     1      -9.111  19.707  67.072  1.00  0.00    -0.326 A  
HETATM   13  H   UNL     1      -7.456  19.673  65.129  1.00  0.00     0.000 HD 
HETATM   14  C   UNL     1      -9.992  19.567  68.131  1.00  0.00    -0.522 A  
HETATM   15  O   UNL     1      -8.893  20.947  66.543  1.00  0.00    -0.424 OA 
HETATM   16  H   UNL     1      -9.348  21.701  66.897  1.00  0.00     0.000 HD 
HETATM   17  C   UNL     1     -10.207  18.301  68.677  1.00  0.00    -0.377 A  
ENDBRANCH   5   8
ENDBRANCH   2   5
TORSDOF 2
ENDMDL
MODEL       98
REMARK 921   NORMALIZED FREE ENERGY PREDICTED BY IDOCK:   -3.71 KCAL/MOL
REMARK 922        TOTAL FREE ENERGY PREDICTED BY IDOCK:   -4.22 KCAL/MOL
REMARK 923 INTER-LIGAND FREE ENERGY PREDICTED BY IDOCK:   -4.14 KCAL/MOL
REMARK 924 INTRA-LIGAND FREE ENERGY PREDICTED BY IDOCK:   -0.08 KCAL/MOL
REMARK 927      BINDING AFFINITY PREDICTED BY RF-SCORE:    0.00 PKD
ROOT
HETATM    1  N   UNL     1     -11.955  13.228  70.561  1.00  0.00    -0.523 NA 
HETATM    2  C   UNL     1     -11.729  14.264  69.542  1.00  0.00    -0.316 C  
HETATM    3  H1  UNL     1     -12.601  12.508  70.236  1.00  0.00     0.000 HD 
HETATM    4  H2  UNL     1     -12.267  13.636  71.442  1.00  0.00     0.000 HD 
ENDROOT
BRANCH   2   5
HETATM    5  C   UNL     1     -10.751  15.354  70.035  1.00  0.00    -0.307 C  
HETATM    6  H   UNL     1     -10.880  17.034  71.045  1.00  0.00     0.000 HD 
HETATM    7  O   UNL     1     -11.482  16.364  70.742  1.00  0.00    -0.368 OA 
BRANCH   5   8
HETATM    8  C   UNL     1      -9.982  15.967  68.880  1.00  0.00    -0.232 A  
HETATM    9  C   UNL     1     -10.556  16.117  67.604  1.00  0.00    -0.315 A  
HETATM   10  C   UNL     1      -9.797  16.648  66.565  1.00  0.00    -0.281 A  
HETATM   11  O   UNL     1     -10.312  16.822  65.310  1.00  0.00    -0.622 OA 
HETATM   12  C   UNL     1      -8.470  17.015  66.775  1.00  0.00    -0.234 A  
HETATM   13  H   UNL     1      -9.794  17.184  64.600  1.00  0.00     0.000 HD 
HETATM   14  C   UNL     1      -7.886  16.870  68.023  1.00  0.00    -0.180 A  
HETATM   15  O   UNL     1      -7.728  17.515  65.744  1.00  0.00    -0.530 OA 
HETATM   16  H   UNL     1      -6.823  17.766  65.887  1.00  0.00     0.000 HD 
HETATM   17  C   UNL     1      -8.642  16.350  69.075  1.00  0.00    -0.230 A  
ENDBRANCH   5   8
ENDBRANCH   2   5
TORSDOF 2
ENDMDL
MODEL       99
REMARK 921   NORMALIZED FREE ENERGY PREDICTED BY IDOCK:   -3.70 KCAL/MOL
REMARK 922        TOTAL FREE ENERGY PREDICTED BY IDOCK:   -4.21 KCAL/MOL
REMARK 923 INTER-LIGAND FREE ENERGY PREDICTED BY IDOCK:   -4.10 KCAL/MOL
REMARK 924 INTRA-LIGAND FREE ENERGY PREDICTED BY IDOCK:   -0.12 KCAL/MOL
REMARK 927      BINDING AFFINITY PREDICTED BY RF-SCORE:    0.00 PKD
ROOT
HETATM    1  N   UNL     1      -9.095  10.643  69.650  1.00  0.00    -0.396 NA 
HETATM    2  C   UNL     1      -9.884  11.079  68.488  1.00  0.00    -0.192 C  
HETATM    3  H1  UNL     1      -8.204  10.231  69.372  1.00  0.00     0.000 HD 
HETATM    4  H2  UNL     1      -9.629  10.007  70.243  1.00  0.00     0.000 HD 
ENDROOT
BRANCH   2   5
HETATM    5  C   UNL     1     -11.234  11.702  68.909  1.00  0.00    -0.246 C  
HETATM    6  H   UNL     1     -13.049  11.807  68.164  1.00  0.00     0.000 HD 
HETATM    7  O   UNL     1     -12.219  11.424  67.905  1.00  0.00    -0.592 OA 
BRANCH   5   8
HETATM    8  C   UNL     1     -11.106  13.199  69.125  1.00  0.00    -0.248 A  
HETATM    9  C   UNL     1     -11.931  13.889  70.032  1.00  0.00    -0.404 A  
HETATM   10  C   UNL     1     -11.804  15.269  70.166  1.00  0.00    -0.323 A  
HETATM   11  O   UNL     1     -12.576  15.984  71.040  1.00  0.00    -0.545 OA 
HETATM   12  C   UNL     1     -10.880  15.972  69.396  1.00  0.00    -0.300 A  
HETATM   13  H   UNL     1     -12.489  16.926  71.132  1.00  0.00     0.000 HD 
HETATM   14  C   UNL     1     -10.063  15.310  68.494  1.00  0.00    -0.222 A  
HETATM   15  O   UNL     1     -10.778  17.328  69.520  1.00  0.00    -0.386 OA 
HETATM   16  H   UNL     1     -10.148  17.807  68.996  1.00  0.00     0.000 HD 
HETATM   17  C   UNL     1     -10.174  13.925  68.361  1.00  0.00    -0.243 A  
ENDBRANCH   5   8
ENDBRANCH   2   5
TORSDOF 2
ENDMDL
MODEL      100
REMARK 921   NORMALIZED FREE ENERGY PREDICTED BY IDOCK:   -3.67 KCAL/MOL
REMARK 922        TOTAL FREE ENERGY PREDICTED BY IDOCK:   -4.17 KCAL/MOL
REMARK 923 INTER-LIGAND FREE ENERGY PREDICTED BY IDOCK:   -4.07 KCAL/MOL
REMARK 924 INTRA-LIGAND FREE ENERGY PREDICTED BY IDOCK:   -0.10 KCAL/MOL
REMARK 927      BINDING AFFINITY PREDICTED BY RF-SCORE:    0.00 PKD
ROOT
HETATM    1  N   UNL     1      -9.429  19.426  69.031  1.00  0.00    -0.382 NA 
HETATM    2  C   UNL     1      -8.843  18.379  68.181  1.00  0.00    -0.302 C  
HETATM    3  H1  UNL     1      -8.895  19.562  69.890  1.00  0.00     0.000 HD 
HETATM    4  H2  UNL     1     -10.410  19.235  69.231  1.00  0.00     0.000 HD 
ENDROOT
BRANCH   2   5
HETATM    5  C   UNL     1      -9.652  18.173  66.880  1.00  0.00    -0.299 C  
HETATM    6  H   UNL     1     -11.327  18.861  66.120  1.00  0.00     0.000 HD 
HETATM    7  O   UNL     1     -10.830  18.988  66.920  1.00  0.00    -0.419 OA 
BRANCH   5   8
HETATM    8  C   UNL     1     -10.023  16.714  66.688  1.00  0.00    -0.290 A  
HETATM    9  C   UNL     1      -9.811  16.051  65.465  1.00  0.00    -0.224 A  
HETATM   10  C   UNL     1     -10.206  14.724  65.324  1.00  0.00    -0.384 A  
HETATM   11  O   UNL     1     -10.013  14.032  64.159  1.00  0.00    -0.569 OA 
HETATM   12  C   UNL     1     -10.825  14.054  66.377  1.00  0.00    -0.299 A  
HETATM   13  H   UNL     1     -10.283  13.126  64.063  1.00  0.00     0.000 HD 
HETATM   14  C   UNL     1     -11.046  14.692  67.587  1.00  0.00    -0.311 A  
HETATM   15  O   UNL     1     -11.226  12.759  66.222  1.00  0.00    -0.279 OA 
HETATM   16  H   UNL     1     -11.648  12.302  66.940  1.00  0.00     0.000 HD 
HETATM   17  C   UNL     1     -10.643  16.019  67.743  1.00  0.00    -0.309 A  
ENDBRANCH   5   8
ENDBRANCH   2   5
TORSDOF 2
ENDMDL
MODEL      101
REMARK 921   NORMALIZED FREE ENERGY PREDICTED BY IDOCK:   -3.66 KCAL/MOL
REMARK 922        TOTAL FREE ENERGY PREDICTED BY IDOCK:   -4.16 KCAL/MOL
REMARK 923 INTER-LIGAND FREE ENERGY PREDICTED BY IDOCK:   -4.08 KCAL/MOL
REMARK 924 INTRA-LIGAND FREE ENERGY PREDICTED BY IDOCK:   -0.09 KCAL/MOL
REMARK 927      BINDING AFFINITY PREDICTED BY RF-SCORE:    0.00 PKD
ROOT
HETATM    1  N   UNL     1      -7.705  20.237  66.388  1.00  0.00    -0.439 NA 
HETATM    2  C   UNL     1      -8.866  19.352  66.560  1.00  0.00    -0.352 C  
HETATM    3  H1  UNL     1      -7.494  20.401  65.404  1.00  0.00     0.000 HD 
HETATM    4  H2  UNL     1      -6.890  19.882  66.888  1.00  0.00     0.000 HD 
ENDROOT
BRANCH   2   5
HETATM    5  C   UNL     1      -9.186  19.104  68.052  1.00  0.00    -0.313 C  
HETATM    6  H   UNL     1      -8.280  19.393  69.771  1.00  0.00     0.000 HD 
HETATM    7  O   UNL     1      -8.083  19.545  68.854  1.00  0.00    -0.355 OA 
BRANCH   5   8
HETATM    8  C   UNL     1      -9.481  17.639  68.317  1.00  0.00    -0.295 A  
HETATM    9  C   UNL     1     -10.797  17.142  68.345  1.00  0.00    -0.309 A  
HETATM   10  C   UNL     1     -11.019  15.799  68.633  1.00  0.00    -0.307 A  
HETATM   11  O   UNL     1     -12.278  15.264  68.664  1.00  0.00    -0.575 OA 
HETATM   12  C   UNL     1      -9.950  14.948  68.909  1.00  0.00    -0.233 A  
HETATM   13  H   UNL     1     -12.430  14.347  68.860  1.00  0.00     0.000 HD 
HETATM   14  C   UNL     1      -8.648  15.421  68.890  1.00  0.00    -0.207 A  
HETATM   15  O   UNL     1     -10.181  13.637  69.210  1.00  0.00    -0.431 OA 
HETATM   16  H   UNL     1      -9.453  13.057  69.398  1.00  0.00     0.000 HD 
HETATM   17  C   UNL     1      -8.414  16.764  68.591  1.00  0.00    -0.259 A  
ENDBRANCH   5   8
ENDBRANCH   2   5
TORSDOF 2
ENDMDL
MODEL      102
REMARK 921   NORMALIZED FREE ENERGY PREDICTED BY IDOCK:   -3.64 KCAL/MOL
REMARK 922        TOTAL FREE ENERGY PREDICTED BY IDOCK:   -4.14 KCAL/MOL
REMARK 923 INTER-LIGAND FREE ENERGY PREDICTED BY IDOCK:   -4.06 KCAL/MOL
REMARK 924 INTRA-LIGAND FREE ENERGY PREDICTED BY IDOCK:   -0.08 KCAL/MOL
REMARK 927      BINDING AFFINITY PREDICTED BY RF-SCORE:    0.00 PKD
ROOT
HETATM    1  N   UNL     1      -7.823  20.936  66.343  1.00  0.00    -0.413 NA 
HETATM    2  C   UNL     1      -8.147  19.502  66.363  1.00  0.00    -0.320 C  
HETATM    3  H1  UNL     1      -6.821  21.101  66.443  1.00  0.00     0.000 HD 
HETATM    4  H2  UNL     1      -8.355  21.447  67.047  1.00  0.00     0.000 HD 
ENDROOT
BRANCH   2   5
HETATM    5  C   UNL     1      -9.665  19.252  66.211  1.00  0.00    -0.374 C  
HETATM    6  H   UNL     1     -11.320  20.201  66.682  1.00  0.00     0.000 HD 
HETATM    7  O   UNL     1     -10.386  20.354  66.776  1.00  0.00    -0.370 OA 
BRANCH   5   8
HETATM    8  C   UNL     1     -10.079  17.952  66.875  1.00  0.00    -0.348 A  
HETATM    9  C   UNL     1     -10.408  16.809  66.124  1.00  0.00    -0.338 A  
HETATM   10  C   UNL     1     -10.822  15.652  66.777  1.00  0.00    -0.277 A  
HETATM   11  O   UNL     1     -11.144  14.511  66.093  1.00  0.00    -0.322 OA 
HETATM   12  C   UNL     1     -10.929  15.623  68.166  1.00  0.00    -0.314 A  
HETATM   13  H   UNL     1     -11.426  13.721  66.539  1.00  0.00     0.000 HD 
HETATM   14  C   UNL     1     -10.613  16.740  68.922  1.00  0.00    -0.350 A  
HETATM   15  O   UNL     1     -11.355  14.489  68.795  1.00  0.00    -0.247 OA 
HETATM   16  H   UNL     1     -11.428  14.469  69.742  1.00  0.00     0.000 HD 
HETATM   17  C   UNL     1     -10.186  17.902  68.277  1.00  0.00    -0.391 A  
ENDBRANCH   5   8
ENDBRANCH   2   5
TORSDOF 2
ENDMDL
MODEL      103
REMARK 921   NORMALIZED FREE ENERGY PREDICTED BY IDOCK:   -3.64 KCAL/MOL
REMARK 922        TOTAL FREE ENERGY PREDICTED BY IDOCK:   -4.14 KCAL/MOL
REMARK 923 INTER-LIGAND FREE ENERGY PREDICTED BY IDOCK:   -4.02 KCAL/MOL
REMARK 924 INTRA-LIGAND FREE ENERGY PREDICTED BY IDOCK:   -0.12 KCAL/MOL
REMARK 927      BINDING AFFINITY PREDICTED BY RF-SCORE:    0.00 PKD
ROOT
HETATM    1  N   UNL     1      -8.315  12.757  68.856  1.00  0.00    -0.339 NA 
HETATM    2  C   UNL     1      -9.297  11.951  68.117  1.00  0.00    -0.191 C  
HETATM    3  H1  UNL     1      -7.387  12.332  68.844  1.00  0.00     0.000 HD 
HETATM    4  H2  UNL     1      -8.626  12.938  69.810  1.00  0.00     0.000 HD 
ENDROOT
BRANCH   2   5
HETATM    5  C   UNL     1     -10.702  12.593  68.137  1.00  0.00    -0.225 C  
HETATM    6  H   UNL     1     -11.436  14.415  68.188  1.00  0.00     0.000 HD 
HETATM    7  O   UNL     1     -10.571  14.020  68.176  1.00  0.00    -0.238 OA 
BRANCH   5   8
HETATM    8  C   UNL     1     -11.516  12.103  69.321  1.00  0.00    -0.363 A  
HETATM    9  C   UNL     1     -11.807  10.739  69.505  1.00  0.00    -0.380 A  
HETATM   10  C   UNL     1     -12.592  10.343  70.584  1.00  0.00    -0.348 A  
HETATM   11  O   UNL     1     -12.895   9.028  70.813  1.00  0.00    -0.500 OA 
HETATM   12  C   UNL     1     -13.105  11.287  71.471  1.00  0.00    -0.355 A  
HETATM   13  H   UNL     1     -13.431   8.758  71.549  1.00  0.00     0.000 HD 
HETATM   14  C   UNL     1     -12.832  12.635  71.302  1.00  0.00    -0.344 A  
HETATM   15  O   UNL     1     -13.890  10.889  72.514  1.00  0.00    -0.350 OA 
HETATM   16  H   UNL     1     -14.240  11.533  73.119  1.00  0.00     0.000 HD 
HETATM   17  C   UNL     1     -12.037  13.042  70.231  1.00  0.00    -0.388 A  
ENDBRANCH   5   8
ENDBRANCH   2   5
TORSDOF 2
ENDMDL
MODEL      104
REMARK 921   NORMALIZED FREE ENERGY PREDICTED BY IDOCK:   -3.64 KCAL/MOL
REMARK 922        TOTAL FREE ENERGY PREDICTED BY IDOCK:   -4.14 KCAL/MOL
REMARK 923 INTER-LIGAND FREE ENERGY PREDICTED BY IDOCK:   -4.00 KCAL/MOL
REMARK 924 INTRA-LIGAND FREE ENERGY PREDICTED BY IDOCK:   -0.14 KCAL/MOL
REMARK 927      BINDING AFFINITY PREDICTED BY RF-SCORE:    0.00 PKD
ROOT
HETATM    1  N   UNL     1     -12.778   7.032  70.600  1.00  0.00    -0.575 NA 
HETATM    2  C   UNL     1     -11.795   7.266  71.668  1.00  0.00    -0.298 C  
HETATM    3  H1  UNL     1     -12.829   6.048  70.337  1.00  0.00     0.000 HD 
HETATM    4  H2  UNL     1     -12.592   7.623  69.789  1.00  0.00     0.000 HD 
ENDROOT
BRANCH   2   5
HETATM    5  C   UNL     1     -11.718   8.757  72.065  1.00  0.00    -0.372 C  
HETATM    6  H   UNL     1     -12.979  10.139  72.668  1.00  0.00     0.000 HD 
HETATM    7  O   UNL     1     -13.026   9.221  72.423  1.00  0.00    -0.403 OA 
BRANCH   5   8
HETATM    8  C   UNL     1     -11.148   9.599  70.938  1.00  0.00    -0.422 A  
HETATM    9  C   UNL     1     -11.851  10.694  70.403  1.00  0.00    -0.441 A  
HETATM   10  C   UNL     1     -11.305  11.410  69.341  1.00  0.00    -0.297 A  
HETATM   11  O   UNL     1     -11.945  12.488  68.792  1.00  0.00    -0.310 OA 
HETATM   12  C   UNL     1     -10.078  11.041  68.796  1.00  0.00    -0.203 A  
HETATM   13  H   UNL     1     -11.572  12.977  68.067  1.00  0.00     0.000 HD 
HETATM   14  C   UNL     1      -9.373   9.963  69.307  1.00  0.00    -0.215 A  
HETATM   15  O   UNL     1      -9.561  11.738  67.742  1.00  0.00    -0.175 OA 
HETATM   16  H   UNL     1      -8.724  11.486  67.370  1.00  0.00     0.000 HD 
HETATM   17  C   UNL     1      -9.906   9.245  70.379  1.00  0.00    -0.290 A  
ENDBRANCH   5   8
ENDBRANCH   2   5
TORSDOF 2
ENDMDL
MODEL      105
REMARK 921   NORMALIZED FREE ENERGY PREDICTED BY IDOCK:   -3.61 KCAL/MOL
REMARK 922        TOTAL FREE ENERGY PREDICTED BY IDOCK:   -4.11 KCAL/MOL
REMARK 923 INTER-LIGAND FREE ENERGY PREDICTED BY IDOCK:   -4.03 KCAL/MOL
REMARK 924 INTRA-LIGAND FREE ENERGY PREDICTED BY IDOCK:   -0.08 KCAL/MOL
REMARK 927      BINDING AFFINITY PREDICTED BY RF-SCORE:    0.00 PKD
ROOT
HETATM    1  N   UNL     1     -10.811   5.789  66.109  1.00  0.00    -0.657 NA 
HETATM    2  C   UNL     1     -10.634   6.934  67.015  1.00  0.00    -0.333 C  
HETATM    3  H1  UNL     1     -11.586   5.192  66.397  1.00  0.00     0.000 HD 
HETATM    4  H2  UNL     1      -9.947   5.255  66.013  1.00  0.00     0.000 HD 
ENDROOT
BRANCH   2   5
HETATM    5  C   UNL     1      -9.460   7.838  66.579  1.00  0.00    -0.201 C  
HETATM    6  H   UNL     1      -7.739   8.406  67.338  1.00  0.00     0.000 HD 
HETATM    7  O   UNL     1      -8.462   7.850  67.607  1.00  0.00    -0.126 OA 
BRANCH   5   8
HETATM    8  C   UNL     1      -9.932   9.250  66.282  1.00  0.00    -0.357 A  
HETATM    9  C   UNL     1      -9.553   9.926  65.108  1.00  0.00    -0.367 A  
HETATM   10  C   UNL     1      -9.978  11.235  64.900  1.00  0.00    -0.274 A  
HETATM   11  O   UNL     1      -9.644  11.933  63.771  1.00  0.00    -0.495 OA 
HETATM   12  C   UNL     1     -10.760  11.885  65.853  1.00  0.00    -0.284 A  
HETATM   13  H   UNL     1      -9.934  12.826  63.629  1.00  0.00     0.000 HD 
HETATM   14  C   UNL     1     -11.139  11.236  67.017  1.00  0.00    -0.356 A  
HETATM   15  O   UNL     1     -11.154  13.176  65.648  1.00  0.00    -0.275 OA 
HETATM   16  H   UNL     1     -11.688  13.618  66.297  1.00  0.00     0.000 HD 
HETATM   17  C   UNL     1     -10.728   9.919  67.229  1.00  0.00    -0.304 A  
ENDBRANCH   5   8
ENDBRANCH   2   5
TORSDOF 2
ENDMDL
MODEL      106
REMARK 921   NORMALIZED FREE ENERGY PREDICTED BY IDOCK:   -3.60 KCAL/MOL
REMARK 922        TOTAL FREE ENERGY PREDICTED BY IDOCK:   -4.10 KCAL/MOL
REMARK 923 INTER-LIGAND FREE ENERGY PREDICTED BY IDOCK:   -4.19 KCAL/MOL
REMARK 924 INTRA-LIGAND FREE ENERGY PREDICTED BY IDOCK:    0.09 KCAL/MOL
REMARK 927      BINDING AFFINITY PREDICTED BY RF-SCORE:    0.00 PKD
ROOT
HETATM    1  N   UNL     1     -12.781  15.365  69.686  1.00  0.00    -0.610 NA 
HETATM    2  C   UNL     1     -11.345  15.103  69.866  1.00  0.00    -0.284 C  
HETATM    3  H1  UNL     1     -13.219  15.693  70.547  1.00  0.00     0.000 HD 
HETATM    4  H2  UNL     1     -13.263  14.547  69.313  1.00  0.00     0.000 HD 
ENDROOT
BRANCH   2   5
HETATM    5  C   UNL     1     -10.682  14.606  68.562  1.00  0.00    -0.247 C  
HETATM    6  H   UNL     1     -10.853  14.983  66.642  1.00  0.00     0.000 HD 
HETATM    7  O   UNL     1     -11.261  15.289  67.444  1.00  0.00    -0.327 OA 
BRANCH   5   8
HETATM    8  C   UNL     1     -10.836  13.104  68.404  1.00  0.00    -0.283 A  
HETATM    9  C   UNL     1     -11.673  12.353  69.249  1.00  0.00    -0.386 A  
HETATM   10  C   UNL     1     -11.749  10.972  69.091  1.00  0.00    -0.333 A  
HETATM   11  O   UNL     1     -12.555  10.197  69.880  1.00  0.00    -0.532 OA 
HETATM   12  C   UNL     1     -10.991  10.328  68.115  1.00  0.00    -0.274 A  
HETATM   13  H   UNL     1     -12.608   9.255  69.772  1.00  0.00     0.000 HD 
HETATM   14  C   UNL     1     -10.158  11.051  67.278  1.00  0.00    -0.222 A  
HETATM   15  O   UNL     1     -11.058   8.971  67.982  1.00  0.00    -0.489 OA 
HETATM   16  H   UNL     1     -10.542   8.532  67.317  1.00  0.00     0.000 HD 
HETATM   17  C   UNL     1     -10.083  12.438  67.420  1.00  0.00    -0.205 A  
ENDBRANCH   5   8
ENDBRANCH   2   5
TORSDOF 2
ENDMDL
MODEL      107
REMARK 921   NORMALIZED FREE ENERGY PREDICTED BY IDOCK:   -3.60 KCAL/MOL
REMARK 922        TOTAL FREE ENERGY PREDICTED BY IDOCK:   -4.10 KCAL/MOL
REMARK 923 INTER-LIGAND FREE ENERGY PREDICTED BY IDOCK:   -4.02 KCAL/MOL
REMARK 924 INTRA-LIGAND FREE ENERGY PREDICTED BY IDOCK:   -0.08 KCAL/MOL
REMARK 927      BINDING AFFINITY PREDICTED BY RF-SCORE:    0.00 PKD
ROOT
HETATM    1  N   UNL     1     -10.537  13.601  67.354  1.00  0.00    -0.258 NA 
HETATM    2  C   UNL     1      -9.858  14.389  66.314  1.00  0.00    -0.304 C  
HETATM    3  H1  UNL     1     -10.022  12.752  67.585  1.00  0.00     0.000 HD 
HETATM    4  H2  UNL     1     -11.499  13.390  67.090  1.00  0.00     0.000 HD 
ENDROOT
BRANCH   2   5
HETATM    5  C   UNL     1     -10.640  15.675  65.963  1.00  0.00    -0.328 C  
HETATM    6  H   UNL     1     -11.264  16.561  64.324  1.00  0.00     0.000 HD 
HETATM    7  O   UNL     1     -10.782  15.771  64.540  1.00  0.00    -0.449 OA 
BRANCH   5   8
HETATM    8  C   UNL     1      -9.946  16.909  66.510  1.00  0.00    -0.309 A  
HETATM    9  C   UNL     1     -10.163  18.185  65.961  1.00  0.00    -0.325 A  
HETATM   10  C   UNL     1      -9.472  19.280  66.470  1.00  0.00    -0.357 A  
HETATM   11  O   UNL     1      -9.654  20.544  65.977  1.00  0.00    -0.654 OA 
HETATM   12  C   UNL     1      -8.555  19.119  67.507  1.00  0.00    -0.288 A  
HETATM   13  H   UNL     1      -9.182  21.292  66.325  1.00  0.00     0.000 HD 
HETATM   14  C   UNL     1      -8.325  17.869  68.057  1.00  0.00    -0.258 A  
HETATM   15  O   UNL     1      -7.868  20.197  67.985  1.00  0.00    -0.281 OA 
HETATM   16  H   UNL     1      -7.244  20.087  68.692  1.00  0.00     0.000 HD 
HETATM   17  C   UNL     1      -9.022  16.765  67.562  1.00  0.00    -0.208 A  
ENDBRANCH   5   8
ENDBRANCH   2   5
TORSDOF 2
ENDMDL
MODEL      108
REMARK 921   NORMALIZED FREE ENERGY PREDICTED BY IDOCK:   -3.60 KCAL/MOL
REMARK 922        TOTAL FREE ENERGY PREDICTED BY IDOCK:   -4.10 KCAL/MOL
REMARK 923 INTER-LIGAND FREE ENERGY PREDICTED BY IDOCK:   -4.02 KCAL/MOL
REMARK 924 INTRA-LIGAND FREE ENERGY PREDICTED BY IDOCK:   -0.07 KCAL/MOL
REMARK 927      BINDING AFFINITY PREDICTED BY RF-SCORE:    0.00 PKD
ROOT
HETATM    1  N   UNL     1      -9.061   4.361  71.032  1.00  0.00    -0.123 NA 
HETATM    2  C   UNL     1     -10.087   5.330  71.445  1.00  0.00    -0.203 C  
HETATM    3  H1  UNL     1      -9.473   3.488  70.699  1.00  0.00     0.000 HD 
HETATM    4  H2  UNL     1      -8.388   4.191  71.779  1.00  0.00     0.000 HD 
ENDROOT
BRANCH   2   5
HETATM    5  C   UNL     1      -9.462   6.651  71.949  1.00  0.00    -0.150 C  
HETATM    6  H   UNL     1      -8.560   7.269  73.580  1.00  0.00     0.000 HD 
HETATM    7  O   UNL     1      -8.944   6.457  73.271  1.00  0.00    -0.129 OA 
BRANCH   5   8
HETATM    8  C   UNL     1     -10.476   7.779  71.937  1.00  0.00    -0.268 A  
HETATM    9  C   UNL     1     -11.678   7.703  72.665  1.00  0.00    -0.323 A  
HETATM   10  C   UNL     1     -12.596   8.746  72.590  1.00  0.00    -0.212 A  
HETATM   11  O   UNL     1     -13.774   8.724  73.286  1.00  0.00    -1.033 OA 
HETATM   12  C   UNL     1     -12.341   9.856  71.788  1.00  0.00    -0.368 A  
HETATM   13  H   UNL     1     -14.401   9.436  73.235  1.00  0.00     0.000 HD 
HETATM   14  C   UNL     1     -11.166   9.947  71.060  1.00  0.00    -0.435 A  
HETATM   15  O   UNL     1     -13.258  10.865  71.706  1.00  0.00    -0.444 OA 
HETATM   16  H   UNL     1     -13.084  11.621  71.159  1.00  0.00     0.000 HD 
HETATM   17  C   UNL     1     -10.233   8.911  71.138  1.00  0.00    -0.336 A  
ENDBRANCH   5   8
ENDBRANCH   2   5
TORSDOF 2
ENDMDL
MODEL      109
REMARK 921   NORMALIZED FREE ENERGY PREDICTED BY IDOCK:   -3.60 KCAL/MOL
REMARK 922        TOTAL FREE ENERGY PREDICTED BY IDOCK:   -4.09 KCAL/MOL
REMARK 923 INTER-LIGAND FREE ENERGY PREDICTED BY IDOCK:   -3.96 KCAL/MOL
REMARK 924 INTRA-LIGAND FREE ENERGY PREDICTED BY IDOCK:   -0.13 KCAL/MOL
REMARK 927      BINDING AFFINITY PREDICTED BY RF-SCORE:    0.00 PKD
ROOT
HETATM    1  N   UNL     1     -12.496  10.459  69.551  1.00  0.00    -0.637 NA 
HETATM    2  C   UNL     1     -12.869  10.473  70.973  1.00  0.00    -0.407 C  
HETATM    3  H1  UNL     1     -12.211  11.382  69.222  1.00  0.00     0.000 HD 
HETATM    4  H2  UNL     1     -13.245  10.076  68.974  1.00  0.00     0.000 HD 
ENDROOT
BRANCH   2   5
HETATM    5  C   UNL     1     -13.301   9.075  71.469  1.00  0.00    -0.339 C  
HETATM    6  H   UNL     1     -14.175   8.337  73.067  1.00  0.00     0.000 HD 
HETATM    7  O   UNL     1     -13.909   9.197  72.762  1.00  0.00    -0.430 OA 
BRANCH   5   8
HETATM    8  C   UNL     1     -12.121   8.122  71.526  1.00  0.00    -0.332 A  
HETATM    9  C   UNL     1     -10.974   8.409  72.287  1.00  0.00    -0.431 A  
HETATM   10  C   UNL     1      -9.900   7.523  72.275  1.00  0.00    -0.169 A  
HETATM   11  O   UNL     1      -8.766   7.752  73.005  1.00  0.00    -0.148 OA 
HETATM   12  C   UNL     1      -9.948   6.364  71.503  1.00  0.00    -0.180 A  
HETATM   13  H   UNL     1      -8.033   7.147  72.997  1.00  0.00     0.000 HD 
HETATM   14  C   UNL     1     -11.068   6.068  70.744  1.00  0.00    -0.355 A  
HETATM   15  O   UNL     1      -8.882   5.512  71.482  1.00  0.00    -0.134 OA 
HETATM   16  H   UNL     1      -8.914   4.722  70.956  1.00  0.00     0.000 HD 
HETATM   17  C   UNL     1     -12.155   6.944  70.758  1.00  0.00    -0.400 A  
ENDBRANCH   5   8
ENDBRANCH   2   5
TORSDOF 2
ENDMDL
MODEL      110
REMARK 921   NORMALIZED FREE ENERGY PREDICTED BY IDOCK:   -3.59 KCAL/MOL
REMARK 922        TOTAL FREE ENERGY PREDICTED BY IDOCK:   -4.09 KCAL/MOL
REMARK 923 INTER-LIGAND FREE ENERGY PREDICTED BY IDOCK:   -3.98 KCAL/MOL
REMARK 924 INTRA-LIGAND FREE ENERGY PREDICTED BY IDOCK:   -0.11 KCAL/MOL
REMARK 927      BINDING AFFINITY PREDICTED BY RF-SCORE:    0.00 PKD
ROOT
HETATM    1  N   UNL     1     -10.641  11.249  69.417  1.00  0.00    -0.413 NA 
HETATM    2  C   UNL     1     -10.446  11.485  67.979  1.00  0.00    -0.189 C  
HETATM    3  H1  UNL     1     -10.063  10.480  69.758  1.00  0.00     0.000 HD 
HETATM    4  H2  UNL     1     -11.625  11.099  69.638  1.00  0.00     0.000 HD 
ENDROOT
BRANCH   2   5
HETATM    5  C   UNL     1     -11.321  12.650  67.462  1.00  0.00    -0.308 C  
HETATM    6  H   UNL     1     -12.676  12.902  66.062  1.00  0.00     0.000 HD 
HETATM    7  O   UNL     1     -12.137  12.186  66.379  1.00  0.00    -0.630 OA 
BRANCH   5   8
HETATM    8  C   UNL     1     -10.469  13.825  67.018  1.00  0.00    -0.274 A  
HETATM    9  C   UNL     1      -9.167  14.024  67.512  1.00  0.00    -0.197 A  
HETATM   10  C   UNL     1      -8.440  15.139  67.107  1.00  0.00    -0.212 A  
HETATM   11  O   UNL     1      -7.167  15.373  67.551  1.00  0.00    -0.161 OA 
HETATM   12  C   UNL     1      -8.998  16.067  66.230  1.00  0.00    -0.345 A  
HETATM   13  H   UNL     1      -6.670  16.134  67.274  1.00  0.00     0.000 HD 
HETATM   14  C   UNL     1     -10.280  15.890  65.737  1.00  0.00    -0.389 A  
HETATM   15  O   UNL     1      -8.283  17.168  65.855  1.00  0.00    -0.526 OA 
HETATM   16  H   UNL     1      -8.664  17.800  65.257  1.00  0.00     0.000 HD 
HETATM   17  C   UNL     1     -11.014  14.769  66.128  1.00  0.00    -0.332 A  
ENDBRANCH   5   8
ENDBRANCH   2   5
TORSDOF 2
ENDMDL
MODEL      111
REMARK 921   NORMALIZED FREE ENERGY PREDICTED BY IDOCK:   -3.57 KCAL/MOL
REMARK 922        TOTAL FREE ENERGY PREDICTED BY IDOCK:   -4.07 KCAL/MOL
REMARK 923 INTER-LIGAND FREE ENERGY PREDICTED BY IDOCK:   -4.20 KCAL/MOL
REMARK 924 INTRA-LIGAND FREE ENERGY PREDICTED BY IDOCK:    0.13 KCAL/MOL
REMARK 927      BINDING AFFINITY PREDICTED BY RF-SCORE:    0.00 PKD
ROOT
HETATM    1  N   UNL     1      -8.946  13.802  66.522  1.00  0.00    -0.453 NA 
HETATM    2  C   UNL     1     -10.014  13.179  65.727  1.00  0.00    -0.252 C  
HETATM    3  H1  UNL     1      -8.075  13.273  66.473  1.00  0.00     0.000 HD 
HETATM    4  H2  UNL     1      -9.238  13.944  67.489  1.00  0.00     0.000 HD 
ENDROOT
BRANCH   2   5
HETATM    5  C   UNL     1     -11.332  13.982  65.803  1.00  0.00    -0.312 C  
HETATM    6  H   UNL     1     -12.161  15.460  64.809  1.00  0.00     0.000 HD 
HETATM    7  O   UNL     1     -11.350  14.967  64.762  1.00  0.00    -0.390 OA 
BRANCH   5   8
HETATM    8  C   UNL     1     -11.498  14.642  67.160  1.00  0.00    -0.380 A  
HETATM    9  C   UNL     1     -11.105  15.973  67.389  1.00  0.00    -0.167 A  
HETATM   10  C   UNL     1     -11.238  16.521  68.661  1.00  0.00    -0.297 A  
HETATM   11  O   UNL     1     -10.879  17.813  68.933  1.00  0.00    -0.278 OA 
HETATM   12  C   UNL     1     -11.742  15.757  69.711  1.00  0.00    -0.348 A  
HETATM   13  H   UNL     1     -10.970  18.187  69.802  1.00  0.00     0.000 HD 
HETATM   14  C   UNL     1     -12.131  14.443  69.506  1.00  0.00    -0.366 A  
HETATM   15  O   UNL     1     -11.851  16.298  70.960  1.00  0.00    -0.568 OA 
HETATM   16  H   UNL     1     -12.194  15.778  71.676  1.00  0.00     0.000 HD 
HETATM   17  C   UNL     1     -12.012  13.887  68.231  1.00  0.00    -0.392 A  
ENDBRANCH   5   8
ENDBRANCH   2   5
TORSDOF 2
ENDMDL
MODEL      112
REMARK 921   NORMALIZED FREE ENERGY PREDICTED BY IDOCK:   -3.56 KCAL/MOL
REMARK 922        TOTAL FREE ENERGY PREDICTED BY IDOCK:   -4.05 KCAL/MOL
REMARK 923 INTER-LIGAND FREE ENERGY PREDICTED BY IDOCK:   -3.96 KCAL/MOL
REMARK 924 INTRA-LIGAND FREE ENERGY PREDICTED BY IDOCK:   -0.10 KCAL/MOL
REMARK 927      BINDING AFFINITY PREDICTED BY RF-SCORE:    0.00 PKD
ROOT
HETATM    1  N   UNL     1     -11.416  10.958  70.575  1.00  0.00    -0.433 NA 
HETATM    2  C   UNL     1     -12.123  11.814  69.610  1.00  0.00    -0.258 C  
HETATM    3  H1  UNL     1     -11.661  11.187  71.538  1.00  0.00     0.000 HD 
HETATM    4  H2  UNL     1     -10.407  10.991  70.431  1.00  0.00     0.000 HD 
ENDROOT
BRANCH   2   5
HETATM    5  C   UNL     1     -11.751  11.467  68.151  1.00  0.00    -0.284 C  
HETATM    6  H   UNL     1     -10.388  10.378  67.248  1.00  0.00     0.000 HD 
HETATM    7  O   UNL     1     -10.616  10.592  68.145  1.00  0.00    -0.177 OA 
BRANCH   5   8
HETATM    8  C   UNL     1     -11.460  12.718  67.343  1.00  0.00    -0.396 A  
HETATM    9  C   UNL     1     -10.821  13.834  67.913  1.00  0.00    -0.257 A  
HETATM   10  C   UNL     1     -10.613  14.975  67.143  1.00  0.00    -0.295 A  
HETATM   11  O   UNL     1      -9.987  16.083  67.647  1.00  0.00    -0.234 OA 
HETATM   12  C   UNL     1     -11.047  15.025  65.820  1.00  0.00    -0.346 A  
HETATM   13  H   UNL     1      -9.845  16.862  67.121  1.00  0.00     0.000 HD 
HETATM   14  C   UNL     1     -11.683  13.937  65.244  1.00  0.00    -0.347 A  
HETATM   15  O   UNL     1     -10.856  16.156  65.081  1.00  0.00    -0.435 OA 
HETATM   16  H   UNL     1     -11.152  16.191  64.179  1.00  0.00     0.000 HD 
HETATM   17  C   UNL     1     -11.886  12.784  66.004  1.00  0.00    -0.495 A  
ENDBRANCH   5   8
ENDBRANCH   2   5
TORSDOF 2
ENDMDL
MODEL      113
REMARK 921   NORMALIZED FREE ENERGY PREDICTED BY IDOCK:   -3.55 KCAL/MOL
REMARK 922        TOTAL FREE ENERGY PREDICTED BY IDOCK:   -4.05 KCAL/MOL
REMARK 923 INTER-LIGAND FREE ENERGY PREDICTED BY IDOCK:   -3.94 KCAL/MOL
REMARK 924 INTRA-LIGAND FREE ENERGY PREDICTED BY IDOCK:   -0.11 KCAL/MOL
REMARK 927      BINDING AFFINITY PREDICTED BY RF-SCORE:    0.00 PKD
ROOT
HETATM    1  N   UNL     1     -11.001  15.017  66.432  1.00  0.00    -0.334 NA 
HETATM    2  C   UNL     1     -11.923  13.925  66.780  1.00  0.00    -0.438 C  
HETATM    3  H1  UNL     1     -10.939  15.156  65.423  1.00  0.00     0.000 HD 
HETATM    4  H2  UNL     1     -10.079  14.869  66.843  1.00  0.00     0.000 HD 
ENDROOT
BRANCH   2   5
HETATM    5  C   UNL     1     -12.016  13.714  68.308  1.00  0.00    -0.350 C  
HETATM    6  H   UNL     1     -11.191  14.500  69.908  1.00  0.00     0.000 HD 
HETATM    7  O   UNL     1     -11.133  14.630  68.968  1.00  0.00    -0.237 OA 
BRANCH   5   8
HETATM    8  C   UNL     1     -11.678  12.284  68.688  1.00  0.00    -0.377 A  
HETATM    9  C   UNL     1     -11.398  11.306  67.716  1.00  0.00    -0.354 A  
HETATM   10  C   UNL     1     -11.134   9.998  68.113  1.00  0.00    -0.193 A  
HETATM   11  O   UNL     1     -10.848   9.012  67.208  1.00  0.00    -0.388 OA 
HETATM   12  C   UNL     1     -11.161   9.648  69.461  1.00  0.00    -0.168 A  
HETATM   13  H   UNL     1     -10.667   8.119  67.478  1.00  0.00     0.000 HD 
HETATM   14  C   UNL     1     -11.438  10.597  70.431  1.00  0.00    -0.422 A  
HETATM   15  O   UNL     1     -10.920   8.358  69.837  1.00  0.00    -0.316 OA 
HETATM   16  H   UNL     1     -10.938   8.120  70.756  1.00  0.00     0.000 HD 
HETATM   17  C   UNL     1     -11.693  11.914  70.046  1.00  0.00    -0.366 A  
ENDBRANCH   5   8
ENDBRANCH   2   5
TORSDOF 2
ENDMDL
MODEL      114
REMARK 921   NORMALIZED FREE ENERGY PREDICTED BY IDOCK:   -3.54 KCAL/MOL
REMARK 922        TOTAL FREE ENERGY PREDICTED BY IDOCK:   -4.04 KCAL/MOL
REMARK 923 INTER-LIGAND FREE ENERGY PREDICTED BY IDOCK:   -3.94 KCAL/MOL
REMARK 924 INTRA-LIGAND FREE ENERGY PREDICTED BY IDOCK:   -0.09 KCAL/MOL
REMARK 927      BINDING AFFINITY PREDICTED BY RF-SCORE:    0.00 PKD
ROOT
HETATM    1  N   UNL     1      -7.897   6.054  74.465  1.00  0.00    -0.096 NA 
HETATM    2  C   UNL     1      -9.081   6.727  73.911  1.00  0.00    -0.170 C  
HETATM    3  H1  UNL     1      -8.146   5.382  75.192  1.00  0.00     0.000 HD 
HETATM    4  H2  UNL     1      -7.211   6.728  74.804  1.00  0.00     0.000 HD 
ENDROOT
BRANCH   2   5
HETATM    5  C   UNL     1      -8.703   7.744  72.811  1.00  0.00    -0.156 C  
HETATM    6  H   UNL     1      -7.641   9.394  72.699  1.00  0.00     0.000 HD 
HETATM    7  O   UNL     1      -7.874   8.768  73.375  1.00  0.00    -0.406 OA 
BRANCH   5   8
HETATM    8  C   UNL     1      -9.939   8.354  72.175  1.00  0.00    -0.376 A  
HETATM    9  C   UNL     1      -9.853   9.425  71.267  1.00  0.00    -0.245 A  
HETATM   10  C   UNL     1     -11.018   9.977  70.743  1.00  0.00    -0.305 A  
HETATM   11  O   UNL     1     -10.988  11.013  69.849  1.00  0.00    -0.399 OA 
HETATM   12  C   UNL     1     -12.266   9.490  71.123  1.00  0.00    -0.338 A  
HETATM   13  H   UNL     1     -11.783  11.391  69.491  1.00  0.00     0.000 HD 
HETATM   14  C   UNL     1     -12.370   8.439  72.020  1.00  0.00    -0.413 A  
HETATM   15  O   UNL     1     -13.403  10.052  70.618  1.00  0.00    -0.602 OA 
HETATM   16  H   UNL     1     -14.254   9.720  70.877  1.00  0.00     0.000 HD 
HETATM   17  C   UNL     1     -11.208   7.870  72.543  1.00  0.00    -0.436 A  
ENDBRANCH   5   8
ENDBRANCH   2   5
TORSDOF 2
ENDMDL
MODEL      115
REMARK 921   NORMALIZED FREE ENERGY PREDICTED BY IDOCK:   -3.54 KCAL/MOL
REMARK 922        TOTAL FREE ENERGY PREDICTED BY IDOCK:   -4.04 KCAL/MOL
REMARK 923 INTER-LIGAND FREE ENERGY PREDICTED BY IDOCK:   -3.99 KCAL/MOL
REMARK 924 INTRA-LIGAND FREE ENERGY PREDICTED BY IDOCK:   -0.05 KCAL/MOL
REMARK 927      BINDING AFFINITY PREDICTED BY RF-SCORE:    0.00 PKD
ROOT
HETATM    1  N   UNL     1     -12.471  10.594  69.073  1.00  0.00    -0.740 NA 
HETATM    2  C   UNL     1     -11.195  10.847  68.388  1.00  0.00    -0.285 C  
HETATM    3  H1  UNL     1     -12.346  10.030  69.914  1.00  0.00     0.000 HD 
HETATM    4  H2  UNL     1     -13.153  10.172  68.443  1.00  0.00     0.000 HD 
ENDROOT
BRANCH   2   5
HETATM    5  C   UNL     1     -11.385  11.700  67.113  1.00  0.00    -0.306 C  
HETATM    6  H   UNL     1     -10.612  11.757  65.308  1.00  0.00     0.000 HD 
HETATM    7  O   UNL     1     -10.495  11.233  66.092  1.00  0.00    -0.241 OA 
BRANCH   5   8
HETATM    8  C   UNL     1     -11.143  13.172  67.394  1.00  0.00    -0.301 A  
HETATM    9  C   UNL     1     -10.932  13.652  68.699  1.00  0.00    -0.290 A  
HETATM   10  C   UNL     1     -10.756  15.016  68.911  1.00  0.00    -0.240 A  
HETATM   11  O   UNL     1     -10.537  15.532  70.160  1.00  0.00    -0.299 OA 
HETATM   12  C   UNL     1     -10.805  15.910  67.843  1.00  0.00    -0.327 A  
HETATM   13  H   UNL     1     -10.417  16.463  70.304  1.00  0.00     0.000 HD 
HETATM   14  C   UNL     1     -11.017  15.456  66.552  1.00  0.00    -0.271 A  
HETATM   15  O   UNL     1     -10.651  17.248  68.065  1.00  0.00    -0.368 OA 
HETATM   16  H   UNL     1     -10.684  17.857  67.337  1.00  0.00     0.000 HD 
HETATM   17  C   UNL     1     -11.183  14.089  66.327  1.00  0.00    -0.320 A  
ENDBRANCH   5   8
ENDBRANCH   2   5
TORSDOF 2
ENDMDL
MODEL      116
REMARK 921   NORMALIZED FREE ENERGY PREDICTED BY IDOCK:   -3.54 KCAL/MOL
REMARK 922        TOTAL FREE ENERGY PREDICTED BY IDOCK:   -4.03 KCAL/MOL
REMARK 923 INTER-LIGAND FREE ENERGY PREDICTED BY IDOCK:   -4.01 KCAL/MOL
REMARK 924 INTRA-LIGAND FREE ENERGY PREDICTED BY IDOCK:   -0.02 KCAL/MOL
REMARK 927      BINDING AFFINITY PREDICTED BY RF-SCORE:    0.00 PKD
ROOT
HETATM    1  N   UNL     1      -5.744  19.618  65.666  1.00  0.00    -0.167 NA 
HETATM    2  C   UNL     1      -6.620  20.791  65.798  1.00  0.00    -0.172 C  
HETATM    3  H1  UNL     1      -5.267  19.598  64.764  1.00  0.00     0.000 HD 
HETATM    4  H2  UNL     1      -6.256  18.751  65.833  1.00  0.00     0.000 HD 
ENDROOT
BRANCH   2   5
HETATM    5  C   UNL     1      -7.343  20.819  67.164  1.00  0.00    -0.329 C  
HETATM    6  H   UNL     1      -6.816  20.812  69.056  1.00  0.00     0.000 HD 
HETATM    7  O   UNL     1      -6.371  20.794  68.217  1.00  0.00    -0.313 OA 
BRANCH   5   8
HETATM    8  C   UNL     1      -8.305  19.653  67.303  1.00  0.00    -0.337 A  
HETATM    9  C   UNL     1      -9.033  19.160  66.205  1.00  0.00    -0.320 A  
HETATM   10  C   UNL     1      -9.934  18.115  66.391  1.00  0.00    -0.376 A  
HETATM   11  O   UNL     1     -10.660  17.593  65.355  1.00  0.00    -0.657 OA 
HETATM   12  C   UNL     1     -10.132  17.568  67.657  1.00  0.00    -0.328 A  
HETATM   13  H   UNL     1     -11.275  16.880  65.482  1.00  0.00     0.000 HD 
HETATM   14  C   UNL     1      -9.427  18.045  68.750  1.00  0.00    -0.279 A  
HETATM   15  O   UNL     1     -11.033  16.558  67.831  1.00  0.00    -0.343 OA 
HETATM   16  H   UNL     1     -11.168  16.184  68.694  1.00  0.00     0.000 HD 
HETATM   17  C   UNL     1      -8.512  19.084  68.573  1.00  0.00    -0.387 A  
ENDBRANCH   5   8
ENDBRANCH   2   5
TORSDOF 2
ENDMDL
MODEL      117
REMARK 921   NORMALIZED FREE ENERGY PREDICTED BY IDOCK:   -3.51 KCAL/MOL
REMARK 922        TOTAL FREE ENERGY PREDICTED BY IDOCK:   -3.99 KCAL/MOL
REMARK 923 INTER-LIGAND FREE ENERGY PREDICTED BY IDOCK:   -3.87 KCAL/MOL
REMARK 924 INTRA-LIGAND FREE ENERGY PREDICTED BY IDOCK:   -0.12 KCAL/MOL
REMARK 927      BINDING AFFINITY PREDICTED BY RF-SCORE:    0.00 PKD
ROOT
HETATM    1  N   UNL     1     -11.195  13.427  69.065  1.00  0.00    -0.268 NA 
HETATM    2  C   UNL     1      -9.945  13.863  68.427  1.00  0.00    -0.233 C  
HETATM    3  H1  UNL     1     -11.068  13.233  70.058  1.00  0.00     0.000 HD 
HETATM    4  H2  UNL     1     -11.599  12.626  68.580  1.00  0.00     0.000 HD 
ENDROOT
BRANCH   2   5
HETATM    5  C   UNL     1     -10.137  14.157  66.921  1.00  0.00    -0.258 C  
HETATM    6  H   UNL     1     -11.590  14.810  65.771  1.00  0.00     0.000 HD 
HETATM    7  O   UNL     1     -11.472  14.629  66.697  1.00  0.00    -0.351 OA 
BRANCH   5   8
HETATM    8  C   UNL     1      -9.864  12.924  66.080  1.00  0.00    -0.270 A  
HETATM    9  C   UNL     1     -10.584  12.657  64.901  1.00  0.00    -0.332 A  
HETATM   10  C   UNL     1     -10.325  11.492  64.186  1.00  0.00    -0.334 A  
HETATM   11  O   UNL     1     -10.991  11.191  63.029  1.00  0.00    -0.820 OA 
HETATM   12  C   UNL     1      -9.372  10.581  64.637  1.00  0.00    -0.248 A  
HETATM   13  H   UNL     1     -10.814  10.395  62.540  1.00  0.00     0.000 HD 
HETATM   14  C   UNL     1      -8.656  10.825  65.797  1.00  0.00    -0.187 A  
HETATM   15  O   UNL     1      -9.140   9.432  63.938  1.00  0.00    -0.398 OA 
HETATM   16  H   UNL     1      -8.490   8.811  64.245  1.00  0.00     0.000 HD 
HETATM   17  C   UNL     1      -8.899  11.997  66.516  1.00  0.00    -0.172 A  
ENDBRANCH   5   8
ENDBRANCH   2   5
TORSDOF 2
ENDMDL
MODEL      118
REMARK 921   NORMALIZED FREE ENERGY PREDICTED BY IDOCK:   -3.47 KCAL/MOL
REMARK 922        TOTAL FREE ENERGY PREDICTED BY IDOCK:   -3.95 KCAL/MOL
REMARK 923 INTER-LIGAND FREE ENERGY PREDICTED BY IDOCK:   -3.81 KCAL/MOL
REMARK 924 INTRA-LIGAND FREE ENERGY PREDICTED BY IDOCK:   -0.14 KCAL/MOL
REMARK 927      BINDING AFFINITY PREDICTED BY RF-SCORE:    0.00 PKD
ROOT
HETATM    1  N   UNL     1     -10.413  15.404  71.045  1.00  0.00    -0.285 NA 
HETATM    2  C   UNL     1     -11.790  15.725  70.643  1.00  0.00    -0.385 C  
HETATM    3  H1  UNL     1      -9.850  16.243  71.183  1.00  0.00     0.000 HD 
HETATM    4  H2  UNL     1      -9.972  14.767  70.381  1.00  0.00     0.000 HD 
ENDROOT
BRANCH   2   5
HETATM    5  C   UNL     1     -12.642  14.453  70.434  1.00  0.00    -0.345 C  
HETATM    6  H   UNL     1     -13.059  12.832  71.464  1.00  0.00     0.000 HD 
HETATM    7  O   UNL     1     -12.535  13.615  71.592  1.00  0.00    -0.283 OA 
BRANCH   5   8
HETATM    8  C   UNL     1     -12.208  13.697  69.192  1.00  0.00    -0.265 A  
HETATM    9  C   UNL     1     -11.849  12.338  69.240  1.00  0.00    -0.363 A  
HETATM   10  C   UNL     1     -11.418  11.698  68.081  1.00  0.00    -0.313 A  
HETATM   11  O   UNL     1     -11.068  10.376  68.072  1.00  0.00    -0.280 OA 
HETATM   12  C   UNL     1     -11.324  12.399  66.880  1.00  0.00    -0.333 A  
HETATM   13  H   UNL     1     -10.773   9.939  67.281  1.00  0.00     0.000 HD 
HETATM   14  C   UNL     1     -11.668  13.739  66.815  1.00  0.00    -0.420 A  
HETATM   15  O   UNL     1     -10.881  11.767  65.754  1.00  0.00    -0.276 OA 
HETATM   16  H   UNL     1     -10.816  12.244  64.935  1.00  0.00     0.000 HD 
HETATM   17  C   UNL     1     -12.113  14.386  67.969  1.00  0.00    -0.266 A  
ENDBRANCH   5   8
ENDBRANCH   2   5
TORSDOF 2
ENDMDL
MODEL      119
REMARK 921   NORMALIZED FREE ENERGY PREDICTED BY IDOCK:   -3.46 KCAL/MOL
REMARK 922        TOTAL FREE ENERGY PREDICTED BY IDOCK:   -3.94 KCAL/MOL
REMARK 923 INTER-LIGAND FREE ENERGY PREDICTED BY IDOCK:   -3.81 KCAL/MOL
REMARK 924 INTRA-LIGAND FREE ENERGY PREDICTED BY IDOCK:   -0.13 KCAL/MOL
REMARK 927      BINDING AFFINITY PREDICTED BY RF-SCORE:    0.00 PKD
ROOT
HETATM    1  N   UNL     1     -12.753   7.518  70.790  1.00  0.00    -0.564 NA 
HETATM    2  C   UNL     1     -11.546   8.019  71.464  1.00  0.00    -0.275 C  
HETATM    3  H1  UNL     1     -12.734   6.504  70.680  1.00  0.00     0.000 HD 
HETATM    4  H2  UNL     1     -12.899   7.984  69.895  1.00  0.00     0.000 HD 
ENDROOT
BRANCH   2   5
HETATM    5  C   UNL     1     -11.575   9.556  71.629  1.00  0.00    -0.381 C  
HETATM    6  H   UNL     1     -12.905  10.910  72.133  1.00  0.00     0.000 HD 
HETATM    7  O   UNL     1     -12.888   9.966  72.031  1.00  0.00    -0.402 OA 
BRANCH   5   8
HETATM    8  C   UNL     1     -11.171  10.256  70.345  1.00  0.00    -0.407 A  
HETATM    9  C   UNL     1      -9.917  10.039  69.746  1.00  0.00    -0.276 A  
HETATM   10  C   UNL     1      -9.576  10.736  68.590  1.00  0.00    -0.187 A  
HETATM   11  O   UNL     1      -8.373  10.554  67.965  1.00  0.00    -0.113 OA 
HETATM   12  C   UNL     1     -10.460  11.658  68.033  1.00  0.00    -0.194 A  
HETATM   13  H   UNL     1      -8.140  11.030  67.176  1.00  0.00     0.000 HD 
HETATM   14  C   UNL     1     -11.698  11.887  68.612  1.00  0.00    -0.380 A  
HETATM   15  O   UNL     1     -10.107  12.351  66.911  1.00  0.00    -0.216 OA 
HETATM   16  H   UNL     1     -10.710  12.978  66.531  1.00  0.00     0.000 HD 
HETATM   17  C   UNL     1     -12.054  11.185  69.764  1.00  0.00    -0.414 A  
ENDBRANCH   5   8
ENDBRANCH   2   5
TORSDOF 2
ENDMDL
MODEL      120
REMARK 921   NORMALIZED FREE ENERGY PREDICTED BY IDOCK:   -3.45 KCAL/MOL
REMARK 922        TOTAL FREE ENERGY PREDICTED BY IDOCK:   -3.93 KCAL/MOL
REMARK 923 INTER-LIGAND FREE ENERGY PREDICTED BY IDOCK:   -3.82 KCAL/MOL
REMARK 924 INTRA-LIGAND FREE ENERGY PREDICTED BY IDOCK:   -0.11 KCAL/MOL
REMARK 927      BINDING AFFINITY PREDICTED BY RF-SCORE:    0.00 PKD
ROOT
HETATM    1  N   UNL     1      -9.119  10.627  69.391  1.00  0.00    -0.393 NA 
HETATM    2  C   UNL     1      -9.766  11.293  68.251  1.00  0.00    -0.198 C  
HETATM    3  H1  UNL     1      -8.231  10.199  69.129  1.00  0.00     0.000 HD 
HETATM    4  H2  UNL     1      -9.743   9.948  69.827  1.00  0.00     0.000 HD 
ENDROOT
BRANCH   2   5
HETATM    5  C   UNL     1     -11.112  11.940  68.649  1.00  0.00    -0.246 C  
HETATM    6  H   UNL     1     -12.932  12.013  67.912  1.00  0.00     0.000 HD 
HETATM    7  O   UNL     1     -12.104  11.616  67.667  1.00  0.00    -0.615 OA 
BRANCH   5   8
HETATM    8  C   UNL     1     -10.979  13.445  68.790  1.00  0.00    -0.290 A  
HETATM    9  C   UNL     1      -9.871  14.142  68.275  1.00  0.00    -0.235 A  
HETATM   10  C   UNL     1      -9.773  15.518  68.466  1.00  0.00    -0.203 A  
HETATM   11  O   UNL     1      -8.720  16.242  67.978  1.00  0.00    -0.174 OA 
HETATM   12  C   UNL     1     -10.755  16.205  69.177  1.00  0.00    -0.292 A  
HETATM   13  H   UNL     1      -8.654  17.181  68.108  1.00  0.00     0.000 HD 
HETATM   14  C   UNL     1     -11.851  15.534  69.695  1.00  0.00    -0.384 A  
HETATM   15  O   UNL     1     -10.639  17.550  69.375  1.00  0.00    -0.404 OA 
HETATM   16  H   UNL     1     -11.309  18.019  69.859  1.00  0.00     0.000 HD 
HETATM   17  C   UNL     1     -11.965  14.157  69.499  1.00  0.00    -0.389 A  
ENDBRANCH   5   8
ENDBRANCH   2   5
TORSDOF 2
ENDMDL
MODEL      121
REMARK 921   NORMALIZED FREE ENERGY PREDICTED BY IDOCK:   -3.44 KCAL/MOL
REMARK 922        TOTAL FREE ENERGY PREDICTED BY IDOCK:   -3.92 KCAL/MOL
REMARK 923 INTER-LIGAND FREE ENERGY PREDICTED BY IDOCK:   -3.82 KCAL/MOL
REMARK 924 INTRA-LIGAND FREE ENERGY PREDICTED BY IDOCK:   -0.10 KCAL/MOL
REMARK 927      BINDING AFFINITY PREDICTED BY RF-SCORE:    0.00 PKD
ROOT
HETATM    1  N   UNL     1      -9.300   6.479  65.828  1.00  0.00    -0.381 NA 
HETATM    2  C   UNL     1      -9.899   5.670  66.900  1.00  0.00    -0.159 C  
HETATM    3  H1  UNL     1      -8.587   5.962  65.314  1.00  0.00     0.000 HD 
HETATM    4  H2  UNL     1      -8.932   7.359  66.190  1.00  0.00     0.000 HD 
ENDROOT
BRANCH   2   5
HETATM    5  C   UNL     1     -10.979   6.453  67.680  1.00  0.00    -0.349 C  
HETATM    6  H   UNL     1     -11.441   8.341  67.968  1.00  0.00     0.000 HD 
HETATM    7  O   UNL     1     -10.776   7.859  67.489  1.00  0.00    -0.247 OA 
BRANCH   5   8
HETATM    8  C   UNL     1     -10.949   6.110  69.158  1.00  0.00    -0.450 A  
HETATM    9  C   UNL     1     -11.716   6.822  70.099  1.00  0.00    -0.370 A  
HETATM   10  C   UNL     1     -11.623   6.497  71.449  1.00  0.00    -0.318 A  
HETATM   11  O   UNL     1     -12.354   7.153  72.402  1.00  0.00    -0.494 OA 
HETATM   12  C   UNL     1     -10.767   5.485  71.876  1.00  0.00    -0.231 A  
HETATM   13  H   UNL     1     -12.292   6.931  73.324  1.00  0.00     0.000 HD 
HETATM   14  C   UNL     1     -10.002   4.776  70.965  1.00  0.00    -0.279 A  
HETATM   15  O   UNL     1     -10.670   5.188  73.205  1.00  0.00    -0.215 OA 
HETATM   16  H   UNL     1     -10.086   4.497  73.496  1.00  0.00     0.000 HD 
HETATM   17  C   UNL     1     -10.095   5.086  69.607  1.00  0.00    -0.321 A  
ENDBRANCH   5   8
ENDBRANCH   2   5
TORSDOF 2
ENDMDL
MODEL      122
REMARK 921   NORMALIZED FREE ENERGY PREDICTED BY IDOCK:   -3.43 KCAL/MOL
REMARK 922        TOTAL FREE ENERGY PREDICTED BY IDOCK:   -3.91 KCAL/MOL
REMARK 923 INTER-LIGAND FREE ENERGY PREDICTED BY IDOCK:   -3.81 KCAL/MOL
REMARK 924 INTRA-LIGAND FREE ENERGY PREDICTED BY IDOCK:   -0.09 KCAL/MOL
REMARK 927      BINDING AFFINITY PREDICTED BY RF-SCORE:    0.00 PKD
ROOT
HETATM    1  N   UNL     1      -9.994   7.159  66.326  1.00  0.00    -0.441 NA 
HETATM    2  C   UNL     1     -10.234   8.524  66.816  1.00  0.00    -0.300 C  
HETATM    3  H1  UNL     1     -10.212   6.456  67.033  1.00  0.00     0.000 HD 
HETATM    4  H2  UNL     1      -9.041   7.051  65.979  1.00  0.00     0.000 HD 
ENDROOT
BRANCH   2   5
HETATM    5  C   UNL     1      -9.903   9.587  65.745  1.00  0.00    -0.293 C  
HETATM    6  H   UNL     1      -8.307  10.162  64.753  1.00  0.00     0.000 HD 
HETATM    7  O   UNL     1      -8.511   9.509  65.412  1.00  0.00    -0.134 OA 
BRANCH   5   8
HETATM    8  C   UNL     1     -10.254  10.983  66.227  1.00  0.00    -0.295 A  
HETATM    9  C   UNL     1      -9.679  12.131  65.652  1.00  0.00    -0.223 A  
HETATM   10  C   UNL     1     -10.001  13.388  66.157  1.00  0.00    -0.294 A  
HETATM   11  O   UNL     1      -9.476  14.535  65.627  1.00  0.00    -0.522 OA 
HETATM   12  C   UNL     1     -10.874  13.515  67.235  1.00  0.00    -0.276 A  
HETATM   13  H   UNL     1      -9.696  15.393  65.971  1.00  0.00     0.000 HD 
HETATM   14  C   UNL     1     -11.446  12.396  67.816  1.00  0.00    -0.383 A  
HETATM   15  O   UNL     1     -11.167  14.752  67.734  1.00  0.00    -0.288 OA 
HETATM   16  H   UNL     1     -11.763  14.839  68.468  1.00  0.00     0.000 HD 
HETATM   17  C   UNL     1     -11.139  11.131  67.311  1.00  0.00    -0.366 A  
ENDBRANCH   5   8
ENDBRANCH   2   5
TORSDOF 2
ENDMDL
MODEL      123
REMARK 921   NORMALIZED FREE ENERGY PREDICTED BY IDOCK:   -3.42 KCAL/MOL
REMARK 922        TOTAL FREE ENERGY PREDICTED BY IDOCK:   -3.89 KCAL/MOL
REMARK 923 INTER-LIGAND FREE ENERGY PREDICTED BY IDOCK:   -3.79 KCAL/MOL
REMARK 924 INTRA-LIGAND FREE ENERGY PREDICTED BY IDOCK:   -0.10 KCAL/MOL
REMARK 927      BINDING AFFINITY PREDICTED BY RF-SCORE:    0.00 PKD
ROOT
HETATM    1  N   UNL     1     -12.208   8.374  72.746  1.00  0.00    -0.531 NA 
HETATM    2  C   UNL     1     -11.047   8.838  71.973  1.00  0.00    -0.371 C  
HETATM    3  H1  UNL     1     -12.045   8.432  73.752  1.00  0.00     0.000 HD 
HETATM    4  H2  UNL     1     -12.485   7.432  72.471  1.00  0.00     0.000 HD 
ENDROOT
BRANCH   2   5
HETATM    5  C   UNL     1     -11.294   8.748  70.451  1.00  0.00    -0.192 C  
HETATM    6  H   UNL     1     -10.359   7.994  68.896  1.00  0.00     0.000 HD 
HETATM    7  O   UNL     1     -10.206   8.049  69.833  1.00  0.00    -0.195 OA 
BRANCH   5   8
HETATM    8  C   UNL     1     -11.456  10.126  69.836  1.00  0.00    -0.317 A  
HETATM    9  C   UNL     1     -11.770  11.253  70.618  1.00  0.00    -0.264 A  
HETATM   10  C   UNL     1     -11.949  12.489  70.003  1.00  0.00    -0.299 A  
HETATM   11  O   UNL     1     -12.247  13.616  70.720  1.00  0.00    -0.343 OA 
HETATM   12  C   UNL     1     -11.836  12.614  68.620  1.00  0.00    -0.302 A  
HETATM   13  H   UNL     1     -12.369  14.460  70.300  1.00  0.00     0.000 HD 
HETATM   14  C   UNL     1     -11.532  11.515  67.834  1.00  0.00    -0.372 A  
HETATM   15  O   UNL     1     -12.034  13.827  68.026  1.00  0.00    -0.361 OA 
HETATM   16  H   UNL     1     -11.957  13.913  67.083  1.00  0.00     0.000 HD 
HETATM   17  C   UNL     1     -11.339  10.273  68.442  1.00  0.00    -0.244 A  
ENDBRANCH   5   8
ENDBRANCH   2   5
TORSDOF 2
ENDMDL
MODEL      124
REMARK 921   NORMALIZED FREE ENERGY PREDICTED BY IDOCK:   -3.42 KCAL/MOL
REMARK 922        TOTAL FREE ENERGY PREDICTED BY IDOCK:   -3.89 KCAL/MOL
REMARK 923 INTER-LIGAND FREE ENERGY PREDICTED BY IDOCK:   -3.81 KCAL/MOL
REMARK 924 INTRA-LIGAND FREE ENERGY PREDICTED BY IDOCK:   -0.08 KCAL/MOL
REMARK 927      BINDING AFFINITY PREDICTED BY RF-SCORE:    0.00 PKD
ROOT
HETATM    1  N   UNL     1     -10.024  12.913  64.587  1.00  0.00    -0.563 NA 
HETATM    2  C   UNL     1     -10.514  14.225  65.034  1.00  0.00    -0.435 C  
HETATM    3  H1  UNL     1     -10.184  12.766  63.590  1.00  0.00     0.000 HD 
HETATM    4  H2  UNL     1     -10.427  12.158  65.142  1.00  0.00     0.000 HD 
ENDROOT
BRANCH   2   5
HETATM    5  C   UNL     1     -10.272  14.447  66.545  1.00  0.00    -0.274 C  
HETATM    6  H   UNL     1     -11.335  14.320  68.192  1.00  0.00     0.000 HD 
HETATM    7  O   UNL     1     -11.484  14.184  67.263  1.00  0.00    -0.315 OA 
BRANCH   5   8
HETATM    8  C   UNL     1      -9.785  15.857  66.824  1.00  0.00    -0.252 A  
HETATM    9  C   UNL     1      -8.859  16.131  67.847  1.00  0.00    -0.182 A  
HETATM   10  C   UNL     1      -8.474  17.446  68.092  1.00  0.00    -0.241 A  
HETATM   11  O   UNL     1      -7.570  17.765  69.068  1.00  0.00    -0.247 OA 
HETATM   12  C   UNL     1      -9.012  18.492  67.344  1.00  0.00    -0.272 A  
HETATM   13  H   UNL     1      -7.307  18.663  69.236  1.00  0.00     0.000 HD 
HETATM   14  C   UNL     1      -9.928  18.241  66.336  1.00  0.00    -0.385 A  
HETATM   15  O   UNL     1      -8.643  19.780  67.607  1.00  0.00    -0.310 OA 
HETATM   16  H   UNL     1      -9.009  20.493  67.097  1.00  0.00     0.000 HD 
HETATM   17  C   UNL     1     -10.312  16.925  66.074  1.00  0.00    -0.335 A  
ENDBRANCH   5   8
ENDBRANCH   2   5
TORSDOF 2
ENDMDL
MODEL      125
REMARK 921   NORMALIZED FREE ENERGY PREDICTED BY IDOCK:   -3.40 KCAL/MOL
REMARK 922        TOTAL FREE ENERGY PREDICTED BY IDOCK:   -3.88 KCAL/MOL
REMARK 923 INTER-LIGAND FREE ENERGY PREDICTED BY IDOCK:   -3.76 KCAL/MOL
REMARK 924 INTRA-LIGAND FREE ENERGY PREDICTED BY IDOCK:   -0.12 KCAL/MOL
REMARK 927      BINDING AFFINITY PREDICTED BY RF-SCORE:    0.00 PKD
ROOT
HETATM    1  N   UNL     1      -6.996   6.965  71.573  1.00  0.00    -0.065 NA 
HETATM    2  C   UNL     1      -7.860   7.634  70.590  1.00  0.00    -0.097 C  
HETATM    3  H1  UNL     1      -6.396   6.264  71.139  1.00  0.00     0.000 HD 
HETATM    4  H2  UNL     1      -7.543   6.564  72.335  1.00  0.00     0.000 HD 
ENDROOT
BRANCH   2   5
HETATM    5  C   UNL     1      -8.769   8.696  71.249  1.00  0.00    -0.194 C  
HETATM    6  H   UNL     1      -8.880   9.593  72.993  1.00  0.00     0.000 HD 
HETATM    7  O   UNL     1      -8.321   8.940  72.588  1.00  0.00    -0.392 OA 
BRANCH   5   8
HETATM    8  C   UNL     1     -10.222   8.255  71.248  1.00  0.00    -0.253 A  
HETATM    9  C   UNL     1     -11.195   8.913  72.022  1.00  0.00    -0.422 A  
HETATM   10  C   UNL     1     -12.506   8.446  72.021  1.00  0.00    -0.359 A  
HETATM   11  O   UNL     1     -13.492   9.056  72.748  1.00  0.00    -0.719 OA 
HETATM   12  C   UNL     1     -12.857   7.323  71.274  1.00  0.00    -0.346 A  
HETATM   13  H   UNL     1     -14.387   8.737  72.747  1.00  0.00     0.000 HD 
HETATM   14  C   UNL     1     -11.910   6.660  70.510  1.00  0.00    -0.430 A  
HETATM   15  O   UNL     1     -14.141   6.861  71.296  1.00  0.00    -0.241 OA 
HETATM   16  H   UNL     1     -14.380   6.096  70.787  1.00  0.00     0.000 HD 
HETATM   17  C   UNL     1     -10.595   7.127  70.495  1.00  0.00    -0.243 A  
ENDBRANCH   5   8
ENDBRANCH   2   5
TORSDOF 2
ENDMDL
MODEL      126
REMARK 921   NORMALIZED FREE ENERGY PREDICTED BY IDOCK:   -3.39 KCAL/MOL
REMARK 922        TOTAL FREE ENERGY PREDICTED BY IDOCK:   -3.87 KCAL/MOL
REMARK 923 INTER-LIGAND FREE ENERGY PREDICTED BY IDOCK:   -3.80 KCAL/MOL
REMARK 924 INTRA-LIGAND FREE ENERGY PREDICTED BY IDOCK:   -0.07 KCAL/MOL
REMARK 927      BINDING AFFINITY PREDICTED BY RF-SCORE:    0.00 PKD
ROOT
HETATM    1  N   UNL     1      -6.717   6.523  70.284  1.00  0.00    -0.048 NA 
HETATM    2  C   UNL     1      -7.976   6.899  70.944  1.00  0.00    -0.098 C  
HETATM    3  H1  UNL     1      -6.644   5.514  70.152  1.00  0.00     0.000 HD 
HETATM    4  H2  UNL     1      -5.910   6.890  70.788  1.00  0.00     0.000 HD 
ENDROOT
BRANCH   2   5
HETATM    5  C   UNL     1      -8.087   8.428  71.145  1.00  0.00    -0.125 C  
HETATM    6  H   UNL     1      -7.532   9.730  72.508  1.00  0.00     0.000 HD 
HETATM    7  O   UNL     1      -7.465   8.790  72.384  1.00  0.00    -0.324 OA 
BRANCH   5   8
HETATM    8  C   UNL     1      -9.535   8.882  71.127  1.00  0.00    -0.335 A  
HETATM    9  C   UNL     1     -10.484   8.368  72.028  1.00  0.00    -0.384 A  
HETATM   10  C   UNL     1     -11.809   8.785  71.945  1.00  0.00    -0.367 A  
HETATM   11  O   UNL     1     -12.768   8.322  72.805  1.00  0.00    -0.615 OA 
HETATM   12  C   UNL     1     -12.205   9.694  70.966  1.00  0.00    -0.323 A  
HETATM   13  H   UNL     1     -13.673   8.607  72.748  1.00  0.00     0.000 HD 
HETATM   14  C   UNL     1     -11.285  10.208  70.067  1.00  0.00    -0.361 A  
HETATM   15  O   UNL     1     -13.511  10.081  70.881  1.00  0.00    -0.502 OA 
HETATM   16  H   UNL     1     -13.781  10.701  70.214  1.00  0.00     0.000 HD 
HETATM   17  C   UNL     1      -9.951   9.805  70.149  1.00  0.00    -0.315 A  
ENDBRANCH   5   8
ENDBRANCH   2   5
TORSDOF 2
ENDMDL
MODEL      127
REMARK 921   NORMALIZED FREE ENERGY PREDICTED BY IDOCK:   -3.39 KCAL/MOL
REMARK 922        TOTAL FREE ENERGY PREDICTED BY IDOCK:   -3.87 KCAL/MOL
REMARK 923 INTER-LIGAND FREE ENERGY PREDICTED BY IDOCK:   -3.77 KCAL/MOL
REMARK 924 INTRA-LIGAND FREE ENERGY PREDICTED BY IDOCK:   -0.10 KCAL/MOL
REMARK 927      BINDING AFFINITY PREDICTED BY RF-SCORE:    0.00 PKD
ROOT
HETATM    1  N   UNL     1      -8.888  10.523  64.637  1.00  0.00    -0.191 NA 
HETATM    2  C   UNL     1     -10.132  10.104  65.298  1.00  0.00    -0.274 C  
HETATM    3  H1  UNL     1      -8.959  10.469  63.621  1.00  0.00     0.000 HD 
HETATM    4  H2  UNL     1      -8.088   9.992  64.981  1.00  0.00     0.000 HD 
ENDROOT
BRANCH   2   5
HETATM    5  C   UNL     1     -10.024  10.186  66.837  1.00  0.00    -0.207 C  
HETATM    6  H   UNL     1     -10.438   9.015  68.359  1.00  0.00     0.000 HD 
HETATM    7  O   UNL     1     -10.505   8.965  67.412  1.00  0.00    -0.258 OA 
BRANCH   5   8
HETATM    8  C   UNL     1     -10.800  11.370  67.382  1.00  0.00    -0.301 A  
HETATM    9  C   UNL     1     -11.297  12.381  66.539  1.00  0.00    -0.392 A  
HETATM   10  C   UNL     1     -11.967  13.469  67.091  1.00  0.00    -0.381 A  
HETATM   11  O   UNL     1     -12.477  14.473  66.313  1.00  0.00    -0.365 OA 
HETATM   12  C   UNL     1     -12.133  13.573  68.470  1.00  0.00    -0.268 A  
HETATM   13  H   UNL     1     -12.935  15.216  66.690  1.00  0.00     0.000 HD 
HETATM   14  C   UNL     1     -11.646  12.590  69.316  1.00  0.00    -0.378 A  
HETATM   15  O   UNL     1     -12.774  14.655  69.001  1.00  0.00    -0.482 OA 
HETATM   16  H   UNL     1     -12.888  14.726  69.941  1.00  0.00     0.000 HD 
HETATM   17  C   UNL     1     -10.983  11.489  68.772  1.00  0.00    -0.271 A  
ENDBRANCH   5   8
ENDBRANCH   2   5
TORSDOF 2
ENDMDL
MODEL      128
REMARK 921   NORMALIZED FREE ENERGY PREDICTED BY IDOCK:   -3.39 KCAL/MOL
REMARK 922        TOTAL FREE ENERGY PREDICTED BY IDOCK:   -3.86 KCAL/MOL
REMARK 923 INTER-LIGAND FREE ENERGY PREDICTED BY IDOCK:   -3.78 KCAL/MOL
REMARK 924 INTRA-LIGAND FREE ENERGY PREDICTED BY IDOCK:   -0.08 KCAL/MOL
REMARK 927      BINDING AFFINITY PREDICTED BY RF-SCORE:    0.00 PKD
ROOT
HETATM    1  N   UNL     1      -9.318  10.430  69.920  1.00  0.00    -0.397 NA 
HETATM    2  C   UNL     1     -10.675   9.873  69.822  1.00  0.00    -0.267 C  
HETATM    3  H1  UNL     1      -8.918  10.296  70.849  1.00  0.00     0.000 HD 
HETATM    4  H2  UNL     1      -9.299  11.413  69.647  1.00  0.00     0.000 HD 
ENDROOT
BRANCH   2   5
HETATM    5  C   UNL     1     -11.281  10.077  68.415  1.00  0.00    -0.127 C  
HETATM    6  H   UNL     1     -10.918   9.424  66.598  1.00  0.00     0.000 HD 
HETATM    7  O   UNL     1     -10.545   9.299  67.463  1.00  0.00    -0.268 OA 
BRANCH   5   8
HETATM    8  C   UNL     1     -11.275  11.543  68.019  1.00  0.00    -0.335 A  
HETATM    9  C   UNL     1     -11.820  12.537  68.852  1.00  0.00    -0.346 A  
HETATM   10  C   UNL     1     -11.828  13.862  68.428  1.00  0.00    -0.374 A  
HETATM   11  O   UNL     1     -12.338  14.867  69.204  1.00  0.00    -0.549 OA 
HETATM   12  C   UNL     1     -11.317  14.208  67.179  1.00  0.00    -0.332 A  
HETATM   13  H   UNL     1     -12.344  15.772  68.914  1.00  0.00     0.000 HD 
HETATM   14  C   UNL     1     -10.781  13.242  66.343  1.00  0.00    -0.291 A  
HETATM   15  O   UNL     1     -11.349  15.508  66.763  1.00  0.00    -0.211 OA 
HETATM   16  H   UNL     1     -11.001  15.744  65.912  1.00  0.00     0.000 HD 
HETATM   17  C   UNL     1     -10.757  11.912  66.764  1.00  0.00    -0.282 A  
ENDBRANCH   5   8
ENDBRANCH   2   5
TORSDOF 2
ENDMDL
MODEL      129
REMARK 921   NORMALIZED FREE ENERGY PREDICTED BY IDOCK:   -3.38 KCAL/MOL
REMARK 922        TOTAL FREE ENERGY PREDICTED BY IDOCK:   -3.85 KCAL/MOL
REMARK 923 INTER-LIGAND FREE ENERGY PREDICTED BY IDOCK:   -3.75 KCAL/MOL
REMARK 924 INTRA-LIGAND FREE ENERGY PREDICTED BY IDOCK:   -0.10 KCAL/MOL
REMARK 927      BINDING AFFINITY PREDICTED BY RF-SCORE:    0.00 PKD
ROOT
HETATM    1  N   UNL     1      -6.165  16.359  69.806  1.00  0.00    -0.214 NA 
HETATM    2  C   UNL     1      -5.335  17.139  68.876  1.00  0.00    -0.146 C  
HETATM    3  H1  UNL     1      -6.026  15.355  69.690  1.00  0.00     0.000 HD 
HETATM    4  H2  UNL     1      -7.150  16.609  69.723  1.00  0.00     0.000 HD 
ENDROOT
BRANCH   2   5
HETATM    5  C   UNL     1      -5.545  18.660  69.052  1.00  0.00    -0.206 C  
HETATM    6  H   UNL     1      -5.888  19.888  70.547  1.00  0.00     0.000 HD 
HETATM    7  O   UNL     1      -5.759  18.952  70.439  1.00  0.00    -0.231 OA 
BRANCH   5   8
HETATM    8  C   UNL     1      -6.714  19.155  68.220  1.00  0.00    -0.277 A  
HETATM    9  C   UNL     1      -8.005  19.291  68.764  1.00  0.00    -0.392 A  
HETATM   10  C   UNL     1      -9.054  19.709  67.950  1.00  0.00    -0.327 A  
HETATM   11  O   UNL     1     -10.324  19.866  68.433  1.00  0.00    -0.450 OA 
HETATM   12  C   UNL     1      -8.838  19.976  66.600  1.00  0.00    -0.336 A  
HETATM   13  H   UNL     1     -11.041  20.151  67.877  1.00  0.00     0.000 HD 
HETATM   14  C   UNL     1      -7.576  19.843  66.047  1.00  0.00    -0.338 A  
HETATM   15  O   UNL     1      -9.879  20.366  65.807  1.00  0.00    -0.637 OA 
HETATM   16  H   UNL     1      -9.732  20.549  64.886  1.00  0.00     0.000 HD 
HETATM   17  C   UNL     1      -6.514  19.436  66.856  1.00  0.00    -0.194 A  
ENDBRANCH   5   8
ENDBRANCH   2   5
TORSDOF 2
ENDMDL
MODEL      130
REMARK 921   NORMALIZED FREE ENERGY PREDICTED BY IDOCK:   -3.37 KCAL/MOL
REMARK 922        TOTAL FREE ENERGY PREDICTED BY IDOCK:   -3.84 KCAL/MOL
REMARK 923 INTER-LIGAND FREE ENERGY PREDICTED BY IDOCK:   -3.74 KCAL/MOL
REMARK 924 INTRA-LIGAND FREE ENERGY PREDICTED BY IDOCK:   -0.10 KCAL/MOL
REMARK 927      BINDING AFFINITY PREDICTED BY RF-SCORE:    0.00 PKD
ROOT
HETATM    1  N   UNL     1     -12.789  12.885  71.101  1.00  0.00    -0.294 NA 
HETATM    2  C   UNL     1     -12.548  14.137  70.368  1.00  0.00    -0.332 C  
HETATM    3  H1  UNL     1     -13.766  12.789  71.379  1.00  0.00     0.000 HD 
HETATM    4  H2  UNL     1     -12.166  12.800  71.904  1.00  0.00     0.000 HD 
ENDROOT
BRANCH   2   5
HETATM    5  C   UNL     1     -11.067  14.283  69.949  1.00  0.00    -0.076 C  
HETATM    6  H   UNL     1      -9.696  15.688  70.025  1.00  0.00     0.000 HD 
HETATM    7  O   UNL     1     -10.607  15.598  70.283  1.00  0.00    -0.316 OA 
BRANCH   5   8
HETATM    8  C   UNL     1     -10.886  14.018  68.466  1.00  0.00    -0.268 A  
HETATM    9  C   UNL     1      -9.770  13.319  67.969  1.00  0.00    -0.223 A  
HETATM   10  C   UNL     1      -9.627  13.138  66.597  1.00  0.00    -0.260 A  
HETATM   11  O   UNL     1      -8.565  12.457  66.065  1.00  0.00    -0.386 OA 
HETATM   12  C   UNL     1     -10.569  13.657  65.712  1.00  0.00    -0.285 A  
HETATM   13  H   UNL     1      -8.467  12.333  65.128  1.00  0.00     0.000 HD 
HETATM   14  C   UNL     1     -11.672  14.352  66.182  1.00  0.00    -0.384 A  
HETATM   15  O   UNL     1     -10.408  13.490  64.367  1.00  0.00    -0.510 OA 
HETATM   16  H   UNL     1     -11.051  13.844  63.764  1.00  0.00     0.000 HD 
HETATM   17  C   UNL     1     -11.831  14.529  67.558  1.00  0.00    -0.404 A  
ENDBRANCH   5   8
ENDBRANCH   2   5
TORSDOF 2
ENDMDL
MODEL      131
REMARK 921   NORMALIZED FREE ENERGY PREDICTED BY IDOCK:   -3.32 KCAL/MOL
REMARK 922        TOTAL FREE ENERGY PREDICTED BY IDOCK:   -3.79 KCAL/MOL
REMARK 923 INTER-LIGAND FREE ENERGY PREDICTED BY IDOCK:   -3.77 KCAL/MOL
REMARK 924 INTRA-LIGAND FREE ENERGY PREDICTED BY IDOCK:   -0.02 KCAL/MOL
REMARK 927      BINDING AFFINITY PREDICTED BY RF-SCORE:    0.00 PKD
ROOT
HETATM    1  N   UNL     1     -11.249  14.389  70.112  1.00  0.00    -0.455 NA 
HETATM    2  C   UNL     1     -12.188  13.806  69.142  1.00  0.00    -0.250 C  
HETATM    3  H1  UNL     1     -11.625  15.230  70.549  1.00  0.00     0.000 HD 
HETATM    4  H2  UNL     1     -10.340  14.568  69.686  1.00  0.00     0.000 HD 
ENDROOT
BRANCH   2   5
HETATM    5  C   UNL     1     -11.617  12.532  68.480  1.00  0.00    -0.321 C  
HETATM    6  H   UNL     1     -12.157  11.310  67.040  1.00  0.00     0.000 HD 
HETATM    7  O   UNL     1     -12.509  12.093  67.447  1.00  0.00    -0.087 OA 
BRANCH   5   8
HETATM    8  C   UNL     1     -11.404  11.429  69.500  1.00  0.00    -0.357 A  
HETATM    9  C   UNL     1     -10.302  10.557  69.427  1.00  0.00    -0.258 A  
HETATM   10  C   UNL     1     -10.172   9.534  70.362  1.00  0.00    -0.279 A  
HETATM   11  O   UNL     1      -9.115   8.665  70.341  1.00  0.00    -0.144 OA 
HETATM   12  C   UNL     1     -11.131   9.358  71.357  1.00  0.00    -0.380 A  
HETATM   13  H   UNL     1      -9.026   7.967  70.979  1.00  0.00     0.000 HD 
HETATM   14  C   UNL     1     -12.224  10.205  71.442  1.00  0.00    -0.492 A  
HETATM   15  O   UNL     1     -11.004   8.339  72.257  1.00  0.00    -0.298 OA 
HETATM   16  H   UNL     1     -11.657   8.220  72.936  1.00  0.00     0.000 HD 
HETATM   17  C   UNL     1     -12.359  11.241  70.516  1.00  0.00    -0.446 A  
ENDBRANCH   5   8
ENDBRANCH   2   5
TORSDOF 2
ENDMDL
MODEL      132
REMARK 921   NORMALIZED FREE ENERGY PREDICTED BY IDOCK:   -3.32 KCAL/MOL
REMARK 922        TOTAL FREE ENERGY PREDICTED BY IDOCK:   -3.78 KCAL/MOL
REMARK 923 INTER-LIGAND FREE ENERGY PREDICTED BY IDOCK:   -3.70 KCAL/MOL
REMARK 924 INTRA-LIGAND FREE ENERGY PREDICTED BY IDOCK:   -0.08 KCAL/MOL
REMARK 927      BINDING AFFINITY PREDICTED BY RF-SCORE:    0.00 PKD
ROOT
HETATM    1  N   UNL     1     -10.938  19.786  67.094  1.00  0.00    -0.355 NA 
HETATM    2  C   UNL     1     -10.606  18.355  67.030  1.00  0.00    -0.366 C  
HETATM    3  H1  UNL     1     -11.854  19.946  67.513  1.00  0.00     0.000 HD 
HETATM    4  H2  UNL     1     -10.868  20.224  66.176  1.00  0.00     0.000 HD 
ENDROOT
BRANCH   2   5
HETATM    5  C   UNL     1      -9.218  18.113  66.396  1.00  0.00    -0.255 C  
HETATM    6  H   UNL     1      -8.044  16.569  66.081  1.00  0.00     0.000 HD 
HETATM    7  O   UNL     1      -8.897  16.718  66.472  1.00  0.00    -0.235 OA 
BRANCH   5   8
HETATM    8  C   UNL     1      -8.146  18.941  67.081  1.00  0.00    -0.277 A  
HETATM    9  C   UNL     1      -7.831  18.764  68.441  1.00  0.00    -0.351 A  
HETATM   10  C   UNL     1      -6.869  19.576  69.035  1.00  0.00    -0.349 A  
HETATM   11  O   UNL     1      -6.520  19.438  70.351  1.00  0.00    -0.104 OA 
HETATM   12  C   UNL     1      -6.231  20.572  68.300  1.00  0.00    -0.316 A  
HETATM   13  H   UNL     1      -5.864  19.992  70.757  1.00  0.00     0.000 HD 
HETATM   14  C   UNL     1      -6.532  20.764  66.961  1.00  0.00    -0.347 A  
HETATM   15  O   UNL     1      -5.304  21.376  68.898  1.00  0.00    -0.442 OA 
HETATM   16  H   UNL     1      -4.869  22.055  68.397  1.00  0.00     0.000 HD 
HETATM   17  C   UNL     1      -7.486  19.947  66.352  1.00  0.00    -0.303 A  
ENDBRANCH   5   8
ENDBRANCH   2   5
TORSDOF 2
ENDMDL
MODEL      133
REMARK 921   NORMALIZED FREE ENERGY PREDICTED BY IDOCK:   -3.31 KCAL/MOL
REMARK 922        TOTAL FREE ENERGY PREDICTED BY IDOCK:   -3.77 KCAL/MOL
REMARK 923 INTER-LIGAND FREE ENERGY PREDICTED BY IDOCK:   -3.64 KCAL/MOL
REMARK 924 INTRA-LIGAND FREE ENERGY PREDICTED BY IDOCK:   -0.13 KCAL/MOL
REMARK 927      BINDING AFFINITY PREDICTED BY RF-SCORE:    0.00 PKD
ROOT
HETATM    1  N   UNL     1      -7.371  12.858  66.963  1.00  0.00    -0.369 NA 
HETATM    2  C   UNL     1      -8.464  12.551  67.896  1.00  0.00    -0.171 C  
HETATM    3  H1  UNL     1      -6.466  12.558  67.324  1.00  0.00     0.000 HD 
HETATM    4  H2  UNL     1      -7.361  13.847  66.715  1.00  0.00     0.000 HD 
ENDROOT
BRANCH   2   5
HETATM    5  C   UNL     1      -9.836  13.006  67.348  1.00  0.00    -0.215 C  
HETATM    6  H   UNL     1     -10.887  12.711  65.715  1.00  0.00     0.000 HD 
HETATM    7  O   UNL     1     -10.043  12.432  66.052  1.00  0.00    -0.241 OA 
BRANCH   5   8
HETATM    8  C   UNL     1      -9.926  14.520  67.278  1.00  0.00    -0.236 A  
HETATM    9  C   UNL     1     -10.291  15.185  66.093  1.00  0.00    -0.313 A  
HETATM   10  C   UNL     1     -10.320  16.576  66.066  1.00  0.00    -0.345 A  
HETATM   11  O   UNL     1     -10.676  17.270  64.942  1.00  0.00    -0.723 OA 
HETATM   12  C   UNL     1      -9.974  17.313  67.197  1.00  0.00    -0.282 A  
HETATM   13  H   UNL     1     -10.696  18.220  64.923  1.00  0.00     0.000 HD 
HETATM   14  C   UNL     1      -9.608  16.675  68.371  1.00  0.00    -0.233 A  
HETATM   15  O   UNL     1      -9.986  18.678  67.153  1.00  0.00    -0.305 OA 
HETATM   16  H   UNL     1      -9.751  19.180  67.924  1.00  0.00     0.000 HD 
HETATM   17  C   UNL     1      -9.587  15.280  68.412  1.00  0.00    -0.206 A  
ENDBRANCH   5   8
ENDBRANCH   2   5
TORSDOF 2
ENDMDL
MODEL      134
REMARK 921   NORMALIZED FREE ENERGY PREDICTED BY IDOCK:   -3.26 KCAL/MOL
REMARK 922        TOTAL FREE ENERGY PREDICTED BY IDOCK:   -3.72 KCAL/MOL
REMARK 923 INTER-LIGAND FREE ENERGY PREDICTED BY IDOCK:   -3.62 KCAL/MOL
REMARK 924 INTRA-LIGAND FREE ENERGY PREDICTED BY IDOCK:   -0.10 KCAL/MOL
REMARK 927      BINDING AFFINITY PREDICTED BY RF-SCORE:    0.00 PKD
ROOT
HETATM    1  N   UNL     1     -11.130   5.765  66.239  1.00  0.00    -0.755 NA 
HETATM    2  C   UNL     1     -10.752   6.690  67.317  1.00  0.00    -0.357 C  
HETATM    3  H1  UNL     1     -11.932   5.188  66.496  1.00  0.00     0.000 HD 
HETATM    4  H2  UNL     1     -10.339   5.191  65.948  1.00  0.00     0.000 HD 
ENDROOT
BRANCH   2   5
HETATM    5  C   UNL     1      -9.537   7.563  66.927  1.00  0.00    -0.187 C  
HETATM    6  H   UNL     1      -7.590   7.486  67.172  1.00  0.00     0.000 HD 
HETATM    7  O   UNL     1      -8.336   6.950  67.412  1.00  0.00    -0.120 OA 
BRANCH   5   8
HETATM    8  C   UNL     1      -9.672   8.972  67.476  1.00  0.00    -0.206 A  
HETATM    9  C   UNL     1     -10.865   9.706  67.347  1.00  0.00    -0.242 A  
HETATM   10  C   UNL     1     -10.926  11.010  67.830  1.00  0.00    -0.269 A  
HETATM   11  O   UNL     1     -12.066  11.762  67.737  1.00  0.00    -0.595 OA 
HETATM   12  C   UNL     1      -9.812  11.597  68.424  1.00  0.00    -0.202 A  
HETATM   13  H   UNL     1     -12.108  12.652  68.067  1.00  0.00     0.000 HD 
HETATM   14  C   UNL     1      -8.627  10.891  68.556  1.00  0.00    -0.152 A  
HETATM   15  O   UNL     1      -9.877  12.884  68.877  1.00  0.00    -0.419 OA 
HETATM   16  H   UNL     1      -9.118  13.284  69.282  1.00  0.00     0.000 HD 
HETATM   17  C   UNL     1      -8.558   9.579  68.085  1.00  0.00    -0.120 A  
ENDBRANCH   5   8
ENDBRANCH   2   5
TORSDOF 2
ENDMDL
MODEL      135
REMARK 921   NORMALIZED FREE ENERGY PREDICTED BY IDOCK:   -3.22 KCAL/MOL
REMARK 922        TOTAL FREE ENERGY PREDICTED BY IDOCK:   -3.67 KCAL/MOL
REMARK 923 INTER-LIGAND FREE ENERGY PREDICTED BY IDOCK:   -3.56 KCAL/MOL
REMARK 924 INTRA-LIGAND FREE ENERGY PREDICTED BY IDOCK:   -0.11 KCAL/MOL
REMARK 927      BINDING AFFINITY PREDICTED BY RF-SCORE:    0.00 PKD
ROOT
HETATM    1  N   UNL     1     -10.972   5.809  72.076  1.00  0.00    -0.254 NA 
HETATM    2  C   UNL     1      -9.813   6.526  71.524  1.00  0.00    -0.168 C  
HETATM    3  H1  UNL     1     -11.071   4.878  71.671  1.00  0.00     0.000 HD 
HETATM    4  H2  UNL     1     -11.829   6.352  71.971  1.00  0.00     0.000 HD 
ENDROOT
BRANCH   2   5
HETATM    5  C   UNL     1      -9.663   7.937  72.138  1.00  0.00    -0.199 C  
HETATM    6  H   UNL     1     -10.147   8.815  73.828  1.00  0.00     0.000 HD 
HETATM    7  O   UNL     1     -10.239   7.948  73.450  1.00  0.00    -0.321 OA 
BRANCH   5   8
HETATM    8  C   UNL     1     -10.318   8.991  71.264  1.00  0.00    -0.383 A  
HETATM    9  C   UNL     1      -9.644   9.569  70.172  1.00  0.00    -0.290 A  
HETATM   10  C   UNL     1     -10.271  10.562  69.425  1.00  0.00    -0.221 A  
HETATM   11  O   UNL     1      -9.663  11.149  68.349  1.00  0.00    -0.177 OA 
HETATM   12  C   UNL     1     -11.551  10.998  69.760  1.00  0.00    -0.325 A  
HETATM   13  H   UNL     1     -10.091  11.827  67.838  1.00  0.00     0.000 HD 
HETATM   14  C   UNL     1     -12.228  10.442  70.834  1.00  0.00    -0.484 A  
HETATM   15  O   UNL     1     -12.149  11.986  69.032  1.00  0.00    -0.271 OA 
HETATM   16  H   UNL     1     -13.022  12.283  69.260  1.00  0.00     0.000 HD 
HETATM   17  C   UNL     1     -11.613   9.438  71.583  1.00  0.00    -0.466 A  
ENDBRANCH   5   8
ENDBRANCH   2   5
TORSDOF 2
ENDMDL
MODEL      136
REMARK 921   NORMALIZED FREE ENERGY PREDICTED BY IDOCK:   -3.21 KCAL/MOL
REMARK 922        TOTAL FREE ENERGY PREDICTED BY IDOCK:   -3.66 KCAL/MOL
REMARK 923 INTER-LIGAND FREE ENERGY PREDICTED BY IDOCK:   -3.56 KCAL/MOL
REMARK 924 INTRA-LIGAND FREE ENERGY PREDICTED BY IDOCK:   -0.10 KCAL/MOL
REMARK 927      BINDING AFFINITY PREDICTED BY RF-SCORE:    0.00 PKD
ROOT
HETATM    1  N   UNL     1     -12.982  12.783  71.012  1.00  0.00    -0.156 NA 
HETATM    2  C   UNL     1     -13.143  11.648  71.933  1.00  0.00    -0.385 C  
HETATM    3  H1  UNL     1     -13.058  13.679  71.493  1.00  0.00     0.000 HD 
HETATM    4  H2  UNL     1     -13.638  12.724  70.233  1.00  0.00     0.000 HD 
ENDROOT
BRANCH   2   5
HETATM    5  C   UNL     1     -13.028  10.291  71.202  1.00  0.00    -0.409 C  
HETATM    6  H   UNL     1     -13.810   8.499  71.393  1.00  0.00     0.000 HD 
HETATM    7  O   UNL     1     -13.880   9.333  71.843  1.00  0.00    -0.382 OA 
BRANCH   5   8
HETATM    8  C   UNL     1     -11.594   9.795  71.183  1.00  0.00    -0.469 A  
HETATM    9  C   UNL     1     -10.702  10.147  70.154  1.00  0.00    -0.355 A  
HETATM   10  C   UNL     1      -9.408   9.634  70.158  1.00  0.00    -0.251 A  
HETATM   11  O   UNL     1      -8.501   9.953  69.185  1.00  0.00    -0.126 OA 
HETATM   12  C   UNL     1      -8.997   8.762  71.163  1.00  0.00    -0.222 A  
HETATM   13  H   UNL     1      -7.617   9.602  69.188  1.00  0.00     0.000 HD 
HETATM   14  C   UNL     1      -9.862   8.400  72.183  1.00  0.00    -0.372 A  
HETATM   15  O   UNL     1      -7.732   8.248  71.147  1.00  0.00    -0.079 OA 
HETATM   16  H   UNL     1      -7.451   7.654  71.832  1.00  0.00     0.000 HD 
HETATM   17  C   UNL     1     -11.158   8.919  72.194  1.00  0.00    -0.355 A  
ENDBRANCH   5   8
ENDBRANCH   2   5
TORSDOF 2
ENDMDL
MODEL      137
REMARK 921   NORMALIZED FREE ENERGY PREDICTED BY IDOCK:   -3.20 KCAL/MOL
REMARK 922        TOTAL FREE ENERGY PREDICTED BY IDOCK:   -3.65 KCAL/MOL
REMARK 923 INTER-LIGAND FREE ENERGY PREDICTED BY IDOCK:   -3.55 KCAL/MOL
REMARK 924 INTRA-LIGAND FREE ENERGY PREDICTED BY IDOCK:   -0.10 KCAL/MOL
REMARK 927      BINDING AFFINITY PREDICTED BY RF-SCORE:    0.00 PKD
ROOT
HETATM    1  N   UNL     1     -11.750  10.824  70.209  1.00  0.00    -0.324 NA 
HETATM    2  C   UNL     1     -12.070  10.243  71.521  1.00  0.00    -0.314 C  
HETATM    3  H1  UNL     1     -11.249  11.708  70.295  1.00  0.00     0.000 HD 
HETATM    4  H2  UNL     1     -12.588  10.928  69.635  1.00  0.00     0.000 HD 
ENDROOT
BRANCH   2   5
HETATM    5  C   UNL     1     -12.831   8.904  71.390  1.00  0.00    -0.289 C  
HETATM    6  H   UNL     1     -14.361   8.042  72.270  1.00  0.00     0.000 HD 
HETATM    7  O   UNL     1     -13.893   8.865  72.351  1.00  0.00    -0.447 OA 
BRANCH   5   8
HETATM    8  C   UNL     1     -11.900   7.721  71.580  1.00  0.00    -0.324 A  
HETATM    9  C   UNL     1     -11.563   6.866  70.515  1.00  0.00    -0.396 A  
HETATM   10  C   UNL     1     -10.738   5.769  70.747  1.00  0.00    -0.271 A  
HETATM   11  O   UNL     1     -10.373   4.913  69.744  1.00  0.00    -0.260 OA 
HETATM   12  C   UNL     1     -10.259   5.503  72.028  1.00  0.00    -0.199 A  
HETATM   13  H   UNL     1      -9.810   4.164  69.902  1.00  0.00     0.000 HD 
HETATM   14  C   UNL     1     -10.585   6.331  73.090  1.00  0.00    -0.273 A  
HETATM   15  O   UNL     1      -9.468   4.412  72.249  1.00  0.00    -0.127 OA 
HETATM   16  H   UNL     1      -9.141   4.231  73.122  1.00  0.00     0.000 HD 
HETATM   17  C   UNL     1     -11.401   7.440  72.865  1.00  0.00    -0.322 A  
ENDBRANCH   5   8
ENDBRANCH   2   5
TORSDOF 2
ENDMDL
MODEL      138
REMARK 921   NORMALIZED FREE ENERGY PREDICTED BY IDOCK:   -3.18 KCAL/MOL
REMARK 922        TOTAL FREE ENERGY PREDICTED BY IDOCK:   -3.63 KCAL/MOL
REMARK 923 INTER-LIGAND FREE ENERGY PREDICTED BY IDOCK:   -3.54 KCAL/MOL
REMARK 924 INTRA-LIGAND FREE ENERGY PREDICTED BY IDOCK:   -0.09 KCAL/MOL
REMARK 927      BINDING AFFINITY PREDICTED BY RF-SCORE:    0.00 PKD
ROOT
HETATM    1  N   UNL     1     -11.843   5.493  72.961  1.00  0.00    -0.542 NA 
HETATM    2  C   UNL     1     -11.080   5.926  71.782  1.00  0.00    -0.265 C  
HETATM    3  H1  UNL     1     -11.696   4.505  73.168  1.00  0.00     0.000 HD 
HETATM    4  H2  UNL     1     -12.835   5.707  72.860  1.00  0.00     0.000 HD 
ENDROOT
BRANCH   2   5
HETATM    5  C   UNL     1     -11.303   7.423  71.468  1.00  0.00    -0.256 C  
HETATM    6  H   UNL     1     -12.808   8.684  71.535  1.00  0.00     0.000 HD 
HETATM    7  O   UNL     1     -12.671   7.763  71.727  1.00  0.00    -0.316 OA 
BRANCH   5   8
HETATM    8  C   UNL     1     -10.940   7.745  70.030  1.00  0.00    -0.218 A  
HETATM    9  C   UNL     1     -10.577   9.044  69.632  1.00  0.00    -0.230 A  
HETATM   10  C   UNL     1     -10.293   9.299  68.293  1.00  0.00    -0.217 A  
HETATM   11  O   UNL     1      -9.925  10.543  67.856  1.00  0.00    -0.164 OA 
HETATM   12  C   UNL     1     -10.382   8.283  67.345  1.00  0.00    -0.280 A  
HETATM   13  H   UNL     1      -9.732  10.717  66.943  1.00  0.00     0.000 HD 
HETATM   14  C   UNL     1     -10.743   6.998  67.718  1.00  0.00    -0.300 A  
HETATM   15  O   UNL     1     -10.121   8.549  66.031  1.00  0.00    -0.473 OA 
HETATM   16  H   UNL     1     -10.182   7.856  65.385  1.00  0.00     0.000 HD 
HETATM   17  C   UNL     1     -11.019   6.729  69.060  1.00  0.00    -0.281 A  
ENDBRANCH   5   8
ENDBRANCH   2   5
TORSDOF 2
ENDMDL
MODEL      139
REMARK 921   NORMALIZED FREE ENERGY PREDICTED BY IDOCK:   -3.17 KCAL/MOL
REMARK 922        TOTAL FREE ENERGY PREDICTED BY IDOCK:   -3.62 KCAL/MOL
REMARK 923 INTER-LIGAND FREE ENERGY PREDICTED BY IDOCK:   -3.52 KCAL/MOL
REMARK 924 INTRA-LIGAND FREE ENERGY PREDICTED BY IDOCK:   -0.09 KCAL/MOL
REMARK 927      BINDING AFFINITY PREDICTED BY RF-SCORE:    0.00 PKD
ROOT
HETATM    1  N   UNL     1      -6.662   7.782  66.268  1.00  0.00    -0.053 NA 
HETATM    2  C   UNL     1      -7.999   8.222  65.843  1.00  0.00    -0.097 C  
HETATM    3  H1  UNL     1      -6.257   7.109  65.617  1.00  0.00     0.000 HD 
HETATM    4  H2  UNL     1      -6.677   7.414  67.219  1.00  0.00     0.000 HD 
ENDROOT
BRANCH   2   5
HETATM    5  C   UNL     1      -8.611   9.241  66.831  1.00  0.00    -0.127 C  
HETATM    6  H   UNL     1      -9.670   9.164  68.484  1.00  0.00     0.000 HD 
HETATM    7  O   UNL     1      -9.294   8.537  67.877  1.00  0.00    -0.135 OA 
BRANCH   5   8
HETATM    8  C   UNL     1      -9.560  10.191  66.125  1.00  0.00    -0.256 A  
HETATM    9  C   UNL     1      -9.686  10.207  64.724  1.00  0.00    -0.389 A  
HETATM   10  C   UNL     1     -10.539  11.126  64.119  1.00  0.00    -0.368 A  
HETATM   11  O   UNL     1     -10.703  11.175  62.762  1.00  0.00    -0.770 OA 
HETATM   12  C   UNL     1     -11.255  12.039  64.889  1.00  0.00    -0.320 A  
HETATM   13  H   UNL     1     -11.285  11.802  62.349  1.00  0.00     0.000 HD 
HETATM   14  C   UNL     1     -11.141  12.042  66.270  1.00  0.00    -0.363 A  
HETATM   15  O   UNL     1     -12.073  12.949  64.285  1.00  0.00    -0.373 OA 
HETATM   16  H   UNL     1     -12.562  13.572  64.810  1.00  0.00     0.000 HD 
HETATM   17  C   UNL     1     -10.297  11.117  66.887  1.00  0.00    -0.272 A  
ENDBRANCH   5   8
ENDBRANCH   2   5
TORSDOF 2
ENDMDL
MODEL      140
REMARK 921   NORMALIZED FREE ENERGY PREDICTED BY IDOCK:   -3.14 KCAL/MOL
REMARK 922        TOTAL FREE ENERGY PREDICTED BY IDOCK:   -3.58 KCAL/MOL
REMARK 923 INTER-LIGAND FREE ENERGY PREDICTED BY IDOCK:   -3.47 KCAL/MOL
REMARK 924 INTRA-LIGAND FREE ENERGY PREDICTED BY IDOCK:   -0.11 KCAL/MOL
REMARK 927      BINDING AFFINITY PREDICTED BY RF-SCORE:    0.00 PKD
ROOT
HETATM    1  N   UNL     1      -8.755  10.214  63.221  1.00  0.00    -0.190 NA 
HETATM    2  C   UNL     1      -9.483  11.452  62.904  1.00  0.00    -0.345 C  
HETATM    3  H1  UNL     1      -7.880  10.144  62.701  1.00  0.00     0.000 HD 
HETATM    4  H2  UNL     1      -9.340   9.392  63.073  1.00  0.00     0.000 HD 
ENDROOT
BRANCH   2   5
HETATM    5  C   UNL     1     -10.809  11.558  63.691  1.00  0.00    -0.415 C  
HETATM    6  H   UNL     1     -12.292  12.840  63.818  1.00  0.00     0.000 HD 
HETATM    7  O   UNL     1     -11.477  12.775  63.335  1.00  0.00    -0.490 OA 
BRANCH   5   8
HETATM    8  C   UNL     1     -10.568  11.505  65.188  1.00  0.00    -0.350 A  
HETATM    9  C   UNL     1     -10.965  10.400  65.963  1.00  0.00     0.170 A  
HETATM   10  C   UNL     1     -10.759  10.415  67.340  1.00  0.00    -0.283 A  
HETATM   11  O   UNL     1     -11.118   9.362  68.136  1.00  0.00    -0.489 OA 
HETATM   12  C   UNL     1     -10.179  11.522  67.956  1.00  0.00    -0.191 A  
HETATM   13  H   UNL     1     -10.978   9.373  69.076  1.00  0.00     0.000 HD 
HETATM   14  C   UNL     1      -9.786  12.621  67.210  1.00  0.00    -0.206 A  
HETATM   15  O   UNL     1     -10.000  11.535  69.310  1.00  0.00    -0.418 OA 
HETATM   16  H   UNL     1      -9.605  12.289  69.730  1.00  0.00     0.000 HD 
HETATM   17  C   UNL     1      -9.977  12.611  65.827  1.00  0.00    -0.266 A  
ENDBRANCH   5   8
ENDBRANCH   2   5
TORSDOF 2
ENDMDL
MODEL      141
REMARK 921   NORMALIZED FREE ENERGY PREDICTED BY IDOCK:   -3.12 KCAL/MOL
REMARK 922        TOTAL FREE ENERGY PREDICTED BY IDOCK:   -3.56 KCAL/MOL
REMARK 923 INTER-LIGAND FREE ENERGY PREDICTED BY IDOCK:   -3.50 KCAL/MOL
REMARK 924 INTRA-LIGAND FREE ENERGY PREDICTED BY IDOCK:   -0.06 KCAL/MOL
REMARK 927      BINDING AFFINITY PREDICTED BY RF-SCORE:    0.00 PKD
ROOT
HETATM    1  N   UNL     1     -10.663  19.205  67.374  1.00  0.00    -0.483 NA 
HETATM    2  C   UNL     1      -9.269  19.581  67.656  1.00  0.00    -0.315 C  
HETATM    3  H1  UNL     1     -11.326  19.833  67.829  1.00  0.00     0.000 HD 
HETATM    4  H2  UNL     1     -10.842  18.233  67.624  1.00  0.00     0.000 HD 
ENDROOT
BRANCH   2   5
HETATM    5  C   UNL     1      -8.265  18.629  66.967  1.00  0.00    -0.253 C  
HETATM    6  H   UNL     1      -8.217  17.556  65.322  1.00  0.00     0.000 HD 
HETATM    7  O   UNL     1      -8.835  18.141  65.746  1.00  0.00    -0.462 OA 
BRANCH   5   8
HETATM    8  C   UNL     1      -7.890  17.473  67.876  1.00  0.00    -0.218 A  
HETATM    9  C   UNL     1      -8.742  16.369  68.060  1.00  0.00    -0.183 A  
HETATM   10  C   UNL     1      -8.372  15.353  68.936  1.00  0.00    -0.203 A  
HETATM   11  O   UNL     1      -9.162  14.254  69.144  1.00  0.00    -0.396 OA 
HETATM   12  C   UNL     1      -7.174  15.429  69.642  1.00  0.00    -0.174 A  
HETATM   13  H   UNL     1      -8.909  13.560  69.741  1.00  0.00     0.000 HD 
HETATM   14  C   UNL     1      -6.324  16.510  69.477  1.00  0.00    -0.214 A  
HETATM   15  O   UNL     1      -6.830  14.436  70.514  1.00  0.00    -0.388 OA 
HETATM   16  H   UNL     1      -6.013  14.487  70.995  1.00  0.00     0.000 HD 
HETATM   17  C   UNL     1      -6.680  17.529  68.592  1.00  0.00    -0.211 A  
ENDBRANCH   5   8
ENDBRANCH   2   5
TORSDOF 2
ENDMDL
MODEL      142
REMARK 921   NORMALIZED FREE ENERGY PREDICTED BY IDOCK:   -3.11 KCAL/MOL
REMARK 922        TOTAL FREE ENERGY PREDICTED BY IDOCK:   -3.55 KCAL/MOL
REMARK 923 INTER-LIGAND FREE ENERGY PREDICTED BY IDOCK:   -3.46 KCAL/MOL
REMARK 924 INTRA-LIGAND FREE ENERGY PREDICTED BY IDOCK:   -0.09 KCAL/MOL
REMARK 927      BINDING AFFINITY PREDICTED BY RF-SCORE:    0.00 PKD
ROOT
HETATM    1  N   UNL     1      -7.495  14.698  66.826  1.00  0.00    -0.234 NA 
HETATM    2  C   UNL     1      -8.336  14.406  67.996  1.00  0.00    -0.157 C  
HETATM    3  H1  UNL     1      -6.514  14.814  67.082  1.00  0.00     0.000 HD 
HETATM    4  H2  UNL     1      -7.842  15.508  66.312  1.00  0.00     0.000 HD 
ENDROOT
BRANCH   2   5
HETATM    5  C   UNL     1      -9.822  14.231  67.608  1.00  0.00    -0.224 C  
HETATM    6  H   UNL     1     -11.549  14.931  68.229  1.00  0.00     0.000 HD 
HETATM    7  O   UNL     1     -10.636  15.038  68.468  1.00  0.00    -0.226 OA 
BRANCH   5   8
HETATM    8  C   UNL     1     -10.245  12.776  67.691  1.00  0.00    -0.219 A  
HETATM    9  C   UNL     1     -11.243  12.345  68.584  1.00  0.00    -0.314 A  
HETATM   10  C   UNL     1     -11.568  10.993  68.653  1.00  0.00    -0.316 A  
HETATM   11  O   UNL     1     -12.538  10.525  69.498  1.00  0.00    -0.645 OA 
HETATM   12  C   UNL     1     -10.902  10.064  67.858  1.00  0.00    -0.271 A  
HETATM   13  H   UNL     1     -12.759   9.602  69.545  1.00  0.00     0.000 HD 
HETATM   14  C   UNL     1      -9.913  10.469  66.976  1.00  0.00    -0.244 A  
HETATM   15  O   UNL     1     -11.214   8.738  67.948  1.00  0.00    -0.410 OA 
HETATM   16  H   UNL     1     -10.760   8.105  67.405  1.00  0.00     0.000 HD 
HETATM   17  C   UNL     1      -9.588  11.824  66.890  1.00  0.00    -0.204 A  
ENDBRANCH   5   8
ENDBRANCH   2   5
TORSDOF 2
ENDMDL
MODEL      143
REMARK 921   NORMALIZED FREE ENERGY PREDICTED BY IDOCK:   -3.10 KCAL/MOL
REMARK 922        TOTAL FREE ENERGY PREDICTED BY IDOCK:   -3.54 KCAL/MOL
REMARK 923 INTER-LIGAND FREE ENERGY PREDICTED BY IDOCK:   -3.52 KCAL/MOL
REMARK 924 INTRA-LIGAND FREE ENERGY PREDICTED BY IDOCK:   -0.02 KCAL/MOL
REMARK 927      BINDING AFFINITY PREDICTED BY RF-SCORE:    0.00 PKD
ROOT
HETATM    1  N   UNL     1     -10.310  14.784  68.491  1.00  0.00    -0.231 NA 
HETATM    2  C   UNL     1     -10.765  14.949  67.103  1.00  0.00    -0.296 C  
HETATM    3  H1  UNL     1     -10.476  13.839  68.837  1.00  0.00     0.000 HD 
HETATM    4  H2  UNL     1     -10.730  15.483  69.105  1.00  0.00     0.000 HD 
ENDROOT
BRANCH   2   5
HETATM    5  C   UNL     1     -10.514  16.381  66.579  1.00  0.00    -0.282 C  
HETATM    6  H   UNL     1     -10.447  17.266  64.827  1.00  0.00     0.000 HD 
HETATM    7  O   UNL     1     -10.601  16.385  65.149  1.00  0.00    -0.610 OA 
BRANCH   5   8
HETATM    8  C   UNL     1      -9.163  16.903  67.030  1.00  0.00    -0.246 A  
HETATM    9  C   UNL     1      -9.047  17.996  67.909  1.00  0.00    -0.269 A  
HETATM   10  C   UNL     1      -7.784  18.465  68.260  1.00  0.00    -0.293 A  
HETATM   11  O   UNL     1      -7.618  19.518  69.118  1.00  0.00    -0.361 OA 
HETATM   12  C   UNL     1      -6.638  17.872  67.736  1.00  0.00    -0.189 A  
HETATM   13  H   UNL     1      -6.756  19.838  69.358  1.00  0.00     0.000 HD 
HETATM   14  C   UNL     1      -6.733  16.798  66.866  1.00  0.00    -0.256 A  
HETATM   15  O   UNL     1      -5.405  18.353  68.072  1.00  0.00    -0.163 OA 
HETATM   16  H   UNL     1      -4.623  17.949  67.715  1.00  0.00     0.000 HD 
HETATM   17  C   UNL     1      -7.993  16.313  66.516  1.00  0.00    -0.326 A  
ENDBRANCH   5   8
ENDBRANCH   2   5
TORSDOF 2
ENDMDL
MODEL      144
REMARK 921   NORMALIZED FREE ENERGY PREDICTED BY IDOCK:   -3.10 KCAL/MOL
REMARK 922        TOTAL FREE ENERGY PREDICTED BY IDOCK:   -3.54 KCAL/MOL
REMARK 923 INTER-LIGAND FREE ENERGY PREDICTED BY IDOCK:   -3.44 KCAL/MOL
REMARK 924 INTRA-LIGAND FREE ENERGY PREDICTED BY IDOCK:   -0.10 KCAL/MOL
REMARK 927      BINDING AFFINITY PREDICTED BY RF-SCORE:    0.00 PKD
ROOT
HETATM    1  N   UNL     1      -8.379   8.771  72.629  1.00  0.00    -0.400 NA 
HETATM    2  C   UNL     1      -9.298   8.942  71.494  1.00  0.00    -0.265 C  
HETATM    3  H1  UNL     1      -8.858   8.418  73.457  1.00  0.00     0.000 HD 
HETATM    4  H2  UNL     1      -7.875   9.634  72.832  1.00  0.00     0.000 HD 
ENDROOT
BRANCH   2   5
HETATM    5  C   UNL     1      -8.571   9.477  70.240  1.00  0.00    -0.226 C  
HETATM    6  H   UNL     1      -7.013  10.616  69.872  1.00  0.00     0.000 HD 
HETATM    7  O   UNL     1      -7.460  10.287  70.644  1.00  0.00    -0.213 OA 
BRANCH   5   8
HETATM    8  C   UNL     1      -9.513  10.274  69.355  1.00  0.00    -0.225 A  
HETATM    9  C   UNL     1      -9.053  10.973  68.224  1.00  0.00    -0.158 A  
HETATM   10  C   UNL     1      -9.948  11.723  67.468  1.00  0.00    -0.192 A  
HETATM   11  O   UNL     1      -9.552  12.413  66.354  1.00  0.00    -0.237 OA 
HETATM   12  C   UNL     1     -11.291  11.800  67.831  1.00  0.00    -0.292 A  
HETATM   13  H   UNL     1     -10.163  12.926  65.837  1.00  0.00     0.000 HD 
HETATM   14  C   UNL     1     -11.761  11.122  68.943  1.00  0.00    -0.406 A  
HETATM   15  O   UNL     1     -12.156  12.555  67.093  1.00  0.00    -0.504 OA 
HETATM   16  H   UNL     1     -13.071  12.607  67.340  1.00  0.00     0.000 HD 
HETATM   17  C   UNL     1     -10.874  10.357  69.703  1.00  0.00    -0.320 A  
ENDBRANCH   5   8
ENDBRANCH   2   5
TORSDOF 2
ENDMDL
MODEL      145
REMARK 921   NORMALIZED FREE ENERGY PREDICTED BY IDOCK:   -3.08 KCAL/MOL
REMARK 922        TOTAL FREE ENERGY PREDICTED BY IDOCK:   -3.52 KCAL/MOL
REMARK 923 INTER-LIGAND FREE ENERGY PREDICTED BY IDOCK:   -3.44 KCAL/MOL
REMARK 924 INTRA-LIGAND FREE ENERGY PREDICTED BY IDOCK:   -0.08 KCAL/MOL
REMARK 927      BINDING AFFINITY PREDICTED BY RF-SCORE:    0.00 PKD
ROOT
HETATM    1  N   UNL     1      -6.803  11.335  68.864  1.00  0.00    -0.078 NA 
HETATM    2  C   UNL     1      -7.817  11.506  67.814  1.00  0.00    -0.126 C  
HETATM    3  H1  UNL     1      -6.703  10.358  69.142  1.00  0.00     0.000 HD 
HETATM    4  H2  UNL     1      -6.998  11.931  69.669  1.00  0.00     0.000 HD 
ENDROOT
BRANCH   2   5
HETATM    5  C   UNL     1      -7.969  12.986  67.395  1.00  0.00    -0.172 C  
HETATM    6  H   UNL     1      -7.650  14.741  68.218  1.00  0.00     0.000 HD 
HETATM    7  O   UNL     1      -7.557  13.831  68.477  1.00  0.00    -0.124 OA 
BRANCH   5   8
HETATM    8  C   UNL     1      -9.397  13.301  66.990  1.00  0.00    -0.242 A  
HETATM    9  C   UNL     1     -10.260  14.030  67.828  1.00  0.00    -0.240 A  
HETATM   10  C   UNL     1     -11.575  14.258  67.431  1.00  0.00    -0.369 A  
HETATM   11  O   UNL     1     -12.451  14.969  68.205  1.00  0.00    -0.496 OA 
HETATM   12  C   UNL     1     -12.045  13.756  66.220  1.00  0.00    -0.446 A  
HETATM   13  H   UNL     1     -13.348  15.125  67.934  1.00  0.00     0.000 HD 
HETATM   14  C   UNL     1     -11.211  13.032  65.384  1.00  0.00    -0.317 A  
HETATM   15  O   UNL     1     -13.342  13.968  65.849  1.00  0.00    -0.609 OA 
HETATM   16  H   UNL     1     -13.662  13.626  65.023  1.00  0.00     0.000 HD 
HETATM   17  C   UNL     1      -9.888  12.807  65.767  1.00  0.00    -0.222 A  
ENDBRANCH   5   8
ENDBRANCH   2   5
TORSDOF 2
ENDMDL
MODEL      146
REMARK 921   NORMALIZED FREE ENERGY PREDICTED BY IDOCK:   -3.07 KCAL/MOL
REMARK 922        TOTAL FREE ENERGY PREDICTED BY IDOCK:   -3.51 KCAL/MOL
REMARK 923 INTER-LIGAND FREE ENERGY PREDICTED BY IDOCK:   -3.41 KCAL/MOL
REMARK 924 INTRA-LIGAND FREE ENERGY PREDICTED BY IDOCK:   -0.10 KCAL/MOL
REMARK 927      BINDING AFFINITY PREDICTED BY RF-SCORE:    0.00 PKD
ROOT
HETATM    1  N   UNL     1      -6.507   8.407  65.864  1.00  0.00    -0.052 NA 
HETATM    2  C   UNL     1      -7.805   8.881  65.362  1.00  0.00    -0.102 C  
HETATM    3  H1  UNL     1      -6.090   7.711  65.245  1.00  0.00     0.000 HD 
HETATM    4  H2  UNL     1      -6.584   8.056  66.818  1.00  0.00     0.000 HD 
ENDROOT
BRANCH   2   5
HETATM    5  C   UNL     1      -8.435   9.935  66.300  1.00  0.00    -0.128 C  
HETATM    6  H   UNL     1      -9.614   9.921  67.871  1.00  0.00     0.000 HD 
HETATM    7  O   UNL     1      -9.227   9.273  67.294  1.00  0.00    -0.125 OA 
BRANCH   5   8
HETATM    8  C   UNL     1      -9.282  10.928  65.523  1.00  0.00    -0.232 A  
HETATM    9  C   UNL     1      -9.826  12.073  66.133  1.00  0.00    -0.255 A  
HETATM   10  C   UNL     1     -10.630  12.932  65.390  1.00  0.00    -0.289 A  
HETATM   11  O   UNL     1     -11.175  14.063  65.934  1.00  0.00    -0.303 OA 
HETATM   12  C   UNL     1     -10.913  12.657  64.054  1.00  0.00    -0.406 A  
HETATM   13  H   UNL     1     -11.724  14.650  65.426  1.00  0.00     0.000 HD 
HETATM   14  C   UNL     1     -10.389  11.532  63.438  1.00  0.00    -0.469 A  
HETATM   15  O   UNL     1     -11.719  13.496  63.340  1.00  0.00    -0.697 OA 
HETATM   16  H   UNL     1     -11.912  13.309  62.429  1.00  0.00     0.000 HD 
HETATM   17  C   UNL     1      -9.572  10.670  64.171  1.00  0.00    -0.353 A  
ENDBRANCH   5   8
ENDBRANCH   2   5
TORSDOF 2
ENDMDL
MODEL      147
REMARK 921   NORMALIZED FREE ENERGY PREDICTED BY IDOCK:   -3.07 KCAL/MOL
REMARK 922        TOTAL FREE ENERGY PREDICTED BY IDOCK:   -3.50 KCAL/MOL
REMARK 923 INTER-LIGAND FREE ENERGY PREDICTED BY IDOCK:   -3.41 KCAL/MOL
REMARK 924 INTRA-LIGAND FREE ENERGY PREDICTED BY IDOCK:   -0.10 KCAL/MOL
REMARK 927      BINDING AFFINITY PREDICTED BY RF-SCORE:    0.00 PKD
ROOT
HETATM    1  N   UNL     1      -7.813   5.870  67.878  1.00  0.00    -0.103 NA 
HETATM    2  C   UNL     1      -7.903   5.043  69.090  1.00  0.00    -0.080 C  
HETATM    3  H1  UNL     1      -6.898   6.313  67.786  1.00  0.00     0.000 HD 
HETATM    4  H2  UNL     1      -8.563   6.560  67.844  1.00  0.00     0.000 HD 
ENDROOT
BRANCH   2   5
HETATM    5  C   UNL     1      -9.289   4.373  69.230  1.00  0.00    -0.156 C  
HETATM    6  H   UNL     1     -10.727   3.809  68.017  1.00  0.00     0.000 HD 
HETATM    7  O   UNL     1      -9.875   4.221  67.931  1.00  0.00    -0.140 OA 
BRANCH   5   8
HETATM    8  C   UNL     1     -10.203   5.182  70.133  1.00  0.00    -0.348 A  
HETATM    9  C   UNL     1     -10.335   4.891  71.503  1.00  0.00    -0.228 A  
HETATM   10  C   UNL     1     -11.218   5.634  72.281  1.00  0.00    -0.259 A  
HETATM   11  O   UNL     1     -11.376   5.398  73.620  1.00  0.00    -0.454 OA 
HETATM   12  C   UNL     1     -11.981   6.650  71.711  1.00  0.00    -0.345 A  
HETATM   13  H   UNL     1     -11.979   5.905  74.152  1.00  0.00     0.000 HD 
HETATM   14  C   UNL     1     -11.867   6.947  70.363  1.00  0.00    -0.351 A  
HETATM   15  O   UNL     1     -12.859   7.360  72.480  1.00  0.00    -0.479 OA 
HETATM   16  H   UNL     1     -13.379   8.053  72.091  1.00  0.00     0.000 HD 
HETATM   17  C   UNL     1     -10.977   6.216  69.575  1.00  0.00    -0.463 A  
ENDBRANCH   5   8
ENDBRANCH   2   5
TORSDOF 2
ENDMDL
MODEL      148
REMARK 921   NORMALIZED FREE ENERGY PREDICTED BY IDOCK:   -3.06 KCAL/MOL
REMARK 922        TOTAL FREE ENERGY PREDICTED BY IDOCK:   -3.49 KCAL/MOL
REMARK 923 INTER-LIGAND FREE ENERGY PREDICTED BY IDOCK:   -3.38 KCAL/MOL
REMARK 924 INTRA-LIGAND FREE ENERGY PREDICTED BY IDOCK:   -0.11 KCAL/MOL
REMARK 927      BINDING AFFINITY PREDICTED BY RF-SCORE:    0.00 PKD
ROOT
HETATM    1  N   UNL     1     -11.335   4.574  65.141  1.00  0.00    -1.113 NA 
HETATM    2  C   UNL     1     -10.329   4.682  66.207  1.00  0.00    -0.255 C  
HETATM    3  H1  UNL     1     -11.771   3.652  65.120  1.00  0.00     0.000 HD 
HETATM    4  H2  UNL     1     -10.939   4.816  64.232  1.00  0.00     0.000 HD 
ENDROOT
BRANCH   2   5
HETATM    5  C   UNL     1      -9.668   6.079  66.237  1.00  0.00    -0.078 C  
HETATM    6  H   UNL     1      -7.894   6.825  65.840  1.00  0.00     0.000 HD 
HETATM    7  O   UNL     1      -8.300   5.966  65.823  1.00  0.00    -0.127 OA 
BRANCH   5   8
HETATM    8  C   UNL     1      -9.753   6.700  67.619  1.00  0.00    -0.142 A  
HETATM    9  C   UNL     1     -10.943   6.674  68.370  1.00  0.00    -0.313 A  
HETATM   10  C   UNL     1     -10.984   7.294  69.615  1.00  0.00    -0.186 A  
HETATM   11  O   UNL     1     -12.113   7.289  70.388  1.00  0.00    -0.535 OA 
HETATM   12  C   UNL     1      -9.863   7.953  70.115  1.00  0.00    -0.184 A  
HETATM   13  H   UNL     1     -12.141   7.712  71.239  1.00  0.00     0.000 HD 
HETATM   14  C   UNL     1      -8.684   7.993  69.387  1.00  0.00    -0.137 A  
HETATM   15  O   UNL     1      -9.920   8.575  71.329  1.00  0.00    -0.190 OA 
HETATM   16  H   UNL     1      -9.156   9.024  71.670  1.00  0.00     0.000 HD 
HETATM   17  C   UNL     1      -8.629   7.364  68.142  1.00  0.00    -0.123 A  
ENDBRANCH   5   8
ENDBRANCH   2   5
TORSDOF 2
ENDMDL
MODEL      149
REMARK 921   NORMALIZED FREE ENERGY PREDICTED BY IDOCK:   -3.05 KCAL/MOL
REMARK 922        TOTAL FREE ENERGY PREDICTED BY IDOCK:   -3.49 KCAL/MOL
REMARK 923 INTER-LIGAND FREE ENERGY PREDICTED BY IDOCK:   -3.42 KCAL/MOL
REMARK 924 INTRA-LIGAND FREE ENERGY PREDICTED BY IDOCK:   -0.07 KCAL/MOL
REMARK 927      BINDING AFFINITY PREDICTED BY RF-SCORE:    0.00 PKD
ROOT
HETATM    1  N   UNL     1      -7.439   4.369  74.209  1.00  0.00    -0.076 NA 
HETATM    2  C   UNL     1      -8.720   4.914  73.735  1.00  0.00    -0.105 C  
HETATM    3  H1  UNL     1      -7.569   3.546  74.797  1.00  0.00     0.000 HD 
HETATM    4  H2  UNL     1      -6.886   5.081  74.685  1.00  0.00     0.000 HD 
ENDROOT
BRANCH   2   5
HETATM    5  C   UNL     1      -8.521   6.161  72.844  1.00  0.00    -0.119 C  
HETATM    6  H   UNL     1      -7.746   7.954  73.053  1.00  0.00     0.000 HD 
HETATM    7  O   UNL     1      -7.868   7.187  73.601  1.00  0.00    -0.101 OA 
BRANCH   5   8
HETATM    8  C   UNL     1      -9.845   6.665  72.299  1.00  0.00    -0.162 A  
HETATM    9  C   UNL     1     -10.246   6.412  70.975  1.00  0.00    -0.227 A  
HETATM   10  C   UNL     1     -11.450   6.931  70.509  1.00  0.00    -0.342 A  
HETATM   11  O   UNL     1     -11.889   6.705  69.232  1.00  0.00    -0.629 OA 
HETATM   12  C   UNL     1     -12.252   7.713  71.338  1.00  0.00    -0.326 A  
HETATM   13  H   UNL     1     -12.711   7.060  68.914  1.00  0.00     0.000 HD 
HETATM   14  C   UNL     1     -11.871   7.976  72.644  1.00  0.00    -0.380 A  
HETATM   15  O   UNL     1     -13.421   8.234  70.864  1.00  0.00    -0.513 OA 
HETATM   16  H   UNL     1     -13.968   8.766  71.430  1.00  0.00     0.000 HD 
HETATM   17  C   UNL     1     -10.671   7.451  73.124  1.00  0.00    -0.436 A  
ENDBRANCH   5   8
ENDBRANCH   2   5
TORSDOF 2
ENDMDL
MODEL      150
REMARK 921   NORMALIZED FREE ENERGY PREDICTED BY IDOCK:   -3.05 KCAL/MOL
REMARK 922        TOTAL FREE ENERGY PREDICTED BY IDOCK:   -3.49 KCAL/MOL
REMARK 923 INTER-LIGAND FREE ENERGY PREDICTED BY IDOCK:   -3.37 KCAL/MOL
REMARK 924 INTRA-LIGAND FREE ENERGY PREDICTED BY IDOCK:   -0.11 KCAL/MOL
REMARK 927      BINDING AFFINITY PREDICTED BY RF-SCORE:    0.00 PKD
ROOT
HETATM    1  N   UNL     1      -7.689   2.989  68.851  1.00  0.00    -0.047 NA 
HETATM    2  C   UNL     1      -8.210   4.363  68.806  1.00  0.00    -0.080 C  
HETATM    3  H1  UNL     1      -6.670   2.966  68.816  1.00  0.00     0.000 HD 
HETATM    4  H2  UNL     1      -8.098   2.413  68.115  1.00  0.00     0.000 HD 
ENDROOT
BRANCH   2   5
HETATM    5  C   UNL     1      -9.754   4.396  68.858  1.00  0.00    -0.141 C  
HETATM    6  H   UNL     1     -11.209   4.968  67.667  1.00  0.00     0.000 HD 
HETATM    7  O   UNL     1     -10.259   4.948  67.635  1.00  0.00    -0.146 OA 
BRANCH   5   8
HETATM    8  C   UNL     1     -10.249   5.201  70.046  1.00  0.00    -0.354 A  
HETATM    9  C   UNL     1     -11.278   6.151  69.919  1.00  0.00    -0.484 A  
HETATM   10  C   UNL     1     -11.669   6.894  71.029  1.00  0.00    -0.345 A  
HETATM   11  O   UNL     1     -12.671   7.824  70.961  1.00  0.00    -0.507 OA 
HETATM   12  C   UNL     1     -11.037   6.716  72.258  1.00  0.00    -0.258 A  
HETATM   13  H   UNL     1     -12.938   8.331  71.718  1.00  0.00     0.000 HD 
HETATM   14  C   UNL     1     -10.018   5.789  72.400  1.00  0.00    -0.194 A  
HETATM   15  O   UNL     1     -11.415   7.465  73.335  1.00  0.00    -0.593 OA 
HETATM   16  H   UNL     1     -10.984   7.344  74.173  1.00  0.00     0.000 HD 
HETATM   17  C   UNL     1      -9.627   5.030  71.296  1.00  0.00    -0.223 A  
ENDBRANCH   5   8
ENDBRANCH   2   5
TORSDOF 2
ENDMDL
MODEL      151
REMARK 921   NORMALIZED FREE ENERGY PREDICTED BY IDOCK:   -3.00 KCAL/MOL
REMARK 922        TOTAL FREE ENERGY PREDICTED BY IDOCK:   -3.43 KCAL/MOL
REMARK 923 INTER-LIGAND FREE ENERGY PREDICTED BY IDOCK:   -3.31 KCAL/MOL
REMARK 924 INTRA-LIGAND FREE ENERGY PREDICTED BY IDOCK:   -0.12 KCAL/MOL
REMARK 927      BINDING AFFINITY PREDICTED BY RF-SCORE:    0.00 PKD
ROOT
HETATM    1  N   UNL     1     -10.280   9.663  69.347  1.00  0.00    -0.197 NA 
HETATM    2  C   UNL     1     -10.454  11.052  68.897  1.00  0.00    -0.204 C  
HETATM    3  H1  UNL     1     -11.073   9.339  69.900  1.00  0.00     0.000 HD 
HETATM    4  H2  UNL     1      -9.402   9.544  69.854  1.00  0.00     0.000 HD 
ENDROOT
BRANCH   2   5
HETATM    5  C   UNL     1      -9.251  11.542  68.060  1.00  0.00    -0.175 C  
HETATM    6  H   UNL     1      -8.407  13.268  67.653  1.00  0.00     0.000 HD 
HETATM    7  O   UNL     1      -9.147  12.967  68.168  1.00  0.00    -0.196 OA 
BRANCH   5   8
HETATM    8  C   UNL     1      -9.387  11.129  66.605  1.00  0.00    -0.194 A  
HETATM    9  C   UNL     1     -10.461  11.567  65.809  1.00  0.00    -0.308 A  
HETATM   10  C   UNL     1     -10.565  11.128  64.492  1.00  0.00    -0.328 A  
HETATM   11  O   UNL     1     -11.585  11.532  63.674  1.00  0.00    -0.520 OA 
HETATM   12  C   UNL     1      -9.624  10.247  63.964  1.00  0.00    -0.304 A  
HETATM   13  H   UNL     1     -11.656  11.233  62.775  1.00  0.00     0.000 HD 
HETATM   14  C   UNL     1      -8.563   9.802  64.735  1.00  0.00    -0.195 A  
HETATM   15  O   UNL     1      -9.747   9.807  62.677  1.00  0.00    -0.549 OA 
HETATM   16  H   UNL     1      -9.106   9.207  62.317  1.00  0.00     0.000 HD 
HETATM   17  C   UNL     1      -8.443  10.245  66.053  1.00  0.00    -0.144 A  
ENDBRANCH   5   8
ENDBRANCH   2   5
TORSDOF 2
ENDMDL
MODEL      152
REMARK 921   NORMALIZED FREE ENERGY PREDICTED BY IDOCK:   -2.98 KCAL/MOL
REMARK 922        TOTAL FREE ENERGY PREDICTED BY IDOCK:   -3.41 KCAL/MOL
REMARK 923 INTER-LIGAND FREE ENERGY PREDICTED BY IDOCK:   -3.31 KCAL/MOL
REMARK 924 INTRA-LIGAND FREE ENERGY PREDICTED BY IDOCK:   -0.10 KCAL/MOL
REMARK 927      BINDING AFFINITY PREDICTED BY RF-SCORE:    0.00 PKD
ROOT
HETATM    1  N   UNL     1     -10.044  19.968  70.135  1.00  0.00    -0.281 NA 
HETATM    2  C   UNL     1     -10.196  19.720  68.694  1.00  0.00    -0.405 C  
HETATM    3  H1  UNL     1     -10.936  20.188  70.580  1.00  0.00     0.000 HD 
HETATM    4  H2  UNL     1      -9.352  20.695  70.315  1.00  0.00     0.000 HD 
ENDROOT
BRANCH   2   5
HETATM    5  C   UNL     1      -8.845  19.388  68.020  1.00  0.00    -0.323 C  
HETATM    6  H   UNL     1      -7.858  19.991  66.433  1.00  0.00     0.000 HD 
HETATM    7  O   UNL     1      -8.689  20.195  66.846  1.00  0.00    -0.325 OA 
BRANCH   5   8
HETATM    8  C   UNL     1      -8.752  17.915  67.667  1.00  0.00    -0.242 A  
HETATM    9  C   UNL     1      -7.601  17.157  67.948  1.00  0.00    -0.180 A  
HETATM   10  C   UNL     1      -7.547  15.820  67.568  1.00  0.00    -0.168 A  
HETATM   11  O   UNL     1      -6.454  15.038  67.826  1.00  0.00    -0.142 OA 
HETATM   12  C   UNL     1      -8.617  15.232  66.897  1.00  0.00    -0.257 A  
HETATM   13  H   UNL     1      -6.418  14.124  67.566  1.00  0.00     0.000 HD 
HETATM   14  C   UNL     1      -9.757  15.963  66.607  1.00  0.00    -0.270 A  
HETATM   15  O   UNL     1      -8.546  13.924  66.510  1.00  0.00    -0.439 OA 
HETATM   16  H   UNL     1      -9.275  13.523  66.053  1.00  0.00     0.000 HD 
HETATM   17  C   UNL     1      -9.826  17.302  66.995  1.00  0.00    -0.281 A  
ENDBRANCH   5   8
ENDBRANCH   2   5
TORSDOF 2
ENDMDL
MODEL      153
REMARK 921   NORMALIZED FREE ENERGY PREDICTED BY IDOCK:   -2.97 KCAL/MOL
REMARK 922        TOTAL FREE ENERGY PREDICTED BY IDOCK:   -3.40 KCAL/MOL
REMARK 923 INTER-LIGAND FREE ENERGY PREDICTED BY IDOCK:   -3.51 KCAL/MOL
REMARK 924 INTRA-LIGAND FREE ENERGY PREDICTED BY IDOCK:    0.11 KCAL/MOL
REMARK 927      BINDING AFFINITY PREDICTED BY RF-SCORE:    0.00 PKD
ROOT
HETATM    1  N   UNL     1     -10.168  18.661  68.507  1.00  0.00    -0.380 NA 
HETATM    2  C   UNL     1     -10.949  18.603  67.263  1.00  0.00    -0.159 C  
HETATM    3  H1  UNL     1     -10.724  19.003  69.291  1.00  0.00     0.000 HD 
HETATM    4  H2  UNL     1      -9.319  19.214  68.387  1.00  0.00     0.000 HD 
ENDROOT
BRANCH   2   5
HETATM    5  C   UNL     1     -10.106  18.085  66.076  1.00  0.00    -0.266 C  
HETATM    6  H   UNL     1     -10.450  17.484  64.238  1.00  0.00     0.000 HD 
HETATM    7  O   UNL     1     -10.969  17.801  64.968  1.00  0.00    -0.784 OA 
BRANCH   5   8
HETATM    8  C   UNL     1      -9.313  16.849  66.461  1.00  0.00    -0.293 A  
HETATM    9  C   UNL     1      -9.886  15.565  66.433  1.00  0.00    -0.298 A  
HETATM   10  C   UNL     1      -9.132  14.466  66.835  1.00  0.00    -0.251 A  
HETATM   11  O   UNL     1      -9.640  13.195  66.818  1.00  0.00    -0.236 OA 
HETATM   12  C   UNL     1      -7.822  14.631  67.279  1.00  0.00    -0.186 A  
HETATM   13  H   UNL     1      -9.125  12.445  67.092  1.00  0.00     0.000 HD 
HETATM   14  C   UNL     1      -7.243  15.889  67.317  1.00  0.00    -0.251 A  
HETATM   15  O   UNL     1      -7.098  13.549  67.689  1.00  0.00    -0.145 OA 
HETATM   16  H   UNL     1      -6.205  13.662  67.991  1.00  0.00     0.000 HD 
HETATM   17  C   UNL     1      -7.987  16.996  66.905  1.00  0.00    -0.256 A  
ENDBRANCH   5   8
ENDBRANCH   2   5
TORSDOF 2
ENDMDL
MODEL      154
REMARK 921   NORMALIZED FREE ENERGY PREDICTED BY IDOCK:   -2.96 KCAL/MOL
REMARK 922        TOTAL FREE ENERGY PREDICTED BY IDOCK:   -3.39 KCAL/MOL
REMARK 923 INTER-LIGAND FREE ENERGY PREDICTED BY IDOCK:   -3.30 KCAL/MOL
REMARK 924 INTRA-LIGAND FREE ENERGY PREDICTED BY IDOCK:   -0.09 KCAL/MOL
REMARK 927      BINDING AFFINITY PREDICTED BY RF-SCORE:    0.00 PKD
ROOT
HETATM    1  N   UNL     1     -13.316   8.476  72.721  1.00  0.00    -0.659 NA 
HETATM    2  C   UNL     1     -12.505   8.869  71.559  1.00  0.00    -0.324 C  
HETATM    3  H1  UNL     1     -14.278   8.807  72.642  1.00  0.00     0.000 HD 
HETATM    4  H2  UNL     1     -12.888   8.786  73.594  1.00  0.00     0.000 HD 
ENDROOT
BRANCH   2   5
HETATM    5  C   UNL     1     -11.047   8.368  71.679  1.00  0.00    -0.278 C  
HETATM    6  H   UNL     1      -9.254   9.159  71.547  1.00  0.00     0.000 HD 
HETATM    7  O   UNL     1     -10.150   9.467  71.473  1.00  0.00    -0.288 OA 
BRANCH   5   8
HETATM    8  C   UNL     1     -10.762   7.258  70.684  1.00  0.00    -0.252 A  
HETATM    9  C   UNL     1     -10.448   5.952  71.103  1.00  0.00    -0.291 A  
HETATM   10  C   UNL     1     -10.154   4.977  70.154  1.00  0.00    -0.268 A  
HETATM   11  O   UNL     1      -9.852   3.691  70.509  1.00  0.00    -0.176 OA 
HETATM   12  C   UNL     1     -10.151   5.289  68.796  1.00  0.00    -0.177 A  
HETATM   13  H   UNL     1      -9.651   3.025  69.861  1.00  0.00     0.000 HD 
HETATM   14  C   UNL     1     -10.453   6.571  68.366  1.00  0.00    -0.258 A  
HETATM   15  O   UNL     1      -9.841   4.331  67.875  1.00  0.00    -0.140 OA 
HETATM   16  H   UNL     1      -9.840   4.543  66.950  1.00  0.00     0.000 HD 
HETATM   17  C   UNL     1     -10.762   7.553  69.309  1.00  0.00    -0.185 A  
ENDBRANCH   5   8
ENDBRANCH   2   5
TORSDOF 2
ENDMDL
MODEL      155
REMARK 921   NORMALIZED FREE ENERGY PREDICTED BY IDOCK:   -2.96 KCAL/MOL
REMARK 922        TOTAL FREE ENERGY PREDICTED BY IDOCK:   -3.39 KCAL/MOL
REMARK 923 INTER-LIGAND FREE ENERGY PREDICTED BY IDOCK:   -3.27 KCAL/MOL
REMARK 924 INTRA-LIGAND FREE ENERGY PREDICTED BY IDOCK:   -0.11 KCAL/MOL
REMARK 927      BINDING AFFINITY PREDICTED BY RF-SCORE:    0.00 PKD
ROOT
HETATM    1  N   UNL     1      -6.716   9.289  66.424  1.00  0.00    -0.071 NA 
HETATM    2  C   UNL     1      -7.989   8.662  66.809  1.00  0.00    -0.094 C  
HETATM    3  H1  UNL     1      -6.015   9.212  67.161  1.00  0.00     0.000 HD 
HETATM    4  H2  UNL     1      -6.851  10.260  66.142  1.00  0.00     0.000 HD 
ENDROOT
BRANCH   2   5
HETATM    5  C   UNL     1      -9.050   8.779  65.692  1.00  0.00    -0.191 C  
HETATM    6  H   UNL     1      -9.047   8.973  63.737  1.00  0.00     0.000 HD 
HETATM    7  O   UNL     1      -8.394   8.901  64.424  1.00  0.00    -0.161 OA 
BRANCH   5   8
HETATM    8  C   UNL     1      -9.970   9.963  65.928  1.00  0.00    -0.347 A  
HETATM    9  C   UNL     1     -10.626  10.157  67.158  1.00  0.00    -0.308 A  
HETATM   10  C   UNL     1     -11.493  11.235  67.313  1.00  0.00    -0.186 A  
HETATM   11  O   UNL     1     -12.148  11.473  68.491  1.00  0.00    -0.522 OA 
HETATM   12  C   UNL     1     -11.727  12.112  66.256  1.00  0.00    -0.320 A  
HETATM   13  H   UNL     1     -12.739  12.209  68.597  1.00  0.00     0.000 HD 
HETATM   14  C   UNL     1     -11.093  11.934  65.037  1.00  0.00    -0.360 A  
HETATM   15  O   UNL     1     -12.594  13.155  66.413  1.00  0.00    -0.332 OA 
HETATM   16  H   UNL     1     -12.754  13.753  65.693  1.00  0.00     0.000 HD 
HETATM   17  C   UNL     1     -10.214  10.863  64.875  1.00  0.00    -0.381 A  
ENDBRANCH   5   8
ENDBRANCH   2   5
TORSDOF 2
ENDMDL
MODEL      156
REMARK 921   NORMALIZED FREE ENERGY PREDICTED BY IDOCK:   -2.96 KCAL/MOL
REMARK 922        TOTAL FREE ENERGY PREDICTED BY IDOCK:   -3.38 KCAL/MOL
REMARK 923 INTER-LIGAND FREE ENERGY PREDICTED BY IDOCK:   -3.28 KCAL/MOL
REMARK 924 INTRA-LIGAND FREE ENERGY PREDICTED BY IDOCK:   -0.10 KCAL/MOL
REMARK 927      BINDING AFFINITY PREDICTED BY RF-SCORE:    0.00 PKD
ROOT
HETATM    1  N   UNL     1     -11.804  10.936  70.690  1.00  0.00    -0.347 NA 
HETATM    2  C   UNL     1     -12.285   9.952  71.670  1.00  0.00    -0.395 C  
HETATM    3  H1  UNL     1     -11.987  11.894  70.990  1.00  0.00     0.000 HD 
HETATM    4  H2  UNL     1     -12.191  10.757  69.764  1.00  0.00     0.000 HD 
ENDROOT
BRANCH   2   5
HETATM    5  C   UNL     1     -12.007   8.501  71.215  1.00  0.00    -0.294 C  
HETATM    6  H   UNL     1     -13.053   6.854  70.987  1.00  0.00     0.000 HD 
HETATM    7  O   UNL     1     -13.224   7.746  71.268  1.00  0.00    -0.285 OA 
BRANCH   5   8
HETATM    8  C   UNL     1     -10.941   7.848  72.075  1.00  0.00    -0.329 A  
HETATM    9  C   UNL     1     -11.164   6.622  72.727  1.00  0.00    -0.263 A  
HETATM   10  C   UNL     1     -10.170   6.083  73.539  1.00  0.00    -0.221 A  
HETATM   11  O   UNL     1     -10.334   4.889  74.187  1.00  0.00    -0.215 OA 
HETATM   12  C   UNL     1      -8.964   6.757  73.723  1.00  0.00    -0.148 A  
HETATM   13  H   UNL     1      -9.655   4.522  74.741  1.00  0.00     0.000 HD 
HETATM   14  C   UNL     1      -8.729   7.968  73.092  1.00  0.00    -0.300 A  
HETATM   15  O   UNL     1      -8.004   6.229  74.537  1.00  0.00    -0.107 OA 
HETATM   16  H   UNL     1      -7.182   6.688  74.662  1.00  0.00     0.000 HD 
HETATM   17  C   UNL     1      -9.714   8.511  72.267  1.00  0.00    -0.380 A  
ENDBRANCH   5   8
ENDBRANCH   2   5
TORSDOF 2
ENDMDL
MODEL      157
REMARK 921   NORMALIZED FREE ENERGY PREDICTED BY IDOCK:   -2.95 KCAL/MOL
REMARK 922        TOTAL FREE ENERGY PREDICTED BY IDOCK:   -3.37 KCAL/MOL
REMARK 923 INTER-LIGAND FREE ENERGY PREDICTED BY IDOCK:   -3.25 KCAL/MOL
REMARK 924 INTRA-LIGAND FREE ENERGY PREDICTED BY IDOCK:   -0.12 KCAL/MOL
REMARK 927      BINDING AFFINITY PREDICTED BY RF-SCORE:    0.00 PKD
ROOT
HETATM    1  N   UNL     1     -10.094  17.974  68.791  1.00  0.00    -0.385 NA 
HETATM    2  C   UNL     1      -9.957  17.823  67.335  1.00  0.00    -0.323 C  
HETATM    3  H1  UNL     1     -10.951  18.466  69.044  1.00  0.00     0.000 HD 
HETATM    4  H2  UNL     1      -9.274  18.426  69.196  1.00  0.00     0.000 HD 
ENDROOT
BRANCH   2   5
HETATM    5  C   UNL     1      -8.658  17.079  66.952  1.00  0.00    -0.225 C  
HETATM    6  H   UNL     1      -7.499  16.956  65.371  1.00  0.00     0.000 HD 
HETATM    7  O   UNL     1      -8.298  17.414  65.606  1.00  0.00    -0.487 OA 
BRANCH   5   8
HETATM    8  C   UNL     1      -8.820  15.577  67.099  1.00  0.00    -0.233 A  
HETATM    9  C   UNL     1      -8.078  14.841  68.041  1.00  0.00    -0.140 A  
HETATM   10  C   UNL     1      -8.231  13.459  68.110  1.00  0.00    -0.160 A  
HETATM   11  O   UNL     1      -7.539  12.700  69.015  1.00  0.00    -0.307 OA 
HETATM   12  C   UNL     1      -9.098  12.799  67.243  1.00  0.00    -0.200 A  
HETATM   13  H   UNL     1      -7.644  11.757  69.062  1.00  0.00     0.000 HD 
HETATM   14  C   UNL     1      -9.833  13.507  66.306  1.00  0.00    -0.306 A  
HETATM   15  O   UNL     1      -9.225  11.441  67.306  1.00  0.00    -0.162 OA 
HETATM   16  H   UNL     1      -9.817  10.991  66.715  1.00  0.00     0.000 HD 
HETATM   17  C   UNL     1      -9.697  14.894  66.236  1.00  0.00    -0.320 A  
ENDBRANCH   5   8
ENDBRANCH   2   5
TORSDOF 2
ENDMDL
MODEL      158
REMARK 921   NORMALIZED FREE ENERGY PREDICTED BY IDOCK:   -2.94 KCAL/MOL
REMARK 922        TOTAL FREE ENERGY PREDICTED BY IDOCK:   -3.36 KCAL/MOL
REMARK 923 INTER-LIGAND FREE ENERGY PREDICTED BY IDOCK:   -3.28 KCAL/MOL
REMARK 924 INTRA-LIGAND FREE ENERGY PREDICTED BY IDOCK:   -0.08 KCAL/MOL
REMARK 927      BINDING AFFINITY PREDICTED BY RF-SCORE:    0.00 PKD
ROOT
HETATM    1  N   UNL     1     -10.151  10.248  64.292  1.00  0.00    -0.410 NA 
HETATM    2  C   UNL     1      -9.835  11.515  64.969  1.00  0.00    -0.257 C  
HETATM    3  H1  UNL     1      -9.381   9.928  63.705  1.00  0.00     0.000 HD 
HETATM    4  H2  UNL     1     -11.018  10.318  63.760  1.00  0.00     0.000 HD 
ENDROOT
BRANCH   2   5
HETATM    5  C   UNL     1     -11.002  12.000  65.858  1.00  0.00    -0.298 C  
HETATM    6  H   UNL     1     -11.723  13.731  66.445  1.00  0.00     0.000 HD 
HETATM    7  O   UNL     1     -11.004  13.433  65.898  1.00  0.00    -0.275 OA 
BRANCH   5   8
HETATM    8  C   UNL     1     -10.901  11.430  67.261  1.00  0.00    -0.311 A  
HETATM    9  C   UNL     1      -9.719  10.829  67.732  1.00  0.00    -0.179 A  
HETATM   10  C   UNL     1      -9.688  10.284  69.012  1.00  0.00    -0.205 A  
HETATM   11  O   UNL     1      -8.561   9.697  69.520  1.00  0.00    -0.143 OA 
HETATM   12  C   UNL     1     -10.821  10.314  69.822  1.00  0.00    -0.287 A  
HETATM   13  H   UNL     1      -8.540   9.325  70.394  1.00  0.00     0.000 HD 
HETATM   14  C   UNL     1     -11.994  10.898  69.373  1.00  0.00    -0.393 A  
HETATM   15  O   UNL     1     -10.785   9.758  71.068  1.00  0.00    -0.324 OA 
HETATM   16  H   UNL     1     -11.557   9.779  71.621  1.00  0.00     0.000 HD 
HETATM   17  C   UNL     1     -12.033  11.458  68.095  1.00  0.00    -0.201 A  
ENDBRANCH   5   8
ENDBRANCH   2   5
TORSDOF 2
ENDMDL
MODEL      159
REMARK 921   NORMALIZED FREE ENERGY PREDICTED BY IDOCK:   -2.94 KCAL/MOL
REMARK 922        TOTAL FREE ENERGY PREDICTED BY IDOCK:   -3.36 KCAL/MOL
REMARK 923 INTER-LIGAND FREE ENERGY PREDICTED BY IDOCK:   -3.27 KCAL/MOL
REMARK 924 INTRA-LIGAND FREE ENERGY PREDICTED BY IDOCK:   -0.08 KCAL/MOL
REMARK 927      BINDING AFFINITY PREDICTED BY RF-SCORE:    0.00 PKD
ROOT
HETATM    1  N   UNL     1      -6.784  10.870  70.660  1.00  0.00    -0.462 NA 
HETATM    2  C   UNL     1      -7.572   9.894  69.893  1.00  0.00    -0.163 C  
HETATM    3  H1  UNL     1      -5.852  10.518  70.880  1.00  0.00     0.000 HD 
HETATM    4  H2  UNL     1      -7.277  11.165  71.502  1.00  0.00     0.000 HD 
ENDROOT
BRANCH   2   5
HETATM    5  C   UNL     1      -8.984  10.428  69.560  1.00  0.00    -0.106 C  
HETATM    6  H   UNL     1     -10.829   9.996  70.076  1.00  0.00     0.000 HD 
HETATM    7  O   UNL     1      -9.962   9.667  70.281  1.00  0.00    -0.241 OA 
BRANCH   5   8
HETATM    8  C   UNL     1      -9.259  10.366  68.068  1.00  0.00    -0.142 A  
HETATM    9  C   UNL     1      -9.249  11.521  67.266  1.00  0.00    -0.168 A  
HETATM   10  C   UNL     1      -9.548  11.420  65.910  1.00  0.00    -0.227 A  
HETATM   11  O   UNL     1      -9.543  12.511  65.085  1.00  0.00    -0.462 OA 
HETATM   12  C   UNL     1      -9.873  10.187  65.348  1.00  0.00    -0.307 A  
HETATM   13  H   UNL     1      -9.748  12.442  64.159  1.00  0.00     0.000 HD 
HETATM   14  C   UNL     1      -9.892   9.040  66.124  1.00  0.00    -0.349 A  
HETATM   15  O   UNL     1     -10.185  10.102  64.021  1.00  0.00    -0.461 OA 
HETATM   16  H   UNL     1     -10.406   9.262  63.638  1.00  0.00     0.000 HD 
HETATM   17  C   UNL     1      -9.582   9.129  67.482  1.00  0.00    -0.186 A  
ENDBRANCH   5   8
ENDBRANCH   2   5
TORSDOF 2
ENDMDL
MODEL      160
REMARK 921   NORMALIZED FREE ENERGY PREDICTED BY IDOCK:   -2.93 KCAL/MOL
REMARK 922        TOTAL FREE ENERGY PREDICTED BY IDOCK:   -3.35 KCAL/MOL
REMARK 923 INTER-LIGAND FREE ENERGY PREDICTED BY IDOCK:   -3.26 KCAL/MOL
REMARK 924 INTRA-LIGAND FREE ENERGY PREDICTED BY IDOCK:   -0.08 KCAL/MOL
REMARK 927      BINDING AFFINITY PREDICTED BY RF-SCORE:    0.00 PKD
ROOT
HETATM    1  N   UNL     1      -9.810   8.378  72.509  1.00  0.00    -0.296 NA 
HETATM    2  C   UNL     1      -8.824   8.031  71.475  1.00  0.00    -0.143 C  
HETATM    3  H1  UNL     1      -9.630   7.888  73.386  1.00  0.00     0.000 HD 
HETATM    4  H2  UNL     1     -10.762   8.216  72.183  1.00  0.00     0.000 HD 
ENDROOT
BRANCH   2   5
HETATM    5  C   UNL     1      -9.096   8.772  70.147  1.00  0.00    -0.167 C  
HETATM    6  H   UNL     1     -10.233  10.261  69.552  1.00  0.00     0.000 HD 
HETATM    7  O   UNL     1     -10.066   9.804  70.369  1.00  0.00    -0.259 OA 
BRANCH   5   8
HETATM    8  C   UNL     1      -9.577   7.817  69.070  1.00  0.00    -0.155 A  
HETATM    9  C   UNL     1      -9.100   7.889  67.749  1.00  0.00    -0.138 A  
HETATM   10  C   UNL     1      -9.602   7.017  66.787  1.00  0.00    -0.171 A  
HETATM   11  O   UNL     1      -9.164   7.041  65.491  1.00  0.00    -0.376 OA 
HETATM   12  C   UNL     1     -10.584   6.087  67.119  1.00  0.00    -0.302 A  
HETATM   13  H   UNL     1      -9.507   6.446  64.834  1.00  0.00     0.000 HD 
HETATM   14  C   UNL     1     -11.069   6.004  68.414  1.00  0.00    -0.271 A  
HETATM   15  O   UNL     1     -11.084   5.250  66.163  1.00  0.00    -0.730 OA 
HETATM   16  H   UNL     1     -11.753   4.615  66.390  1.00  0.00     0.000 HD 
HETATM   17  C   UNL     1     -10.564   6.866  69.389  1.00  0.00    -0.254 A  
ENDBRANCH   5   8
ENDBRANCH   2   5
TORSDOF 2
ENDMDL
MODEL      161
REMARK 921   NORMALIZED FREE ENERGY PREDICTED BY IDOCK:   -2.93 KCAL/MOL
REMARK 922        TOTAL FREE ENERGY PREDICTED BY IDOCK:   -3.35 KCAL/MOL
REMARK 923 INTER-LIGAND FREE ENERGY PREDICTED BY IDOCK:   -3.26 KCAL/MOL
REMARK 924 INTRA-LIGAND FREE ENERGY PREDICTED BY IDOCK:   -0.09 KCAL/MOL
REMARK 927      BINDING AFFINITY PREDICTED BY RF-SCORE:    0.00 PKD
ROOT
HETATM    1  N   UNL     1      -7.171  12.470  69.286  1.00  0.00    -0.319 NA 
HETATM    2  C   UNL     1      -7.436  11.216  68.567  1.00  0.00    -0.112 C  
HETATM    3  H1  UNL     1      -6.205  12.777  69.172  1.00  0.00     0.000 HD 
HETATM    4  H2  UNL     1      -7.422  12.393  70.272  1.00  0.00     0.000 HD 
ENDROOT
BRANCH   2   5
HETATM    5  C   UNL     1      -8.900  10.750  68.740  1.00  0.00    -0.163 C  
HETATM    6  H   UNL     1      -9.947   9.147  68.303  1.00  0.00     0.000 HD 
HETATM    7  O   UNL     1      -9.047   9.433  68.196  1.00  0.00    -0.128 OA 
BRANCH   5   8
HETATM    8  C   UNL     1      -9.866  11.711  68.071  1.00  0.00    -0.193 A  
HETATM    9  C   UNL     1      -9.611  12.250  66.797  1.00  0.00    -0.220 A  
HETATM   10  C   UNL     1     -10.507  13.159  66.243  1.00  0.00    -0.285 A  
HETATM   11  O   UNL     1     -10.309  13.705  65.004  1.00  0.00    -0.353 OA 
HETATM   12  C   UNL     1     -11.644  13.551  66.946  1.00  0.00    -0.363 A  
HETATM   13  H   UNL     1     -10.921  14.326  64.625  1.00  0.00     0.000 HD 
HETATM   14  C   UNL     1     -11.909  13.034  68.204  1.00  0.00    -0.381 A  
HETATM   15  O   UNL     1     -12.506  14.459  66.401  1.00  0.00    -0.468 OA 
HETATM   16  H   UNL     1     -13.281  14.726  66.881  1.00  0.00     0.000 HD 
HETATM   17  C   UNL     1     -11.023  12.112  68.764  1.00  0.00    -0.274 A  
ENDBRANCH   5   8
ENDBRANCH   2   5
TORSDOF 2
ENDMDL
MODEL      162
REMARK 921   NORMALIZED FREE ENERGY PREDICTED BY IDOCK:   -2.93 KCAL/MOL
REMARK 922        TOTAL FREE ENERGY PREDICTED BY IDOCK:   -3.35 KCAL/MOL
REMARK 923 INTER-LIGAND FREE ENERGY PREDICTED BY IDOCK:   -3.25 KCAL/MOL
REMARK 924 INTRA-LIGAND FREE ENERGY PREDICTED BY IDOCK:   -0.10 KCAL/MOL
REMARK 927      BINDING AFFINITY PREDICTED BY RF-SCORE:    0.00 PKD
ROOT
HETATM    1  N   UNL     1     -12.426  11.119  69.505  1.00  0.00    -0.323 NA 
HETATM    2  C   UNL     1     -11.088  10.833  68.966  1.00  0.00    -0.253 C  
HETATM    3  H1  UNL     1     -12.580  10.661  70.403  1.00  0.00     0.000 HD 
HETATM    4  H2  UNL     1     -13.155  10.875  68.835  1.00  0.00     0.000 HD 
ENDROOT
BRANCH   2   5
HETATM    5  C   UNL     1     -10.855  11.527  67.604  1.00  0.00    -0.227 C  
HETATM    6  H   UNL     1     -11.967  12.405  66.243  1.00  0.00     0.000 HD 
HETATM    7  O   UNL     1     -12.111  11.978  67.080  1.00  0.00    -0.587 OA 
BRANCH   5   8
HETATM    8  C   UNL     1     -10.175  10.594  66.620  1.00  0.00    -0.284 A  
HETATM    9  C   UNL     1      -9.808   9.283  66.975  1.00  0.00    -0.257 A  
HETATM   10  C   UNL     1      -9.148   8.479  66.050  1.00  0.00    -0.194 A  
HETATM   11  O   UNL     1      -8.779   7.194  66.343  1.00  0.00    -0.127 OA 
HETATM   12  C   UNL     1      -8.834   8.968  64.784  1.00  0.00    -0.122 A  
HETATM   13  H   UNL     1      -8.328   6.645  65.711  1.00  0.00     0.000 HD 
HETATM   14  C   UNL     1      -9.184  10.257  64.418  1.00  0.00    -0.296 A  
HETATM   15  O   UNL     1      -8.169   8.177  63.891  1.00  0.00    -0.277 OA 
HETATM   16  H   UNL     1      -7.956   8.510  63.028  1.00  0.00     0.000 HD 
HETATM   17  C   UNL     1      -9.856  11.068  65.334  1.00  0.00    -0.301 A  
ENDBRANCH   5   8
ENDBRANCH   2   5
TORSDOF 2
ENDMDL
MODEL      163
REMARK 921   NORMALIZED FREE ENERGY PREDICTED BY IDOCK:   -2.93 KCAL/MOL
REMARK 922        TOTAL FREE ENERGY PREDICTED BY IDOCK:   -3.35 KCAL/MOL
REMARK 923 INTER-LIGAND FREE ENERGY PREDICTED BY IDOCK:   -3.30 KCAL/MOL
REMARK 924 INTRA-LIGAND FREE ENERGY PREDICTED BY IDOCK:   -0.05 KCAL/MOL
REMARK 927      BINDING AFFINITY PREDICTED BY RF-SCORE:    0.00 PKD
ROOT
HETATM    1  N   UNL     1     -12.684   9.511  70.736  1.00  0.00    -0.519 NA 
HETATM    2  C   UNL     1     -12.844   8.139  71.240  1.00  0.00    -0.183 C  
HETATM    3  H1  UNL     1     -13.570   9.907  70.420  1.00  0.00     0.000 HD 
HETATM    4  H2  UNL     1     -11.976   9.557  70.003  1.00  0.00     0.000 HD 
ENDROOT
BRANCH   2   5
HETATM    5  C   UNL     1     -11.501   7.540  71.716  1.00  0.00    -0.260 C  
HETATM    6  H   UNL     1      -9.752   8.233  72.282  1.00  0.00     0.000 HD 
HETATM    7  O   UNL     1     -10.577   8.602  71.988  1.00  0.00    -0.306 OA 
BRANCH   5   8
HETATM    8  C   UNL     1     -10.925   6.588  70.685  1.00  0.00    -0.340 A  
HETATM    9  C   UNL     1     -11.107   6.793  69.305  1.00  0.00    -0.289 A  
HETATM   10  C   UNL     1     -10.595   5.869  68.398  1.00  0.00    -0.250 A  
HETATM   11  O   UNL     1     -10.737   6.028  67.047  1.00  0.00    -0.276 OA 
HETATM   12  C   UNL     1      -9.919   4.737  68.848  1.00  0.00    -0.126 A  
HETATM   13  H   UNL     1     -10.387   5.397  66.428  1.00  0.00     0.000 HD 
HETATM   14  C   UNL     1      -9.735   4.516  70.203  1.00  0.00    -0.287 A  
HETATM   15  O   UNL     1      -9.439   3.827  67.951  1.00  0.00    -0.176 OA 
HETATM   16  H   UNL     1      -8.978   3.055  68.257  1.00  0.00     0.000 HD 
HETATM   17  C   UNL     1     -10.234   5.442  71.120  1.00  0.00    -0.287 A  
ENDBRANCH   5   8
ENDBRANCH   2   5
TORSDOF 2
ENDMDL
MODEL      164
REMARK 921   NORMALIZED FREE ENERGY PREDICTED BY IDOCK:   -2.89 KCAL/MOL
REMARK 922        TOTAL FREE ENERGY PREDICTED BY IDOCK:   -3.31 KCAL/MOL
REMARK 923 INTER-LIGAND FREE ENERGY PREDICTED BY IDOCK:   -3.18 KCAL/MOL
REMARK 924 INTRA-LIGAND FREE ENERGY PREDICTED BY IDOCK:   -0.13 KCAL/MOL
REMARK 927      BINDING AFFINITY PREDICTED BY RF-SCORE:    0.00 PKD
ROOT
HETATM    1  N   UNL     1      -7.587   8.960  66.144  1.00  0.00    -0.090 NA 
HETATM    2  C   UNL     1      -8.834   8.201  65.971  1.00  0.00    -0.172 C  
HETATM    3  H1  UNL     1      -6.762   8.372  66.024  1.00  0.00     0.000 HD 
HETATM    4  H2  UNL     1      -7.569   9.443  67.043  1.00  0.00     0.000 HD 
ENDROOT
BRANCH   2   5
HETATM    5  C   UNL     1     -10.082   9.093  66.154  1.00  0.00    -0.208 C  
HETATM    6  H   UNL     1     -10.615  10.918  65.660  1.00  0.00     0.000 HD 
HETATM    7  O   UNL     1      -9.847  10.370  65.547  1.00  0.00    -0.232 OA 
BRANCH   5   8
HETATM    8  C   UNL     1     -10.429   9.260  67.622  1.00  0.00    -0.325 A  
HETATM    9  C   UNL     1     -10.751  10.516  68.168  1.00  0.00    -0.273 A  
HETATM   10  C   UNL     1     -11.022  10.625  69.529  1.00  0.00    -0.272 A  
HETATM   11  O   UNL     1     -11.349  11.822  70.107  1.00  0.00    -0.497 OA 
HETATM   12  C   UNL     1     -10.960   9.506  70.356  1.00  0.00    -0.278 A  
HETATM   13  H   UNL     1     -11.534  11.897  71.036  1.00  0.00     0.000 HD 
HETATM   14  C   UNL     1     -10.640   8.262  69.836  1.00  0.00    -0.232 A  
HETATM   15  O   UNL     1     -11.207   9.628  71.693  1.00  0.00    -0.367 OA 
HETATM   16  H   UNL     1     -11.165   8.865  72.256  1.00  0.00     0.000 HD 
HETATM   17  C   UNL     1     -10.378   8.139  68.471  1.00  0.00    -0.230 A  
ENDBRANCH   5   8
ENDBRANCH   2   5
TORSDOF 2
ENDMDL
MODEL      165
REMARK 921   NORMALIZED FREE ENERGY PREDICTED BY IDOCK:   -2.89 KCAL/MOL
REMARK 922        TOTAL FREE ENERGY PREDICTED BY IDOCK:   -3.30 KCAL/MOL
REMARK 923 INTER-LIGAND FREE ENERGY PREDICTED BY IDOCK:   -3.20 KCAL/MOL
REMARK 924 INTRA-LIGAND FREE ENERGY PREDICTED BY IDOCK:   -0.10 KCAL/MOL
REMARK 927      BINDING AFFINITY PREDICTED BY RF-SCORE:    0.00 PKD
ROOT
HETATM    1  N   UNL     1      -8.884   6.456  65.347  1.00  0.00    -0.356 NA 
HETATM    2  C   UNL     1      -8.554   5.699  66.564  1.00  0.00    -0.119 C  
HETATM    3  H1  UNL     1      -8.101   7.027  65.029  1.00  0.00     0.000 HD 
HETATM    4  H2  UNL     1      -9.724   7.019  65.477  1.00  0.00     0.000 HD 
ENDROOT
BRANCH   2   5
HETATM    5  C   UNL     1      -9.742   4.835  67.044  1.00  0.00    -0.186 C  
HETATM    6  H   UNL     1     -11.576   4.470  66.441  1.00  0.00     0.000 HD 
HETATM    7  O   UNL     1     -10.846   5.002  66.145  1.00  0.00    -0.294 OA 
BRANCH   5   8
HETATM    8  C   UNL     1     -10.151   5.199  68.459  1.00  0.00    -0.214 A  
HETATM    9  C   UNL     1      -9.660   4.497  69.576  1.00  0.00    -0.266 A  
HETATM   10  C   UNL     1     -10.097   4.841  70.852  1.00  0.00    -0.205 A  
HETATM   11  O   UNL     1      -9.643   4.197  71.970  1.00  0.00    -0.136 OA 
HETATM   12  C   UNL     1     -11.028   5.862  71.029  1.00  0.00    -0.266 A  
HETATM   13  H   UNL     1      -9.941   4.432  72.841  1.00  0.00     0.000 HD 
HETATM   14  C   UNL     1     -11.526   6.561  69.941  1.00  0.00    -0.467 A  
HETATM   15  O   UNL     1     -11.465   6.178  72.283  1.00  0.00    -0.285 OA 
HETATM   16  H   UNL     1     -12.100   6.874  72.404  1.00  0.00     0.000 HD 
HETATM   17  C   UNL     1     -11.086   6.231  68.658  1.00  0.00    -0.409 A  
ENDBRANCH   5   8
ENDBRANCH   2   5
TORSDOF 2
ENDMDL
MODEL      166
REMARK 921   NORMALIZED FREE ENERGY PREDICTED BY IDOCK:   -2.88 KCAL/MOL
REMARK 922        TOTAL FREE ENERGY PREDICTED BY IDOCK:   -3.29 KCAL/MOL
REMARK 923 INTER-LIGAND FREE ENERGY PREDICTED BY IDOCK:   -3.20 KCAL/MOL
REMARK 924 INTRA-LIGAND FREE ENERGY PREDICTED BY IDOCK:   -0.10 KCAL/MOL
REMARK 927      BINDING AFFINITY PREDICTED BY RF-SCORE:    0.00 PKD
ROOT
HETATM    1  N   UNL     1      -7.110   7.286  70.641  1.00  0.00    -0.064 NA 
HETATM    2  C   UNL     1      -8.036   7.979  71.548  1.00  0.00    -0.110 C  
HETATM    3  H1  UNL     1      -6.136   7.512  70.845  1.00  0.00     0.000 HD 
HETATM    4  H2  UNL     1      -7.336   7.475  69.664  1.00  0.00     0.000 HD 
ENDROOT
BRANCH   2   5
HETATM    5  C   UNL     1      -9.511   7.637  71.238  1.00  0.00    -0.153 C  
HETATM    6  H   UNL     1     -10.475   6.204  70.302  1.00  0.00     0.000 HD 
HETATM    7  O   UNL     1      -9.568   6.415  70.492  1.00  0.00    -0.164 OA 
BRANCH   5   8
HETATM    8  C   UNL     1     -10.187   8.758  70.470  1.00  0.00    -0.240 A  
HETATM    9  C   UNL     1     -11.090   9.641  71.090  1.00  0.00    -0.444 A  
HETATM   10  C   UNL     1     -11.716  10.628  70.335  1.00  0.00    -0.353 A  
HETATM   11  O   UNL     1     -12.595  11.516  70.892  1.00  0.00    -0.369 OA 
HETATM   12  C   UNL     1     -11.469  10.736  68.968  1.00  0.00    -0.298 A  
HETATM   13  H   UNL     1     -13.023  12.190  70.377  1.00  0.00     0.000 HD 
HETATM   14  C   UNL     1     -10.586   9.873  68.339  1.00  0.00    -0.258 A  
HETATM   15  O   UNL     1     -12.104  11.695  68.233  1.00  0.00    -0.552 OA 
HETATM   16  H   UNL     1     -11.936  11.770  67.301  1.00  0.00     0.000 HD 
HETATM   17  C   UNL     1      -9.944   8.887  69.090  1.00  0.00    -0.192 A  
ENDBRANCH   5   8
ENDBRANCH   2   5
TORSDOF 2
ENDMDL
MODEL      167
REMARK 921   NORMALIZED FREE ENERGY PREDICTED BY IDOCK:   -2.87 KCAL/MOL
REMARK 922        TOTAL FREE ENERGY PREDICTED BY IDOCK:   -3.28 KCAL/MOL
REMARK 923 INTER-LIGAND FREE ENERGY PREDICTED BY IDOCK:   -3.17 KCAL/MOL
REMARK 924 INTRA-LIGAND FREE ENERGY PREDICTED BY IDOCK:   -0.12 KCAL/MOL
REMARK 927      BINDING AFFINITY PREDICTED BY RF-SCORE:    0.00 PKD
ROOT
HETATM    1  N   UNL     1      -7.534   7.783  67.396  1.00  0.00    -0.091 NA 
HETATM    2  C   UNL     1      -8.813   7.679  66.678  1.00  0.00    -0.142 C  
HETATM    3  H1  UNL     1      -6.736   7.748  66.761  1.00  0.00     0.000 HD 
HETATM    4  H2  UNL     1      -7.458   7.073  68.124  1.00  0.00     0.000 HD 
ENDROOT
BRANCH   2   5
HETATM    5  C   UNL     1     -10.020   7.730  67.641  1.00  0.00    -0.178 C  
HETATM    6  H   UNL     1     -11.812   6.929  67.725  1.00  0.00     0.000 HD 
HETATM    7  O   UNL     1     -11.069   6.897  67.132  1.00  0.00    -0.370 OA 
BRANCH   5   8
HETATM    8  C   UNL     1     -10.517   9.153  67.827  1.00  0.00    -0.306 A  
HETATM    9  C   UNL     1     -11.031   9.603  69.056  1.00  0.00    -0.161 A  
HETATM   10  C   UNL     1     -11.512  10.904  69.166  1.00  0.00    -0.303 A  
HETATM   11  O   UNL     1     -12.014  11.393  70.342  1.00  0.00    -0.340 OA 
HETATM   12  C   UNL     1     -11.504  11.757  68.064  1.00  0.00    -0.319 A  
HETATM   13  H   UNL     1     -12.342  12.281  70.417  1.00  0.00     0.000 HD 
HETATM   14  C   UNL     1     -11.006  11.329  66.844  1.00  0.00    -0.348 A  
HETATM   15  O   UNL     1     -11.998  13.024  68.178  1.00  0.00    -0.343 OA 
HETATM   16  H   UNL     1     -11.992  13.606  67.427  1.00  0.00     0.000 HD 
HETATM   17  C   UNL     1     -10.510  10.030  66.727  1.00  0.00    -0.267 A  
ENDBRANCH   5   8
ENDBRANCH   2   5
TORSDOF 2
ENDMDL
MODEL      168
REMARK 921   NORMALIZED FREE ENERGY PREDICTED BY IDOCK:   -2.83 KCAL/MOL
REMARK 922        TOTAL FREE ENERGY PREDICTED BY IDOCK:   -3.24 KCAL/MOL
REMARK 923 INTER-LIGAND FREE ENERGY PREDICTED BY IDOCK:   -3.12 KCAL/MOL
REMARK 924 INTRA-LIGAND FREE ENERGY PREDICTED BY IDOCK:   -0.11 KCAL/MOL
REMARK 927      BINDING AFFINITY PREDICTED BY RF-SCORE:    0.00 PKD
ROOT
HETATM    1  N   UNL     1     -10.219   6.369  66.253  1.00  0.00    -0.422 NA 
HETATM    2  C   UNL     1      -9.427   5.584  67.210  1.00  0.00    -0.117 C  
HETATM    3  H1  UNL     1     -10.582   5.792  65.494  1.00  0.00     0.000 HD 
HETATM    4  H2  UNL     1      -9.687   7.162  65.893  1.00  0.00     0.000 HD 
ENDROOT
BRANCH   2   5
HETATM    5  C   UNL     1      -8.876   6.459  68.359  1.00  0.00    -0.119 C  
HETATM    6  H   UNL     1      -7.367   6.379  69.614  1.00  0.00     0.000 HD 
HETATM    7  O   UNL     1      -7.706   5.841  68.908  1.00  0.00    -0.087 OA 
BRANCH   5   8
HETATM    8  C   UNL     1      -9.921   6.670  69.440  1.00  0.00    -0.169 A  
HETATM    9  C   UNL     1     -10.630   7.879  69.558  1.00  0.00    -0.220 A  
HETATM   10  C   UNL     1     -11.548   8.040  70.592  1.00  0.00    -0.196 A  
HETATM   11  O   UNL     1     -12.269   9.192  70.745  1.00  0.00    -0.447 OA 
HETATM   12  C   UNL     1     -11.757   7.020  71.518  1.00  0.00    -0.300 A  
HETATM   13  H   UNL     1     -12.896   9.302  71.451  1.00  0.00     0.000 HD 
HETATM   14  C   UNL     1     -11.065   5.824  71.419  1.00  0.00    -0.273 A  
HETATM   15  O   UNL     1     -12.645   7.196  72.539  1.00  0.00    -0.489 OA 
HETATM   16  H   UNL     1     -12.788   6.500  73.170  1.00  0.00     0.000 HD 
HETATM   17  C   UNL     1     -10.150   5.648  70.380  1.00  0.00    -0.284 A  
ENDBRANCH   5   8
ENDBRANCH   2   5
TORSDOF 2
ENDMDL
MODEL      169
REMARK 921   NORMALIZED FREE ENERGY PREDICTED BY IDOCK:   -2.82 KCAL/MOL
REMARK 922        TOTAL FREE ENERGY PREDICTED BY IDOCK:   -3.23 KCAL/MOL
REMARK 923 INTER-LIGAND FREE ENERGY PREDICTED BY IDOCK:   -3.15 KCAL/MOL
REMARK 924 INTRA-LIGAND FREE ENERGY PREDICTED BY IDOCK:   -0.08 KCAL/MOL
REMARK 927      BINDING AFFINITY PREDICTED BY RF-SCORE:    0.00 PKD
ROOT
HETATM    1  N   UNL     1      -7.190   4.639  71.277  1.00  0.00    -0.050 NA 
HETATM    2  C   UNL     1      -7.849   5.365  70.181  1.00  0.00    -0.081 C  
HETATM    3  H1  UNL     1      -7.547   4.922  72.190  1.00  0.00     0.000 HD 
HETATM    4  H2  UNL     1      -6.176   4.736  71.230  1.00  0.00     0.000 HD 
ENDROOT
BRANCH   2   5
HETATM    5  C   UNL     1      -7.307   4.936  68.799  1.00  0.00    -0.061 C  
HETATM    6  H   UNL     1      -5.954   5.588  67.533  1.00  0.00     0.000 HD 
HETATM    7  O   UNL     1      -6.287   5.852  68.383  1.00  0.00    -0.040 OA 
BRANCH   5   8
HETATM    8  C   UNL     1      -8.418   4.876  67.766  1.00  0.00    -0.104 A  
HETATM    9  C   UNL     1      -9.471   5.809  67.757  1.00  0.00    -0.116 A  
HETATM   10  C   UNL     1     -10.489   5.688  66.816  1.00  0.00    -0.291 A  
HETATM   11  O   UNL     1     -11.530   6.574  66.759  1.00  0.00    -0.774 OA 
HETATM   12  C   UNL     1     -10.482   4.642  65.896  1.00  0.00    -0.268 A  
HETATM   13  H   UNL     1     -12.225   6.492  66.116  1.00  0.00     0.000 HD 
HETATM   14  C   UNL     1      -9.455   3.711  65.893  1.00  0.00    -0.163 A  
HETATM   15  O   UNL     1     -11.496   4.521  64.990  1.00  0.00    -1.101 OA 
HETATM   16  H   UNL     1     -11.491   3.808  64.362  1.00  0.00     0.000 HD 
HETATM   17  C   UNL     1      -8.423   3.830  66.825  1.00  0.00    -0.105 A  
ENDBRANCH   5   8
ENDBRANCH   2   5
TORSDOF 2
ENDMDL
MODEL      170
REMARK 921   NORMALIZED FREE ENERGY PREDICTED BY IDOCK:   -2.82 KCAL/MOL
REMARK 922        TOTAL FREE ENERGY PREDICTED BY IDOCK:   -3.23 KCAL/MOL
REMARK 923 INTER-LIGAND FREE ENERGY PREDICTED BY IDOCK:   -3.13 KCAL/MOL
REMARK 924 INTRA-LIGAND FREE ENERGY PREDICTED BY IDOCK:   -0.10 KCAL/MOL
REMARK 927      BINDING AFFINITY PREDICTED BY RF-SCORE:    0.00 PKD
ROOT
HETATM    1  N   UNL     1      -6.902   6.057  68.974  1.00  0.00    -0.060 NA 
HETATM    2  C   UNL     1      -7.017   6.530  70.362  1.00  0.00    -0.064 C  
HETATM    3  H1  UNL     1      -6.348   6.692  68.400  1.00  0.00     0.000 HD 
HETATM    4  H2  UNL     1      -7.820   5.891  68.562  1.00  0.00     0.000 HD 
ENDROOT
BRANCH   2   5
HETATM    5  C   UNL     1      -7.858   5.567  71.231  1.00  0.00    -0.110 C  
HETATM    6  H   UNL     1      -8.658   3.785  71.019  1.00  0.00     0.000 HD 
HETATM    7  O   UNL     1      -8.141   4.377  70.484  1.00  0.00    -0.065 OA 
BRANCH   5   8
HETATM    8  C   UNL     1      -9.146   6.223  71.691  1.00  0.00    -0.145 A  
HETATM    9  C   UNL     1     -10.273   6.312  70.853  1.00  0.00    -0.236 A  
HETATM   10  C   UNL     1     -11.418   6.960  71.305  1.00  0.00    -0.296 A  
HETATM   11  O   UNL     1     -12.543   7.064  70.532  1.00  0.00    -0.618 OA 
HETATM   12  C   UNL     1     -11.452   7.535  72.574  1.00  0.00    -0.327 A  
HETATM   13  H   UNL     1     -13.325   7.507  70.841  1.00  0.00     0.000 HD 
HETATM   14  C   UNL     1     -10.351   7.462  73.411  1.00  0.00    -0.411 A  
HETATM   15  O   UNL     1     -12.574   8.186  73.000  1.00  0.00    -0.656 OA 
HETATM   16  H   UNL     1     -12.597   8.578  73.864  1.00  0.00     0.000 HD 
HETATM   17  C   UNL     1      -9.201   6.804  72.972  1.00  0.00    -0.145 A  
ENDBRANCH   5   8
ENDBRANCH   2   5
TORSDOF 2
ENDMDL
MODEL      171
REMARK 921   NORMALIZED FREE ENERGY PREDICTED BY IDOCK:   -2.80 KCAL/MOL
REMARK 922        TOTAL FREE ENERGY PREDICTED BY IDOCK:   -3.20 KCAL/MOL
REMARK 923 INTER-LIGAND FREE ENERGY PREDICTED BY IDOCK:   -3.08 KCAL/MOL
REMARK 924 INTRA-LIGAND FREE ENERGY PREDICTED BY IDOCK:   -0.12 KCAL/MOL
REMARK 927      BINDING AFFINITY PREDICTED BY RF-SCORE:    0.00 PKD
ROOT
HETATM    1  N   UNL     1     -11.617   6.641  69.458  1.00  0.00    -0.640 NA 
HETATM    2  C   UNL     1     -11.212   7.533  70.554  1.00  0.00    -0.269 C  
HETATM    3  H1  UNL     1     -11.265   6.962  68.555  1.00  0.00     0.000 HD 
HETATM    4  H2  UNL     1     -12.629   6.515  69.437  1.00  0.00     0.000 HD 
ENDROOT
BRANCH   2   5
HETATM    5  C   UNL     1     -11.745   7.047  71.920  1.00  0.00    -0.296 C  
HETATM    6  H   UNL     1     -12.156   7.860  73.661  1.00  0.00     0.000 HD 
HETATM    7  O   UNL     1     -11.827   8.159  72.821  1.00  0.00    -0.389 OA 
BRANCH   5   8
HETATM    8  C   UNL     1     -10.862   5.958  72.501  1.00  0.00    -0.289 A  
HETATM    9  C   UNL     1      -9.461   6.002  72.386  1.00  0.00    -0.153 A  
HETATM   10  C   UNL     1      -8.696   4.958  72.899  1.00  0.00    -0.117 A  
HETATM   11  O   UNL     1      -7.330   4.957  72.821  1.00  0.00    -0.084 OA 
HETATM   12  C   UNL     1      -9.308   3.866  73.510  1.00  0.00    -0.103 A  
HETATM   13  H   UNL     1      -6.807   4.245  73.171  1.00  0.00     0.000 HD 
HETATM   14  C   UNL     1     -10.687   3.804  73.628  1.00  0.00    -0.308 A  
HETATM   15  O   UNL     1      -8.549   2.839  73.992  1.00  0.00    -0.071 OA 
HETATM   16  H   UNL     1      -8.966   2.094  74.408  1.00  0.00     0.000 HD 
HETATM   17  C   UNL     1     -11.463   4.851  73.127  1.00  0.00    -0.362 A  
ENDBRANCH   5   8
ENDBRANCH   2   5
TORSDOF 2
ENDMDL
MODEL      172
REMARK 921   NORMALIZED FREE ENERGY PREDICTED BY IDOCK:   -2.78 KCAL/MOL
REMARK 922        TOTAL FREE ENERGY PREDICTED BY IDOCK:   -3.18 KCAL/MOL
REMARK 923 INTER-LIGAND FREE ENERGY PREDICTED BY IDOCK:   -3.10 KCAL/MOL
REMARK 924 INTRA-LIGAND FREE ENERGY PREDICTED BY IDOCK:   -0.08 KCAL/MOL
REMARK 927      BINDING AFFINITY PREDICTED BY RF-SCORE:    0.00 PKD
ROOT
HETATM    1  N   UNL     1      -6.850  18.642  68.678  1.00  0.00    -0.265 NA 
HETATM    2  C   UNL     1      -8.082  17.848  68.561  1.00  0.00    -0.301 C  
HETATM    3  H1  UNL     1      -6.919  19.529  68.180  1.00  0.00     0.000 HD 
HETATM    4  H2  UNL     1      -6.035  18.109  68.373  1.00  0.00     0.000 HD 
ENDROOT
BRANCH   2   5
HETATM    5  C   UNL     1      -7.975  16.503  69.315  1.00  0.00    -0.104 C  
HETATM    6  H   UNL     1      -6.662  15.049  69.458  1.00  0.00     0.000 HD 
HETATM    7  O   UNL     1      -6.727  15.876  68.993  1.00  0.00    -0.133 OA 
BRANCH   5   8
HETATM    8  C   UNL     1      -9.134  15.585  68.972  1.00  0.00    -0.236 A  
HETATM    9  C   UNL     1     -10.411  15.762  69.536  1.00  0.00    -0.272 A  
HETATM   10  C   UNL     1     -11.431  14.869  69.222  1.00  0.00    -0.303 A  
HETATM   11  O   UNL     1     -12.692  15.003  69.737  1.00  0.00    -0.588 OA 
HETATM   12  C   UNL     1     -11.193  13.794  68.369  1.00  0.00    -0.272 A  
HETATM   13  H   UNL     1     -13.389  14.394  69.523  1.00  0.00     0.000 HD 
HETATM   14  C   UNL     1      -9.942  13.602  67.808  1.00  0.00    -0.235 A  
HETATM   15  O   UNL     1     -12.196  12.913  68.084  1.00  0.00    -0.211 OA 
HETATM   16  H   UNL     1     -12.035  12.181  67.502  1.00  0.00     0.000 HD 
HETATM   17  C   UNL     1      -8.914  14.498  68.107  1.00  0.00    -0.182 A  
ENDBRANCH   5   8
ENDBRANCH   2   5
TORSDOF 2
ENDMDL
MODEL      173
REMARK 921   NORMALIZED FREE ENERGY PREDICTED BY IDOCK:   -2.75 KCAL/MOL
REMARK 922        TOTAL FREE ENERGY PREDICTED BY IDOCK:   -3.15 KCAL/MOL
REMARK 923 INTER-LIGAND FREE ENERGY PREDICTED BY IDOCK:   -3.08 KCAL/MOL
REMARK 924 INTRA-LIGAND FREE ENERGY PREDICTED BY IDOCK:   -0.07 KCAL/MOL
REMARK 927      BINDING AFFINITY PREDICTED BY RF-SCORE:    0.00 PKD
ROOT
HETATM    1  N   UNL     1     -13.222   8.452  72.809  1.00  0.00    -0.628 NA 
HETATM    2  C   UNL     1     -11.993   8.875  72.121  1.00  0.00    -0.349 C  
HETATM    3  H1  UNL     1     -13.926   9.190  72.820  1.00  0.00     0.000 HD 
HETATM    4  H2  UNL     1     -13.023   8.116  73.751  1.00  0.00     0.000 HD 
ENDROOT
BRANCH   2   5
HETATM    5  C   UNL     1     -10.927   7.757  72.106  1.00  0.00    -0.266 C  
HETATM    6  H   UNL     1      -9.757   6.884  73.421  1.00  0.00     0.000 HD 
HETATM    7  O   UNL     1     -10.413   7.572  73.431  1.00  0.00    -0.349 OA 
BRANCH   5   8
HETATM    8  C   UNL     1      -9.801   8.083  71.141  1.00  0.00    -0.198 A  
HETATM    9  C   UNL     1      -9.112   9.308  71.194  1.00  0.00    -0.197 A  
HETATM   10  C   UNL     1      -8.115   9.578  70.262  1.00  0.00    -0.181 A  
HETATM   11  O   UNL     1      -7.410  10.750  70.276  1.00  0.00    -0.452 OA 
HETATM   12  C   UNL     1      -7.806   8.651  69.268  1.00  0.00    -0.101 A  
HETATM   13  H   UNL     1      -6.729  10.934  69.639  1.00  0.00     0.000 HD 
HETATM   14  C   UNL     1      -8.477   7.441  69.198  1.00  0.00    -0.133 A  
HETATM   15  O   UNL     1      -6.840   8.934  68.346  1.00  0.00    -0.063 OA 
HETATM   16  H   UNL     1      -6.629   8.302  67.670  1.00  0.00     0.000 HD 
HETATM   17  C   UNL     1      -9.471   7.156  70.136  1.00  0.00    -0.161 A  
ENDBRANCH   5   8
ENDBRANCH   2   5
TORSDOF 2
ENDMDL
MODEL      174
REMARK 921   NORMALIZED FREE ENERGY PREDICTED BY IDOCK:   -2.75 KCAL/MOL
REMARK 922        TOTAL FREE ENERGY PREDICTED BY IDOCK:   -3.15 KCAL/MOL
REMARK 923 INTER-LIGAND FREE ENERGY PREDICTED BY IDOCK:   -3.05 KCAL/MOL
REMARK 924 INTRA-LIGAND FREE ENERGY PREDICTED BY IDOCK:   -0.10 KCAL/MOL
REMARK 927      BINDING AFFINITY PREDICTED BY RF-SCORE:    0.00 PKD
ROOT
HETATM    1  N   UNL     1      -7.637  10.621  70.173  1.00  0.00    -0.430 NA 
HETATM    2  C   UNL     1      -8.694   9.598  70.190  1.00  0.00    -0.231 C  
HETATM    3  H1  UNL     1      -6.974  10.495  70.938  1.00  0.00     0.000 HD 
HETATM    4  H2  UNL     1      -8.031  11.561  70.176  1.00  0.00     0.000 HD 
ENDROOT
BRANCH   2   5
HETATM    5  C   UNL     1      -9.699   9.789  69.032  1.00  0.00    -0.177 C  
HETATM    6  H   UNL     1     -11.651   9.912  68.844  1.00  0.00     0.000 HD 
HETATM    7  O   UNL     1     -11.033   9.794  69.557  1.00  0.00    -0.232 OA 
BRANCH   5   8
HETATM    8  C   UNL     1      -9.546   8.702  67.984  1.00  0.00    -0.168 A  
HETATM    9  C   UNL     1     -10.529   7.714  67.793  1.00  0.00    -0.282 A  
HETATM   10  C   UNL     1     -10.324   6.713  66.848  1.00  0.00    -0.254 A  
HETATM   11  O   UNL     1     -11.253   5.735  66.618  1.00  0.00    -0.617 OA 
HETATM   12  C   UNL     1      -9.147   6.674  66.103  1.00  0.00    -0.118 A  
HETATM   13  H   UNL     1     -11.113   5.051  65.973  1.00  0.00     0.000 HD 
HETATM   14  C   UNL     1      -8.167   7.636  66.280  1.00  0.00    -0.120 A  
HETATM   15  O   UNL     1      -8.948   5.676  65.193  1.00  0.00    -0.310 OA 
HETATM   16  H   UNL     1      -8.146   5.649  64.684  1.00  0.00     0.000 HD 
HETATM   17  C   UNL     1      -8.367   8.651  67.217  1.00  0.00    -0.108 A  
ENDBRANCH   5   8
ENDBRANCH   2   5
TORSDOF 2
ENDMDL
MODEL      175
REMARK 921   NORMALIZED FREE ENERGY PREDICTED BY IDOCK:   -2.75 KCAL/MOL
REMARK 922        TOTAL FREE ENERGY PREDICTED BY IDOCK:   -3.15 KCAL/MOL
REMARK 923 INTER-LIGAND FREE ENERGY PREDICTED BY IDOCK:   -3.26 KCAL/MOL
REMARK 924 INTRA-LIGAND FREE ENERGY PREDICTED BY IDOCK:    0.11 KCAL/MOL
REMARK 927      BINDING AFFINITY PREDICTED BY RF-SCORE:    0.00 PKD
ROOT
HETATM    1  N   UNL     1     -13.172  13.372  71.263  1.00  0.00    -0.230 NA 
HETATM    2  C   UNL     1     -12.969  12.227  72.163  1.00  0.00    -0.186 C  
HETATM    3  H1  UNL     1     -13.135  14.260  71.763  1.00  0.00     0.000 HD 
HETATM    4  H2  UNL     1     -14.041  13.280  70.736  1.00  0.00     0.000 HD 
ENDROOT
BRANCH   2   5
HETATM    5  C   UNL     1     -13.026  10.881  71.405  1.00  0.00    -0.424 C  
HETATM    6  H   UNL     1     -13.451   9.014  71.846  1.00  0.00     0.000 HD 
HETATM    7  O   UNL     1     -13.415   9.842  72.312  1.00  0.00    -0.434 OA 
BRANCH   5   8
HETATM    8  C   UNL     1     -11.691  10.552  70.764  1.00  0.00    -0.454 A  
HETATM    9  C   UNL     1     -10.881   9.503  71.236  1.00  0.00    -0.413 A  
HETATM   10  C   UNL     1      -9.646   9.266  70.641  1.00  0.00    -0.273 A  
HETATM   11  O   UNL     1      -8.825   8.252  71.056  1.00  0.00    -0.134 OA 
HETATM   12  C   UNL     1      -9.198  10.070  69.595  1.00  0.00    -0.215 A  
HETATM   13  H   UNL     1      -7.982   8.091  70.650  1.00  0.00     0.000 HD 
HETATM   14  C   UNL     1      -9.980  11.110  69.120  1.00  0.00    -0.104 A  
HETATM   15  O   UNL     1      -7.975   9.841  69.032  1.00  0.00    -0.087 OA 
HETATM   16  H   UNL     1      -7.671  10.389  68.319  1.00  0.00     0.000 HD 
HETATM   17  C   UNL     1     -11.226  11.349  69.702  1.00  0.00    -0.301 A  
ENDBRANCH   5   8
ENDBRANCH   2   5
TORSDOF 2
ENDMDL
MODEL      176
REMARK 921   NORMALIZED FREE ENERGY PREDICTED BY IDOCK:   -2.71 KCAL/MOL
REMARK 922        TOTAL FREE ENERGY PREDICTED BY IDOCK:   -3.11 KCAL/MOL
REMARK 923 INTER-LIGAND FREE ENERGY PREDICTED BY IDOCK:   -3.02 KCAL/MOL
REMARK 924 INTRA-LIGAND FREE ENERGY PREDICTED BY IDOCK:   -0.09 KCAL/MOL
REMARK 927      BINDING AFFINITY PREDICTED BY RF-SCORE:    0.00 PKD
ROOT
HETATM    1  N   UNL     1     -11.174  12.765  69.762  1.00  0.00    -0.481 NA 
HETATM    2  C   UNL     1     -10.481  12.535  68.486  1.00  0.00    -0.231 C  
HETATM    3  H1  UNL     1     -11.135  13.744  70.046  1.00  0.00     0.000 HD 
HETATM    4  H2  UNL     1     -10.815  12.152  70.494  1.00  0.00     0.000 HD 
ENDROOT
BRANCH   2   5
HETATM    5  C   UNL     1     -10.540  11.051  68.057  1.00  0.00    -0.204 C  
HETATM    6  H   UNL     1     -11.909   9.819  67.373  1.00  0.00     0.000 HD 
HETATM    7  O   UNL     1     -11.873  10.731  67.638  1.00  0.00    -0.505 OA 
BRANCH   5   8
HETATM    8  C   UNL     1     -10.105  10.134  69.184  1.00  0.00    -0.226 A  
HETATM    9  C   UNL     1      -8.819  10.214  69.749  1.00  0.00    -0.152 A  
HETATM   10  C   UNL     1      -8.451   9.323  70.754  1.00  0.00    -0.195 A  
HETATM   11  O   UNL     1      -7.216   9.366  71.342  1.00  0.00    -0.318 OA 
HETATM   12  C   UNL     1      -9.340   8.344  71.190  1.00  0.00    -0.177 A  
HETATM   13  H   UNL     1      -6.966   8.758  72.027  1.00  0.00     0.000 HD 
HETATM   14  C   UNL     1     -10.609   8.247  70.642  1.00  0.00    -0.235 A  
HETATM   15  O   UNL     1      -8.963   7.462  72.162  1.00  0.00    -0.129 OA 
HETATM   16  H   UNL     1      -9.569   6.794  72.460  1.00  0.00     0.000 HD 
HETATM   17  C   UNL     1     -10.992   9.143  69.643  1.00  0.00    -0.168 A  
ENDBRANCH   5   8
ENDBRANCH   2   5
TORSDOF 2
ENDMDL
MODEL      177
REMARK 921   NORMALIZED FREE ENERGY PREDICTED BY IDOCK:   -2.71 KCAL/MOL
REMARK 922        TOTAL FREE ENERGY PREDICTED BY IDOCK:   -3.10 KCAL/MOL
REMARK 923 INTER-LIGAND FREE ENERGY PREDICTED BY IDOCK:   -3.00 KCAL/MOL
REMARK 924 INTRA-LIGAND FREE ENERGY PREDICTED BY IDOCK:   -0.10 KCAL/MOL
REMARK 927      BINDING AFFINITY PREDICTED BY RF-SCORE:    0.00 PKD
ROOT
HETATM    1  N   UNL     1     -11.271   4.970  65.718  1.00  0.00    -0.867 NA 
HETATM    2  C   UNL     1      -9.884   4.675  66.106  1.00  0.00    -0.226 C  
HETATM    3  H1  UNL     1     -11.843   4.127  65.677  1.00  0.00     0.000 HD 
HETATM    4  H2  UNL     1     -11.309   5.487  64.839  1.00  0.00     0.000 HD 
ENDROOT
BRANCH   2   5
HETATM    5  C   UNL     1      -9.019   5.954  66.168  1.00  0.00    -0.151 C  
HETATM    6  H   UNL     1      -7.184   6.409  66.702  1.00  0.00     0.000 HD 
HETATM    7  O   UNL     1      -7.716   5.622  66.665  1.00  0.00    -0.097 OA 
BRANCH   5   8
HETATM    8  C   UNL     1      -9.664   7.015  67.039  1.00  0.00    -0.216 A  
HETATM    9  C   UNL     1     -10.110   8.239  66.508  1.00  0.00    -0.303 A  
HETATM   10  C   UNL     1     -10.658   9.198  67.355  1.00  0.00    -0.244 A  
HETATM   11  O   UNL     1     -11.115  10.400  66.886  1.00  0.00    -0.170 OA 
HETATM   12  C   UNL     1     -10.752   8.962  68.724  1.00  0.00    -0.090 A  
HETATM   13  H   UNL     1     -11.489  11.055  67.464  1.00  0.00     0.000 HD 
HETATM   14  C   UNL     1     -10.314   7.765  69.266  1.00  0.00    -0.220 A  
HETATM   15  O   UNL     1     -11.273   9.918  69.548  1.00  0.00    -0.289 OA 
HETATM   16  H   UNL     1     -11.338   9.757  70.482  1.00  0.00     0.000 HD 
HETATM   17  C   UNL     1      -9.774   6.791  68.424  1.00  0.00    -0.128 A  
ENDBRANCH   5   8
ENDBRANCH   2   5
TORSDOF 2
ENDMDL
MODEL      178
REMARK 921   NORMALIZED FREE ENERGY PREDICTED BY IDOCK:   -2.70 KCAL/MOL
REMARK 922        TOTAL FREE ENERGY PREDICTED BY IDOCK:   -3.09 KCAL/MOL
REMARK 923 INTER-LIGAND FREE ENERGY PREDICTED BY IDOCK:   -3.01 KCAL/MOL
REMARK 924 INTRA-LIGAND FREE ENERGY PREDICTED BY IDOCK:   -0.08 KCAL/MOL
REMARK 927      BINDING AFFINITY PREDICTED BY RF-SCORE:    0.00 PKD
ROOT
HETATM    1  N   UNL     1     -11.694   6.292  71.068  1.00  0.00    -0.284 NA 
HETATM    2  C   UNL     1     -11.490   7.622  70.476  1.00  0.00    -0.218 C  
HETATM    3  H1  UNL     1     -12.593   6.221  71.545  1.00  0.00     0.000 HD 
HETATM    4  H2  UNL     1     -10.925   6.040  71.688  1.00  0.00     0.000 HD 
ENDROOT
BRANCH   2   5
HETATM    5  C   UNL     1     -10.128   7.729  69.753  1.00  0.00    -0.194 C  
HETATM    6  H   UNL     1      -8.310   8.310  70.218  1.00  0.00     0.000 HD 
HETATM    7  O   UNL     1      -9.148   8.245  70.662  1.00  0.00    -0.145 OA 
BRANCH   5   8
HETATM    8  C   UNL     1     -10.225   8.611  68.522  1.00  0.00    -0.221 A  
HETATM    9  C   UNL     1     -10.915   9.837  68.542  1.00  0.00    -0.195 A  
HETATM   10  C   UNL     1     -11.012  10.591  67.376  1.00  0.00    -0.288 A  
HETATM   11  O   UNL     1     -11.664  11.794  67.346  1.00  0.00    -0.532 OA 
HETATM   12  C   UNL     1     -10.446  10.133  66.188  1.00  0.00    -0.103 A  
HETATM   13  H   UNL     1     -11.730  12.309  66.550  1.00  0.00     0.000 HD 
HETATM   14  C   UNL     1      -9.767   8.927  66.149  1.00  0.00    -0.338 A  
HETATM   15  O   UNL     1     -10.565  10.872  65.046  1.00  0.00    -0.286 OA 
HETATM   16  H   UNL     1     -10.179  10.560  64.236  1.00  0.00     0.000 HD 
HETATM   17  C   UNL     1      -9.654   8.168  67.315  1.00  0.00    -0.211 A  
ENDBRANCH   5   8
ENDBRANCH   2   5
TORSDOF 2
ENDMDL
MODEL      179
REMARK 921   NORMALIZED FREE ENERGY PREDICTED BY IDOCK:   -2.68 KCAL/MOL
REMARK 922        TOTAL FREE ENERGY PREDICTED BY IDOCK:   -3.07 KCAL/MOL
REMARK 923 INTER-LIGAND FREE ENERGY PREDICTED BY IDOCK:   -2.94 KCAL/MOL
REMARK 924 INTRA-LIGAND FREE ENERGY PREDICTED BY IDOCK:   -0.13 KCAL/MOL
REMARK 927      BINDING AFFINITY PREDICTED BY RF-SCORE:    0.00 PKD
ROOT
HETATM    1  N   UNL     1      -8.062   8.089  67.995  1.00  0.00    -0.127 NA 
HETATM    2  C   UNL     1      -8.745   6.797  67.836  1.00  0.00    -0.120 C  
HETATM    3  H1  UNL     1      -8.082   8.639  67.136  1.00  0.00     0.000 HD 
HETATM    4  H2  UNL     1      -7.108   7.965  68.334  1.00  0.00     0.000 HD 
ENDROOT
BRANCH   2   5
HETATM    5  C   UNL     1      -8.715   5.964  69.138  1.00  0.00    -0.118 C  
HETATM    6  H   UNL     1      -9.064   4.099  69.645  1.00  0.00     0.000 HD 
HETATM    7  O   UNL     1      -9.083   4.610  68.844  1.00  0.00    -0.106 OA 
BRANCH   5   8
HETATM    8  C   UNL     1      -9.641   6.550  70.188  1.00  0.00    -0.171 A  
HETATM    9  C   UNL     1      -9.184   6.880  71.477  1.00  0.00    -0.151 A  
HETATM   10  C   UNL     1     -10.081   7.375  72.419  1.00  0.00    -0.187 A  
HETATM   11  O   UNL     1      -9.684   7.719  73.683  1.00  0.00    -0.293 OA 
HETATM   12  C   UNL     1     -11.428   7.530  72.100  1.00  0.00    -0.291 A  
HETATM   13  H   UNL     1     -10.296   8.058  74.326  1.00  0.00     0.000 HD 
HETATM   14  C   UNL     1     -11.897   7.206  70.838  1.00  0.00    -0.379 A  
HETATM   15  O   UNL     1     -12.302   7.998  73.039  1.00  0.00    -0.657 OA 
HETATM   16  H   UNL     1     -13.221   8.104  72.821  1.00  0.00     0.000 HD 
HETATM   17  C   UNL     1     -11.004   6.719  69.882  1.00  0.00    -0.340 A  
ENDBRANCH   5   8
ENDBRANCH   2   5
TORSDOF 2
ENDMDL
MODEL      180
REMARK 921   NORMALIZED FREE ENERGY PREDICTED BY IDOCK:   -2.68 KCAL/MOL
REMARK 922        TOTAL FREE ENERGY PREDICTED BY IDOCK:   -3.07 KCAL/MOL
REMARK 923 INTER-LIGAND FREE ENERGY PREDICTED BY IDOCK:   -2.98 KCAL/MOL
REMARK 924 INTRA-LIGAND FREE ENERGY PREDICTED BY IDOCK:   -0.08 KCAL/MOL
REMARK 927      BINDING AFFINITY PREDICTED BY RF-SCORE:    0.00 PKD
ROOT
HETATM    1  N   UNL     1      -5.202   7.438  73.556  1.00  0.00    -0.042 NA 
HETATM    2  C   UNL     1      -6.372   7.197  72.700  1.00  0.00    -0.052 C  
HETATM    3  H1  UNL     1      -4.518   6.684  73.489  1.00  0.00     0.000 HD 
HETATM    4  H2  UNL     1      -5.478   7.602  74.524  1.00  0.00     0.000 HD 
ENDROOT
BRANCH   2   5
HETATM    5  C   UNL     1      -7.408   8.339  72.803  1.00  0.00    -0.104 C  
HETATM    6  H   UNL     1      -7.859   9.741  74.103  1.00  0.00     0.000 HD 
HETATM    7  O   UNL     1      -7.223   9.038  74.040  1.00  0.00    -0.389 OA 
BRANCH   5   8
HETATM    8  C   UNL     1      -8.826   7.808  72.702  1.00  0.00    -0.213 A  
HETATM    9  C   UNL     1      -9.318   6.837  73.592  1.00  0.00    -0.190 A  
HETATM   10  C   UNL     1     -10.613   6.350  73.434  1.00  0.00    -0.276 A  
HETATM   11  O   UNL     1     -11.141   5.412  74.279  1.00  0.00    -0.390 OA 
HETATM   12  C   UNL     1     -11.417   6.805  72.391  1.00  0.00    -0.264 A  
HETATM   13  H   UNL     1     -12.025   5.080  74.171  1.00  0.00     0.000 HD 
HETATM   14  C   UNL     1     -10.947   7.758  71.502  1.00  0.00    -0.267 A  
HETATM   15  O   UNL     1     -12.678   6.307  72.233  1.00  0.00    -0.537 OA 
HETATM   16  H   UNL     1     -13.226   6.617  71.522  1.00  0.00     0.000 HD 
HETATM   17  C   UNL     1      -9.655   8.261  71.659  1.00  0.00    -0.261 A  
ENDBRANCH   5   8
ENDBRANCH   2   5
TORSDOF 2
ENDMDL
MODEL      181
REMARK 921   NORMALIZED FREE ENERGY PREDICTED BY IDOCK:   -2.68 KCAL/MOL
REMARK 922        TOTAL FREE ENERGY PREDICTED BY IDOCK:   -3.07 KCAL/MOL
REMARK 923 INTER-LIGAND FREE ENERGY PREDICTED BY IDOCK:   -2.96 KCAL/MOL
REMARK 924 INTRA-LIGAND FREE ENERGY PREDICTED BY IDOCK:   -0.11 KCAL/MOL
REMARK 927      BINDING AFFINITY PREDICTED BY RF-SCORE:    0.00 PKD
ROOT
HETATM    1  N   UNL     1     -10.022   7.769  67.284  1.00  0.00    -0.189 NA 
HETATM    2  C   UNL     1     -10.784   8.855  67.918  1.00  0.00    -0.121 C  
HETATM    3  H1  UNL     1     -10.593   6.936  67.140  1.00  0.00     0.000 HD 
HETATM    4  H2  UNL     1      -9.176   7.553  67.811  1.00  0.00     0.000 HD 
ENDROOT
BRANCH   2   5
HETATM    5  C   UNL     1      -9.919  10.117  68.135  1.00  0.00    -0.147 C  
HETATM    6  H   UNL     1      -9.110  11.044  69.667  1.00  0.00     0.000 HD 
HETATM    7  O   UNL     1      -9.643  10.268  69.534  1.00  0.00    -0.224 OA 
BRANCH   5   8
HETATM    8  C   UNL     1     -10.606  11.357  67.594  1.00  0.00    -0.240 A  
HETATM    9  C   UNL     1     -11.039  11.439  66.258  1.00  0.00    -0.281 A  
HETATM   10  C   UNL     1     -11.627  12.613  65.796  1.00  0.00    -0.387 A  
HETATM   11  O   UNL     1     -12.073  12.741  64.509  1.00  0.00    -0.368 OA 
HETATM   12  C   UNL     1     -11.774  13.711  66.642  1.00  0.00    -0.388 A  
HETATM   13  H   UNL     1     -12.475  13.542  64.194  1.00  0.00     0.000 HD 
HETATM   14  C   UNL     1     -11.350  13.649  67.959  1.00  0.00    -0.316 A  
HETATM   15  O   UNL     1     -12.334  14.864  66.173  1.00  0.00    -0.041 OA 
HETATM   16  H   UNL     1     -12.435  15.612  66.749  1.00  0.00     0.000 HD 
HETATM   17  C   UNL     1     -10.770  12.472  68.435  1.00  0.00    -0.259 A  
ENDBRANCH   5   8
ENDBRANCH   2   5
TORSDOF 2
ENDMDL
MODEL      182
REMARK 921   NORMALIZED FREE ENERGY PREDICTED BY IDOCK:   -2.67 KCAL/MOL
REMARK 922        TOTAL FREE ENERGY PREDICTED BY IDOCK:   -3.05 KCAL/MOL
REMARK 923 INTER-LIGAND FREE ENERGY PREDICTED BY IDOCK:   -2.96 KCAL/MOL
REMARK 924 INTRA-LIGAND FREE ENERGY PREDICTED BY IDOCK:   -0.10 KCAL/MOL
REMARK 927      BINDING AFFINITY PREDICTED BY RF-SCORE:    0.00 PKD
ROOT
HETATM    1  N   UNL     1      -7.308   6.382  70.283  1.00  0.00    -0.086 NA 
HETATM    2  C   UNL     1      -8.677   6.406  69.746  1.00  0.00    -0.138 C  
HETATM    3  H1  UNL     1      -7.284   6.054  71.248  1.00  0.00     0.000 HD 
HETATM    4  H2  UNL     1      -6.857   7.292  70.190  1.00  0.00     0.000 HD 
ENDROOT
BRANCH   2   5
HETATM    5  C   UNL     1      -8.714   6.905  68.283  1.00  0.00    -0.123 C  
HETATM    6  H   UNL     1      -9.721   8.245  67.259  1.00  0.00     0.000 HD 
HETATM    7  O   UNL     1      -9.699   7.938  68.158  1.00  0.00    -0.152 OA 
BRANCH   5   8
HETATM    8  C   UNL     1      -9.012   5.769  67.322  1.00  0.00    -0.112 A  
HETATM    9  C   UNL     1     -10.228   5.696  66.618  1.00  0.00    -0.276 A  
HETATM   10  C   UNL     1     -10.472   4.613  65.778  1.00  0.00    -0.255 A  
HETATM   11  O   UNL     1     -11.635   4.499  65.065  1.00  0.00    -1.101 OA 
HETATM   12  C   UNL     1      -9.531   3.595  65.643  1.00  0.00    -0.156 A  
HETATM   13  H   UNL     1     -11.802   3.760  64.491  1.00  0.00     0.000 HD 
HETATM   14  C   UNL     1      -8.330   3.649  66.332  1.00  0.00    -0.105 A  
HETATM   15  O   UNL     1      -9.790   2.528  64.833  1.00  0.00    -0.349 OA 
HETATM   16  H   UNL     1      -9.147   1.834  64.740  1.00  0.00     0.000 HD 
HETATM   17  C   UNL     1      -8.070   4.736  67.168  1.00  0.00    -0.102 A  
ENDBRANCH   5   8
ENDBRANCH   2   5
TORSDOF 2
ENDMDL
MODEL      183
REMARK 921   NORMALIZED FREE ENERGY PREDICTED BY IDOCK:   -2.66 KCAL/MOL
REMARK 922        TOTAL FREE ENERGY PREDICTED BY IDOCK:   -3.05 KCAL/MOL
REMARK 923 INTER-LIGAND FREE ENERGY PREDICTED BY IDOCK:   -3.36 KCAL/MOL
REMARK 924 INTRA-LIGAND FREE ENERGY PREDICTED BY IDOCK:    0.31 KCAL/MOL
REMARK 927      BINDING AFFINITY PREDICTED BY RF-SCORE:    0.00 PKD
ROOT
HETATM    1  N   UNL     1      -8.068  13.084  68.108  1.00  0.00    -0.147 NA 
HETATM    2  C   UNL     1      -8.341  11.970  67.188  1.00  0.00    -0.181 C  
HETATM    3  H1  UNL     1      -7.085  13.119  68.382  1.00  0.00     0.000 HD 
HETATM    4  H2  UNL     1      -8.678  13.049  68.925  1.00  0.00     0.000 HD 
ENDROOT
BRANCH   2   5
HETATM    5  C   UNL     1      -9.829  11.916  66.775  1.00  0.00    -0.197 C  
HETATM    6  H   UNL     1     -10.872  12.288  65.152  1.00  0.00     0.000 HD 
HETATM    7  O   UNL     1      -9.957  12.322  65.406  1.00  0.00    -0.262 OA 
BRANCH   5   8
HETATM    8  C   UNL     1     -10.682  12.796  67.670  1.00  0.00    -0.236 A  
HETATM    9  C   UNL     1     -10.815  14.178  67.441  1.00  0.00    -0.291 A  
HETATM   10  C   UNL     1     -11.575  14.950  68.314  1.00  0.00    -0.334 A  
HETATM   11  O   UNL     1     -11.743  16.296  68.130  1.00  0.00    -0.192 OA 
HETATM   12  C   UNL     1     -12.190  14.369  69.421  1.00  0.00    -0.266 A  
HETATM   13  H   UNL     1     -12.262  16.823  68.726  1.00  0.00     0.000 HD 
HETATM   14  C   UNL     1     -12.067  13.011  69.665  1.00  0.00    -0.304 A  
HETATM   15  O   UNL     1     -12.917  15.140  70.282  1.00  0.00    -0.610 OA 
HETATM   16  H   UNL     1     -13.336  14.744  71.036  1.00  0.00     0.000 HD 
HETATM   17  C   UNL     1     -11.316  12.225  68.789  1.00  0.00    -0.337 A  
ENDBRANCH   5   8
ENDBRANCH   2   5
TORSDOF 2
ENDMDL
MODEL      184
REMARK 921   NORMALIZED FREE ENERGY PREDICTED BY IDOCK:   -2.63 KCAL/MOL
REMARK 922        TOTAL FREE ENERGY PREDICTED BY IDOCK:   -3.02 KCAL/MOL
REMARK 923 INTER-LIGAND FREE ENERGY PREDICTED BY IDOCK:   -2.89 KCAL/MOL
REMARK 924 INTRA-LIGAND FREE ENERGY PREDICTED BY IDOCK:   -0.13 KCAL/MOL
REMARK 927      BINDING AFFINITY PREDICTED BY RF-SCORE:    0.00 PKD
ROOT
HETATM    1  N   UNL     1      -5.422  16.847  69.246  1.00  0.00    -0.138 NA 
HETATM    2  C   UNL     1      -5.405  17.327  67.856  1.00  0.00    -0.118 C  
HETATM    3  H1  UNL     1      -4.637  16.227  69.444  1.00  0.00     0.000 HD 
HETATM    4  H2  UNL     1      -6.311  16.404  69.475  1.00  0.00     0.000 HD 
ENDROOT
BRANCH   2   5
HETATM    5  C   UNL     1      -6.595  18.267  67.556  1.00  0.00    -0.195 C  
HETATM    6  H   UNL     1      -7.302  19.948  68.285  1.00  0.00     0.000 HD 
HETATM    7  O   UNL     1      -6.571  19.370  68.470  1.00  0.00    -0.239 OA 
BRANCH   5   8
HETATM    8  C   UNL     1      -7.918  17.529  67.652  1.00  0.00    -0.207 A  
HETATM    9  C   UNL     1      -8.290  16.552  66.711  1.00  0.00    -0.274 A  
HETATM   10  C   UNL     1      -9.532  15.932  66.817  1.00  0.00    -0.235 A  
HETATM   11  O   UNL     1      -9.937  14.969  65.933  1.00  0.00    -0.285 OA 
HETATM   12  C   UNL     1     -10.413  16.283  67.837  1.00  0.00    -0.295 A  
HETATM   13  H   UNL     1     -10.785  14.546  66.006  1.00  0.00     0.000 HD 
HETATM   14  C   UNL     1     -10.066  17.247  68.770  1.00  0.00    -0.337 A  
HETATM   15  O   UNL     1     -11.637  15.683  67.920  1.00  0.00    -0.305 OA 
HETATM   16  H   UNL     1     -12.238  15.923  68.615  1.00  0.00     0.000 HD 
HETATM   17  C   UNL     1      -8.818  17.866  68.679  1.00  0.00    -0.267 A  
ENDBRANCH   5   8
ENDBRANCH   2   5
TORSDOF 2
ENDMDL
MODEL      185
REMARK 921   NORMALIZED FREE ENERGY PREDICTED BY IDOCK:   -2.63 KCAL/MOL
REMARK 922        TOTAL FREE ENERGY PREDICTED BY IDOCK:   -3.02 KCAL/MOL
REMARK 923 INTER-LIGAND FREE ENERGY PREDICTED BY IDOCK:   -2.93 KCAL/MOL
REMARK 924 INTRA-LIGAND FREE ENERGY PREDICTED BY IDOCK:   -0.09 KCAL/MOL
REMARK 927      BINDING AFFINITY PREDICTED BY RF-SCORE:    0.00 PKD
ROOT
HETATM    1  N   UNL     1      -7.584  13.824  67.269  1.00  0.00    -0.343 NA 
HETATM    2  C   UNL     1      -7.625  12.440  67.762  1.00  0.00    -0.134 C  
HETATM    3  H1  UNL     1      -6.676  14.260  67.431  1.00  0.00     0.000 HD 
HETATM    4  H2  UNL     1      -8.339  14.382  67.669  1.00  0.00     0.000 HD 
ENDROOT
BRANCH   2   5
HETATM    5  C   UNL     1      -9.001  11.781  67.518  1.00  0.00    -0.168 C  
HETATM    6  H   UNL     1     -10.832  12.396  67.158  1.00  0.00     0.000 HD 
HETATM    7  O   UNL     1      -9.986  12.801  67.309  1.00  0.00    -0.215 OA 
BRANCH   5   8
HETATM    8  C   UNL     1      -9.400  10.890  68.680  1.00  0.00    -0.188 A  
HETATM    9  C   UNL     1     -10.712  10.877  69.186  1.00  0.00    -0.265 A  
HETATM   10  C   UNL     1     -11.019  10.074  70.281  1.00  0.00    -0.316 A  
HETATM   11  O   UNL     1     -12.282  10.018  70.805  1.00  0.00    -0.293 OA 
HETATM   12  C   UNL     1     -10.035   9.297  70.888  1.00  0.00    -0.297 A  
HETATM   13  H   UNL     1     -12.492   9.470  71.552  1.00  0.00     0.000 HD 
HETATM   14  C   UNL     1      -8.736   9.301  70.406  1.00  0.00    -0.263 A  
HETATM   15  O   UNL     1     -10.342   8.529  71.973  1.00  0.00    -0.280 OA 
HETATM   16  H   UNL     1      -9.671   7.999  72.386  1.00  0.00     0.000 HD 
HETATM   17  C   UNL     1      -8.420  10.094  69.301  1.00  0.00    -0.167 A  
ENDBRANCH   5   8
ENDBRANCH   2   5
TORSDOF 2
ENDMDL
MODEL      186
REMARK 921   NORMALIZED FREE ENERGY PREDICTED BY IDOCK:   -2.63 KCAL/MOL
REMARK 922        TOTAL FREE ENERGY PREDICTED BY IDOCK:   -3.01 KCAL/MOL
REMARK 923 INTER-LIGAND FREE ENERGY PREDICTED BY IDOCK:   -2.92 KCAL/MOL
REMARK 924 INTRA-LIGAND FREE ENERGY PREDICTED BY IDOCK:   -0.10 KCAL/MOL
REMARK 927      BINDING AFFINITY PREDICTED BY RF-SCORE:    0.00 PKD
ROOT
HETATM    1  N   UNL     1     -12.833  10.291  69.859  1.00  0.00    -0.533 NA 
HETATM    2  C   UNL     1     -11.903   9.424  70.598  1.00  0.00    -0.207 C  
HETATM    3  H1  UNL     1     -13.424  10.838  70.485  1.00  0.00     0.000 HD 
HETATM    4  H2  UNL     1     -13.392   9.754  69.196  1.00  0.00     0.000 HD 
ENDROOT
BRANCH   2   5
HETATM    5  C   UNL     1     -11.009   8.595  69.648  1.00  0.00    -0.091 C  
HETATM    6  H   UNL     1      -9.616   7.223  69.838  1.00  0.00     0.000 HD 
HETATM    7  O   UNL     1     -10.165   7.733  70.423  1.00  0.00    -0.194 OA 
BRANCH   5   8
HETATM    8  C   UNL     1     -10.172   9.493  68.756  1.00  0.00    -0.215 A  
HETATM    9  C   UNL     1      -9.383  10.532  69.282  1.00  0.00    -0.177 A  
HETATM   10  C   UNL     1      -8.666  11.356  68.419  1.00  0.00    -0.157 A  
HETATM   11  O   UNL     1      -7.876  12.374  68.881  1.00  0.00    -0.309 OA 
HETATM   12  C   UNL     1      -8.736  11.169  67.041  1.00  0.00    -0.148 A  
HETATM   13  H   UNL     1      -7.386  12.936  68.292  1.00  0.00     0.000 HD 
HETATM   14  C   UNL     1      -9.512  10.154  66.504  1.00  0.00    -0.214 A  
HETATM   15  O   UNL     1      -8.044  11.995  66.203  1.00  0.00    -0.370 OA 
HETATM   16  H   UNL     1      -8.092  11.868  65.263  1.00  0.00     0.000 HD 
HETATM   17  C   UNL     1     -10.226   9.315  67.361  1.00  0.00    -0.304 A  
ENDBRANCH   5   8
ENDBRANCH   2   5
TORSDOF 2
ENDMDL
MODEL      187
REMARK 921   NORMALIZED FREE ENERGY PREDICTED BY IDOCK:   -2.62 KCAL/MOL
REMARK 922        TOTAL FREE ENERGY PREDICTED BY IDOCK:   -3.00 KCAL/MOL
REMARK 923 INTER-LIGAND FREE ENERGY PREDICTED BY IDOCK:   -2.89 KCAL/MOL
REMARK 924 INTRA-LIGAND FREE ENERGY PREDICTED BY IDOCK:   -0.11 KCAL/MOL
REMARK 927      BINDING AFFINITY PREDICTED BY RF-SCORE:    0.00 PKD
ROOT
HETATM    1  N   UNL     1     -11.601  13.989  68.288  1.00  0.00    -0.309 NA 
HETATM    2  C   UNL     1     -10.803  13.972  67.054  1.00  0.00    -0.290 C  
HETATM    3  H1  UNL     1     -11.396  14.807  68.863  1.00  0.00     0.000 HD 
HETATM    4  H2  UNL     1     -11.484  13.125  68.818  1.00  0.00     0.000 HD 
ENDROOT
BRANCH   2   5
HETATM    5  C   UNL     1     -11.113  12.732  66.184  1.00  0.00    -0.290 C  
HETATM    6  H   UNL     1     -12.468  11.310  66.161  1.00  0.00     0.000 HD 
HETATM    7  O   UNL     1     -12.278  12.072  66.696  1.00  0.00    -0.550 OA 
BRANCH   5   8
HETATM    8  C   UNL     1      -9.935  11.776  66.148  1.00  0.00    -0.254 A  
HETATM    9  C   UNL     1      -8.696  12.105  66.726  1.00  0.00    -0.183 A  
HETATM   10  C   UNL     1      -7.632  11.212  66.631  1.00  0.00    -0.147 A  
HETATM   11  O   UNL     1      -6.410  11.481  67.184  1.00  0.00    -0.096 OA 
HETATM   12  C   UNL     1      -7.782  10.004  65.954  1.00  0.00    -0.116 A  
HETATM   13  H   UNL     1      -5.684  10.872  67.120  1.00  0.00     0.000 HD 
HETATM   14  C   UNL     1      -8.994   9.664  65.375  1.00  0.00    -0.231 A  
HETATM   15  O   UNL     1      -6.727   9.144  65.849  1.00  0.00    -0.077 OA 
HETATM   16  H   UNL     1      -6.829   8.320  65.388  1.00  0.00     0.000 HD 
HETATM   17  C   UNL     1     -10.070  10.548  65.474  1.00  0.00    -0.349 A  
ENDBRANCH   5   8
ENDBRANCH   2   5
TORSDOF 2
ENDMDL
MODEL      188
REMARK 921   NORMALIZED FREE ENERGY PREDICTED BY IDOCK:   -2.62 KCAL/MOL
REMARK 922        TOTAL FREE ENERGY PREDICTED BY IDOCK:   -3.00 KCAL/MOL
REMARK 923 INTER-LIGAND FREE ENERGY PREDICTED BY IDOCK:   -2.92 KCAL/MOL
REMARK 924 INTRA-LIGAND FREE ENERGY PREDICTED BY IDOCK:   -0.09 KCAL/MOL
REMARK 927      BINDING AFFINITY PREDICTED BY RF-SCORE:    0.00 PKD
ROOT
HETATM    1  N   UNL     1      -6.757   4.989  71.420  1.00  0.00    -0.038 NA 
HETATM    2  C   UNL     1      -8.002   5.698  71.089  1.00  0.00    -0.112 C  
HETATM    3  H1  UNL     1      -6.413   4.437  70.634  1.00  0.00     0.000 HD 
HETATM    4  H2  UNL     1      -6.869   4.415  72.255  1.00  0.00     0.000 HD 
ENDROOT
BRANCH   2   5
HETATM    5  C   UNL     1      -8.524   6.533  72.280  1.00  0.00    -0.112 C  
HETATM    6  H   UNL     1      -9.552   6.191  73.919  1.00  0.00     0.000 HD 
HETATM    7  O   UNL     1      -9.232   5.678  73.186  1.00  0.00    -0.133 OA 
BRANCH   5   8
HETATM    8  C   UNL     1      -9.421   7.664  71.809  1.00  0.00    -0.178 A  
HETATM    9  C   UNL     1      -8.973   8.630  70.890  1.00  0.00    -0.227 A  
HETATM   10  C   UNL     1      -9.818   9.672  70.520  1.00  0.00    -0.231 A  
HETATM   11  O   UNL     1      -9.434  10.631  69.623  1.00  0.00    -0.414 OA 
HETATM   12  C   UNL     1     -11.096   9.774  71.066  1.00  0.00    -0.361 A  
HETATM   13  H   UNL     1     -10.011  11.342  69.370  1.00  0.00     0.000 HD 
HETATM   14  C   UNL     1     -11.552   8.835  71.976  1.00  0.00    -0.436 A  
HETATM   15  O   UNL     1     -11.910  10.811  70.711  1.00  0.00    -0.326 OA 
HETATM   16  H   UNL     1     -12.781  10.881  71.083  1.00  0.00     0.000 HD 
HETATM   17  C   UNL     1     -10.717   7.779  72.345  1.00  0.00    -0.347 A  
ENDBRANCH   5   8
ENDBRANCH   2   5
TORSDOF 2
ENDMDL
MODEL      189
REMARK 921   NORMALIZED FREE ENERGY PREDICTED BY IDOCK:   -2.61 KCAL/MOL
REMARK 922        TOTAL FREE ENERGY PREDICTED BY IDOCK:   -2.99 KCAL/MOL
REMARK 923 INTER-LIGAND FREE ENERGY PREDICTED BY IDOCK:   -3.05 KCAL/MOL
REMARK 924 INTRA-LIGAND FREE ENERGY PREDICTED BY IDOCK:    0.06 KCAL/MOL
REMARK 927      BINDING AFFINITY PREDICTED BY RF-SCORE:    0.00 PKD
ROOT
HETATM    1  N   UNL     1     -12.775  10.467  70.704  1.00  0.00    -0.371 NA 
HETATM    2  C   UNL     1     -12.133  11.775  70.506  1.00  0.00    -0.347 C  
HETATM    3  H1  UNL     1     -13.320  10.438  71.566  1.00  0.00     0.000 HD 
HETATM    4  H2  UNL     1     -12.093   9.710  70.672  1.00  0.00     0.000 HD 
ENDROOT
BRANCH   2   5
HETATM    5  C   UNL     1     -11.306  11.819  69.201  1.00  0.00    -0.279 C  
HETATM    6  H   UNL     1     -11.644  12.248  67.314  1.00  0.00     0.000 HD 
HETATM    7  O   UNL     1     -12.153  12.221  68.116  1.00  0.00    -0.407 OA 
BRANCH   5   8
HETATM    8  C   UNL     1     -10.670  10.473  68.906  1.00  0.00    -0.253 A  
HETATM    9  C   UNL     1      -9.693   9.915  69.751  1.00  0.00    -0.266 A  
HETATM   10  C   UNL     1      -9.108   8.697  69.416  1.00  0.00    -0.149 A  
HETATM   11  O   UNL     1      -8.161   8.108  70.209  1.00  0.00    -0.116 OA 
HETATM   12  C   UNL     1      -9.470   8.037  68.244  1.00  0.00    -0.141 A  
HETATM   13  H   UNL     1      -7.762   7.277  69.980  1.00  0.00     0.000 HD 
HETATM   14  C   UNL     1     -10.427   8.574  67.398  1.00  0.00    -0.351 A  
HETATM   15  O   UNL     1      -8.875   6.853  67.915  1.00  0.00    -0.124 OA 
HETATM   16  H   UNL     1      -9.122   6.403  67.116  1.00  0.00     0.000 HD 
HETATM   17  C   UNL     1     -11.028   9.789  67.730  1.00  0.00    -0.242 A  
ENDBRANCH   5   8
ENDBRANCH   2   5
TORSDOF 2
ENDMDL
MODEL      190
REMARK 921   NORMALIZED FREE ENERGY PREDICTED BY IDOCK:   -2.59 KCAL/MOL
REMARK 922        TOTAL FREE ENERGY PREDICTED BY IDOCK:   -2.97 KCAL/MOL
REMARK 923 INTER-LIGAND FREE ENERGY PREDICTED BY IDOCK:   -2.89 KCAL/MOL
REMARK 924 INTRA-LIGAND FREE ENERGY PREDICTED BY IDOCK:   -0.07 KCAL/MOL
REMARK 927      BINDING AFFINITY PREDICTED BY RF-SCORE:    0.00 PKD
ROOT
HETATM    1  N   UNL     1     -12.405  13.937  69.330  1.00  0.00    -0.426 NA 
HETATM    2  C   UNL     1     -11.563  12.839  69.825  1.00  0.00    -0.218 C  
HETATM    3  H1  UNL     1     -12.706  14.556  70.083  1.00  0.00     0.000 HD 
HETATM    4  H2  UNL     1     -13.201  13.584  68.799  1.00  0.00     0.000 HD 
ENDROOT
BRANCH   2   5
HETATM    5  C   UNL     1     -11.107  11.902  68.683  1.00  0.00    -0.246 C  
HETATM    6  H   UNL     1     -11.954  10.992  67.162  1.00  0.00     0.000 HD 
HETATM    7  O   UNL     1     -12.235  11.568  67.864  1.00  0.00    -0.586 OA 
BRANCH   5   8
HETATM    8  C   UNL     1     -10.456  10.644  69.229  1.00  0.00    -0.252 A  
HETATM    9  C   UNL     1     -11.212   9.505  69.563  1.00  0.00    -0.105 A  
HETATM   10  C   UNL     1     -10.575   8.390  70.099  1.00  0.00    -0.233 A  
HETATM   11  O   UNL     1     -11.264   7.255  70.432  1.00  0.00    -0.269 OA 
HETATM   12  C   UNL     1      -9.200   8.399  70.322  1.00  0.00    -0.152 A  
HETATM   13  H   UNL     1     -10.829   6.493  70.798  1.00  0.00     0.000 HD 
HETATM   14  C   UNL     1      -8.441   9.513  70.004  1.00  0.00    -0.210 A  
HETATM   15  O   UNL     1      -8.589   7.307  70.867  1.00  0.00    -0.134 OA 
HETATM   16  H   UNL     1      -7.651   7.313  71.019  1.00  0.00     0.000 HD 
HETATM   17  C   UNL     1      -9.068  10.633  69.455  1.00  0.00    -0.064 A  
ENDBRANCH   5   8
ENDBRANCH   2   5
TORSDOF 2
ENDMDL
MODEL      191
REMARK 921   NORMALIZED FREE ENERGY PREDICTED BY IDOCK:   -2.58 KCAL/MOL
REMARK 922        TOTAL FREE ENERGY PREDICTED BY IDOCK:   -2.96 KCAL/MOL
REMARK 923 INTER-LIGAND FREE ENERGY PREDICTED BY IDOCK:   -3.23 KCAL/MOL
REMARK 924 INTRA-LIGAND FREE ENERGY PREDICTED BY IDOCK:    0.27 KCAL/MOL
REMARK 927      BINDING AFFINITY PREDICTED BY RF-SCORE:    0.00 PKD
ROOT
HETATM    1  N   UNL     1     -11.594  13.993  68.295  1.00  0.00    -0.309 NA 
HETATM    2  C   UNL     1     -10.747  13.972  67.094  1.00  0.00    -0.283 C  
HETATM    3  H1  UNL     1     -11.455  14.841  68.845  1.00  0.00     0.000 HD 
HETATM    4  H2  UNL     1     -11.454  13.157  68.862  1.00  0.00     0.000 HD 
ENDROOT
BRANCH   2   5
HETATM    5  C   UNL     1     -10.958  12.687  66.261  1.00  0.00    -0.283 C  
HETATM    6  H   UNL     1     -12.480  11.752  65.445  1.00  0.00     0.000 HD 
HETATM    7  O   UNL     1     -12.351  12.542  65.958  1.00  0.00    -0.615 OA 
BRANCH   5   8
HETATM    8  C   UNL     1     -10.445  11.463  66.998  1.00  0.00    -0.271 A  
HETATM    9  C   UNL     1      -9.751  11.569  68.217  1.00  0.00    -0.198 A  
HETATM   10  C   UNL     1      -9.264  10.421  68.834  1.00  0.00    -0.177 A  
HETATM   11  O   UNL     1      -8.590  10.469  70.024  1.00  0.00    -0.334 OA 
HETATM   12  C   UNL     1      -9.445   9.171  68.246  1.00  0.00    -0.142 A  
HETATM   13  H   UNL     1      -8.258   9.685  70.445  1.00  0.00     0.000 HD 
HETATM   14  C   UNL     1     -10.122   9.047  67.044  1.00  0.00    -0.318 A  
HETATM   15  O   UNL     1      -8.946   8.053  68.849  1.00  0.00    -0.141 OA 
HETATM   16  H   UNL     1      -9.069   7.201  68.449  1.00  0.00     0.000 HD 
HETATM   17  C   UNL     1     -10.625  10.192  66.422  1.00  0.00    -0.155 A  
ENDBRANCH   5   8
ENDBRANCH   2   5
TORSDOF 2
ENDMDL
MODEL      192
REMARK 921   NORMALIZED FREE ENERGY PREDICTED BY IDOCK:   -2.58 KCAL/MOL
REMARK 922        TOTAL FREE ENERGY PREDICTED BY IDOCK:   -2.96 KCAL/MOL
REMARK 923 INTER-LIGAND FREE ENERGY PREDICTED BY IDOCK:   -2.84 KCAL/MOL
REMARK 924 INTRA-LIGAND FREE ENERGY PREDICTED BY IDOCK:   -0.11 KCAL/MOL
REMARK 927      BINDING AFFINITY PREDICTED BY RF-SCORE:    0.00 PKD
ROOT
HETATM    1  N   UNL     1      -8.562  10.681  65.625  1.00  0.00    -0.178 NA 
HETATM    2  C   UNL     1      -9.486  10.412  66.736  1.00  0.00    -0.166 C  
HETATM    3  H1  UNL     1      -8.899  10.289  64.746  1.00  0.00     0.000 HD 
HETATM    4  H2  UNL     1      -7.620  10.354  65.839  1.00  0.00     0.000 HD 
ENDROOT
BRANCH   2   5
HETATM    5  C   UNL     1      -8.975  11.005  68.069  1.00  0.00    -0.145 C  
HETATM    6  H   UNL     1      -9.120  10.559  69.976  1.00  0.00     0.000 HD 
HETATM    7  O   UNL     1      -9.435  10.194  69.157  1.00  0.00    -0.183 OA 
BRANCH   5   8
HETATM    8  C   UNL     1      -9.436  12.440  68.246  1.00  0.00    -0.203 A  
HETATM    9  C   UNL     1     -10.792  12.764  68.436  1.00  0.00    -0.272 A  
HETATM   10  C   UNL     1     -11.170  14.099  68.552  1.00  0.00    -0.260 A  
HETATM   11  O   UNL     1     -12.474  14.466  68.747  1.00  0.00    -0.582 OA 
HETATM   12  C   UNL     1     -10.221  15.114  68.464  1.00  0.00    -0.231 A  
HETATM   13  H   UNL     1     -12.733  15.377  68.826  1.00  0.00     0.000 HD 
HETATM   14  C   UNL     1      -8.882  14.814  68.273  1.00  0.00    -0.179 A  
HETATM   15  O   UNL     1     -10.606  16.420  68.559  1.00  0.00    -0.269 OA 
HETATM   16  H   UNL     1      -9.958  17.112  68.500  1.00  0.00     0.000 HD 
HETATM   17  C   UNL     1      -8.490  13.479  68.167  1.00  0.00    -0.172 A  
ENDBRANCH   5   8
ENDBRANCH   2   5
TORSDOF 2
ENDMDL
MODEL      193
REMARK 921   NORMALIZED FREE ENERGY PREDICTED BY IDOCK:   -2.57 KCAL/MOL
REMARK 922        TOTAL FREE ENERGY PREDICTED BY IDOCK:   -2.95 KCAL/MOL
REMARK 923 INTER-LIGAND FREE ENERGY PREDICTED BY IDOCK:   -2.84 KCAL/MOL
REMARK 924 INTRA-LIGAND FREE ENERGY PREDICTED BY IDOCK:   -0.10 KCAL/MOL
REMARK 927      BINDING AFFINITY PREDICTED BY RF-SCORE:    0.00 PKD
ROOT
HETATM    1  N   UNL     1      -7.882  13.041  69.021  1.00  0.00    -0.324 NA 
HETATM    2  C   UNL     1      -8.101  11.971  68.037  1.00  0.00    -0.153 C  
HETATM    3  H1  UNL     1      -6.890  13.222  69.173  1.00  0.00     0.000 HD 
HETATM    4  H2  UNL     1      -8.361  12.842  69.899  1.00  0.00     0.000 HD 
ENDROOT
BRANCH   2   5
HETATM    5  C   UNL     1      -9.604  11.697  67.807  1.00  0.00    -0.178 C  
HETATM    6  H   UNL     1     -11.295  12.628  68.173  1.00  0.00     0.000 HD 
HETATM    7  O   UNL     1     -10.370  12.797  68.315  1.00  0.00    -0.231 OA 
BRANCH   5   8
HETATM    8  C   UNL     1     -10.036  10.401  68.468  1.00  0.00    -0.179 A  
HETATM    9  C   UNL     1     -10.274  10.319  69.852  1.00  0.00    -0.250 A  
HETATM   10  C   UNL     1     -10.628   9.098  70.418  1.00  0.00    -0.230 A  
HETATM   11  O   UNL     1     -10.879   8.967  71.757  1.00  0.00    -0.334 OA 
HETATM   12  C   UNL     1     -10.731   7.955  69.628  1.00  0.00    -0.218 A  
HETATM   13  H   UNL     1     -11.121   8.133  72.143  1.00  0.00     0.000 HD 
HETATM   14  C   UNL     1     -10.495   8.015  68.264  1.00  0.00    -0.210 A  
HETATM   15  O   UNL     1     -11.058   6.758  70.197  1.00  0.00    -0.271 OA 
HETATM   16  H   UNL     1     -11.129   5.979  69.658  1.00  0.00     0.000 HD 
HETATM   17  C   UNL     1     -10.151   9.238  67.684  1.00  0.00    -0.266 A  
ENDBRANCH   5   8
ENDBRANCH   2   5
TORSDOF 2
ENDMDL
MODEL      194
REMARK 921   NORMALIZED FREE ENERGY PREDICTED BY IDOCK:   -2.54 KCAL/MOL
REMARK 922        TOTAL FREE ENERGY PREDICTED BY IDOCK:   -2.92 KCAL/MOL
REMARK 923 INTER-LIGAND FREE ENERGY PREDICTED BY IDOCK:   -2.83 KCAL/MOL
REMARK 924 INTRA-LIGAND FREE ENERGY PREDICTED BY IDOCK:   -0.09 KCAL/MOL
REMARK 927      BINDING AFFINITY PREDICTED BY RF-SCORE:    0.00 PKD
ROOT
HETATM    1  N   UNL     1      -6.917  11.667  67.678  1.00  0.00    -0.087 NA 
HETATM    2  C   UNL     1      -7.348  13.069  67.582  1.00  0.00    -0.147 C  
HETATM    3  H1  UNL     1      -5.917  11.563  67.502  1.00  0.00     0.000 HD 
HETATM    4  H2  UNL     1      -7.465  11.066  67.062  1.00  0.00     0.000 HD 
ENDROOT
BRANCH   2   5
HETATM    5  C   UNL     1      -8.863  13.225  67.847  1.00  0.00    -0.192 C  
HETATM    6  H   UNL     1     -10.529  12.722  66.936  1.00  0.00     0.000 HD 
HETATM    7  O   UNL     1      -9.598  12.626  66.772  1.00  0.00    -0.227 OA 
BRANCH   5   8
HETATM    8  C   UNL     1      -9.247  14.685  68.003  1.00  0.00    -0.197 A  
HETATM    9  C   UNL     1      -8.308  15.661  68.382  1.00  0.00    -0.162 A  
HETATM   10  C   UNL     1      -8.718  16.981  68.553  1.00  0.00    -0.253 A  
HETATM   11  O   UNL     1      -7.842  17.969  68.911  1.00  0.00    -0.272 OA 
HETATM   12  C   UNL     1     -10.052  17.337  68.367  1.00  0.00    -0.333 A  
HETATM   13  H   UNL     1      -8.121  18.870  69.028  1.00  0.00     0.000 HD 
HETATM   14  C   UNL     1     -10.991  16.388  67.998  1.00  0.00    -0.327 A  
HETATM   15  O   UNL     1     -10.446  18.630  68.557  1.00  0.00    -0.370 OA 
HETATM   16  H   UNL     1     -11.355  18.873  68.430  1.00  0.00     0.000 HD 
HETATM   17  C   UNL     1     -10.589  15.065  67.813  1.00  0.00    -0.264 A  
ENDBRANCH   5   8
ENDBRANCH   2   5
TORSDOF 2
ENDMDL
MODEL      195
REMARK 921   NORMALIZED FREE ENERGY PREDICTED BY IDOCK:   -2.52 KCAL/MOL
REMARK 922        TOTAL FREE ENERGY PREDICTED BY IDOCK:   -2.89 KCAL/MOL
REMARK 923 INTER-LIGAND FREE ENERGY PREDICTED BY IDOCK:   -2.79 KCAL/MOL
REMARK 924 INTRA-LIGAND FREE ENERGY PREDICTED BY IDOCK:   -0.10 KCAL/MOL
REMARK 927      BINDING AFFINITY PREDICTED BY RF-SCORE:    0.00 PKD
ROOT
HETATM    1  N   UNL     1      -6.203  16.337  69.813  1.00  0.00    -0.200 NA 
HETATM    2  C   UNL     1      -5.126  16.978  69.045  1.00  0.00    -0.134 C  
HETATM    3  H1  UNL     1      -6.167  15.320  69.745  1.00  0.00     0.000 HD 
HETATM    4  H2  UNL     1      -7.118  16.694  69.538  1.00  0.00     0.000 HD 
ENDROOT
BRANCH   2   5
HETATM    5  C   UNL     1      -5.182  18.519  69.148  1.00  0.00    -0.193 C  
HETATM    6  H   UNL     1      -6.033  19.838  70.329  1.00  0.00     0.000 HD 
HETATM    7  O   UNL     1      -5.999  18.890  70.265  1.00  0.00    -0.229 OA 
BRANCH   5   8
HETATM    8  C   UNL     1      -5.718  19.138  67.870  1.00  0.00    -0.195 A  
HETATM    9  C   UNL     1      -5.233  18.760  66.605  1.00  0.00    -0.150 A  
HETATM   10  C   UNL     1      -5.727  19.386  65.464  1.00  0.00    -0.171 A  
HETATM   11  O   UNL     1      -5.295  19.049  64.210  1.00  0.00    -0.207 OA 
HETATM   12  C   UNL     1      -6.683  20.394  65.568  1.00  0.00    -0.253 A  
HETATM   13  H   UNL     1      -5.632  19.476  63.431  1.00  0.00     0.000 HD 
HETATM   14  C   UNL     1      -7.168  20.782  66.806  1.00  0.00    -0.290 A  
HETATM   15  O   UNL     1      -7.145  21.016  64.444  1.00  0.00    -0.447 OA 
HETATM   16  H   UNL     1      -7.797  21.702  64.514  1.00  0.00     0.000 HD 
HETATM   17  C   UNL     1      -6.689  20.153  67.955  1.00  0.00    -0.321 A  
ENDBRANCH   5   8
ENDBRANCH   2   5
TORSDOF 2
ENDMDL
MODEL      196
REMARK 921   NORMALIZED FREE ENERGY PREDICTED BY IDOCK:   -2.51 KCAL/MOL
REMARK 922        TOTAL FREE ENERGY PREDICTED BY IDOCK:   -2.89 KCAL/MOL
REMARK 923 INTER-LIGAND FREE ENERGY PREDICTED BY IDOCK:   -2.80 KCAL/MOL
REMARK 924 INTRA-LIGAND FREE ENERGY PREDICTED BY IDOCK:   -0.09 KCAL/MOL
REMARK 927      BINDING AFFINITY PREDICTED BY RF-SCORE:    0.00 PKD
ROOT
HETATM    1  N   UNL     1      -6.615   7.804  67.161  1.00  0.00    -0.061 NA 
HETATM    2  C   UNL     1      -7.591   7.871  68.258  1.00  0.00    -0.116 C  
HETATM    3  H1  UNL     1      -6.565   6.871  66.751  1.00  0.00     0.000 HD 
HETATM    4  H2  UNL     1      -5.695   8.126  67.462  1.00  0.00     0.000 HD 
ENDROOT
BRANCH   2   5
HETATM    5  C   UNL     1      -7.665   9.284  68.878  1.00  0.00    -0.079 C  
HETATM    6  H   UNL     1      -7.925  10.041  70.672  1.00  0.00     0.000 HD 
HETATM    7  O   UNL     1      -7.880   9.172  70.291  1.00  0.00    -0.092 OA 
BRANCH   5   8
HETATM    8  C   UNL     1      -8.767  10.109  68.239  1.00  0.00    -0.120 A  
HETATM    9  C   UNL     1     -10.073  10.132  68.762  1.00  0.00    -0.198 A  
HETATM   10  C   UNL     1     -11.060  10.871  68.116  1.00  0.00    -0.280 A  
HETATM   11  O   UNL     1     -12.343  10.933  68.589  1.00  0.00    -0.805 OA 
HETATM   12  C   UNL     1     -10.768  11.574  66.949  1.00  0.00    -0.263 A  
HETATM   13  H   UNL     1     -13.016  11.437  68.148  1.00  0.00     0.000 HD 
HETATM   14  C   UNL     1      -9.489  11.559  66.418  1.00  0.00    -0.230 A  
HETATM   15  O   UNL     1     -11.748  12.279  66.313  1.00  0.00    -0.426 OA 
HETATM   16  H   UNL     1     -11.549  12.758  65.517  1.00  0.00     0.000 HD 
HETATM   17  C   UNL     1      -8.489  10.831  67.064  1.00  0.00    -0.128 A  
ENDBRANCH   5   8
ENDBRANCH   2   5
TORSDOF 2
ENDMDL
MODEL      197
REMARK 921   NORMALIZED FREE ENERGY PREDICTED BY IDOCK:   -2.51 KCAL/MOL
REMARK 922        TOTAL FREE ENERGY PREDICTED BY IDOCK:   -2.88 KCAL/MOL
REMARK 923 INTER-LIGAND FREE ENERGY PREDICTED BY IDOCK:   -2.78 KCAL/MOL
REMARK 924 INTRA-LIGAND FREE ENERGY PREDICTED BY IDOCK:   -0.10 KCAL/MOL
REMARK 927      BINDING AFFINITY PREDICTED BY RF-SCORE:    0.00 PKD
ROOT
HETATM    1  N   UNL     1      -7.620  12.728  68.889  1.00  0.00    -0.307 NA 
HETATM    2  C   UNL     1      -7.580  11.593  67.956  1.00  0.00    -0.117 C  
HETATM    3  H1  UNL     1      -6.753  12.818  69.419  1.00  0.00     0.000 HD 
HETATM    4  H2  UNL     1      -8.428  12.670  69.509  1.00  0.00     0.000 HD 
ENDROOT
BRANCH   2   5
HETATM    5  C   UNL     1      -8.894  11.458  67.155  1.00  0.00    -0.156 C  
HETATM    6  H   UNL     1     -10.572  12.466  66.988  1.00  0.00     0.000 HD 
HETATM    7  O   UNL     1      -9.763  12.550  67.481  1.00  0.00    -0.190 OA 
BRANCH   5   8
HETATM    8  C   UNL     1      -9.578  10.133  67.438  1.00  0.00    -0.180 A  
HETATM    9  C   UNL     1      -9.959   9.760  68.740  1.00  0.00    -0.179 A  
HETATM   10  C   UNL     1     -10.547   8.517  68.955  1.00  0.00    -0.154 A  
HETATM   11  O   UNL     1     -10.943   8.111  70.201  1.00  0.00    -0.249 OA 
HETATM   12  C   UNL     1     -10.744   7.634  67.896  1.00  0.00    -0.108 A  
HETATM   13  H   UNL     1     -11.344   7.262  70.348  1.00  0.00     0.000 HD 
HETATM   14  C   UNL     1     -10.371   7.982  66.608  1.00  0.00    -0.273 A  
HETATM   15  O   UNL     1     -11.302   6.409  68.122  1.00  0.00    -0.515 OA 
HETATM   16  H   UNL     1     -11.437   5.807  67.399  1.00  0.00     0.000 HD 
HETATM   17  C   UNL     1      -9.792   9.231  66.379  1.00  0.00    -0.347 A  
ENDBRANCH   5   8
ENDBRANCH   2   5
TORSDOF 2
ENDMDL
MODEL      198
REMARK 921   NORMALIZED FREE ENERGY PREDICTED BY IDOCK:   -2.50 KCAL/MOL
REMARK 922        TOTAL FREE ENERGY PREDICTED BY IDOCK:   -2.87 KCAL/MOL
REMARK 923 INTER-LIGAND FREE ENERGY PREDICTED BY IDOCK:   -2.77 KCAL/MOL
REMARK 924 INTRA-LIGAND FREE ENERGY PREDICTED BY IDOCK:   -0.10 KCAL/MOL
REMARK 927      BINDING AFFINITY PREDICTED BY RF-SCORE:    0.00 PKD
ROOT
HETATM    1  N   UNL     1      -7.045   8.404  67.592  1.00  0.00    -0.082 NA 
HETATM    2  C   UNL     1      -7.061   7.339  68.606  1.00  0.00    -0.084 C  
HETATM    3  H1  UNL     1      -6.192   8.962  67.640  1.00  0.00     0.000 HD 
HETATM    4  H2  UNL     1      -7.876   8.992  67.659  1.00  0.00     0.000 HD 
ENDROOT
BRANCH   2   5
HETATM    5  C   UNL     1      -8.353   6.495  68.534  1.00  0.00    -0.121 C  
HETATM    6  H   UNL     1      -9.878   6.324  67.307  1.00  0.00     0.000 HD 
HETATM    7  O   UNL     1      -9.084   6.844  67.351  1.00  0.00    -0.122 OA 
BRANCH   5   8
HETATM    8  C   UNL     1      -9.214   6.698  69.768  1.00  0.00    -0.146 A  
HETATM    9  C   UNL     1     -10.607   6.871  69.678  1.00  0.00    -0.258 A  
HETATM   10  C   UNL     1     -11.348   7.096  70.834  1.00  0.00    -0.286 A  
HETATM   11  O   UNL     1     -12.706   7.261  70.802  1.00  0.00    -0.586 OA 
HETATM   12  C   UNL     1     -10.719   7.168  72.075  1.00  0.00    -0.214 A  
HETATM   13  H   UNL     1     -13.212   7.415  71.591  1.00  0.00     0.000 HD 
HETATM   14  C   UNL     1      -9.348   7.004  72.182  1.00  0.00    -0.146 A  
HETATM   15  O   UNL     1     -11.453   7.409  73.201  1.00  0.00    -0.588 OA 
HETATM   16  H   UNL     1     -11.025   7.457  74.047  1.00  0.00     0.000 HD 
HETATM   17  C   UNL     1      -8.596   6.766  71.030  1.00  0.00    -0.136 A  
ENDBRANCH   5   8
ENDBRANCH   2   5
TORSDOF 2
ENDMDL
MODEL      199
REMARK 921   NORMALIZED FREE ENERGY PREDICTED BY IDOCK:   -2.50 KCAL/MOL
REMARK 922        TOTAL FREE ENERGY PREDICTED BY IDOCK:   -2.87 KCAL/MOL
REMARK 923 INTER-LIGAND FREE ENERGY PREDICTED BY IDOCK:   -2.77 KCAL/MOL
REMARK 924 INTRA-LIGAND FREE ENERGY PREDICTED BY IDOCK:   -0.09 KCAL/MOL
REMARK 927      BINDING AFFINITY PREDICTED BY RF-SCORE:    0.00 PKD
ROOT
HETATM    1  N   UNL     1     -10.149  19.684  69.890  1.00  0.00    -0.318 NA 
HETATM    2  C   UNL     1      -9.645  19.036  68.670  1.00  0.00    -0.403 C  
HETATM    3  H1  UNL     1     -11.164  19.784  69.876  1.00  0.00     0.000 HD 
HETATM    4  H2  UNL     1      -9.691  20.582  70.049  1.00  0.00     0.000 HD 
ENDROOT
BRANCH   2   5
HETATM    5  C   UNL     1      -8.107  18.886  68.691  1.00  0.00    -0.347 C  
HETATM    6  H   UNL     1      -6.609  19.698  69.669  1.00  0.00     0.000 HD 
HETATM    7  O   UNL     1      -7.555  19.791  69.656  1.00  0.00    -0.149 OA 
BRANCH   5   8
HETATM    8  C   UNL     1      -7.510  19.145  67.320  1.00  0.00    -0.246 A  
HETATM    9  C   UNL     1      -6.586  18.259  66.736  1.00  0.00    -0.215 A  
HETATM   10  C   UNL     1      -6.034  18.561  65.494  1.00  0.00    -0.237 A  
HETATM   11  O   UNL     1      -5.139  17.728  64.879  1.00  0.00    -0.027 OA 
HETATM   12  C   UNL     1      -6.377  19.739  64.835  1.00  0.00    -0.279 A  
HETATM   13  H   UNL     1      -4.762  17.934  64.031  1.00  0.00     0.000 HD 
HETATM   14  C   UNL     1      -7.281  20.625  65.397  1.00  0.00     0.011 A  
HETATM   15  O   UNL     1      -5.814  20.035  63.626  1.00  0.00    -0.259 OA 
HETATM   16  H   UNL     1      -6.048  20.838  63.177  1.00  0.00     0.000 HD 
HETATM   17  C   UNL     1      -7.849  20.327  66.636  1.00  0.00    -0.305 A  
ENDBRANCH   5   8
ENDBRANCH   2   5
TORSDOF 2
ENDMDL
MODEL      200
REMARK 921   NORMALIZED FREE ENERGY PREDICTED BY IDOCK:   -2.48 KCAL/MOL
REMARK 922        TOTAL FREE ENERGY PREDICTED BY IDOCK:   -2.85 KCAL/MOL
REMARK 923 INTER-LIGAND FREE ENERGY PREDICTED BY IDOCK:   -3.04 KCAL/MOL
REMARK 924 INTRA-LIGAND FREE ENERGY PREDICTED BY IDOCK:    0.19 KCAL/MOL
REMARK 927      BINDING AFFINITY PREDICTED BY RF-SCORE:    0.00 PKD
ROOT
HETATM    1  N   UNL     1      -6.993   6.705  71.232  1.00  0.00    -0.073 NA 
HETATM    2  C   UNL     1      -6.632   7.441  72.452  1.00  0.00    -0.055 C  
HETATM    3  H1  UNL     1      -6.311   5.980  71.009  1.00  0.00     0.000 HD 
HETATM    4  H2  UNL     1      -7.131   7.338  70.444  1.00  0.00     0.000 HD 
ENDROOT
BRANCH   2   5
HETATM    5  C   UNL     1      -7.664   8.540  72.789  1.00  0.00     0.001 C  
HETATM    6  H   UNL     1      -8.140   9.615  74.364  1.00  0.00     0.000 HD 
HETATM    7  O   UNL     1      -7.505   8.938  74.157  1.00  0.00    -0.414 OA 
BRANCH   5   8
HETATM    8  C   UNL     1      -9.082   8.060  72.539  1.00  0.00    -0.271 A  
HETATM    9  C   UNL     1      -9.700   8.200  71.283  1.00  0.00    -0.207 A  
HETATM   10  C   UNL     1     -11.017   7.782  71.113  1.00  0.00    -0.239 A  
HETATM   11  O   UNL     1     -11.659   7.888  69.909  1.00  0.00    -0.465 OA 
HETATM   12  C   UNL     1     -11.731   7.243  72.180  1.00  0.00    -0.285 A  
HETATM   13  H   UNL     1     -12.558   7.603  69.794  1.00  0.00     0.000 HD 
HETATM   14  C   UNL     1     -11.140   7.101  73.425  1.00  0.00    -0.164 A  
HETATM   15  O   UNL     1     -13.028   6.855  72.008  1.00  0.00    -0.518 OA 
HETATM   16  H   UNL     1     -13.515   6.487  72.735  1.00  0.00     0.000 HD 
HETATM   17  C   UNL     1      -9.817   7.507  73.603  1.00  0.00    -0.348 A  
ENDBRANCH   5   8
ENDBRANCH   2   5
TORSDOF 2
ENDMDL
MODEL      201
REMARK 921   NORMALIZED FREE ENERGY PREDICTED BY IDOCK:   -2.48 KCAL/MOL
REMARK 922        TOTAL FREE ENERGY PREDICTED BY IDOCK:   -2.85 KCAL/MOL
REMARK 923 INTER-LIGAND FREE ENERGY PREDICTED BY IDOCK:   -2.73 KCAL/MOL
REMARK 924 INTRA-LIGAND FREE ENERGY PREDICTED BY IDOCK:   -0.12 KCAL/MOL
REMARK 927      BINDING AFFINITY PREDICTED BY RF-SCORE:    0.00 PKD
ROOT
HETATM    1  N   UNL     1     -11.102   8.133  69.082  1.00  0.00    -0.424 NA 
HETATM    2  C   UNL     1      -9.857   8.568  69.732  1.00  0.00    -0.186 C  
HETATM    3  H1  UNL     1     -11.055   8.227  68.067  1.00  0.00     0.000 HD 
HETATM    4  H2  UNL     1     -11.911   8.625  69.462  1.00  0.00     0.000 HD 
ENDROOT
BRANCH   2   5
HETATM    5  C   UNL     1      -9.930   8.426  71.269  1.00  0.00    -0.204 C  
HETATM    6  H   UNL     1      -8.815   8.943  72.803  1.00  0.00     0.000 HD 
HETATM    7  O   UNL     1      -8.770   9.030  71.857  1.00  0.00    -0.363 OA 
BRANCH   5   8
HETATM    8  C   UNL     1     -10.037   6.970  71.684  1.00  0.00    -0.194 A  
HETATM    9  C   UNL     1      -9.151   5.994  71.192  1.00  0.00    -0.153 A  
HETATM   10  C   UNL     1      -9.315   4.664  71.569  1.00  0.00    -0.148 A  
HETATM   11  O   UNL     1      -8.475   3.678  71.126  1.00  0.00    -0.066 OA 
HETATM   12  C   UNL     1     -10.358   4.291  72.414  1.00  0.00    -0.160 A  
HETATM   13  H   UNL     1      -8.587   2.770  71.383  1.00  0.00     0.000 HD 
HETATM   14  C   UNL     1     -11.242   5.238  72.905  1.00  0.00    -0.375 A  
HETATM   15  O   UNL     1     -10.521   2.981  72.761  1.00  0.00    -0.160 OA 
HETATM   16  H   UNL     1     -11.232   2.727  73.338  1.00  0.00     0.000 HD 
HETATM   17  C   UNL     1     -11.080   6.576  72.542  1.00  0.00    -0.294 A  
ENDBRANCH   5   8
ENDBRANCH   2   5
TORSDOF 2
ENDMDL
MODEL      202
REMARK 921   NORMALIZED FREE ENERGY PREDICTED BY IDOCK:   -2.45 KCAL/MOL
REMARK 922        TOTAL FREE ENERGY PREDICTED BY IDOCK:   -2.81 KCAL/MOL
REMARK 923 INTER-LIGAND FREE ENERGY PREDICTED BY IDOCK:   -2.72 KCAL/MOL
REMARK 924 INTRA-LIGAND FREE ENERGY PREDICTED BY IDOCK:   -0.09 KCAL/MOL
REMARK 927      BINDING AFFINITY PREDICTED BY RF-SCORE:    0.00 PKD
ROOT
HETATM    1  N   UNL     1     -10.036   6.067  65.924  1.00  0.00    -0.381 NA 
HETATM    2  C   UNL     1      -9.775   7.058  66.978  1.00  0.00    -0.167 C  
HETATM    3  H1  UNL     1     -10.838   5.477  66.145  1.00  0.00     0.000 HD 
HETATM    4  H2  UNL     1      -9.207   5.506  65.729  1.00  0.00     0.000 HD 
ENDROOT
BRANCH   2   5
HETATM    5  C   UNL     1      -8.558   7.950  66.643  1.00  0.00    -0.135 C  
HETATM    6  H   UNL     1      -6.800   8.319  67.437  1.00  0.00     0.000 HD 
HETATM    7  O   UNL     1      -7.548   7.771  67.644  1.00  0.00    -0.107 OA 
BRANCH   5   8
HETATM    8  C   UNL     1      -8.956   9.411  66.547  1.00  0.00    -0.176 A  
HETATM    9  C   UNL     1      -9.082  10.221  67.691  1.00  0.00    -0.144 A  
HETATM   10  C   UNL     1      -9.490  11.545  67.555  1.00  0.00    -0.169 A  
HETATM   11  O   UNL     1      -9.619  12.375  68.635  1.00  0.00    -0.362 OA 
HETATM   12  C   UNL     1      -9.790  12.068  66.299  1.00  0.00    -0.231 A  
HETATM   13  H   UNL     1      -9.897  13.279  68.543  1.00  0.00     0.000 HD 
HETATM   14  C   UNL     1      -9.676  11.284  65.163  1.00  0.00    -0.285 A  
HETATM   15  O   UNL     1     -10.209  13.362  66.180  1.00  0.00    -0.287 OA 
HETATM   16  H   UNL     1     -10.413  13.718  65.324  1.00  0.00     0.000 HD 
HETATM   17  C   UNL     1      -9.257   9.959  65.286  1.00  0.00    -0.280 A  
ENDBRANCH   5   8
ENDBRANCH   2   5
TORSDOF 2
ENDMDL
MODEL      203
REMARK 921   NORMALIZED FREE ENERGY PREDICTED BY IDOCK:   -2.43 KCAL/MOL
REMARK 922        TOTAL FREE ENERGY PREDICTED BY IDOCK:   -2.79 KCAL/MOL
REMARK 923 INTER-LIGAND FREE ENERGY PREDICTED BY IDOCK:   -2.71 KCAL/MOL
REMARK 924 INTRA-LIGAND FREE ENERGY PREDICTED BY IDOCK:   -0.08 KCAL/MOL
REMARK 927      BINDING AFFINITY PREDICTED BY RF-SCORE:    0.00 PKD
ROOT
HETATM    1  N   UNL     1      -6.215   7.688  73.797  1.00  0.00    -0.071 NA 
HETATM    2  C   UNL     1      -6.960   7.402  72.563  1.00  0.00    -0.068 C  
HETATM    3  H1  UNL     1      -5.439   7.039  73.933  1.00  0.00     0.000 HD 
HETATM    4  H2  UNL     1      -6.832   7.702  74.609  1.00  0.00     0.000 HD 
ENDROOT
BRANCH   2   5
HETATM    5  C   UNL     1      -8.135   8.385  72.358  1.00  0.00    -0.125 C  
HETATM    6  H   UNL     1      -9.652   9.035  73.423  1.00  0.00     0.000 HD 
HETATM    7  O   UNL     1      -8.930   8.430  73.549  1.00  0.00    -0.213 OA 
BRANCH   5   8
HETATM    8  C   UNL     1      -8.987   7.985  71.167  1.00  0.00    -0.162 A  
HETATM    9  C   UNL     1     -10.355   7.687  71.303  1.00  0.00    -0.215 A  
HETATM   10  C   UNL     1     -11.086   7.284  70.189  1.00  0.00    -0.258 A  
HETATM   11  O   UNL     1     -12.421   6.992  70.266  1.00  0.00    -0.617 OA 
HETATM   12  C   UNL     1     -10.469   7.158  68.946  1.00  0.00    -0.207 A  
HETATM   13  H   UNL     1     -12.919   6.717  69.505  1.00  0.00     0.000 HD 
HETATM   14  C   UNL     1      -9.122   7.443  68.794  1.00  0.00    -0.131 A  
HETATM   15  O   UNL     1     -11.190   6.743  67.864  1.00  0.00    -0.522 OA 
HETATM   16  H   UNL     1     -10.770   6.658  67.017  1.00  0.00     0.000 HD 
HETATM   17  C   UNL     1      -8.383   7.859  69.903  1.00  0.00    -0.122 A  
ENDBRANCH   5   8
ENDBRANCH   2   5
TORSDOF 2
ENDMDL
MODEL      204
REMARK 921   NORMALIZED FREE ENERGY PREDICTED BY IDOCK:   -2.38 KCAL/MOL
REMARK 922        TOTAL FREE ENERGY PREDICTED BY IDOCK:   -2.74 KCAL/MOL
REMARK 923 INTER-LIGAND FREE ENERGY PREDICTED BY IDOCK:   -2.66 KCAL/MOL
REMARK 924 INTRA-LIGAND FREE ENERGY PREDICTED BY IDOCK:   -0.08 KCAL/MOL
REMARK 927      BINDING AFFINITY PREDICTED BY RF-SCORE:    0.00 PKD
ROOT
HETATM    1  N   UNL     1      -6.424   6.570  70.190  1.00  0.00    -0.039 NA 
HETATM    2  C   UNL     1      -7.176   7.662  70.824  1.00  0.00    -0.062 C  
HETATM    3  H1  UNL     1      -6.469   5.709  70.735  1.00  0.00     0.000 HD 
HETATM    4  H2  UNL     1      -5.458   6.842  70.007  1.00  0.00     0.000 HD 
ENDROOT
BRANCH   2   5
HETATM    5  C   UNL     1      -7.107   8.966  69.997  1.00  0.00    -0.049 C  
HETATM    6  H   UNL     1      -6.332  10.757  70.223  1.00  0.00     0.000 HD 
HETATM    7  O   UNL     1      -6.375   9.955  70.732  1.00  0.00    -0.094 OA 
BRANCH   5   8
HETATM    8  C   UNL     1      -8.495   9.477  69.657  1.00  0.00    -0.174 A  
HETATM    9  C   UNL     1      -9.481   9.654  70.645  1.00  0.00    -0.190 A  
HETATM   10  C   UNL     1     -10.752  10.086  70.278  1.00  0.00    -0.309 A  
HETATM   11  O   UNL     1     -11.743  10.282  71.201  1.00  0.00    -0.358 OA 
HETATM   12  C   UNL     1     -11.059  10.328  68.940  1.00  0.00    -0.231 A  
HETATM   13  H   UNL     1     -12.611  10.578  70.950  1.00  0.00     0.000 HD 
HETATM   14  C   UNL     1     -10.101  10.155  67.954  1.00  0.00    -0.207 A  
HETATM   15  O   UNL     1     -12.315  10.733  68.590  1.00  0.00    -0.825 OA 
HETATM   16  H   UNL     1     -12.523  10.898  67.678  1.00  0.00     0.000 HD 
HETATM   17  C   UNL     1      -8.820   9.733  68.313  1.00  0.00    -0.119 A  
ENDBRANCH   5   8
ENDBRANCH   2   5
TORSDOF 2
ENDMDL
MODEL      205
REMARK 921   NORMALIZED FREE ENERGY PREDICTED BY IDOCK:   -2.36 KCAL/MOL
REMARK 922        TOTAL FREE ENERGY PREDICTED BY IDOCK:   -2.71 KCAL/MOL
REMARK 923 INTER-LIGAND FREE ENERGY PREDICTED BY IDOCK:   -2.60 KCAL/MOL
REMARK 924 INTRA-LIGAND FREE ENERGY PREDICTED BY IDOCK:   -0.11 KCAL/MOL
REMARK 927      BINDING AFFINITY PREDICTED BY RF-SCORE:    0.00 PKD
ROOT
HETATM    1  N   UNL     1     -12.181  10.676  69.525  1.00  0.00    -0.530 NA 
HETATM    2  C   UNL     1     -11.158  10.162  68.602  1.00  0.00    -0.205 C  
HETATM    3  H1  UNL     1     -12.304  10.067  70.334  1.00  0.00     0.000 HD 
HETATM    4  H2  UNL     1     -13.066  10.837  69.046  1.00  0.00     0.000 HD 
ENDROOT
BRANCH   2   5
HETATM    5  C   UNL     1     -10.973  11.085  67.376  1.00  0.00    -0.291 C  
HETATM    6  H   UNL     1     -10.486  10.863  65.486  1.00  0.00     0.000 HD 
HETATM    7  O   UNL     1     -10.600  10.295  66.239  1.00  0.00    -0.176 OA 
BRANCH   5   8
HETATM    8  C   UNL     1      -9.929  12.154  67.644  1.00  0.00    -0.199 A  
HETATM    9  C   UNL     1     -10.287  13.488  67.908  1.00  0.00    -0.249 A  
HETATM   10  C   UNL     1      -9.293  14.442  68.107  1.00  0.00    -0.203 A  
HETATM   11  O   UNL     1      -9.589  15.750  68.376  1.00  0.00    -0.195 OA 
HETATM   12  C   UNL     1      -7.948  14.088  68.028  1.00  0.00    -0.152 A  
HETATM   13  H   UNL     1      -8.910  16.401  68.512  1.00  0.00     0.000 HD 
HETATM   14  C   UNL     1      -7.576  12.779  67.764  1.00  0.00    -0.141 A  
HETATM   15  O   UNL     1      -6.980  15.035  68.205  1.00  0.00    -0.104 OA 
HETATM   16  H   UNL     1      -6.063  14.793  68.152  1.00  0.00     0.000 HD 
HETATM   17  C   UNL     1      -8.566  11.813  67.575  1.00  0.00    -0.157 A  
ENDBRANCH   5   8
ENDBRANCH   2   5
TORSDOF 2
ENDMDL
MODEL      206
REMARK 921   NORMALIZED FREE ENERGY PREDICTED BY IDOCK:   -2.36 KCAL/MOL
REMARK 922        TOTAL FREE ENERGY PREDICTED BY IDOCK:   -2.71 KCAL/MOL
REMARK 923 INTER-LIGAND FREE ENERGY PREDICTED BY IDOCK:   -2.64 KCAL/MOL
REMARK 924 INTRA-LIGAND FREE ENERGY PREDICTED BY IDOCK:   -0.07 KCAL/MOL
REMARK 927      BINDING AFFINITY PREDICTED BY RF-SCORE:    0.00 PKD
ROOT
HETATM    1  N   UNL     1     -10.970   7.845  69.241  1.00  0.00    -0.429 NA 
HETATM    2  C   UNL     1     -11.330   6.426  69.370  1.00  0.00    -0.377 C  
HETATM    3  H1  UNL     1     -11.794   8.446  69.199  1.00  0.00     0.000 HD 
HETATM    4  H2  UNL     1     -10.357   8.001  68.440  1.00  0.00     0.000 HD 
ENDROOT
BRANCH   2   5
HETATM    5  C   UNL     1     -10.082   5.517  69.433  1.00  0.00    -0.236 C  
HETATM    6  H   UNL     1      -8.158   5.758  69.751  1.00  0.00     0.000 HD 
HETATM    7  O   UNL     1      -8.926   6.317  69.712  1.00  0.00    -0.138 OA 
BRANCH   5   8
HETATM    8  C   UNL     1      -9.894   4.749  68.138  1.00  0.00    -0.182 A  
HETATM    9  C   UNL     1      -9.134   3.566  68.082  1.00  0.00    -0.200 A  
HETATM   10  C   UNL     1      -8.955   2.919  66.863  1.00  0.00    -0.158 A  
HETATM   11  O   UNL     1      -8.233   1.762  66.758  1.00  0.00    -0.072 OA 
HETATM   12  C   UNL     1      -9.509   3.443  65.697  1.00  0.00    -0.119 A  
HETATM   13  H   UNL     1      -8.111   1.320  65.925  1.00  0.00     0.000 HD 
HETATM   14  C   UNL     1     -10.257   4.609  65.731  1.00  0.00    -0.283 A  
HETATM   15  O   UNL     1      -9.311   2.811  64.503  1.00  0.00    -0.135 OA 
HETATM   16  H   UNL     1      -9.689   3.167  63.708  1.00  0.00     0.000 HD 
HETATM   17  C   UNL     1     -10.451   5.259  66.951  1.00  0.00    -0.313 A  
ENDBRANCH   5   8
ENDBRANCH   2   5
TORSDOF 2
ENDMDL
MODEL      207
REMARK 921   NORMALIZED FREE ENERGY PREDICTED BY IDOCK:   -2.34 KCAL/MOL
REMARK 922        TOTAL FREE ENERGY PREDICTED BY IDOCK:   -2.69 KCAL/MOL
REMARK 923 INTER-LIGAND FREE ENERGY PREDICTED BY IDOCK:   -2.69 KCAL/MOL
REMARK 924 INTRA-LIGAND FREE ENERGY PREDICTED BY IDOCK:    0.00 KCAL/MOL
REMARK 927      BINDING AFFINITY PREDICTED BY RF-SCORE:    0.00 PKD
ROOT
HETATM    1  N   UNL     1      -8.674  12.779  67.114  1.00  0.00    -0.197 NA 
HETATM    2  C   UNL     1      -7.285  13.174  67.390  1.00  0.00    -0.110 C  
HETATM    3  H1  UNL     1      -8.724  11.956  66.512  1.00  0.00     0.000 HD 
HETATM    4  H2  UNL     1      -9.211  13.554  66.727  1.00  0.00     0.000 HD 
ENDROOT
BRANCH   2   5
HETATM    5  C   UNL     1      -7.211  14.420  68.302  1.00  0.00    -0.122 C  
HETATM    6  H   UNL     1      -7.799  14.897  70.115  1.00  0.00     0.000 HD 
HETATM    7  O   UNL     1      -7.845  14.131  69.554  1.00  0.00     0.139 OA 
BRANCH   5   8
HETATM    8  C   UNL     1      -7.861  15.624  67.644  1.00  0.00    -0.173 A  
HETATM    9  C   UNL     1      -7.154  16.451  66.752  1.00  0.00    -0.233 A  
HETATM   10  C   UNL     1      -7.781  17.568  66.207  1.00  0.00    -0.298 A  
HETATM   11  O   UNL     1      -7.141  18.399  65.328  1.00  0.00    -0.530 OA 
HETATM   12  C   UNL     1      -9.095  17.880  66.550  1.00  0.00    -0.261 A  
HETATM   13  H   UNL     1      -7.569  19.161  64.955  1.00  0.00     0.000 HD 
HETATM   14  C   UNL     1      -9.804  17.079  67.430  1.00  0.00    -0.262 A  
HETATM   15  O   UNL     1      -9.693  18.989  66.024  1.00  0.00    -0.450 OA 
HETATM   16  H   UNL     1     -10.588  19.202  66.258  1.00  0.00     0.000 HD 
HETATM   17  C   UNL     1      -9.189  15.951  67.974  1.00  0.00    -0.192 A  
ENDBRANCH   5   8
ENDBRANCH   2   5
TORSDOF 2
ENDMDL
MODEL      208
REMARK 921   NORMALIZED FREE ENERGY PREDICTED BY IDOCK:   -2.30 KCAL/MOL
REMARK 922        TOTAL FREE ENERGY PREDICTED BY IDOCK:   -2.65 KCAL/MOL
REMARK 923 INTER-LIGAND FREE ENERGY PREDICTED BY IDOCK:   -2.75 KCAL/MOL
REMARK 924 INTRA-LIGAND FREE ENERGY PREDICTED BY IDOCK:    0.10 KCAL/MOL
REMARK 927      BINDING AFFINITY PREDICTED BY RF-SCORE:    0.00 PKD
ROOT
HETATM    1  N   UNL     1      -8.635  10.039  68.368  1.00  0.00    -0.111 NA 
HETATM    2  C   UNL     1      -7.808   9.208  69.255  1.00  0.00    -0.095 C  
HETATM    3  H1  UNL     1      -8.470   9.828  67.384  1.00  0.00     0.000 HD 
HETATM    4  H2  UNL     1      -8.503  11.032  68.561  1.00  0.00     0.000 HD 
ENDROOT
BRANCH   2   5
HETATM    5  C   UNL     1      -8.059   9.530  70.746  1.00  0.00    -0.035 C  
HETATM    6  H   UNL     1      -6.997   9.549  72.398  1.00  0.00     0.000 HD 
HETATM    7  O   UNL     1      -6.842   9.350  71.482  1.00  0.00    -0.295 OA 
BRANCH   5   8
HETATM    8  C   UNL     1      -9.159   8.657  71.321  1.00  0.00    -0.272 A  
HETATM    9  C   UNL     1      -8.974   7.912  72.500  1.00  0.00    -0.231 A  
HETATM   10  C   UNL     1      -9.998   7.093  72.965  1.00  0.00    -0.208 A  
HETATM   11  O   UNL     1      -9.871   6.356  74.111  1.00  0.00    -0.215 OA 
HETATM   12  C   UNL     1     -11.198   6.993  72.264  1.00  0.00    -0.263 A  
HETATM   13  H   UNL     1     -10.571   5.797  74.429  1.00  0.00     0.000 HD 
HETATM   14  C   UNL     1     -11.397   7.715  71.098  1.00  0.00    -0.286 A  
HETATM   15  O   UNL     1     -12.189   6.171  72.718  1.00  0.00    -0.508 OA 
HETATM   16  H   UNL     1     -13.007   6.103  72.240  1.00  0.00     0.000 HD 
HETATM   17  C   UNL     1     -10.380   8.548  70.629  1.00  0.00    -0.232 A  
ENDBRANCH   5   8
ENDBRANCH   2   5
TORSDOF 2
ENDMDL
MODEL      209
REMARK 921   NORMALIZED FREE ENERGY PREDICTED BY IDOCK:   -2.30 KCAL/MOL
REMARK 922        TOTAL FREE ENERGY PREDICTED BY IDOCK:   -2.65 KCAL/MOL
REMARK 923 INTER-LIGAND FREE ENERGY PREDICTED BY IDOCK:   -2.55 KCAL/MOL
REMARK 924 INTRA-LIGAND FREE ENERGY PREDICTED BY IDOCK:   -0.10 KCAL/MOL
REMARK 927      BINDING AFFINITY PREDICTED BY RF-SCORE:    0.00 PKD
ROOT
HETATM    1  N   UNL     1     -11.449   4.581  64.732  1.00  0.00    -0.996 NA 
HETATM    2  C   UNL     1     -10.029   4.289  64.972  1.00  0.00    -0.188 C  
HETATM    3  H1  UNL     1     -11.948   3.770  64.365  1.00  0.00     0.000 HD 
HETATM    4  H2  UNL     1     -11.564   5.392  64.124  1.00  0.00     0.000 HD 
ENDROOT
BRANCH   2   5
HETATM    5  C   UNL     1      -9.274   5.519  65.527  1.00  0.00    -0.045 C  
HETATM    6  H   UNL     1      -7.433   6.203  65.477  1.00  0.00     0.000 HD 
HETATM    7  O   UNL     1      -7.897   5.447  65.136  1.00  0.00    -0.087 OA 
BRANCH   5   8
HETATM    8  C   UNL     1      -9.392   5.603  67.038  1.00  0.00    -0.119 A  
HETATM    9  C   UNL     1      -8.581   4.830  67.888  1.00  0.00    -0.105 A  
HETATM   10  C   UNL     1      -8.755   4.911  69.267  1.00  0.00    -0.087 A  
HETATM   11  O   UNL     1      -7.985   4.188  70.136  1.00  0.00    -0.054 OA 
HETATM   12  C   UNL     1      -9.737   5.738  69.808  1.00  0.00    -0.162 A  
HETATM   13  H   UNL     1      -8.104   4.243  71.078  1.00  0.00     0.000 HD 
HETATM   14  C   UNL     1     -10.548   6.503  68.986  1.00  0.00    -0.286 A  
HETATM   15  O   UNL     1      -9.913   5.795  71.161  1.00  0.00    -0.181 OA 
HETATM   16  H   UNL     1     -10.582   6.358  71.530  1.00  0.00     0.000 HD 
HETATM   17  C   UNL     1     -10.374   6.438  67.603  1.00  0.00    -0.243 A  
ENDBRANCH   5   8
ENDBRANCH   2   5
TORSDOF 2
ENDMDL
MODEL      210
REMARK 921   NORMALIZED FREE ENERGY PREDICTED BY IDOCK:   -2.27 KCAL/MOL
REMARK 922        TOTAL FREE ENERGY PREDICTED BY IDOCK:   -2.61 KCAL/MOL
REMARK 923 INTER-LIGAND FREE ENERGY PREDICTED BY IDOCK:   -2.51 KCAL/MOL
REMARK 924 INTRA-LIGAND FREE ENERGY PREDICTED BY IDOCK:   -0.10 KCAL/MOL
REMARK 927      BINDING AFFINITY PREDICTED BY RF-SCORE:    0.00 PKD
ROOT
HETATM    1  N   UNL     1      -6.819  11.649  70.161  1.00  0.00    -0.443 NA 
HETATM    2  C   UNL     1      -6.784  10.187  70.013  1.00  0.00    -0.127 C  
HETATM    3  H1  UNL     1      -5.898  12.067  70.029  1.00  0.00     0.000 HD 
HETATM    4  H2  UNL     1      -7.225  11.921  71.056  1.00  0.00     0.000 HD 
ENDROOT
BRANCH   2   5
HETATM    5  C   UNL     1      -8.179   9.553  70.213  1.00  0.00    -0.187 C  
HETATM    6  H   UNL     1      -9.016   8.326  71.499  1.00  0.00     0.000 HD 
HETATM    7  O   UNL     1      -8.158   8.715  71.376  1.00  0.00    -0.130 OA 
BRANCH   5   8
HETATM    8  C   UNL     1      -8.604   8.757  68.993  1.00  0.00    -0.132 A  
HETATM    9  C   UNL     1      -8.970   9.385  67.789  1.00  0.00    -0.127 A  
HETATM   10  C   UNL     1      -9.392   8.614  66.710  1.00  0.00    -0.179 A  
HETATM   11  O   UNL     1      -9.749   9.176  65.515  1.00  0.00    -0.432 OA 
HETATM   12  C   UNL     1      -9.471   7.227  66.820  1.00  0.00    -0.171 A  
HETATM   13  H   UNL     1     -10.037   8.650  64.779  1.00  0.00     0.000 HD 
HETATM   14  C   UNL     1      -9.119   6.591  67.999  1.00  0.00    -0.114 A  
HETATM   15  O   UNL     1      -9.905   6.482  65.762  1.00  0.00    -0.332 OA 
HETATM   16  H   UNL     1      -9.958   5.537  65.837  1.00  0.00     0.000 HD 
HETATM   17  C   UNL     1      -8.683   7.355  69.084  1.00  0.00    -0.136 A  
ENDBRANCH   5   8
ENDBRANCH   2   5
TORSDOF 2
ENDMDL
MODEL      211
REMARK 921   NORMALIZED FREE ENERGY PREDICTED BY IDOCK:   -2.24 KCAL/MOL
REMARK 922        TOTAL FREE ENERGY PREDICTED BY IDOCK:   -2.58 KCAL/MOL
REMARK 923 INTER-LIGAND FREE ENERGY PREDICTED BY IDOCK:   -2.49 KCAL/MOL
REMARK 924 INTRA-LIGAND FREE ENERGY PREDICTED BY IDOCK:   -0.09 KCAL/MOL
REMARK 927      BINDING AFFINITY PREDICTED BY RF-SCORE:    0.00 PKD
ROOT
HETATM    1  N   UNL     1      -9.361   6.616  65.721  1.00  0.00    -0.386 NA 
HETATM    2  C   UNL     1      -9.445   6.350  67.165  1.00  0.00    -0.129 C  
HETATM    3  H1  UNL     1      -8.891   5.861  65.221  1.00  0.00     0.000 HD 
HETATM    4  H2  UNL     1      -8.918   7.516  65.535  1.00  0.00     0.000 HD 
ENDROOT
BRANCH   2   5
HETATM    5  C   UNL     1     -10.156   7.494  67.922  1.00  0.00    -0.182 C  
HETATM    6  H   UNL     1     -11.075   9.164  67.445  1.00  0.00     0.000 HD 
HETATM    7  O   UNL     1     -10.637   8.460  66.979  1.00  0.00    -0.314 OA 
BRANCH   5   8
HETATM    8  C   UNL     1      -9.228   8.151  68.927  1.00  0.00    -0.147 A  
HETATM    9  C   UNL     1      -8.833   9.495  68.801  1.00  0.00    -0.132 A  
HETATM   10  C   UNL     1      -7.946  10.041  69.725  1.00  0.00    -0.180 A  
HETATM   11  O   UNL     1      -7.539  11.345  69.652  1.00  0.00    -0.360 OA 
HETATM   12  C   UNL     1      -7.436   9.263  70.762  1.00  0.00    -0.128 A  
HETATM   13  H   UNL     1      -6.934  11.718  70.283  1.00  0.00     0.000 HD 
HETATM   14  C   UNL     1      -7.811   7.936  70.898  1.00  0.00    -0.088 A  
HETATM   15  O   UNL     1      -6.552   9.803  71.650  1.00  0.00    -0.306 OA 
HETATM   16  H   UNL     1      -6.204   9.272  72.357  1.00  0.00     0.000 HD 
HETATM   17  C   UNL     1      -8.708   7.382  69.984  1.00  0.00    -0.140 A  
ENDBRANCH   5   8
ENDBRANCH   2   5
TORSDOF 2
ENDMDL
MODEL      212
REMARK 921   NORMALIZED FREE ENERGY PREDICTED BY IDOCK:   -2.24 KCAL/MOL
REMARK 922        TOTAL FREE ENERGY PREDICTED BY IDOCK:   -2.58 KCAL/MOL
REMARK 923 INTER-LIGAND FREE ENERGY PREDICTED BY IDOCK:   -2.48 KCAL/MOL
REMARK 924 INTRA-LIGAND FREE ENERGY PREDICTED BY IDOCK:   -0.10 KCAL/MOL
REMARK 927      BINDING AFFINITY PREDICTED BY RF-SCORE:    0.00 PKD
ROOT
HETATM    1  N   UNL     1      -8.782   7.073  70.648  1.00  0.00    -0.148 NA 
HETATM    2  C   UNL     1      -8.105   6.991  69.345  1.00  0.00    -0.130 C  
HETATM    3  H1  UNL     1      -8.118   7.079  71.423  1.00  0.00     0.000 HD 
HETATM    4  H2  UNL     1      -9.470   6.329  70.756  1.00  0.00     0.000 HD 
ENDROOT
BRANCH   2   5
HETATM    5  C   UNL     1      -9.111   6.981  68.172  1.00  0.00    -0.128 C  
HETATM    6  H   UNL     1      -9.355   5.959  66.513  1.00  0.00     0.000 HD 
HETATM    7  O   UNL     1      -8.736   5.965  67.234  1.00  0.00    -0.110 OA 
BRANCH   5   8
HETATM    8  C   UNL     1      -9.175   8.335  67.490  1.00  0.00    -0.155 A  
HETATM    9  C   UNL     1     -10.315   9.155  67.577  1.00  0.00    -0.324 A  
HETATM   10  C   UNL     1     -10.342  10.370  66.900  1.00  0.00    -0.240 A  
HETATM   11  O   UNL     1     -11.423  11.208  66.960  1.00  0.00    -0.442 OA 
HETATM   12  C   UNL     1      -9.257  10.772  66.124  1.00  0.00    -0.180 A  
HETATM   13  H   UNL     1     -11.441  12.037  66.497  1.00  0.00     0.000 HD 
HETATM   14  C   UNL     1      -8.128   9.976  66.023  1.00  0.00    -0.124 A  
HETATM   15  O   UNL     1      -9.302  11.957  65.447  1.00  0.00    -0.392 OA 
HETATM   16  H   UNL     1      -8.563  12.231  64.919  1.00  0.00     0.000 HD 
HETATM   17  C   UNL     1      -8.086   8.761  66.708  1.00  0.00    -0.104 A  
ENDBRANCH   5   8
ENDBRANCH   2   5
TORSDOF 2
ENDMDL
MODEL      213
REMARK 921   NORMALIZED FREE ENERGY PREDICTED BY IDOCK:   -2.22 KCAL/MOL
REMARK 922        TOTAL FREE ENERGY PREDICTED BY IDOCK:   -2.56 KCAL/MOL
REMARK 923 INTER-LIGAND FREE ENERGY PREDICTED BY IDOCK:   -2.44 KCAL/MOL
REMARK 924 INTRA-LIGAND FREE ENERGY PREDICTED BY IDOCK:   -0.12 KCAL/MOL
REMARK 927      BINDING AFFINITY PREDICTED BY RF-SCORE:    0.00 PKD
ROOT
HETATM    1  N   UNL     1      -6.384   8.543  71.819  1.00  0.00    -0.061 NA 
HETATM    2  C   UNL     1      -6.698   8.169  70.432  1.00  0.00    -0.037 C  
HETATM    3  H1  UNL     1      -5.643   7.963  72.212  1.00  0.00     0.000 HD 
HETATM    4  H2  UNL     1      -7.219   8.525  72.406  1.00  0.00     0.000 HD 
ENDROOT
BRANCH   2   5
HETATM    5  C   UNL     1      -7.822   9.047  69.838  1.00  0.00    -0.090 C  
HETATM    6  H   UNL     1      -8.415  10.912  70.010  1.00  0.00     0.000 HD 
HETATM    7  O   UNL     1      -7.724  10.372  70.377  1.00  0.00    -0.125 OA 
BRANCH   5   8
HETATM    8  C   UNL     1      -9.191   8.459  70.124  1.00  0.00    -0.159 A  
HETATM    9  C   UNL     1      -9.632   7.274  69.506  1.00  0.00    -0.155 A  
HETATM   10  C   UNL     1     -10.912   6.796  69.769  1.00  0.00    -0.297 A  
HETATM   11  O   UNL     1     -11.384   5.644  69.200  1.00  0.00    -0.042 OA 
HETATM   12  C   UNL     1     -11.765   7.490  70.624  1.00  0.00    -0.215 A  
HETATM   13  H   UNL     1     -12.258   5.318  69.380  1.00  0.00     0.000 HD 
HETATM   14  C   UNL     1     -11.350   8.660  71.238  1.00  0.00    -0.341 A  
HETATM   15  O   UNL     1     -13.026   7.022  70.859  1.00  0.00    -0.541 OA 
HETATM   16  H   UNL     1     -13.607   7.495  71.443  1.00  0.00     0.000 HD 
HETATM   17  C   UNL     1     -10.063   9.142  70.991  1.00  0.00    -0.373 A  
ENDBRANCH   5   8
ENDBRANCH   2   5
TORSDOF 2
ENDMDL
MODEL      214
REMARK 921   NORMALIZED FREE ENERGY PREDICTED BY IDOCK:   -2.17 KCAL/MOL
REMARK 922        TOTAL FREE ENERGY PREDICTED BY IDOCK:   -2.50 KCAL/MOL
REMARK 923 INTER-LIGAND FREE ENERGY PREDICTED BY IDOCK:   -2.39 KCAL/MOL
REMARK 924 INTRA-LIGAND FREE ENERGY PREDICTED BY IDOCK:   -0.11 KCAL/MOL
REMARK 927      BINDING AFFINITY PREDICTED BY RF-SCORE:    0.00 PKD
ROOT
HETATM    1  N   UNL     1      -8.382   3.901  69.590  1.00  0.00    -0.056 NA 
HETATM    2  C   UNL     1      -8.251   5.131  68.795  1.00  0.00    -0.085 C  
HETATM    3  H1  UNL     1      -7.483   3.586  69.956  1.00  0.00     0.000 HD 
HETATM    4  H2  UNL     1      -8.845   3.164  69.059  1.00  0.00     0.000 HD 
ENDROOT
BRANCH   2   5
HETATM    5  C   UNL     1      -9.613   5.608  68.242  1.00  0.00    -0.121 C  
HETATM    6  H   UNL     1     -10.403   5.912  66.469  1.00  0.00     0.000 HD 
HETATM    7  O   UNL     1      -9.565   5.619  66.809  1.00  0.00    -0.133 OA 
BRANCH   5   8
HETATM    8  C   UNL     1      -9.972   6.984  68.771  1.00  0.00    -0.160 A  
HETATM    9  C   UNL     1     -10.254   8.058  67.908  1.00  0.00    -0.267 A  
HETATM   10  C   UNL     1     -10.538   9.313  68.440  1.00  0.00    -0.190 A  
HETATM   11  O   UNL     1     -10.828  10.387  67.644  1.00  0.00    -0.264 OA 
HETATM   12  C   UNL     1     -10.527   9.515  69.818  1.00  0.00    -0.231 A  
HETATM   13  H   UNL     1     -11.022  11.244  68.007  1.00  0.00     0.000 HD 
HETATM   14  C   UNL     1     -10.246   8.470  70.683  1.00  0.00    -0.230 A  
HETATM   15  O   UNL     1     -10.786  10.754  70.329  1.00  0.00    -0.458 OA 
HETATM   16  H   UNL     1     -10.779  10.893  71.268  1.00  0.00     0.000 HD 
HETATM   17  C   UNL     1      -9.972   7.206  70.160  1.00  0.00    -0.190 A  
ENDBRANCH   5   8
ENDBRANCH   2   5
TORSDOF 2
ENDMDL
MODEL      215
REMARK 921   NORMALIZED FREE ENERGY PREDICTED BY IDOCK:   -2.17 KCAL/MOL
REMARK 922        TOTAL FREE ENERGY PREDICTED BY IDOCK:   -2.50 KCAL/MOL
REMARK 923 INTER-LIGAND FREE ENERGY PREDICTED BY IDOCK:   -2.42 KCAL/MOL
REMARK 924 INTRA-LIGAND FREE ENERGY PREDICTED BY IDOCK:   -0.08 KCAL/MOL
REMARK 927      BINDING AFFINITY PREDICTED BY RF-SCORE:    0.00 PKD
ROOT
HETATM    1  N   UNL     1      -8.438   7.011  72.635  1.00  0.00    -0.112 NA 
HETATM    2  C   UNL     1      -8.231   8.044  71.609  1.00  0.00    -0.119 C  
HETATM    3  H1  UNL     1      -7.565   6.552  72.895  1.00  0.00     0.000 HD 
HETATM    4  H2  UNL     1      -9.140   6.332  72.341  1.00  0.00     0.000 HD 
ENDROOT
BRANCH   2   5
HETATM    5  C   UNL     1      -9.554   8.738  71.214  1.00  0.00    -0.253 C  
HETATM    6  H   UNL     1     -11.472   8.335  71.353  1.00  0.00     0.000 HD 
HETATM    7  O   UNL     1     -10.658   7.908  71.595  1.00  0.00    -0.214 OA 
BRANCH   5   8
HETATM    8  C   UNL     1      -9.600   9.031  69.726  1.00  0.00    -0.182 A  
HETATM    9  C   UNL     1      -9.123  10.243  69.195  1.00  0.00    -0.199 A  
HETATM   10  C   UNL     1      -9.225  10.483  67.827  1.00  0.00    -0.145 A  
HETATM   11  O   UNL     1      -8.767  11.641  67.261  1.00  0.00    -0.149 OA 
HETATM   12  C   UNL     1      -9.811   9.540  66.986  1.00  0.00    -0.190 A  
HETATM   13  H   UNL     1      -8.837  11.805  66.327  1.00  0.00     0.000 HD 
HETATM   14  C   UNL     1     -10.291   8.343  67.492  1.00  0.00    -0.333 A  
HETATM   15  O   UNL     1      -9.924   9.794  65.649  1.00  0.00    -0.301 OA 
HETATM   16  H   UNL     1     -10.323   9.152  65.075  1.00  0.00     0.000 HD 
HETATM   17  C   UNL     1     -10.183   8.088  68.859  1.00  0.00    -0.220 A  
ENDBRANCH   5   8
ENDBRANCH   2   5
TORSDOF 2
ENDMDL
MODEL      216
REMARK 921   NORMALIZED FREE ENERGY PREDICTED BY IDOCK:   -2.16 KCAL/MOL
REMARK 922        TOTAL FREE ENERGY PREDICTED BY IDOCK:   -2.49 KCAL/MOL
REMARK 923 INTER-LIGAND FREE ENERGY PREDICTED BY IDOCK:   -2.40 KCAL/MOL
REMARK 924 INTRA-LIGAND FREE ENERGY PREDICTED BY IDOCK:   -0.09 KCAL/MOL
REMARK 927      BINDING AFFINITY PREDICTED BY RF-SCORE:    0.00 PKD
ROOT
HETATM    1  N   UNL     1     -11.374   4.287  64.848  1.00  0.00    -1.051 NA 
HETATM    2  C   UNL     1      -9.966   4.089  65.225  1.00  0.00    -0.189 C  
HETATM    3  H1  UNL     1     -11.737   3.504  64.305  1.00  0.00     0.000 HD 
HETATM    4  H2  UNL     1     -11.505   5.171  64.356  1.00  0.00     0.000 HD 
ENDROOT
BRANCH   2   5
HETATM    5  C   UNL     1      -9.417   5.276  66.047  1.00  0.00    -0.156 C  
HETATM    6  H   UNL     1      -8.031   6.649  65.816  1.00  0.00     0.000 HD 
HETATM    7  O   UNL     1      -8.368   5.919  65.311  1.00  0.00    -0.139 OA 
BRANCH   5   8
HETATM    8  C   UNL     1      -8.910   4.820  67.403  1.00  0.00    -0.106 A  
HETATM    9  C   UNL     1      -9.756   4.749  68.524  1.00  0.00    -0.215 A  
HETATM   10  C   UNL     1      -9.235   4.365  69.756  1.00  0.00    -0.131 A  
HETATM   11  O   UNL     1     -10.018   4.271  70.875  1.00  0.00    -0.197 OA 
HETATM   12  C   UNL     1      -7.880   4.067  69.890  1.00  0.00    -0.052 A  
HETATM   13  H   UNL     1      -9.662   4.009  71.716  1.00  0.00     0.000 HD 
HETATM   14  C   UNL     1      -7.031   4.136  68.798  1.00  0.00    -0.047 A  
HETATM   15  O   UNL     1      -7.376   3.711  71.108  1.00  0.00    -0.033 OA 
HETATM   16  H   UNL     1      -6.453   3.507  71.199  1.00  0.00     0.000 HD 
HETATM   17  C   UNL     1      -7.546   4.509  67.555  1.00  0.00    -0.078 A  
ENDBRANCH   5   8
ENDBRANCH   2   5
TORSDOF 2
ENDMDL
MODEL      217
REMARK 921   NORMALIZED FREE ENERGY PREDICTED BY IDOCK:   -2.16 KCAL/MOL
REMARK 922        TOTAL FREE ENERGY PREDICTED BY IDOCK:   -2.49 KCAL/MOL
REMARK 923 INTER-LIGAND FREE ENERGY PREDICTED BY IDOCK:   -2.52 KCAL/MOL
REMARK 924 INTRA-LIGAND FREE ENERGY PREDICTED BY IDOCK:    0.04 KCAL/MOL
REMARK 927      BINDING AFFINITY PREDICTED BY RF-SCORE:    0.00 PKD
ROOT
HETATM    1  N   UNL     1      -7.207   9.382  71.355  1.00  0.00    -0.330 NA 
HETATM    2  C   UNL     1      -6.401   8.453  70.549  1.00  0.00    -0.035 C  
HETATM    3  H1  UNL     1      -6.843  10.335  71.315  1.00  0.00     0.000 HD 
HETATM    4  H2  UNL     1      -7.293   9.059  72.318  1.00  0.00     0.000 HD 
ENDROOT
BRANCH   2   5
HETATM    5  C   UNL     1      -6.952   7.010  70.611  1.00  0.00    -0.062 C  
HETATM    6  H   UNL     1      -6.750   5.362  69.561  1.00  0.00     0.000 HD 
HETATM    7  O   UNL     1      -6.412   6.249  69.523  1.00  0.00    -0.036 OA 
BRANCH   5   8
HETATM    8  C   UNL     1      -8.469   6.997  70.565  1.00  0.00    -0.133 A  
HETATM    9  C   UNL     1      -9.234   6.410  71.589  1.00  0.00    -0.144 A  
HETATM   10  C   UNL     1     -10.622   6.385  71.483  1.00  0.00    -0.231 A  
HETATM   11  O   UNL     1     -11.412   5.835  72.455  1.00  0.00    -0.293 OA 
HETATM   12  C   UNL     1     -11.255   6.921  70.364  1.00  0.00    -0.312 A  
HETATM   13  H   UNL     1     -12.359   5.818  72.383  1.00  0.00     0.000 HD 
HETATM   14  C   UNL     1     -10.517   7.499  69.344  1.00  0.00    -0.222 A  
HETATM   15  O   UNL     1     -12.616   6.874  70.260  1.00  0.00    -0.581 OA 
HETATM   16  H   UNL     1     -13.048   7.239  69.498  1.00  0.00     0.000 HD 
HETATM   17  C   UNL     1      -9.126   7.539  69.446  1.00  0.00    -0.142 A  
ENDBRANCH   5   8
ENDBRANCH   2   5
TORSDOF 2
ENDMDL
MODEL      218
REMARK 921   NORMALIZED FREE ENERGY PREDICTED BY IDOCK:   -2.14 KCAL/MOL
REMARK 922        TOTAL FREE ENERGY PREDICTED BY IDOCK:   -2.47 KCAL/MOL
REMARK 923 INTER-LIGAND FREE ENERGY PREDICTED BY IDOCK:   -2.37 KCAL/MOL
REMARK 924 INTRA-LIGAND FREE ENERGY PREDICTED BY IDOCK:   -0.09 KCAL/MOL
REMARK 927      BINDING AFFINITY PREDICTED BY RF-SCORE:    0.00 PKD
ROOT
HETATM    1  N   UNL     1      -6.280   6.242  71.462  1.00  0.00    -0.040 NA 
HETATM    2  C   UNL     1      -7.594   6.696  70.984  1.00  0.00    -0.085 C  
HETATM    3  H1  UNL     1      -6.330   5.853  72.403  1.00  0.00     0.000 HD 
HETATM    4  H2  UNL     1      -5.587   6.988  71.406  1.00  0.00     0.000 HD 
ENDROOT
BRANCH   2   5
HETATM    5  C   UNL     1      -7.517   7.286  69.558  1.00  0.00    -0.091 C  
HETATM    6  H   UNL     1      -6.254   8.394  68.540  1.00  0.00     0.000 HD 
HETATM    7  O   UNL     1      -6.301   8.032  69.417  1.00  0.00    -0.034 OA 
BRANCH   5   8
HETATM    8  C   UNL     1      -8.717   8.167  69.260  1.00  0.00    -0.140 A  
HETATM    9  C   UNL     1      -9.059   8.532  67.945  1.00  0.00    -0.145 A  
HETATM   10  C   UNL     1     -10.144   9.375  67.725  1.00  0.00    -0.198 A  
HETATM   11  O   UNL     1     -10.523   9.752  66.465  1.00  0.00    -0.211 OA 
HETATM   12  C   UNL     1     -10.881   9.874  68.797  1.00  0.00    -0.208 A  
HETATM   13  H   UNL     1     -11.263  10.328  66.315  1.00  0.00     0.000 HD 
HETATM   14  C   UNL     1     -10.556   9.529  70.098  1.00  0.00    -0.298 A  
HETATM   15  O   UNL     1     -11.931  10.716  68.571  1.00  0.00    -0.743 OA 
HETATM   16  H   UNL     1     -12.434  11.056  69.301  1.00  0.00     0.000 HD 
HETATM   17  C   UNL     1      -9.477   8.674  70.329  1.00  0.00    -0.182 A  
ENDBRANCH   5   8
ENDBRANCH   2   5
TORSDOF 2
ENDMDL
MODEL      219
REMARK 921   NORMALIZED FREE ENERGY PREDICTED BY IDOCK:   -2.13 KCAL/MOL
REMARK 922        TOTAL FREE ENERGY PREDICTED BY IDOCK:   -2.46 KCAL/MOL
REMARK 923 INTER-LIGAND FREE ENERGY PREDICTED BY IDOCK:   -2.38 KCAL/MOL
REMARK 924 INTRA-LIGAND FREE ENERGY PREDICTED BY IDOCK:   -0.08 KCAL/MOL
REMARK 927      BINDING AFFINITY PREDICTED BY RF-SCORE:    0.00 PKD
ROOT
HETATM    1  N   UNL     1     -10.643   6.369  66.540  1.00  0.00    -0.493 NA 
HETATM    2  C   UNL     1     -10.698   5.688  67.842  1.00  0.00    -0.158 C  
HETATM    3  H1  UNL     1     -10.575   5.708  65.767  1.00  0.00     0.000 HD 
HETATM    4  H2  UNL     1      -9.887   7.053  66.511  1.00  0.00     0.000 HD 
ENDROOT
BRANCH   2   5
HETATM    5  C   UNL     1     -10.801   6.691  69.013  1.00  0.00    -0.277 C  
HETATM    6  H   UNL     1     -10.427   8.599  69.293  1.00  0.00     0.000 HD 
HETATM    7  O   UNL     1     -10.363   7.982  68.573  1.00  0.00    -0.204 OA 
BRANCH   5   8
HETATM    8  C   UNL     1      -9.981   6.231  70.205  1.00  0.00    -0.210 A  
HETATM    9  C   UNL     1     -10.480   5.297  71.131  1.00  0.00    -0.275 A  
HETATM   10  C   UNL     1      -9.707   4.938  72.231  1.00  0.00    -0.160 A  
HETATM   11  O   UNL     1     -10.143   4.027  73.155  1.00  0.00    -0.132 OA 
HETATM   12  C   UNL     1      -8.452   5.509  72.431  1.00  0.00    -0.118 A  
HETATM   13  H   UNL     1      -9.615   3.782  73.906  1.00  0.00     0.000 HD 
HETATM   14  C   UNL     1      -7.946   6.434  71.532  1.00  0.00    -0.105 A  
HETATM   15  O   UNL     1      -7.710   5.165  73.524  1.00  0.00    -0.097 OA 
HETATM   16  H   UNL     1      -6.855   5.554  73.660  1.00  0.00     0.000 HD 
HETATM   17  C   UNL     1      -8.709   6.793  70.419  1.00  0.00    -0.151 A  
ENDBRANCH   5   8
ENDBRANCH   2   5
TORSDOF 2
ENDMDL
MODEL      220
REMARK 921   NORMALIZED FREE ENERGY PREDICTED BY IDOCK:   -2.13 KCAL/MOL
REMARK 922        TOTAL FREE ENERGY PREDICTED BY IDOCK:   -2.46 KCAL/MOL
REMARK 923 INTER-LIGAND FREE ENERGY PREDICTED BY IDOCK:   -2.35 KCAL/MOL
REMARK 924 INTRA-LIGAND FREE ENERGY PREDICTED BY IDOCK:   -0.11 KCAL/MOL
REMARK 927      BINDING AFFINITY PREDICTED BY RF-SCORE:    0.00 PKD
ROOT
HETATM    1  N   UNL     1      -7.075   5.620  73.876  1.00  0.00    -0.082 NA 
HETATM    2  C   UNL     1      -8.060   6.507  73.240  1.00  0.00    -0.109 C  
HETATM    3  H1  UNL     1      -7.406   5.264  74.773  1.00  0.00     0.000 HD 
HETATM    4  H2  UNL     1      -6.169   6.078  73.970  1.00  0.00     0.000 HD 
ENDROOT
BRANCH   2   5
HETATM    5  C   UNL     1      -7.558   7.046  71.881  1.00  0.00    -0.092 C  
HETATM    6  H   UNL     1      -6.879   8.754  71.188  1.00  0.00     0.000 HD 
HETATM    7  O   UNL     1      -7.188   8.423  72.024  1.00  0.00    -0.086 OA 
BRANCH   5   8
HETATM    8  C   UNL     1      -8.614   6.890  70.803  1.00  0.00    -0.144 A  
HETATM    9  C   UNL     1      -8.420   7.384  69.500  1.00  0.00    -0.133 A  
HETATM   10  C   UNL     1      -9.435   7.254  68.556  1.00  0.00    -0.140 A  
HETATM   11  O   UNL     1      -9.293   7.710  67.274  1.00  0.00    -0.137 OA 
HETATM   12  C   UNL     1     -10.645   6.653  68.897  1.00  0.00    -0.230 A  
HETATM   13  H   UNL     1      -9.986   7.620  66.630  1.00  0.00     0.000 HD 
HETATM   14  C   UNL     1     -10.855   6.164  70.176  1.00  0.00    -0.395 A  
HETATM   15  O   UNL     1     -11.641   6.548  67.969  1.00  0.00    -0.598 OA 
HETATM   16  H   UNL     1     -12.466   6.138  68.201  1.00  0.00     0.000 HD 
HETATM   17  C   UNL     1      -9.840   6.279  71.127  1.00  0.00    -0.203 A  
ENDBRANCH   5   8
ENDBRANCH   2   5
TORSDOF 2
ENDMDL
MODEL      221
REMARK 921   NORMALIZED FREE ENERGY PREDICTED BY IDOCK:   -2.12 KCAL/MOL
REMARK 922        TOTAL FREE ENERGY PREDICTED BY IDOCK:   -2.44 KCAL/MOL
REMARK 923 INTER-LIGAND FREE ENERGY PREDICTED BY IDOCK:   -2.32 KCAL/MOL
REMARK 924 INTRA-LIGAND FREE ENERGY PREDICTED BY IDOCK:   -0.12 KCAL/MOL
REMARK 927      BINDING AFFINITY PREDICTED BY RF-SCORE:    0.00 PKD
ROOT
HETATM    1  N   UNL     1      -7.380   9.717  67.973  1.00  0.00    -0.081 NA 
HETATM    2  C   UNL     1      -7.490  10.573  66.783  1.00  0.00    -0.115 C  
HETATM    3  H1  UNL     1      -7.471   8.728  67.740  1.00  0.00     0.000 HD 
HETATM    4  H2  UNL     1      -8.051   9.992  68.691  1.00  0.00     0.000 HD 
ENDROOT
BRANCH   2   5
HETATM    5  C   UNL     1      -7.352  12.072  67.136  1.00  0.00    -0.134 C  
HETATM    6  H   UNL     1      -6.255  13.154  68.354  1.00  0.00     0.000 HD 
HETATM    7  O   UNL     1      -6.339  12.233  68.137  1.00  0.00    -0.054 OA 
BRANCH   5   8
HETATM    8  C   UNL     1      -8.671  12.647  67.619  1.00  0.00    -0.179 A  
HETATM    9  C   UNL     1      -9.901  12.240  67.073  1.00  0.00    -0.211 A  
HETATM   10  C   UNL     1     -11.081  12.827  67.520  1.00  0.00    -0.263 A  
HETATM   11  O   UNL     1     -12.304  12.459  67.027  1.00  0.00    -0.399 OA 
HETATM   12  C   UNL     1     -11.051  13.825  68.491  1.00  0.00    -0.267 A  
HETATM   13  H   UNL     1     -13.109  12.860  67.332  1.00  0.00     0.000 HD 
HETATM   14  C   UNL     1      -9.848  14.242  69.038  1.00  0.00    -0.074 A  
HETATM   15  O   UNL     1     -12.213  14.408  68.908  1.00  0.00    -0.511 OA 
HETATM   16  H   UNL     1     -12.192  15.088  69.571  1.00  0.00     0.000 HD 
HETATM   17  C   UNL     1      -8.660  13.651  68.605  1.00  0.00    -0.031 A  
ENDBRANCH   5   8
ENDBRANCH   2   5
TORSDOF 2
ENDMDL
MODEL      222
REMARK 921   NORMALIZED FREE ENERGY PREDICTED BY IDOCK:   -2.09 KCAL/MOL
REMARK 922        TOTAL FREE ENERGY PREDICTED BY IDOCK:   -2.41 KCAL/MOL
REMARK 923 INTER-LIGAND FREE ENERGY PREDICTED BY IDOCK:   -2.32 KCAL/MOL
REMARK 924 INTRA-LIGAND FREE ENERGY PREDICTED BY IDOCK:   -0.10 KCAL/MOL
REMARK 927      BINDING AFFINITY PREDICTED BY RF-SCORE:    0.00 PKD
ROOT
HETATM    1  N   UNL     1      -8.417  12.359  67.784  1.00  0.00    -0.157 NA 
HETATM    2  C   UNL     1      -9.368  11.401  68.369  1.00  0.00    -0.194 C  
HETATM    3  H1  UNL     1      -8.610  13.316  68.079  1.00  0.00     0.000 HD 
HETATM    4  H2  UNL     1      -8.391  12.283  66.767  1.00  0.00     0.000 HD 
ENDROOT
BRANCH   2   5
HETATM    5  C   UNL     1      -9.075   9.952  67.921  1.00  0.00    -0.131 C  
HETATM    6  H   UNL     1      -9.369   8.872  66.306  1.00  0.00     0.000 HD 
HETATM    7  O   UNL     1      -9.549   9.763  66.581  1.00  0.00    -0.168 OA 
BRANCH   5   8
HETATM    8  C   UNL     1      -9.718   8.945  68.857  1.00  0.00    -0.173 A  
HETATM    9  C   UNL     1     -10.240   7.726  68.387  1.00  0.00    -0.230 A  
HETATM   10  C   UNL     1     -10.858   6.853  69.278  1.00  0.00    -0.237 A  
HETATM   11  O   UNL     1     -11.373   5.652  68.874  1.00  0.00     0.058 OA 
HETATM   12  C   UNL     1     -10.978   7.185  70.626  1.00  0.00    -0.258 A  
HETATM   13  H   UNL     1     -11.795   5.056  69.482  1.00  0.00     0.000 HD 
HETATM   14  C   UNL     1     -10.474   8.384  71.105  1.00  0.00    -0.263 A  
HETATM   15  O   UNL     1     -11.603   6.331  71.487  1.00  0.00    -0.298 OA 
HETATM   16  H   UNL     1     -11.685   6.557  72.406  1.00  0.00     0.000 HD 
HETATM   17  C   UNL     1      -9.842   9.261  70.222  1.00  0.00    -0.265 A  
ENDBRANCH   5   8
ENDBRANCH   2   5
TORSDOF 2
ENDMDL
MODEL      223
REMARK 921   NORMALIZED FREE ENERGY PREDICTED BY IDOCK:   -2.07 KCAL/MOL
REMARK 922        TOTAL FREE ENERGY PREDICTED BY IDOCK:   -2.39 KCAL/MOL
REMARK 923 INTER-LIGAND FREE ENERGY PREDICTED BY IDOCK:   -2.58 KCAL/MOL
REMARK 924 INTRA-LIGAND FREE ENERGY PREDICTED BY IDOCK:    0.19 KCAL/MOL
REMARK 927      BINDING AFFINITY PREDICTED BY RF-SCORE:    0.00 PKD
ROOT
HETATM    1  N   UNL     1      -8.548   9.728  63.866  1.00  0.00    -0.182 NA 
HETATM    2  C   UNL     1      -9.432  10.449  62.938  1.00  0.00    -0.325 C  
HETATM    3  H1  UNL     1      -7.816   9.215  63.374  1.00  0.00     0.000 HD 
HETATM    4  H2  UNL     1      -9.080   9.114  64.482  1.00  0.00     0.000 HD 
ENDROOT
BRANCH   2   5
HETATM    5  C   UNL     1     -10.541  11.225  63.684  1.00  0.00    -0.388 C  
HETATM    6  H   UNL     1     -11.494  12.927  63.450  1.00  0.00     0.000 HD 
HETATM    7  O   UNL     1     -10.811  12.450  62.991  1.00  0.00    -0.238 OA 
BRANCH   5   8
HETATM    8  C   UNL     1     -10.146  11.505  65.122  1.00  0.00    -0.313 A  
HETATM    9  C   UNL     1      -9.268  12.551  65.458  1.00  0.00     0.259 A  
HETATM   10  C   UNL     1      -8.902  12.743  66.787  1.00  0.00    -0.159 A  
HETATM   11  O   UNL     1      -8.059  13.752  67.167  1.00  0.00    -0.291 OA 
HETATM   12  C   UNL     1      -9.386  11.897  67.783  1.00  0.00    -0.184 A  
HETATM   13  H   UNL     1      -7.810  13.883  68.074  1.00  0.00     0.000 HD 
HETATM   14  C   UNL     1     -10.248  10.859  67.470  1.00  0.00    -0.224 A  
HETATM   15  O   UNL     1      -9.005  12.082  69.081  1.00  0.00    -0.323 OA 
HETATM   16  H   UNL     1      -9.335  11.506  69.760  1.00  0.00     0.000 HD 
HETATM   17  C   UNL     1     -10.630  10.665  66.142  1.00  0.00    -0.211 A  
ENDBRANCH   5   8
ENDBRANCH   2   5
TORSDOF 2
ENDMDL
MODEL      224
REMARK 921   NORMALIZED FREE ENERGY PREDICTED BY IDOCK:   -2.07 KCAL/MOL
REMARK 922        TOTAL FREE ENERGY PREDICTED BY IDOCK:   -2.39 KCAL/MOL
REMARK 923 INTER-LIGAND FREE ENERGY PREDICTED BY IDOCK:   -2.91 KCAL/MOL
REMARK 924 INTRA-LIGAND FREE ENERGY PREDICTED BY IDOCK:    0.52 KCAL/MOL
REMARK 927      BINDING AFFINITY PREDICTED BY RF-SCORE:    0.00 PKD
ROOT
HETATM    1  N   UNL     1     -10.876  19.678  68.257  1.00  0.00    -0.289 NA 
HETATM    2  C   UNL     1     -10.619  19.045  66.955  1.00  0.00    -0.461 C  
HETATM    3  H1  UNL     1     -11.129  20.662  68.160  1.00  0.00     0.000 HD 
HETATM    4  H2  UNL     1     -10.084  19.561  68.889  1.00  0.00     0.000 HD 
ENDROOT
BRANCH   2   5
HETATM    5  C   UNL     1     -10.236  17.555  67.104  1.00  0.00    -0.323 C  
HETATM    6  H   UNL     1     -11.010  15.962  67.953  1.00  0.00     0.000 HD 
HETATM    7  O   UNL     1     -11.246  16.878  67.862  1.00  0.00    -0.239 OA 
BRANCH   5   8
HETATM    8  C   UNL     1      -8.881  17.399  67.770  1.00  0.00    -0.232 A  
HETATM    9  C   UNL     1      -8.228  16.155  67.837  1.00  0.00    -0.159 A  
HETATM   10  C   UNL     1      -7.005  16.054  68.494  1.00  0.00    -0.131 A  
HETATM   11  O   UNL     1      -6.326  14.869  68.579  1.00  0.00    -0.085 OA 
HETATM   12  C   UNL     1      -6.433  17.170  69.100  1.00  0.00    -0.223 A  
HETATM   13  H   UNL     1      -5.491  14.800  69.028  1.00  0.00     0.000 HD 
HETATM   14  C   UNL     1      -7.064  18.402  69.049  1.00  0.00    -0.262 A  
HETATM   15  O   UNL     1      -5.243  17.055  69.760  1.00  0.00    -0.151 OA 
HETATM   16  H   UNL     1      -4.853  17.816  70.173  1.00  0.00     0.000 HD 
HETATM   17  C   UNL     1      -8.285  18.517  68.382  1.00  0.00    -0.351 A  
ENDBRANCH   5   8
ENDBRANCH   2   5
TORSDOF 2
ENDMDL
MODEL      225
REMARK 921   NORMALIZED FREE ENERGY PREDICTED BY IDOCK:   -2.02 KCAL/MOL
REMARK 922        TOTAL FREE ENERGY PREDICTED BY IDOCK:   -2.34 KCAL/MOL
REMARK 923 INTER-LIGAND FREE ENERGY PREDICTED BY IDOCK:   -2.38 KCAL/MOL
REMARK 924 INTRA-LIGAND FREE ENERGY PREDICTED BY IDOCK:    0.04 KCAL/MOL
REMARK 927      BINDING AFFINITY PREDICTED BY RF-SCORE:    0.00 PKD
ROOT
HETATM    1  N   UNL     1      -6.238   2.750  68.137  1.00  0.00    -0.028 NA 
HETATM    2  C   UNL     1      -6.611   4.142  68.431  1.00  0.00    -0.046 C  
HETATM    3  H1  UNL     1      -5.229   2.608  68.186  1.00  0.00     0.000 HD 
HETATM    4  H2  UNL     1      -6.612   2.449  67.237  1.00  0.00     0.000 HD 
ENDROOT
BRANCH   2   5
HETATM    5  C   UNL     1      -8.140   4.357  68.357  1.00  0.00    -0.082 C  
HETATM    6  H   UNL     1      -9.744   3.406  68.974  1.00  0.00     0.000 HD 
HETATM    7  O   UNL     1      -8.805   3.273  69.019  1.00  0.00    -0.085 OA 
BRANCH   5   8
HETATM    8  C   UNL     1      -8.611   4.468  66.919  1.00  0.00    -0.104 A  
HETATM    9  C   UNL     1      -9.964   4.304  66.569  1.00  0.00    -0.214 A  
HETATM   10  C   UNL     1     -10.342   4.374  65.231  1.00  0.00    -0.198 A  
HETATM   11  O   UNL     1     -11.646   4.231  64.840  1.00  0.00    -0.990 OA 
HETATM   12  C   UNL     1      -9.390   4.587  64.237  1.00  0.00    -0.085 A  
HETATM   13  H   UNL     1     -11.903   4.279  63.926  1.00  0.00     0.000 HD 
HETATM   14  C   UNL     1      -8.052   4.745  64.563  1.00  0.00    -0.109 A  
HETATM   15  O   UNL     1      -9.768   4.633  62.926  1.00  0.00    -0.344 OA 
HETATM   16  H   UNL     1      -9.119   4.779  62.248  1.00  0.00     0.000 HD 
HETATM   17  C   UNL     1      -7.664   4.689  65.902  1.00  0.00    -0.094 A  
ENDBRANCH   5   8
ENDBRANCH   2   5
TORSDOF 2
ENDMDL
MODEL      226
REMARK 921   NORMALIZED FREE ENERGY PREDICTED BY IDOCK:   -2.02 KCAL/MOL
REMARK 922        TOTAL FREE ENERGY PREDICTED BY IDOCK:   -2.33 KCAL/MOL
REMARK 923 INTER-LIGAND FREE ENERGY PREDICTED BY IDOCK:   -2.23 KCAL/MOL
REMARK 924 INTRA-LIGAND FREE ENERGY PREDICTED BY IDOCK:   -0.10 KCAL/MOL
REMARK 927      BINDING AFFINITY PREDICTED BY RF-SCORE:    0.00 PKD
ROOT
HETATM    1  N   UNL     1      -8.811   7.166  70.570  1.00  0.00    -0.153 NA 
HETATM    2  C   UNL     1      -8.181   7.392  69.262  1.00  0.00    -0.131 C  
HETATM    3  H1  UNL     1      -8.120   7.050  71.311  1.00  0.00     0.000 HD 
HETATM    4  H2  UNL     1      -9.457   6.377  70.540  1.00  0.00     0.000 HD 
ENDROOT
BRANCH   2   5
HETATM    5  C   UNL     1      -9.228   7.568  68.139  1.00  0.00    -0.137 C  
HETATM    6  H   UNL     1      -9.449   6.952  66.287  1.00  0.00     0.000 HD 
HETATM    7  O   UNL     1      -8.805   6.844  66.977  1.00  0.00    -0.116 OA 
BRANCH   5   8
HETATM    8  C   UNL     1      -9.438   9.033  67.805  1.00  0.00    -0.162 A  
HETATM    9  C   UNL     1      -8.507   9.758  67.038  1.00  0.00    -0.117 A  
HETATM   10  C   UNL     1      -8.722  11.111  66.793  1.00  0.00    -0.157 A  
HETATM   11  O   UNL     1      -7.852  11.857  66.046  1.00  0.00    -0.312 OA 
HETATM   12  C   UNL     1      -9.842  11.755  67.313  1.00  0.00    -0.185 A  
HETATM   13  H   UNL     1      -7.999  12.781  65.878  1.00  0.00     0.000 HD 
HETATM   14  C   UNL     1     -10.767  11.058  68.074  1.00  0.00    -0.260 A  
HETATM   15  O   UNL     1     -10.033  13.087  67.083  1.00  0.00    -0.228 OA 
HETATM   16  H   UNL     1     -10.797  13.526  67.438  1.00  0.00     0.000 HD 
HETATM   17  C   UNL     1     -10.567   9.698  68.317  1.00  0.00    -0.268 A  
ENDBRANCH   5   8
ENDBRANCH   2   5
TORSDOF 2
ENDMDL
MODEL      227
REMARK 921   NORMALIZED FREE ENERGY PREDICTED BY IDOCK:   -2.00 KCAL/MOL
REMARK 922        TOTAL FREE ENERGY PREDICTED BY IDOCK:   -2.31 KCAL/MOL
REMARK 923 INTER-LIGAND FREE ENERGY PREDICTED BY IDOCK:   -2.17 KCAL/MOL
REMARK 924 INTRA-LIGAND FREE ENERGY PREDICTED BY IDOCK:   -0.13 KCAL/MOL
REMARK 927      BINDING AFFINITY PREDICTED BY RF-SCORE:    0.00 PKD
ROOT
HETATM    1  N   UNL     1      -9.151   2.095  66.186  1.00  0.00    -0.266 NA 
HETATM    2  C   UNL     1      -8.391   2.861  65.187  1.00  0.00    -0.093 C  
HETATM    3  H1  UNL     1      -8.739   1.178  66.357  1.00  0.00     0.000 HD 
HETATM    4  H2  UNL     1     -10.134   2.017  65.923  1.00  0.00     0.000 HD 
ENDROOT
BRANCH   2   5
HETATM    5  C   UNL     1      -9.016   4.250  64.928  1.00  0.00    -0.143 C  
HETATM    6  H   UNL     1      -8.670   5.768  63.728  1.00  0.00     0.000 HD 
HETATM    7  O   UNL     1      -8.285   4.913  63.888  1.00  0.00    -0.109 OA 
BRANCH   5   8
HETATM    8  C   UNL     1      -9.027   5.094  66.189  1.00  0.00    -0.135 A  
HETATM    9  C   UNL     1     -10.225   5.572  66.750  1.00  0.00    -0.277 A  
HETATM   10  C   UNL     1     -10.181   6.377  67.884  1.00  0.00    -0.168 A  
HETATM   11  O   UNL     1     -11.319   6.859  68.473  1.00  0.00    -0.516 OA 
HETATM   12  C   UNL     1      -8.961   6.727  68.457  1.00  0.00    -0.121 A  
HETATM   13  H   UNL     1     -11.289   7.409  69.247  1.00  0.00     0.000 HD 
HETATM   14  C   UNL     1      -7.770   6.269  67.916  1.00  0.00    -0.103 A  
HETATM   15  O   UNL     1      -8.928   7.533  69.558  1.00  0.00    -0.143 OA 
HETATM   16  H   UNL     1      -8.096   7.771  69.949  1.00  0.00     0.000 HD 
HETATM   17  C   UNL     1      -7.804   5.451  66.785  1.00  0.00    -0.101 A  
ENDBRANCH   5   8
ENDBRANCH   2   5
TORSDOF 2
ENDMDL
MODEL      228
REMARK 921   NORMALIZED FREE ENERGY PREDICTED BY IDOCK:   -1.99 KCAL/MOL
REMARK 922        TOTAL FREE ENERGY PREDICTED BY IDOCK:   -2.30 KCAL/MOL
REMARK 923 INTER-LIGAND FREE ENERGY PREDICTED BY IDOCK:   -2.21 KCAL/MOL
REMARK 924 INTRA-LIGAND FREE ENERGY PREDICTED BY IDOCK:   -0.09 KCAL/MOL
REMARK 927      BINDING AFFINITY PREDICTED BY RF-SCORE:    0.00 PKD
ROOT
HETATM    1  N   UNL     1     -10.529   6.070  65.960  1.00  0.00    -0.396 NA 
HETATM    2  C   UNL     1      -9.827   6.792  67.031  1.00  0.00    -0.167 C  
HETATM    3  H1  UNL     1     -11.306   5.515  66.319  1.00  0.00     0.000 HD 
HETATM    4  H2  UNL     1      -9.885   5.496  65.416  1.00  0.00     0.000 HD 
ENDROOT
BRANCH   2   5
HETATM    5  C   UNL     1      -8.650   7.632  66.485  1.00  0.00    -0.138 C  
HETATM    6  H   UNL     1      -6.845   7.276  65.796  1.00  0.00     0.000 HD 
HETATM    7  O   UNL     1      -7.569   6.760  66.132  1.00  0.00    -0.082 OA 
BRANCH   5   8
HETATM    8  C   UNL     1      -8.190   8.661  67.501  1.00  0.00    -0.110 A  
HETATM    9  C   UNL     1      -8.879   8.868  68.710  1.00  0.00    -0.137 A  
HETATM   10  C   UNL     1      -8.442   9.853  69.591  1.00  0.00    -0.187 A  
HETATM   11  O   UNL     1      -9.072  10.087  70.784  1.00  0.00    -0.302 OA 
HETATM   12  C   UNL     1      -7.340  10.645  69.278  1.00  0.00    -0.119 A  
HETATM   13  H   UNL     1      -8.774  10.759  71.385  1.00  0.00     0.000 HD 
HETATM   14  C   UNL     1      -6.652  10.459  68.090  1.00  0.00    -0.060 A  
HETATM   15  O   UNL     1      -6.933  11.621  70.140  1.00  0.00    -0.424 OA 
HETATM   16  H   UNL     1      -6.181  12.161  69.927  1.00  0.00     0.000 HD 
HETATM   17  C   UNL     1      -7.075   9.466  67.204  1.00  0.00    -0.086 A  
ENDBRANCH   5   8
ENDBRANCH   2   5
TORSDOF 2
ENDMDL
MODEL      229
REMARK 921   NORMALIZED FREE ENERGY PREDICTED BY IDOCK:   -1.87 KCAL/MOL
REMARK 922        TOTAL FREE ENERGY PREDICTED BY IDOCK:   -2.16 KCAL/MOL
REMARK 923 INTER-LIGAND FREE ENERGY PREDICTED BY IDOCK:   -3.55 KCAL/MOL
REMARK 924 INTRA-LIGAND FREE ENERGY PREDICTED BY IDOCK:    1.39 KCAL/MOL
REMARK 927      BINDING AFFINITY PREDICTED BY RF-SCORE:    0.00 PKD
ROOT
HETATM    1  N   UNL     1     -11.847  10.608  69.039  1.00  0.00    -0.537 NA 
HETATM    2  C   UNL     1     -11.778  10.416  70.495  1.00  0.00    -0.344 C  
HETATM    3  H1  UNL     1     -12.417  11.415  68.787  1.00  0.00     0.000 HD 
HETATM    4  H2  UNL     1     -12.173   9.763  68.568  1.00  0.00     0.000 HD 
ENDROOT
BRANCH   2   5
HETATM    5  C   UNL     1     -10.914   9.191  70.874  1.00  0.00    -0.282 C  
HETATM    6  H   UNL     1      -9.113   8.886  71.598  1.00  0.00     0.000 HD 
HETATM    7  O   UNL     1      -9.644   9.639  71.364  1.00  0.00    -0.131 OA 
BRANCH   5   8
HETATM    8  C   UNL     1     -10.728   8.260  69.691  1.00  0.00    -0.196 A  
HETATM    9  C   UNL     1     -10.534   8.750  68.386  1.00  0.00    -0.220 A  
HETATM   10  C   UNL     1     -10.409   7.857  67.327  1.00  0.00    -0.307 A  
HETATM   11  O   UNL     1     -10.210   8.283  66.041  1.00  0.00    -0.410 OA 
HETATM   12  C   UNL     1     -10.491   6.483  67.546  1.00  0.00    -0.240 A  
HETATM   13  H   UNL     1     -10.124   7.673  65.318  1.00  0.00     0.000 HD 
HETATM   14  C   UNL     1     -10.685   5.983  68.823  1.00  0.00    -0.375 A  
HETATM   15  O   UNL     1     -10.387   5.616  66.496  1.00  0.00    -0.217 OA 
HETATM   16  H   UNL     1     -10.442   4.680  66.646  1.00  0.00     0.000 HD 
HETATM   17  C   UNL     1     -10.801   6.870  69.894  1.00  0.00    -0.294 A  
ENDBRANCH   5   8
ENDBRANCH   2   5
TORSDOF 2
ENDMDL
MODEL      230
REMARK 921   NORMALIZED FREE ENERGY PREDICTED BY IDOCK:   -1.80 KCAL/MOL
REMARK 922        TOTAL FREE ENERGY PREDICTED BY IDOCK:   -2.09 KCAL/MOL
REMARK 923 INTER-LIGAND FREE ENERGY PREDICTED BY IDOCK:   -1.98 KCAL/MOL
REMARK 924 INTRA-LIGAND FREE ENERGY PREDICTED BY IDOCK:   -0.11 KCAL/MOL
REMARK 927      BINDING AFFINITY PREDICTED BY RF-SCORE:    0.00 PKD
ROOT
HETATM    1  N   UNL     1      -6.937   9.028  66.966  1.00  0.00    -0.077 NA 
HETATM    2  C   UNL     1      -7.237   8.034  68.006  1.00  0.00    -0.094 C  
HETATM    3  H1  UNL     1      -5.934   9.188  66.868  1.00  0.00     0.000 HD 
HETATM    4  H2  UNL     1      -7.436   9.902  67.133  1.00  0.00     0.000 HD 
ENDROOT
BRANCH   2   5
HETATM    5  C   UNL     1      -8.756   7.794  68.154  1.00  0.00    -0.126 C  
HETATM    6  H   UNL     1     -10.007   7.442  69.627  1.00  0.00     0.000 HD 
HETATM    7  O   UNL     1      -9.073   7.589  69.537  1.00  0.00    -0.143 OA 
BRANCH   5   8
HETATM    8  C   UNL     1      -9.209   6.606  67.325  1.00  0.00    -0.129 A  
HETATM    9  C   UNL     1      -8.302   5.632  66.870  1.00  0.00    -0.108 A  
HETATM   10  C   UNL     1      -8.759   4.583  66.078  1.00  0.00    -0.115 A  
HETATM   11  O   UNL     1      -7.919   3.605  65.617  1.00  0.00    -0.092 OA 
HETATM   12  C   UNL     1     -10.103   4.499  65.720  1.00  0.00    -0.255 A  
HETATM   13  H   UNL     1      -8.231   2.889  65.076  1.00  0.00     0.000 HD 
HETATM   14  C   UNL     1     -11.010   5.452  66.156  1.00  0.00     0.002 A  
HETATM   15  O   UNL     1     -10.537   3.477  64.926  1.00  0.00    -0.438 OA 
HETATM   16  H   UNL     1     -11.453   3.420  64.682  1.00  0.00     0.000 HD 
HETATM   17  C   UNL     1     -10.564   6.502  66.960  1.00  0.00    -0.402 A  
ENDBRANCH   5   8
ENDBRANCH   2   5
TORSDOF 2
ENDMDL
MODEL      231
REMARK 921   NORMALIZED FREE ENERGY PREDICTED BY IDOCK:   -1.80 KCAL/MOL
REMARK 922        TOTAL FREE ENERGY PREDICTED BY IDOCK:   -2.08 KCAL/MOL
REMARK 923 INTER-LIGAND FREE ENERGY PREDICTED BY IDOCK:   -2.02 KCAL/MOL
REMARK 924 INTRA-LIGAND FREE ENERGY PREDICTED BY IDOCK:   -0.07 KCAL/MOL
REMARK 927      BINDING AFFINITY PREDICTED BY RF-SCORE:    0.00 PKD
ROOT
HETATM    1  N   UNL     1      -5.406   7.364  70.901  1.00  0.00    -0.027 NA 
HETATM    2  C   UNL     1      -6.745   7.389  71.506  1.00  0.00    -0.050 C  
HETATM    3  H1  UNL     1      -4.877   8.211  71.110  1.00  0.00     0.000 HD 
HETATM    4  H2  UNL     1      -5.455   7.197  69.896  1.00  0.00     0.000 HD 
ENDROOT
BRANCH   2   5
HETATM    5  C   UNL     1      -7.546   6.106  71.188  1.00  0.00    -0.093 C  
HETATM    6  H   UNL     1      -7.130   4.266  70.641  1.00  0.00     0.000 HD 
HETATM    7  O   UNL     1      -6.637   5.055  70.836  1.00  0.00    -0.032 OA 
BRANCH   5   8
HETATM    8  C   UNL     1      -8.544   6.341  70.069  1.00  0.00    -0.134 A  
HETATM    9  C   UNL     1      -9.932   6.285  70.291  1.00  0.00    -0.210 A  
HETATM   10  C   UNL     1     -10.807   6.467  69.225  1.00  0.00    -0.327 A  
HETATM   11  O   UNL     1     -12.165   6.430  69.390  1.00  0.00    -0.123 OA 
HETATM   12  C   UNL     1     -10.319   6.687  67.939  1.00  0.00    -0.189 A  
HETATM   13  H   UNL     1     -12.763   6.554  68.662  1.00  0.00     0.000 HD 
HETATM   14  C   UNL     1      -8.956   6.741  67.700  1.00  0.00    -0.115 A  
HETATM   15  O   UNL     1     -11.187   6.844  66.896  1.00  0.00    -0.597 OA 
HETATM   16  H   UNL     1     -10.854   6.995  66.020  1.00  0.00     0.000 HD 
HETATM   17  C   UNL     1      -8.069   6.572  68.765  1.00  0.00    -0.118 A  
ENDBRANCH   5   8
ENDBRANCH   2   5
TORSDOF 2
ENDMDL
MODEL      232
REMARK 921   NORMALIZED FREE ENERGY PREDICTED BY IDOCK:   -1.70 KCAL/MOL
REMARK 922        TOTAL FREE ENERGY PREDICTED BY IDOCK:   -1.97 KCAL/MOL
REMARK 923 INTER-LIGAND FREE ENERGY PREDICTED BY IDOCK:   -1.88 KCAL/MOL
REMARK 924 INTRA-LIGAND FREE ENERGY PREDICTED BY IDOCK:   -0.09 KCAL/MOL
REMARK 927      BINDING AFFINITY PREDICTED BY RF-SCORE:    0.00 PKD
ROOT
HETATM    1  N   UNL     1      -9.782   3.455  66.474  1.00  0.00    -0.412 NA 
HETATM    2  C   UNL     1      -9.157   4.436  67.373  1.00  0.00    -0.132 C  
HETATM    3  H1  UNL     1      -9.275   2.569  66.465  1.00  0.00     0.000 HD 
HETATM    4  H2  UNL     1      -9.889   3.830  65.532  1.00  0.00     0.000 HD 
ENDROOT
BRANCH   2   5
HETATM    5  C   UNL     1      -9.925   5.777  67.386  1.00  0.00    -0.150 C  
HETATM    6  H   UNL     1     -11.445   6.558  66.418  1.00  0.00     0.000 HD 
HETATM    7  O   UNL     1     -10.973   5.734  66.409  1.00  0.00    -0.206 OA 
BRANCH   5   8
HETATM    8  C   UNL     1      -8.996   6.947  67.115  1.00  0.00    -0.121 A  
HETATM    9  C   UNL     1      -9.342   7.973  66.217  1.00  0.00    -0.246 A  
HETATM   10  C   UNL     1      -8.439   9.003  65.970  1.00  0.00    -0.130 A  
HETATM   11  O   UNL     1      -8.731  10.030  65.113  1.00  0.00    -0.145 OA 
HETATM   12  C   UNL     1      -7.192   9.016  66.591  1.00  0.00    -0.085 A  
HETATM   13  H   UNL     1      -8.114  10.733  64.944  1.00  0.00     0.000 HD 
HETATM   14  C   UNL     1      -6.833   8.012  67.475  1.00  0.00    -0.070 A  
HETATM   15  O   UNL     1      -6.307  10.021  66.326  1.00  0.00    -0.071 OA 
HETATM   16  H   UNL     1      -5.457  10.030  66.750  1.00  0.00     0.000 HD 
HETATM   17  C   UNL     1      -7.736   6.980  67.739  1.00  0.00    -0.112 A  
ENDBRANCH   5   8
ENDBRANCH   2   5
TORSDOF 2
ENDMDL
MODEL      233
REMARK 921   NORMALIZED FREE ENERGY PREDICTED BY IDOCK:   -1.66 KCAL/MOL
REMARK 922        TOTAL FREE ENERGY PREDICTED BY IDOCK:   -1.93 KCAL/MOL
REMARK 923 INTER-LIGAND FREE ENERGY PREDICTED BY IDOCK:   -1.83 KCAL/MOL
REMARK 924 INTRA-LIGAND FREE ENERGY PREDICTED BY IDOCK:   -0.10 KCAL/MOL
REMARK 927      BINDING AFFINITY PREDICTED BY RF-SCORE:    0.00 PKD
ROOT
HETATM    1  N   UNL     1      -8.373   4.007  69.571  1.00  0.00    -0.057 NA 
HETATM    2  C   UNL     1      -7.874   5.155  68.799  1.00  0.00    -0.079 C  
HETATM    3  H1  UNL     1      -7.637   3.574  70.129  1.00  0.00     0.000 HD 
HETATM    4  H2  UNL     1      -8.829   3.324  68.966  1.00  0.00     0.000 HD 
ENDROOT
BRANCH   2   5
HETATM    5  C   UNL     1      -8.990   5.810  67.954  1.00  0.00    -0.111 C  
HETATM    6  H   UNL     1      -9.474   5.892  66.051  1.00  0.00     0.000 HD 
HETATM    7  O   UNL     1      -8.788   5.490  66.571  1.00  0.00    -0.117 OA 
BRANCH   5   8
HETATM    8  C   UNL     1      -9.019   7.314  68.150  1.00  0.00    -0.132 A  
HETATM    9  C   UNL     1      -8.186   7.955  69.086  1.00  0.00    -0.132 A  
HETATM   10  C   UNL     1      -8.279   9.333  69.259  1.00  0.00    -0.108 A  
HETATM   11  O   UNL     1      -7.485  10.004  70.149  1.00  0.00    -0.157 OA 
HETATM   12  C   UNL     1      -9.200  10.078  68.527  1.00  0.00    -0.141 A  
HETATM   13  H   UNL     1      -7.549  10.945  70.268  1.00  0.00     0.000 HD 
HETATM   14  C   UNL     1     -10.031   9.464  67.604  1.00  0.00    -0.238 A  
HETATM   15  O   UNL     1      -9.297  11.426  68.719  1.00  0.00    -0.286 OA 
HETATM   16  H   UNL     1      -9.925  11.934  68.220  1.00  0.00     0.000 HD 
HETATM   17  C   UNL     1      -9.939   8.084  67.414  1.00  0.00    -0.270 A  
ENDBRANCH   5   8
ENDBRANCH   2   5
TORSDOF 2
ENDMDL
MODEL      234
REMARK 921   NORMALIZED FREE ENERGY PREDICTED BY IDOCK:   -1.63 KCAL/MOL
REMARK 922        TOTAL FREE ENERGY PREDICTED BY IDOCK:   -1.90 KCAL/MOL
REMARK 923 INTER-LIGAND FREE ENERGY PREDICTED BY IDOCK:   -2.04 KCAL/MOL
REMARK 924 INTRA-LIGAND FREE ENERGY PREDICTED BY IDOCK:    0.14 KCAL/MOL
REMARK 927      BINDING AFFINITY PREDICTED BY RF-SCORE:    0.00 PKD
ROOT
HETATM    1  N   UNL     1      -7.178   6.043  70.804  1.00  0.00    -0.075 NA 
HETATM    2  C   UNL     1      -8.497   5.418  70.983  1.00  0.00    -0.124 C  
HETATM    3  H1  UNL     1      -6.423   5.359  70.852  1.00  0.00     0.000 HD 
HETATM    4  H2  UNL     1      -7.034   6.802  71.470  1.00  0.00     0.000 HD 
ENDROOT
BRANCH   2   5
HETATM    5  C   UNL     1      -9.641   6.455  70.910  1.00  0.00    -0.175 C  
HETATM    6  H   UNL     1     -11.542   6.448  70.415  1.00  0.00     0.000 HD 
HETATM    7  O   UNL     1     -10.839   5.810  70.459  1.00  0.00    -0.283 OA 
BRANCH   5   8
HETATM    8  C   UNL     1      -9.282   7.608  69.990  1.00  0.00    -0.151 A  
HETATM    9  C   UNL     1      -8.698   8.791  70.480  1.00  0.00    -0.196 A  
HETATM   10  C   UNL     1      -8.425   9.837  69.603  1.00  0.00    -0.185 A  
HETATM   11  O   UNL     1      -7.850  11.004  70.027  1.00  0.00    -0.310 OA 
HETATM   12  C   UNL     1      -8.741   9.727  68.251  1.00  0.00    -0.119 A  
HETATM   13  H   UNL     1      -7.663  11.718  69.429  1.00  0.00     0.000 HD 
HETATM   14  C   UNL     1      -9.320   8.572  67.752  1.00  0.00    -0.153 A  
HETATM   15  O   UNL     1      -8.488  10.767  67.403  1.00  0.00    -0.119 OA 
HETATM   16  H   UNL     1      -8.702  10.693  66.481  1.00  0.00     0.000 HD 
HETATM   17  C   UNL     1      -9.588   7.512  68.620  1.00  0.00    -0.151 A  
ENDBRANCH   5   8
ENDBRANCH   2   5
TORSDOF 2
ENDMDL
MODEL      235
REMARK 921   NORMALIZED FREE ENERGY PREDICTED BY IDOCK:   -1.58 KCAL/MOL
REMARK 922        TOTAL FREE ENERGY PREDICTED BY IDOCK:   -1.85 KCAL/MOL
REMARK 923 INTER-LIGAND FREE ENERGY PREDICTED BY IDOCK:   -1.77 KCAL/MOL
REMARK 924 INTRA-LIGAND FREE ENERGY PREDICTED BY IDOCK:   -0.08 KCAL/MOL
REMARK 927      BINDING AFFINITY PREDICTED BY RF-SCORE:    0.00 PKD
ROOT
HETATM    1  N   UNL     1      -5.772   2.591  69.068  1.00  0.00    -0.022 NA 
HETATM    2  C   UNL     1      -6.465   3.884  68.972  1.00  0.00    -0.036 C  
HETATM    3  H1  UNL     1      -4.824   2.693  69.432  1.00  0.00     0.000 HD 
HETATM    4  H2  UNL     1      -5.774   2.101  68.173  1.00  0.00     0.000 HD 
ENDROOT
BRANCH   2   5
HETATM    5  C   UNL     1      -7.901   3.729  68.420  1.00  0.00    -0.068 C  
HETATM    6  H   UNL     1      -8.724   3.322  66.683  1.00  0.00     0.000 HD 
HETATM    7  O   UNL     1      -7.841   3.418  67.022  1.00  0.00    -0.079 OA 
BRANCH   5   8
HETATM    8  C   UNL     1      -8.718   4.986  68.649  1.00  0.00    -0.101 A  
HETATM    9  C   UNL     1      -9.283   5.284  69.903  1.00  0.00    -0.178 A  
HETATM   10  C   UNL     1     -10.060   6.429  70.053  1.00  0.00    -0.172 A  
HETATM   11  O   UNL     1     -10.623   6.769  71.253  1.00  0.00    -0.216 OA 
HETATM   12  C   UNL     1     -10.296   7.271  68.968  1.00  0.00    -0.205 A  
HETATM   13  H   UNL     1     -11.153   7.550  71.356  1.00  0.00     0.000 HD 
HETATM   14  C   UNL     1      -9.752   6.991  67.725  1.00  0.00    -0.156 A  
HETATM   15  O   UNL     1     -11.076   8.381  69.122  1.00  0.00    -0.429 OA 
HETATM   16  H   UNL     1     -11.237   8.955  68.383  1.00  0.00     0.000 HD 
HETATM   17  C   UNL     1      -8.962   5.852  67.567  1.00  0.00    -0.107 A  
ENDBRANCH   5   8
ENDBRANCH   2   5
TORSDOF 2
ENDMDL
MODEL      236
REMARK 921   NORMALIZED FREE ENERGY PREDICTED BY IDOCK:   -1.49 KCAL/MOL
REMARK 922        TOTAL FREE ENERGY PREDICTED BY IDOCK:   -1.74 KCAL/MOL
REMARK 923 INTER-LIGAND FREE ENERGY PREDICTED BY IDOCK:   -1.79 KCAL/MOL
REMARK 924 INTRA-LIGAND FREE ENERGY PREDICTED BY IDOCK:    0.05 KCAL/MOL
REMARK 927      BINDING AFFINITY PREDICTED BY RF-SCORE:    0.00 PKD
ROOT
HETATM    1  N   UNL     1      -9.467   9.567  67.915  1.00  0.00    -0.132 NA 
HETATM    2  C   UNL     1      -8.660   9.775  66.703  1.00  0.00    -0.128 C  
HETATM    3  H1  UNL     1     -10.203  10.267  68.007  1.00  0.00     0.000 HD 
HETATM    4  H2  UNL     1      -8.881   9.533  68.749  1.00  0.00     0.000 HD 
ENDROOT
BRANCH   2   5
HETATM    5  C   UNL     1      -7.544   8.714  66.565  1.00  0.00    -0.088 C  
HETATM    6  H   UNL     1      -6.188   8.238  65.225  1.00  0.00     0.000 HD 
HETATM    7  O   UNL     1      -6.875   8.890  65.310  1.00  0.00    -0.071 OA 
BRANCH   5   8
HETATM    8  C   UNL     1      -8.104   7.308  66.674  1.00  0.00    -0.113 A  
HETATM    9  C   UNL     1      -8.732   6.675  65.586  1.00  0.00    -0.093 A  
HETATM   10  C   UNL     1      -9.267   5.400  65.747  1.00  0.00    -0.138 A  
HETATM   11  O   UNL     1      -9.879   4.737  64.717  1.00  0.00    -0.359 OA 
HETATM   12  C   UNL     1      -9.200   4.755  66.980  1.00  0.00    -0.126 A  
HETATM   13  H   UNL     1     -10.244   3.867  64.827  1.00  0.00     0.000 HD 
HETATM   14  C   UNL     1      -8.589   5.365  68.063  1.00  0.00    -0.100 A  
HETATM   15  O   UNL     1      -9.745   3.512  67.132  1.00  0.00    -0.327 OA 
HETATM   16  H   UNL     1      -9.699   3.073  67.972  1.00  0.00     0.000 HD 
HETATM   17  C   UNL     1      -8.039   6.638  67.910  1.00  0.00    -0.113 A  
ENDBRANCH   5   8
ENDBRANCH   2   5
TORSDOF 2
ENDMDL
MODEL      237
REMARK 921   NORMALIZED FREE ENERGY PREDICTED BY IDOCK:   -1.36 KCAL/MOL
REMARK 922        TOTAL FREE ENERGY PREDICTED BY IDOCK:   -1.60 KCAL/MOL
REMARK 923 INTER-LIGAND FREE ENERGY PREDICTED BY IDOCK:   -1.52 KCAL/MOL
REMARK 924 INTRA-LIGAND FREE ENERGY PREDICTED BY IDOCK:   -0.08 KCAL/MOL
REMARK 927      BINDING AFFINITY PREDICTED BY RF-SCORE:    0.00 PKD
ROOT
HETATM    1  N   UNL     1     -11.779  10.582  68.864  1.00  0.00    -0.514 NA 
HETATM    2  C   UNL     1     -10.355  10.288  68.642  1.00  0.00    -0.184 C  
HETATM    3  H1  UNL     1     -12.049  10.441  69.838  1.00  0.00     0.000 HD 
HETATM    4  H2  UNL     1     -12.371  10.042  68.234  1.00  0.00     0.000 HD 
ENDROOT
BRANCH   2   5
HETATM    5  C   UNL     1      -9.946  10.500  67.167  1.00  0.00    -0.193 C  
HETATM    6  H   UNL     1     -10.779  10.244  65.406  1.00  0.00     0.000 HD 
HETATM    7  O   UNL     1     -11.030  10.113  66.313  1.00  0.00     0.046 OA 
BRANCH   5   8
HETATM    8  C   UNL     1      -8.695   9.713  66.824  1.00  0.00    -0.144 A  
HETATM    9  C   UNL     1      -7.468  10.350  66.562  1.00  0.00    -0.119 A  
HETATM   10  C   UNL     1      -6.358   9.588  66.210  1.00  0.00    -0.069 A  
HETATM   11  O   UNL     1      -5.140  10.158  65.955  1.00  0.00    -0.037 OA 
HETATM   12  C   UNL     1      -6.457   8.202  66.100  1.00  0.00    -0.046 A  
HETATM   13  H   UNL     1      -4.382   9.638  65.715  1.00  0.00     0.000 HD 
HETATM   14  C   UNL     1      -7.658   7.558  66.349  1.00  0.00    -0.088 A  
HETATM   15  O   UNL     1      -5.367   7.466  65.735  1.00  0.00    -0.027 OA 
HETATM   16  H   UNL     1      -5.434   6.522  65.660  1.00  0.00     0.000 HD 
HETATM   17  C   UNL     1      -8.774   8.312  66.714  1.00  0.00    -0.143 A  
ENDBRANCH   5   8
ENDBRANCH   2   5
TORSDOF 2
ENDMDL
MODEL      238
REMARK 921   NORMALIZED FREE ENERGY PREDICTED BY IDOCK:   -1.25 KCAL/MOL
REMARK 922        TOTAL FREE ENERGY PREDICTED BY IDOCK:   -1.48 KCAL/MOL
REMARK 923 INTER-LIGAND FREE ENERGY PREDICTED BY IDOCK:   -1.35 KCAL/MOL
REMARK 924 INTRA-LIGAND FREE ENERGY PREDICTED BY IDOCK:   -0.13 KCAL/MOL
REMARK 927      BINDING AFFINITY PREDICTED BY RF-SCORE:    0.00 PKD
ROOT
HETATM    1  N   UNL     1      -9.341   9.642  67.858  1.00  0.00    -0.128 NA 
HETATM    2  C   UNL     1      -8.543  10.422  66.901  1.00  0.00    -0.127 C  
HETATM    3  H1  UNL     1     -10.278  10.028  67.976  1.00  0.00     0.000 HD 
HETATM    4  H2  UNL     1      -8.862   9.552  68.754  1.00  0.00     0.000 HD 
ENDROOT
BRANCH   2   5
HETATM    5  C   UNL     1      -7.123   9.838  66.723  1.00  0.00    -0.089 C  
HETATM    6  H   UNL     1      -5.420  10.442  65.953  1.00  0.00     0.000 HD 
HETATM    7  O   UNL     1      -6.293  10.801  66.062  1.00  0.00    -0.122 OA 
BRANCH   5   8
HETATM    8  C   UNL     1      -7.156   8.539  65.939  1.00  0.00    -0.076 A  
HETATM    9  C   UNL     1      -7.828   8.435  64.708  1.00  0.00    -0.128 A  
HETATM   10  C   UNL     1      -7.865   7.211  64.046  1.00  0.00    -0.113 A  
HETATM   11  O   UNL     1      -8.497   7.059  62.842  1.00  0.00    -0.352 OA 
HETATM   12  C   UNL     1      -7.257   6.087  64.601  1.00  0.00    -0.063 A  
HETATM   13  H   UNL     1      -8.523   6.224  62.390  1.00  0.00     0.000 HD 
HETATM   14  C   UNL     1      -6.594   6.171  65.815  1.00  0.00    -0.047 A  
HETATM   15  O   UNL     1      -7.316   4.887  63.953  1.00  0.00    -0.049 OA 
HETATM   16  H   UNL     1      -6.902   4.122  64.332  1.00  0.00     0.000 HD 
HETATM   17  C   UNL     1      -6.541   7.396  66.482  1.00  0.00    -0.053 A  
ENDBRANCH   5   8
ENDBRANCH   2   5
TORSDOF 2
ENDMDL
MODEL      239
REMARK 921   NORMALIZED FREE ENERGY PREDICTED BY IDOCK:   -1.01 KCAL/MOL
REMARK 922        TOTAL FREE ENERGY PREDICTED BY IDOCK:   -1.21 KCAL/MOL
REMARK 923 INTER-LIGAND FREE ENERGY PREDICTED BY IDOCK:   -1.51 KCAL/MOL
REMARK 924 INTRA-LIGAND FREE ENERGY PREDICTED BY IDOCK:    0.30 KCAL/MOL
REMARK 927      BINDING AFFINITY PREDICTED BY RF-SCORE:    0.00 PKD
ROOT
HETATM    1  N   UNL     1     -10.151  10.378  67.565  1.00  0.00    -0.183 NA 
HETATM    2  C   UNL     1      -9.064  11.228  67.057  1.00  0.00    -0.163 C  
HETATM    3  H1  UNL     1     -10.968  10.401  66.955  1.00  0.00     0.000 HD 
HETATM    4  H2  UNL     1     -10.397  10.624  68.524  1.00  0.00     0.000 HD 
ENDROOT
BRANCH   2   5
HETATM    5  C   UNL     1      -7.826  11.194  67.982  1.00  0.00    -0.114 C  
HETATM    6  H   UNL     1      -5.875  11.243  67.754  1.00  0.00     0.000 HD 
HETATM    7  O   UNL     1      -6.636  11.263  67.185  1.00  0.00    -0.086 OA 
BRANCH   5   8
HETATM    8  C   UNL     1      -7.815   9.944  68.843  1.00  0.00    -0.091 A  
HETATM    9  C   UNL     1      -8.548   9.864  70.040  1.00  0.00    -0.196 A  
HETATM   10  C   UNL     1      -8.474   8.711  70.817  1.00  0.00    -0.158 A  
HETATM   11  O   UNL     1      -9.174   8.580  71.985  1.00  0.00    -0.213 OA 
HETATM   12  C   UNL     1      -7.666   7.645  70.426  1.00  0.00    -0.090 A  
HETATM   13  H   UNL     1      -9.124   7.793  72.515  1.00  0.00     0.000 HD 
HETATM   14  C   UNL     1      -6.934   7.709  69.252  1.00  0.00    -0.060 A  
HETATM   15  O   UNL     1      -7.585   6.528  71.205  1.00  0.00    -0.090 OA 
HETATM   16  H   UNL     1      -7.035   5.801  70.938  1.00  0.00     0.000 HD 
HETATM   17  C   UNL     1      -7.010   8.855  68.460  1.00  0.00    -0.065 A  
ENDBRANCH   5   8
ENDBRANCH   2   5
TORSDOF 2
ENDMDL
MODEL      240
REMARK 921   NORMALIZED FREE ENERGY PREDICTED BY IDOCK:   -0.79 KCAL/MOL
REMARK 922        TOTAL FREE ENERGY PREDICTED BY IDOCK:   -0.96 KCAL/MOL
REMARK 923 INTER-LIGAND FREE ENERGY PREDICTED BY IDOCK:   -0.91 KCAL/MOL
REMARK 924 INTRA-LIGAND FREE ENERGY PREDICTED BY IDOCK:   -0.05 KCAL/MOL
REMARK 927      BINDING AFFINITY PREDICTED BY RF-SCORE:    0.00 PKD
ROOT
HETATM    1  N   UNL     1      -9.637  10.596  67.841  1.00  0.00    -0.160 NA 
HETATM    2  C   UNL     1      -8.569  11.363  67.181  1.00  0.00    -0.151 C  
HETATM    3  H1  UNL     1     -10.443  10.462  67.231  1.00  0.00     0.000 HD 
HETATM    4  H2  UNL     1      -9.909  11.026  68.725  1.00  0.00     0.000 HD 
ENDROOT
BRANCH   2   5
HETATM    5  C   UNL     1      -7.349  11.566  68.106  1.00  0.00    -0.094 C  
HETATM    6  H   UNL     1      -5.555  12.352  67.948  1.00  0.00     0.000 HD 
HETATM    7  O   UNL     1      -6.306  12.227  67.378  1.00  0.00    -0.124 OA 
BRANCH   5   8
HETATM    8  C   UNL     1      -6.852  10.244  68.662  1.00  0.00    -0.057 A  
HETATM    9  C   UNL     1      -6.559   9.152  67.825  1.00  0.00    -0.060 A  
HETATM   10  C   UNL     1      -6.146   7.947  68.385  1.00  0.00    -0.044 A  
HETATM   11  O   UNL     1      -5.841   6.859  67.614  1.00  0.00    -0.019 OA 
HETATM   12  C   UNL     1      -6.036   7.810  69.767  1.00  0.00    -0.027 A  
HETATM   13  H   UNL     1      -5.558   6.036  67.996  1.00  0.00     0.000 HD 
HETATM   14  C   UNL     1      -6.325   8.873  70.607  1.00  0.00    -0.045 A  
HETATM   15  O   UNL     1      -5.649   6.617  70.307  1.00  0.00    -0.018 OA 
HETATM   16  H   UNL     1      -5.574   6.523  71.249  1.00  0.00     0.000 HD 
HETATM   17  C   UNL     1      -6.729  10.090  70.055  1.00  0.00    -0.112 A  
ENDBRANCH   5   8
ENDBRANCH   2   5
TORSDOF 2
ENDMDL
