MODEL        1
REMARK 921   NORMALIZED FREE ENERGY PREDICTED BY IDOCK:   -7.62 KCAL/MOL
REMARK 922        TOTAL FREE ENERGY PREDICTED BY IDOCK:   -8.90 KCAL/MOL
REMARK 923 INTER-LIGAND FREE ENERGY PREDICTED BY IDOCK:   -8.51 KCAL/MOL
REMARK 924 INTRA-LIGAND FREE ENERGY PREDICTED BY IDOCK:   -0.39 KCAL/MOL
REMARK 927      BINDING AFFINITY PREDICTED BY RF-SCORE:    0.00 PKD
ROOT
HETATM    1  C   UNL     1     -11.777  15.947  71.843  1.00  0.00    -0.590 C  
HETATM    2  C   UNL     1     -12.737  15.365  70.814  1.00  0.00    -0.459 C  
ENDROOT
BRANCH   2   3
HETATM    3  N   UNL     1     -12.036  14.986  69.571  1.00  0.00    -0.315 NA 
HETATM    4  C   UNL     1     -11.545  15.960  68.711  1.00  0.00    -0.386 C  
HETATM    5  C   UNL     1     -10.905  15.748  67.551  1.00  0.00    -0.315 C  
HETATM    6  C   UNL     1     -10.438  16.905  66.760  1.00  0.00    -0.260 C  
HETATM    7  C   UNL     1     -10.703  14.345  67.149  1.00  0.00    -0.283 C  
HETATM    8  C   UNL     1     -11.134  13.278  68.082  1.00  0.00    -0.286 A  
HETATM    9  O   UNL     1     -10.176  14.086  66.069  1.00  0.00    -0.285 OA 
HETATM   10  O   UNL     1     -10.585  18.066  67.114  1.00  0.00    -0.372 OA 
HETATM   11  O   UNL     1      -9.823  16.581  65.602  1.00  0.00    -0.511 OA 
HETATM   12  C   UNL     1     -10.841  11.948  67.764  1.00  0.00    -0.254 A  
HETATM   13  C   UNL     1     -11.191  10.939  68.656  1.00  0.00    -0.267 A  
HETATM   14  F   UNL     1     -10.873   9.679  68.321  1.00  0.00    -0.253 F  
HETATM   15  C   UNL     1     -11.856  11.215  69.859  1.00  0.00    -0.363 A  
HETATM   16  C   UNL     1     -11.795  13.625  69.274  1.00  0.00    -0.346 A  
HETATM   17  C   UNL     1     -12.153  12.569  70.128  1.00  0.00    -0.368 A  
BRANCH  15  18
HETATM   18  N   UNL     1     -12.158  10.272  70.836  1.00  0.00    -0.336 NA 
HETATM   19  C   UNL     1     -13.265  10.497  71.782  1.00  0.00    -0.417 C  
HETATM   20  C   UNL     1     -13.762   9.123  72.299  1.00  0.00    -0.487 C  
HETATM   21  N   UNL     1     -12.699   8.288  72.902  1.00  0.00    -0.664 NA 
HETATM   22  H   UNL     1     -13.049   7.377  73.196  1.00  0.00     0.000 HD 
HETATM   23  C   UNL     1     -11.562   8.170  71.968  1.00  0.00    -0.330 C  
HETATM   24  C   UNL     1     -11.040   9.532  71.453  1.00  0.00    -0.368 C  
ENDBRANCH  15  18
ENDBRANCH   2   3
TORSDOF 2
ENDMDL
MODEL        2
REMARK 921   NORMALIZED FREE ENERGY PREDICTED BY IDOCK:   -7.44 KCAL/MOL
REMARK 922        TOTAL FREE ENERGY PREDICTED BY IDOCK:   -8.70 KCAL/MOL
REMARK 923 INTER-LIGAND FREE ENERGY PREDICTED BY IDOCK:   -8.32 KCAL/MOL
REMARK 924 INTRA-LIGAND FREE ENERGY PREDICTED BY IDOCK:   -0.38 KCAL/MOL
REMARK 927      BINDING AFFINITY PREDICTED BY RF-SCORE:    0.00 PKD
ROOT
HETATM    1  C   UNL     1     -13.554  13.489  72.088  1.00  0.00    -0.651 C  
HETATM    2  C   UNL     1     -12.777  13.609  70.784  1.00  0.00    -0.268 C  
ENDROOT
BRANCH   2   3
HETATM    3  N   UNL     1     -12.249  12.302  70.345  1.00  0.00    -0.329 NA 
HETATM    4  C   UNL     1     -12.350  11.187  71.166  1.00  0.00    -0.346 C  
HETATM    5  C   UNL     1     -11.901   9.953  70.891  1.00  0.00    -0.443 C  
HETATM    6  C   UNL     1     -12.102   8.872  71.879  1.00  0.00    -0.373 C  
HETATM    7  C   UNL     1     -11.234   9.761  69.592  1.00  0.00    -0.178 C  
HETATM    8  C   UNL     1     -11.184  10.905  68.652  1.00  0.00    -0.326 A  
HETATM    9  O   UNL     1     -10.748   8.668  69.306  1.00  0.00    -0.213 OA 
HETATM   10  O   UNL     1     -12.682   9.033  72.944  1.00  0.00    -0.276 OA 
HETATM   11  O   UNL     1     -11.596   7.675  71.511  1.00  0.00    -0.261 OA 
HETATM   12  C   UNL     1     -10.659  10.703  67.372  1.00  0.00    -0.304 A  
HETATM   13  C   UNL     1     -10.655  11.754  66.460  1.00  0.00    -0.253 A  
HETATM   14  F   UNL     1     -10.161  11.510  65.236  1.00  0.00    -0.256 F  
HETATM   15  C   UNL     1     -11.143  13.025  66.797  1.00  0.00    -0.286 A  
HETATM   16  C   UNL     1     -11.692  12.155  69.054  1.00  0.00    -0.322 A  
HETATM   17  C   UNL     1     -11.641  13.192  68.107  1.00  0.00    -0.375 A  
BRANCH  15  18
HETATM   18  N   UNL     1     -11.252  14.095  65.915  1.00  0.00    -0.309 NA 
HETATM   19  C   UNL     1     -12.059  13.979  64.687  1.00  0.00    -0.440 C  
HETATM   20  C   UNL     1     -12.505  15.399  64.253  1.00  0.00     0.066 C  
HETATM   21  N   UNL     1     -11.387  16.351  64.075  1.00  0.00    -1.539 NA 
HETATM   22  H   UNL     1     -11.715  17.285  63.827  1.00  0.00     0.000 HD 
HETATM   23  C   UNL     1     -10.539  16.364  65.284  1.00  0.00    -0.299 C  
HETATM   24  C   UNL     1     -10.069  14.958  65.725  1.00  0.00    -0.341 C  
ENDBRANCH  15  18
ENDBRANCH   2   3
TORSDOF 2
ENDMDL
MODEL        3
REMARK 921   NORMALIZED FREE ENERGY PREDICTED BY IDOCK:   -7.28 KCAL/MOL
REMARK 922        TOTAL FREE ENERGY PREDICTED BY IDOCK:   -8.52 KCAL/MOL
REMARK 923 INTER-LIGAND FREE ENERGY PREDICTED BY IDOCK:   -8.15 KCAL/MOL
REMARK 924 INTRA-LIGAND FREE ENERGY PREDICTED BY IDOCK:   -0.37 KCAL/MOL
REMARK 927      BINDING AFFINITY PREDICTED BY RF-SCORE:    0.00 PKD
ROOT
HETATM    1  C   UNL     1     -13.248  12.216  72.047  1.00  0.00    -0.496 C  
HETATM    2  C   UNL     1     -12.530  12.383  70.714  1.00  0.00    -0.267 C  
ENDROOT
BRANCH   2   3
HETATM    3  N   UNL     1     -11.872  11.132  70.291  1.00  0.00    -0.342 NA 
HETATM    4  C   UNL     1     -11.746  10.066  71.173  1.00  0.00    -0.387 C  
HETATM    5  C   UNL     1     -11.162   8.886  70.917  1.00  0.00    -0.334 C  
HETATM    6  C   UNL     1     -11.124   7.852  71.971  1.00  0.00    -0.278 C  
HETATM    7  C   UNL     1     -10.594   8.703  69.569  1.00  0.00    -0.213 C  
HETATM    8  C   UNL     1     -10.785   9.783  68.573  1.00  0.00    -0.252 A  
HETATM    9  O   UNL     1      -9.993   7.667  69.292  1.00  0.00    -0.173 OA 
HETATM   10  O   UNL     1     -11.622   8.001  73.078  1.00  0.00    -0.346 OA 
HETATM   11  O   UNL     1     -10.496   6.710  71.615  1.00  0.00    -0.205 OA 
HETATM   12  C   UNL     1     -10.355   9.572  67.260  1.00  0.00    -0.319 A  
HETATM   13  C   UNL     1     -10.576  10.555  66.301  1.00  0.00    -0.133 A  
HETATM   14  F   UNL     1     -10.166  10.302  65.048  1.00  0.00    -0.365 F  
HETATM   15  C   UNL     1     -11.198  11.770  66.621  1.00  0.00    -0.323 A  
HETATM   16  C   UNL     1     -11.419  10.978  68.961  1.00  0.00    -0.299 A  
HETATM   17  C   UNL     1     -11.594  11.952  67.964  1.00  0.00    -0.401 A  
BRANCH  15  18
HETATM   18  N   UNL     1     -11.530  12.761  65.701  1.00  0.00    -0.326 NA 
HETATM   19  C   UNL     1     -11.651  14.168  66.122  1.00  0.00    -0.370 C  
HETATM   20  C   UNL     1     -11.408  15.075  64.888  1.00  0.00    -0.417 C  
HETATM   21  N   UNL     1     -12.293  14.778  63.741  1.00  0.00    -1.082 NA 
HETATM   22  H   UNL     1     -12.082  15.365  62.933  1.00  0.00     0.000 HD 
HETATM   23  C   UNL     1     -12.226  13.340  63.413  1.00  0.00    -0.403 C  
HETATM   24  C   UNL     1     -12.482  12.416  64.627  1.00  0.00    -0.420 C  
ENDBRANCH  15  18
ENDBRANCH   2   3
TORSDOF 2
ENDMDL
MODEL        4
REMARK 921   NORMALIZED FREE ENERGY PREDICTED BY IDOCK:   -7.27 KCAL/MOL
REMARK 922        TOTAL FREE ENERGY PREDICTED BY IDOCK:   -8.51 KCAL/MOL
REMARK 923 INTER-LIGAND FREE ENERGY PREDICTED BY IDOCK:   -8.17 KCAL/MOL
REMARK 924 INTRA-LIGAND FREE ENERGY PREDICTED BY IDOCK:   -0.34 KCAL/MOL
REMARK 927      BINDING AFFINITY PREDICTED BY RF-SCORE:    0.00 PKD
ROOT
HETATM    1  C   UNL     1     -13.140  10.761  71.770  1.00  0.00    -0.573 C  
HETATM    2  C   UNL     1     -12.806  11.310  70.390  1.00  0.00    -0.037 C  
ENDROOT
BRANCH   2   3
HETATM    3  N   UNL     1     -12.463  12.745  70.445  1.00  0.00    -0.213 NA 
HETATM    4  C   UNL     1     -12.418  13.415  71.660  1.00  0.00    -0.089 C  
HETATM    5  C   UNL     1     -12.133  14.713  71.843  1.00  0.00    -0.375 C  
HETATM    6  C   UNL     1     -12.118  15.266  73.213  1.00  0.00    -0.437 C  
HETATM    7  C   UNL     1     -11.840  15.507  70.636  1.00  0.00    -0.365 C  
HETATM    8  C   UNL     1     -11.792  14.809  69.330  1.00  0.00    -0.360 A  
HETATM    9  O   UNL     1     -11.630  16.715  70.731  1.00  0.00    -0.124 OA 
HETATM   10  O   UNL     1     -12.334  14.594  74.212  1.00  0.00    -0.454 OA 
HETATM   11  O   UNL     1     -11.838  16.586  73.282  1.00  0.00    -0.448 OA 
HETATM   12  C   UNL     1     -11.401  15.527  68.196  1.00  0.00    -0.348 A  
HETATM   13  C   UNL     1     -11.299  14.873  66.973  1.00  0.00    -0.342 A  
HETATM   14  F   UNL     1     -10.900  15.596  65.915  1.00  0.00    -0.315 F  
HETATM   15  C   UNL     1     -11.604  13.511  66.838  1.00  0.00    -0.363 A  
HETATM   16  C   UNL     1     -12.109  13.439  69.265  1.00  0.00    -0.264 A  
HETATM   17  C   UNL     1     -12.018  12.830  68.002  1.00  0.00    -0.315 A  
BRANCH  15  18
HETATM   18  N   UNL     1     -11.442  12.771  65.670  1.00  0.00    -0.326 NA 
HETATM   19  C   UNL     1     -10.137  12.178  65.330  1.00  0.00    -0.255 C  
HETATM   20  C   UNL     1     -10.374  10.965  64.394  1.00  0.00    -0.361 C  
HETATM   21  N   UNL     1     -11.152  11.289  63.178  1.00  0.00    -0.846 NA 
HETATM   22  H   UNL     1     -11.323  10.464  62.603  1.00  0.00     0.000 HD 
HETATM   23  C   UNL     1     -12.404  11.976  63.550  1.00  0.00    -0.551 C  
HETATM   24  C   UNL     1     -12.189  13.200  64.471  1.00  0.00    -0.406 C  
ENDBRANCH  15  18
ENDBRANCH   2   3
TORSDOF 2
ENDMDL
MODEL        5
REMARK 921   NORMALIZED FREE ENERGY PREDICTED BY IDOCK:   -7.25 KCAL/MOL
REMARK 922        TOTAL FREE ENERGY PREDICTED BY IDOCK:   -8.49 KCAL/MOL
REMARK 923 INTER-LIGAND FREE ENERGY PREDICTED BY IDOCK:   -8.09 KCAL/MOL
REMARK 924 INTRA-LIGAND FREE ENERGY PREDICTED BY IDOCK:   -0.40 KCAL/MOL
REMARK 927      BINDING AFFINITY PREDICTED BY RF-SCORE:    0.00 PKD
ROOT
HETATM    1  C   UNL     1     -12.583  15.731  73.280  1.00  0.00    -0.627 C  
HETATM    2  C   UNL     1     -11.876  16.180  72.008  1.00  0.00    -0.530 C  
ENDROOT
BRANCH   2   3
HETATM    3  N   UNL     1     -11.764  15.079  71.032  1.00  0.00    -0.311 NA 
HETATM    4  C   UNL     1     -12.300  13.829  71.311  1.00  0.00    -0.308 C  
HETATM    5  C   UNL     1     -12.255  12.748  70.518  1.00  0.00    -0.389 C  
HETATM    6  C   UNL     1     -12.890  11.492  70.968  1.00  0.00    -0.263 C  
HETATM    7  C   UNL     1     -11.567  12.900  69.224  1.00  0.00    -0.310 C  
HETATM    8  C   UNL     1     -11.058  14.241  68.852  1.00  0.00    -0.283 A  
HETATM    9  O   UNL     1     -11.439  11.931  68.478  1.00  0.00    -0.244 OA 
HETATM   10  O   UNL     1     -13.484  11.381  72.031  1.00  0.00    -0.393 OA 
HETATM   11  O   UNL     1     -12.770  10.462  70.102  1.00  0.00    -0.250 OA 
HETATM   12  C   UNL     1     -10.509  14.424  67.579  1.00  0.00    -0.252 A  
HETATM   13  C   UNL     1     -10.076  15.689  67.195  1.00  0.00    -0.256 A  
HETATM   14  F   UNL     1      -9.576  15.824  65.958  1.00  0.00    -0.276 F  
HETATM   15  C   UNL     1     -10.152  16.788  68.063  1.00  0.00    -0.284 A  
HETATM   16  C   UNL     1     -11.166  15.302  69.770  1.00  0.00    -0.286 A  
HETATM   17  C   UNL     1     -10.690  16.554  69.347  1.00  0.00    -0.330 A  
BRANCH  15  18
HETATM   18  N   UNL     1      -9.822  18.096  67.721  1.00  0.00    -0.298 NA 
HETATM   19  C   UNL     1      -8.800  18.838  68.481  1.00  0.00    -0.345 C  
HETATM   20  C   UNL     1      -8.209  19.942  67.567  1.00  0.00    -0.322 C  
HETATM   21  N   UNL     1      -9.223  20.854  66.995  1.00  0.00    -0.650 NA 
HETATM   22  H   UNL     1      -8.807  21.544  66.369  1.00  0.00     0.000 HD 
HETATM   23  C   UNL     1     -10.285  20.073  66.331  1.00  0.00    -0.478 C  
HETATM   24  C   UNL     1     -10.901  18.976  67.231  1.00  0.00    -0.408 C  
ENDBRANCH  15  18
ENDBRANCH   2   3
TORSDOF 2
ENDMDL
MODEL        6
REMARK 921   NORMALIZED FREE ENERGY PREDICTED BY IDOCK:   -7.09 KCAL/MOL
REMARK 922        TOTAL FREE ENERGY PREDICTED BY IDOCK:   -8.32 KCAL/MOL
REMARK 923 INTER-LIGAND FREE ENERGY PREDICTED BY IDOCK:   -7.97 KCAL/MOL
REMARK 924 INTRA-LIGAND FREE ENERGY PREDICTED BY IDOCK:   -0.35 KCAL/MOL
REMARK 927      BINDING AFFINITY PREDICTED BY RF-SCORE:    0.00 PKD
ROOT
HETATM    1  C   UNL     1     -12.895  10.065  71.472  1.00  0.00    -0.537 C  
HETATM    2  C   UNL     1     -12.388  10.479  70.098  1.00  0.00    -0.265 C  
ENDROOT
BRANCH   2   3
HETATM    3  N   UNL     1     -12.273  11.946  69.980  1.00  0.00    -0.252 NA 
HETATM    4  C   UNL     1     -12.537  12.765  71.070  1.00  0.00    -0.271 C  
HETATM    5  C   UNL     1     -12.481  14.106  71.090  1.00  0.00    -0.445 C  
HETATM    6  C   UNL     1     -12.785  14.825  72.345  1.00  0.00    -0.349 C  
HETATM    7  C   UNL     1     -12.104  14.775  69.833  1.00  0.00    -0.332 C  
HETATM    8  C   UNL     1     -11.730  13.933  68.673  1.00  0.00    -0.396 A  
HETATM    9  O   UNL     1     -12.093  16.003  69.770  1.00  0.00    -0.275 OA 
HETATM   10  O   UNL     1     -13.069  14.260  73.392  1.00  0.00    -0.554 OA 
HETATM   11  O   UNL     1     -12.717  16.170  72.250  1.00  0.00    -0.438 OA 
HETATM   12  C   UNL     1     -11.259  14.555  67.513  1.00  0.00    -0.333 A  
HETATM   13  C   UNL     1     -10.852  13.775  66.435  1.00  0.00    -0.287 A  
HETATM   14  F   UNL     1     -10.387  14.413  65.350  1.00  0.00    -0.302 F  
HETATM   15  C   UNL     1     -10.926  12.376  66.468  1.00  0.00    -0.272 A  
HETATM   16  C   UNL     1     -11.826  12.532  68.774  1.00  0.00    -0.303 A  
HETATM   17  C   UNL     1     -11.431  11.790  67.649  1.00  0.00    -0.370 A  
BRANCH  15  18
HETATM   18  N   UNL     1     -10.458  11.530  65.467  1.00  0.00    -0.267 NA 
HETATM   19  C   UNL     1     -10.976  11.635  64.091  1.00  0.00    -0.376 C  
HETATM   20  C   UNL     1      -9.910  11.068  63.118  1.00  0.00    -0.363 C  
HETATM   21  N   UNL     1      -9.486   9.686  63.430  1.00  0.00    -0.494 NA 
HETATM   22  H   UNL     1      -8.758   9.357  62.796  1.00  0.00     0.000 HD 
HETATM   23  C   UNL     1      -9.073   9.595  64.845  1.00  0.00    -0.232 C  
HETATM   24  C   UNL     1     -10.129  10.139  65.834  1.00  0.00    -0.254 C  
ENDBRANCH  15  18
ENDBRANCH   2   3
TORSDOF 2
ENDMDL
MODEL        7
REMARK 921   NORMALIZED FREE ENERGY PREDICTED BY IDOCK:   -7.09 KCAL/MOL
REMARK 922        TOTAL FREE ENERGY PREDICTED BY IDOCK:   -8.31 KCAL/MOL
REMARK 923 INTER-LIGAND FREE ENERGY PREDICTED BY IDOCK:   -7.90 KCAL/MOL
REMARK 924 INTRA-LIGAND FREE ENERGY PREDICTED BY IDOCK:   -0.41 KCAL/MOL
REMARK 927      BINDING AFFINITY PREDICTED BY RF-SCORE:    0.00 PKD
ROOT
HETATM    1  C   UNL     1     -10.069  15.496  65.659  1.00  0.00    -0.406 C  
HETATM    2  C   UNL     1     -11.249  15.031  66.503  1.00  0.00    -0.312 C  
ENDROOT
BRANCH   2   3
HETATM    3  N   UNL     1     -11.178  13.584  66.785  1.00  0.00    -0.303 NA 
HETATM    4  C   UNL     1     -10.658  12.705  65.844  1.00  0.00    -0.273 C  
HETATM    5  C   UNL     1     -10.550  11.374  65.972  1.00  0.00    -0.319 C  
HETATM    6  C   UNL     1      -9.960  10.586  64.871  1.00  0.00    -0.334 C  
HETATM    7  C   UNL     1     -11.032  10.786  67.234  1.00  0.00    -0.297 C  
HETATM    8  C   UNL     1     -11.512  11.699  68.297  1.00  0.00    -0.369 A  
HETATM    9  O   UNL     1     -11.016   9.566  67.389  1.00  0.00    -0.232 OA 
HETATM   10  O   UNL     1      -9.536  11.085  63.838  1.00  0.00    -0.230 OA 
HETATM   11  O   UNL     1      -9.916   9.254  65.095  1.00  0.00    -0.005 OA 
HETATM   12  C   UNL     1     -11.861  11.162  69.540  1.00  0.00    -0.423 A  
HETATM   13  C   UNL     1     -12.262  12.013  70.565  1.00  0.00    -0.325 A  
HETATM   14  F   UNL     1     -12.568  11.457  71.748  1.00  0.00    -0.423 F  
HETATM   15  C   UNL     1     -12.352  13.400  70.379  1.00  0.00    -0.312 A  
HETATM   16  C   UNL     1     -11.577  13.082  68.045  1.00  0.00    -0.343 A  
HETATM   17  C   UNL     1     -12.015  13.897  69.102  1.00  0.00    -0.404 A  
BRANCH  15  18
HETATM   18  N   UNL     1     -12.660  14.318  71.379  1.00  0.00    -0.340 NA 
HETATM   19  C   UNL     1     -13.841  15.192  71.260  1.00  0.00    -0.472 C  
HETATM   20  C   UNL     1     -14.283  15.621  72.682  1.00  0.00    -0.314 C  
HETATM   21  N   UNL     1     -13.213  16.266  73.475  1.00  0.00    -0.701 NA 
HETATM   22  H   UNL     1     -13.524  16.501  74.417  1.00  0.00     0.000 HD 
HETATM   23  C   UNL     1     -12.010  15.410  73.485  1.00  0.00    -0.434 C  
HETATM   24  C   UNL     1     -11.541  14.984  72.074  1.00  0.00    -0.335 C  
ENDBRANCH  15  18
ENDBRANCH   2   3
TORSDOF 2
ENDMDL
MODEL        8
REMARK 921   NORMALIZED FREE ENERGY PREDICTED BY IDOCK:   -7.01 KCAL/MOL
REMARK 922        TOTAL FREE ENERGY PREDICTED BY IDOCK:   -8.22 KCAL/MOL
REMARK 923 INTER-LIGAND FREE ENERGY PREDICTED BY IDOCK:   -7.87 KCAL/MOL
REMARK 924 INTRA-LIGAND FREE ENERGY PREDICTED BY IDOCK:   -0.36 KCAL/MOL
REMARK 927      BINDING AFFINITY PREDICTED BY RF-SCORE:    0.00 PKD
ROOT
HETATM    1  C   UNL     1     -13.073  14.539  73.025  1.00  0.00    -0.611 C  
HETATM    2  C   UNL     1     -13.654  14.036  71.711  1.00  0.00    -0.394 C  
ENDROOT
BRANCH   2   3
HETATM    3  N   UNL     1     -13.012  12.779  71.280  1.00  0.00    -0.284 NA 
HETATM    4  C   UNL     1     -13.380  11.565  71.845  1.00  0.00    -0.303 C  
HETATM    5  C   UNL     1     -12.868  10.361  71.552  1.00  0.00    -0.569 C  
HETATM    6  C   UNL     1     -13.386   9.164  72.245  1.00  0.00    -0.477 C  
HETATM    7  C   UNL     1     -11.807  10.321  70.529  1.00  0.00    -0.329 C  
HETATM    8  C   UNL     1     -11.447  11.582  69.840  1.00  0.00    -0.340 A  
HETATM    9  O   UNL     1     -11.255   9.256  70.259  1.00  0.00    -0.245 OA 
HETATM   10  O   UNL     1     -14.286   9.202  73.072  1.00  0.00    -0.429 OA 
HETATM   11  O   UNL     1     -12.788   8.007  71.889  1.00  0.00    -0.316 OA 
HETATM   12  C   UNL     1     -10.527  11.536  68.788  1.00  0.00    -0.227 A  
HETATM   13  C   UNL     1     -10.220  12.703  68.095  1.00  0.00    -0.240 A  
HETATM   14  F   UNL     1      -9.349  12.609  67.079  1.00  0.00    -0.192 F  
HETATM   15  C   UNL     1     -10.790  13.936  68.440  1.00  0.00    -0.254 A  
HETATM   16  C   UNL     1     -12.059  12.786  70.235  1.00  0.00    -0.297 A  
HETATM   17  C   UNL     1     -11.695  13.942  69.524  1.00  0.00    -0.369 A  
BRANCH  15  18
HETATM   18  N   UNL     1     -10.599  15.124  67.741  1.00  0.00    -0.259 NA 
HETATM   19  C   UNL     1     -10.856  16.425  68.384  1.00  0.00    -0.342 C  
HETATM   20  C   UNL     1     -10.014  17.508  67.663  1.00  0.00    -0.309 C  
HETATM   21  N   UNL     1     -10.243  17.574  66.203  1.00  0.00    -0.436 NA 
HETATM   22  H   UNL     1      -9.647  18.269  65.753  1.00  0.00     0.000 HD 
HETATM   23  C   UNL     1     -10.079  16.233  65.608  1.00  0.00    -0.312 C  
HETATM   24  C   UNL     1     -10.925  15.140  66.302  1.00  0.00    -0.335 C  
ENDBRANCH  15  18
ENDBRANCH   2   3
TORSDOF 2
ENDMDL
MODEL        9
REMARK 921   NORMALIZED FREE ENERGY PREDICTED BY IDOCK:   -6.96 KCAL/MOL
REMARK 922        TOTAL FREE ENERGY PREDICTED BY IDOCK:   -8.17 KCAL/MOL
REMARK 923 INTER-LIGAND FREE ENERGY PREDICTED BY IDOCK:   -7.72 KCAL/MOL
REMARK 924 INTRA-LIGAND FREE ENERGY PREDICTED BY IDOCK:   -0.44 KCAL/MOL
REMARK 927      BINDING AFFINITY PREDICTED BY RF-SCORE:    0.00 PKD
ROOT
HETATM    1  C   UNL     1      -9.655  16.501  68.717  1.00  0.00    -0.248 C  
HETATM    2  C   UNL     1     -10.983  15.993  68.174  1.00  0.00    -0.339 C  
ENDROOT
BRANCH   2   3
HETATM    3  N   UNL     1     -11.510  14.878  68.985  1.00  0.00    -0.284 NA 
HETATM    4  C   UNL     1     -12.222  15.126  70.152  1.00  0.00    -0.352 C  
HETATM    5  C   UNL     1     -12.740  14.206  70.979  1.00  0.00    -0.433 C  
HETATM    6  C   UNL     1     -13.481  14.647  72.179  1.00  0.00    -0.395 C  
HETATM    7  C   UNL     1     -12.532  12.793  70.617  1.00  0.00    -0.246 C  
HETATM    8  C   UNL     1     -11.855  12.488  69.335  1.00  0.00    -0.368 A  
HETATM    9  O   UNL     1     -12.931  11.903  71.365  1.00  0.00    -0.385 OA 
HETATM   10  O   UNL     1     -13.673  15.822  72.458  1.00  0.00    -0.528 OA 
HETATM   11  O   UNL     1     -13.944  13.641  72.953  1.00  0.00    -0.630 OA 
HETATM   12  C   UNL     1     -11.757  11.155  68.925  1.00  0.00    -0.406 A  
HETATM   13  C   UNL     1     -11.172  10.857  67.699  1.00  0.00    -0.309 A  
HETATM   14  F   UNL     1     -11.118   9.566  67.336  1.00  0.00    -0.342 F  
HETATM   15  C   UNL     1     -10.651  11.859  66.868  1.00  0.00    -0.230 A  
HETATM   16  C   UNL     1     -11.355  13.542  68.548  1.00  0.00    -0.292 A  
HETATM   17  C   UNL     1     -10.748  13.189  67.331  1.00  0.00    -0.262 A  
BRANCH  15  18
HETATM   18  N   UNL     1     -10.132  11.646  65.594  1.00  0.00    -0.230 NA 
HETATM   19  C   UNL     1      -8.792  11.060  65.416  1.00  0.00    -0.147 C  
HETATM   20  C   UNL     1      -8.730  10.386  64.021  1.00  0.00    -0.194 C  
HETATM   21  N   UNL     1      -9.077  11.288  62.901  1.00  0.00    -0.465 NA 
HETATM   22  H   UNL     1      -9.064  10.805  62.003  1.00  0.00     0.000 HD 
HETATM   23  C   UNL     1     -10.376  11.937  63.163  1.00  0.00    -0.286 C  
HETATM   24  C   UNL     1     -10.454  12.631  64.543  1.00  0.00    -0.355 C  
ENDBRANCH  15  18
ENDBRANCH   2   3
TORSDOF 2
ENDMDL
MODEL       10
REMARK 921   NORMALIZED FREE ENERGY PREDICTED BY IDOCK:   -6.94 KCAL/MOL
REMARK 922        TOTAL FREE ENERGY PREDICTED BY IDOCK:   -8.14 KCAL/MOL
REMARK 923 INTER-LIGAND FREE ENERGY PREDICTED BY IDOCK:   -7.73 KCAL/MOL
REMARK 924 INTRA-LIGAND FREE ENERGY PREDICTED BY IDOCK:   -0.41 KCAL/MOL
REMARK 927      BINDING AFFINITY PREDICTED BY RF-SCORE:    0.00 PKD
ROOT
HETATM    1  C   UNL     1      -9.748   7.884  66.534  1.00  0.00    -0.279 C  
HETATM    2  C   UNL     1     -10.268   9.315  66.536  1.00  0.00    -0.246 C  
ENDROOT
BRANCH   2   3
HETATM    3  N   UNL     1     -10.705   9.732  67.883  1.00  0.00    -0.259 NA 
HETATM    4  C   UNL     1     -10.616   8.857  68.958  1.00  0.00    -0.183 C  
HETATM    5  C   UNL     1     -10.988   9.109  70.222  1.00  0.00    -0.279 C  
HETATM    6  C   UNL     1     -10.813   8.063  71.250  1.00  0.00    -0.232 C  
HETATM    7  C   UNL     1     -11.550  10.443  70.497  1.00  0.00    -0.344 C  
HETATM    8  C   UNL     1     -11.580  11.434  69.396  1.00  0.00    -0.391 A  
HETATM    9  O   UNL     1     -11.964  10.714  71.622  1.00  0.00    -0.193 OA 
HETATM   10  O   UNL     1     -10.320   6.968  71.019  1.00  0.00    -0.201 OA 
HETATM   11  O   UNL     1     -11.237   8.413  72.484  1.00  0.00    -0.368 OA 
HETATM   12  C   UNL     1     -12.001  12.738  69.674  1.00  0.00    -0.354 A  
HETATM   13  C   UNL     1     -11.984  13.693  68.664  1.00  0.00    -0.360 A  
HETATM   14  F   UNL     1     -12.376  14.937  68.980  1.00  0.00    -0.286 F  
HETATM   15  C   UNL     1     -11.579  13.379  67.359  1.00  0.00    -0.354 A  
HETATM   16  C   UNL     1     -11.158  11.052  68.109  1.00  0.00    -0.270 A  
HETATM   17  C   UNL     1     -11.186  12.045  67.115  1.00  0.00    -0.374 A  
BRANCH  15  18
HETATM   18  N   UNL     1     -11.453  14.297  66.321  1.00  0.00    -0.347 NA 
HETATM   19  C   UNL     1     -11.975  13.991  64.977  1.00  0.00    -0.401 C  
HETATM   20  C   UNL     1     -12.262  15.326  64.243  1.00  0.00    -0.189 C  
HETATM   21  N   UNL     1     -11.099  16.237  64.174  1.00  0.00    -1.202 NA 
HETATM   22  H   UNL     1     -11.331  17.120  63.720  1.00  0.00     0.000 HD 
HETATM   23  C   UNL     1     -10.538  16.438  65.525  1.00  0.00    -0.330 C  
HETATM   24  C   UNL     1     -10.227  15.118  66.269  1.00  0.00    -0.288 C  
ENDBRANCH  15  18
ENDBRANCH   2   3
TORSDOF 2
ENDMDL
MODEL       11
REMARK 921   NORMALIZED FREE ENERGY PREDICTED BY IDOCK:   -6.92 KCAL/MOL
REMARK 922        TOTAL FREE ENERGY PREDICTED BY IDOCK:   -8.12 KCAL/MOL
REMARK 923 INTER-LIGAND FREE ENERGY PREDICTED BY IDOCK:   -7.70 KCAL/MOL
REMARK 924 INTRA-LIGAND FREE ENERGY PREDICTED BY IDOCK:   -0.42 KCAL/MOL
REMARK 927      BINDING AFFINITY PREDICTED BY RF-SCORE:    0.00 PKD
ROOT
HETATM    1  C   UNL     1      -9.722   9.836  69.337  1.00  0.00    -0.214 C  
HETATM    2  C   UNL     1     -11.031  10.518  68.961  1.00  0.00    -0.243 C  
ENDROOT
BRANCH   2   3
HETATM    3  N   UNL     1     -10.836  11.512  67.888  1.00  0.00    -0.198 NA 
HETATM    4  C   UNL     1     -10.514  11.108  66.599  1.00  0.00    -0.250 C  
HETATM    5  C   UNL     1     -10.300  11.908  65.544  1.00  0.00    -0.303 C  
HETATM    6  C   UNL     1      -9.975  11.307  64.233  1.00  0.00    -0.297 C  
HETATM    7  C   UNL     1     -10.416  13.359  65.774  1.00  0.00    -0.290 C  
HETATM    8  C   UNL     1     -10.843  13.826  67.113  1.00  0.00    -0.288 A  
HETATM    9  O   UNL     1     -10.173  14.146  64.862  1.00  0.00    -0.412 OA 
HETATM   10  O   UNL     1      -9.909  10.101  64.044  1.00  0.00    -0.290 OA 
HETATM   11  O   UNL     1      -9.761  12.202  63.244  1.00  0.00    -0.370 OA 
HETATM   12  C   UNL     1     -11.070  15.191  67.310  1.00  0.00    -0.332 A  
HETATM   13  C   UNL     1     -11.524  15.639  68.546  1.00  0.00    -0.375 A  
HETATM   14  F   UNL     1     -11.748  16.955  68.684  1.00  0.00    -0.149 F  
HETATM   15  C   UNL     1     -11.737  14.758  69.616  1.00  0.00    -0.314 A  
HETATM   16  C   UNL     1     -11.041  12.888  68.143  1.00  0.00    -0.253 A  
HETATM   17  C   UNL     1     -11.473  13.392  69.382  1.00  0.00    -0.333 A  
BRANCH  15  18
HETATM   18  N   UNL     1     -12.271  15.119  70.849  1.00  0.00    -0.312 NA 
HETATM   19  C   UNL     1     -11.394  15.353  72.010  1.00  0.00    -0.379 C  
HETATM   20  C   UNL     1     -12.124  16.296  73.000  1.00  0.00    -0.530 C  
HETATM   21  N   UNL     1     -13.456  15.808  73.421  1.00  0.00    -0.688 NA 
HETATM   22  H   UNL     1     -13.926  16.468  74.041  1.00  0.00     0.000 HD 
HETATM   23  C   UNL     1     -14.272  15.485  72.234  1.00  0.00    -0.524 C  
HETATM   24  C   UNL     1     -13.567  14.531  71.241  1.00  0.00    -0.357 C  
ENDBRANCH  15  18
ENDBRANCH   2   3
TORSDOF 2
ENDMDL
MODEL       12
REMARK 921   NORMALIZED FREE ENERGY PREDICTED BY IDOCK:   -6.90 KCAL/MOL
REMARK 922        TOTAL FREE ENERGY PREDICTED BY IDOCK:   -8.10 KCAL/MOL
REMARK 923 INTER-LIGAND FREE ENERGY PREDICTED BY IDOCK:   -7.72 KCAL/MOL
REMARK 924 INTRA-LIGAND FREE ENERGY PREDICTED BY IDOCK:   -0.37 KCAL/MOL
REMARK 927      BINDING AFFINITY PREDICTED BY RF-SCORE:    0.00 PKD
ROOT
HETATM    1  C   UNL     1      -9.843   7.264  66.908  1.00  0.00    -0.279 C  
HETATM    2  C   UNL     1     -10.092   8.765  66.959  1.00  0.00    -0.265 C  
ENDROOT
BRANCH   2   3
HETATM    3  N   UNL     1     -10.599   9.186  68.280  1.00  0.00    -0.202 NA 
HETATM    4  C   UNL     1     -10.536   8.327  69.369  1.00  0.00    -0.220 C  
HETATM    5  C   UNL     1     -10.971   8.583  70.612  1.00  0.00    -0.268 C  
HETATM    6  C   UNL     1     -10.816   7.553  71.660  1.00  0.00    -0.219 C  
HETATM    7  C   UNL     1     -11.577   9.905  70.846  1.00  0.00    -0.373 C  
HETATM    8  C   UNL     1     -11.583  10.882  69.732  1.00  0.00    -0.399 A  
HETATM    9  O   UNL     1     -12.049  10.179  71.948  1.00  0.00    -0.286 OA 
HETATM   10  O   UNL     1     -10.286   6.469  71.465  1.00  0.00    -0.191 OA 
HETATM   11  O   UNL     1     -11.304   7.907  72.869  1.00  0.00    -0.406 OA 
HETATM   12  C   UNL     1     -12.048  12.178  69.975  1.00  0.00    -0.352 A  
HETATM   13  C   UNL     1     -12.010  13.122  68.954  1.00  0.00    -0.277 A  
HETATM   14  F   UNL     1     -12.447  14.359  69.237  1.00  0.00    -0.331 F  
HETATM   15  C   UNL     1     -11.539  12.803  67.672  1.00  0.00    -0.358 A  
HETATM   16  C   UNL     1     -11.095  10.497  68.470  1.00  0.00    -0.275 A  
HETATM   17  C   UNL     1     -11.102  11.477  67.463  1.00  0.00    -0.329 A  
BRANCH  15  18
HETATM   18  N   UNL     1     -11.390  13.713  66.630  1.00  0.00    -0.316 NA 
HETATM   19  C   UNL     1     -10.548  14.911  66.792  1.00  0.00    -0.305 C  
HETATM   20  C   UNL     1     -10.070  15.374  65.392  1.00  0.00    -0.359 C  
HETATM   21  N   UNL     1     -11.170  15.614  64.432  1.00  0.00    -0.748 NA 
HETATM   22  H   UNL     1     -10.822  15.878  63.510  1.00  0.00     0.000 HD 
HETATM   23  C   UNL     1     -12.052  14.431  64.372  1.00  0.00    -0.470 C  
HETATM   24  C   UNL     1     -12.554  13.964  65.758  1.00  0.00    -0.494 C  
ENDBRANCH  15  18
ENDBRANCH   2   3
TORSDOF 2
ENDMDL
MODEL       13
REMARK 921   NORMALIZED FREE ENERGY PREDICTED BY IDOCK:   -6.80 KCAL/MOL
REMARK 922        TOTAL FREE ENERGY PREDICTED BY IDOCK:   -7.98 KCAL/MOL
REMARK 923 INTER-LIGAND FREE ENERGY PREDICTED BY IDOCK:   -7.75 KCAL/MOL
REMARK 924 INTRA-LIGAND FREE ENERGY PREDICTED BY IDOCK:   -0.23 KCAL/MOL
REMARK 927      BINDING AFFINITY PREDICTED BY RF-SCORE:    0.00 PKD
ROOT
HETATM    1  C   UNL     1     -10.075  11.367  65.199  1.00  0.00    -0.319 C  
HETATM    2  C   UNL     1     -10.476  11.106  66.645  1.00  0.00    -0.250 C  
ENDROOT
BRANCH   2   3
HETATM    3  N   UNL     1     -10.797  12.360  67.354  1.00  0.00    -0.231 NA 
HETATM    4  C   UNL     1     -10.617  13.589  66.733  1.00  0.00    -0.272 C  
HETATM    5  C   UNL     1     -10.858  14.795  67.270  1.00  0.00    -0.309 C  
HETATM    6  C   UNL     1     -10.619  16.009  66.462  1.00  0.00    -0.284 C  
HETATM    7  C   UNL     1     -11.363  14.818  68.654  1.00  0.00    -0.285 C  
HETATM    8  C   UNL     1     -11.652  13.526  69.319  1.00  0.00    -0.369 A  
HETATM    9  O   UNL     1     -11.548  15.893  69.222  1.00  0.00    -0.353 OA 
HETATM   10  O   UNL     1     -10.227  15.980  65.304  1.00  0.00    -0.481 OA 
HETATM   11  O   UNL     1     -10.877  17.169  67.104  1.00  0.00    -0.225 OA 
HETATM   12  C   UNL     1     -12.242  13.538  70.586  1.00  0.00    -0.434 A  
HETATM   13  C   UNL     1     -12.569  12.333  71.201  1.00  0.00    -0.253 A  
HETATM   14  F   UNL     1     -13.152  12.391  72.408  1.00  0.00    -0.524 F  
HETATM   15  C   UNL     1     -12.299  11.099  70.592  1.00  0.00    -0.388 A  
HETATM   16  C   UNL     1     -11.359  12.323  68.651  1.00  0.00    -0.291 A  
HETATM   17  C   UNL     1     -11.681  11.132  69.323  1.00  0.00    -0.401 A  
BRANCH  15  18
HETATM   18  N   UNL     1     -12.675   9.861  71.104  1.00  0.00    -0.347 NA 
HETATM   19  C   UNL     1     -13.999   9.673  71.724  1.00  0.00    -0.090 C  
HETATM   20  C   UNL     1     -14.381   8.174  71.629  1.00  0.00    -0.469 C  
HETATM   21  N   UNL     1     -13.377   7.259  72.216  1.00  0.00    -0.494 NA 
HETATM   22  H   UNL     1     -13.639   6.280  72.103  1.00  0.00     0.000 HD 
HETATM   23  C   UNL     1     -12.044   7.546  71.648  1.00  0.00    -0.311 C  
HETATM   24  C   UNL     1     -11.636   9.034  71.748  1.00  0.00    -0.374 C  
ENDBRANCH  15  18
ENDBRANCH   2   3
TORSDOF 2
ENDMDL
MODEL       14
REMARK 921   NORMALIZED FREE ENERGY PREDICTED BY IDOCK:   -6.75 KCAL/MOL
REMARK 922        TOTAL FREE ENERGY PREDICTED BY IDOCK:   -7.94 KCAL/MOL
REMARK 923 INTER-LIGAND FREE ENERGY PREDICTED BY IDOCK:   -7.54 KCAL/MOL
REMARK 924 INTRA-LIGAND FREE ENERGY PREDICTED BY IDOCK:   -0.40 KCAL/MOL
REMARK 927      BINDING AFFINITY PREDICTED BY RF-SCORE:    0.00 PKD
ROOT
HETATM    1  C   UNL     1     -10.041   6.884  66.847  1.00  0.00    -0.286 C  
HETATM    2  C   UNL     1     -10.014   8.403  66.952  1.00  0.00    -0.271 C  
ENDROOT
BRANCH   2   3
HETATM    3  N   UNL     1     -10.481   8.864  68.275  1.00  0.00    -0.213 NA 
HETATM    4  C   UNL     1     -10.372   8.042  69.389  1.00  0.00    -0.217 C  
HETATM    5  C   UNL     1     -10.768   8.335  70.636  1.00  0.00    -0.240 C  
HETATM    6  C   UNL     1     -10.567   7.343  71.713  1.00  0.00    -0.201 C  
HETATM    7  C   UNL     1     -11.380   9.660  70.846  1.00  0.00    -0.360 C  
HETATM    8  C   UNL     1     -11.433  10.598  69.702  1.00  0.00    -0.361 A  
HETATM    9  O   UNL     1     -11.817   9.965  71.954  1.00  0.00    -0.300 OA 
HETATM   10  O   UNL     1     -10.033   6.257  71.536  1.00  0.00    -0.183 OA 
HETATM   11  O   UNL     1     -11.018   7.733  72.925  1.00  0.00    -0.361 OA 
HETATM   12  C   UNL     1     -11.903  11.897  69.917  1.00  0.00    -0.418 A  
HETATM   13  C   UNL     1     -11.909  12.807  68.865  1.00  0.00    -0.308 A  
HETATM   14  F   UNL     1     -12.349  14.049  69.121  1.00  0.00    -0.371 F  
HETATM   15  C   UNL     1     -11.478  12.449  67.579  1.00  0.00    -0.346 A  
HETATM   16  C   UNL     1     -10.983  10.175  68.437  1.00  0.00    -0.244 A  
HETATM   17  C   UNL     1     -11.035  11.121  67.399  1.00  0.00    -0.347 A  
BRANCH  15  18
HETATM   18  N   UNL     1     -11.373  13.325  66.503  1.00  0.00    -0.312 NA 
HETATM   19  C   UNL     1     -12.186  13.127  65.289  1.00  0.00    -0.455 C  
HETATM   20  C   UNL     1     -12.343  14.492  64.571  1.00  0.00    -0.414 C  
HETATM   21  N   UNL     1     -11.059  15.156  64.257  1.00  0.00    -0.634 NA 
HETATM   22  H   UNL     1     -11.196  16.067  63.821  1.00  0.00     0.000 HD 
HETATM   23  C   UNL     1     -10.227  15.244  65.474  1.00  0.00    -0.388 C  
HETATM   24  C   UNL     1     -10.044  13.889  66.197  1.00  0.00    -0.308 C  
ENDBRANCH  15  18
ENDBRANCH   2   3
TORSDOF 2
ENDMDL
MODEL       15
REMARK 921   NORMALIZED FREE ENERGY PREDICTED BY IDOCK:   -6.70 KCAL/MOL
REMARK 922        TOTAL FREE ENERGY PREDICTED BY IDOCK:   -7.87 KCAL/MOL
REMARK 923 INTER-LIGAND FREE ENERGY PREDICTED BY IDOCK:   -7.62 KCAL/MOL
REMARK 924 INTRA-LIGAND FREE ENERGY PREDICTED BY IDOCK:   -0.25 KCAL/MOL
REMARK 927      BINDING AFFINITY PREDICTED BY RF-SCORE:    0.00 PKD
ROOT
HETATM    1  C   UNL     1     -10.365   9.125  67.260  1.00  0.00    -0.338 C  
HETATM    2  C   UNL     1     -10.178  10.568  67.709  1.00  0.00    -0.190 C  
ENDROOT
BRANCH   2   3
HETATM    3  N   UNL     1     -10.986  10.874  68.905  1.00  0.00    -0.210 NA 
HETATM    4  C   UNL     1     -11.266   9.886  69.841  1.00  0.00    -0.250 C  
HETATM    5  C   UNL     1     -11.995  10.031  70.958  1.00  0.00    -0.469 C  
HETATM    6  C   UNL     1     -12.186   8.872  71.854  1.00  0.00    -0.374 C  
HETATM    7  C   UNL     1     -12.557  11.369  71.217  1.00  0.00    -0.374 C  
HETATM    8  C   UNL     1     -12.208  12.469  70.289  1.00  0.00    -0.345 A  
HETATM    9  O   UNL     1     -13.283  11.551  72.192  1.00  0.00    -0.505 OA 
HETATM   10  O   UNL     1     -11.693   7.772  71.646  1.00  0.00    -0.263 OA 
HETATM   11  O   UNL     1     -12.951   9.122  72.939  1.00  0.00    -0.294 OA 
HETATM   12  C   UNL     1     -12.638  13.765  70.589  1.00  0.00    -0.386 A  
HETATM   13  C   UNL     1     -12.273  14.818  69.756  1.00  0.00    -0.294 A  
HETATM   14  F   UNL     1     -12.690  16.048  70.093  1.00  0.00    -0.343 F  
HETATM   15  C   UNL     1     -11.504  14.612  68.602  1.00  0.00    -0.300 A  
HETATM   16  C   UNL     1     -11.431  12.194  69.148  1.00  0.00    -0.296 A  
HETATM   17  C   UNL     1     -11.112  13.285  68.323  1.00  0.00    -0.294 A  
BRANCH  15  18
HETATM   18  N   UNL     1     -11.028  15.622  67.771  1.00  0.00    -0.311 NA 
HETATM   19  C   UNL     1     -10.424  15.302  66.466  1.00  0.00    -0.298 C  
HETATM   20  C   UNL     1     -10.562  16.537  65.541  1.00  0.00    -0.295 C  
HETATM   21  N   UNL     1      -9.992  17.780  66.108  1.00  0.00    -0.484 NA 
HETATM   22  H   UNL     1     -10.133  18.581  65.492  1.00  0.00     0.000 HD 
HETATM   23  C   UNL     1     -10.542  18.014  67.458  1.00  0.00    -0.388 C  
HETATM   24  C   UNL     1     -10.399  16.799  68.403  1.00  0.00    -0.319 C  
ENDBRANCH  15  18
ENDBRANCH   2   3
TORSDOF 2
ENDMDL
MODEL       16
REMARK 921   NORMALIZED FREE ENERGY PREDICTED BY IDOCK:   -6.68 KCAL/MOL
REMARK 922        TOTAL FREE ENERGY PREDICTED BY IDOCK:   -7.85 KCAL/MOL
REMARK 923 INTER-LIGAND FREE ENERGY PREDICTED BY IDOCK:   -7.44 KCAL/MOL
REMARK 924 INTRA-LIGAND FREE ENERGY PREDICTED BY IDOCK:   -0.41 KCAL/MOL
REMARK 927      BINDING AFFINITY PREDICTED BY RF-SCORE:    0.00 PKD
ROOT
HETATM    1  C   UNL     1      -8.865   9.517  64.872  1.00  0.00    -0.240 C  
HETATM    2  C   UNL     1      -9.902   9.347  65.974  1.00  0.00    -0.296 C  
ENDROOT
BRANCH   2   3
HETATM    3  N   UNL     1     -10.618  10.609  66.245  1.00  0.00    -0.201 NA 
HETATM    4  C   UNL     1     -10.994  11.447  65.204  1.00  0.00    -0.192 C  
HETATM    5  C   UNL     1     -11.634  12.621  65.317  1.00  0.00    -0.389 C  
HETATM    6  C   UNL     1     -11.968  13.384  64.098  1.00  0.00    -0.450 C  
HETATM    7  C   UNL     1     -11.969  13.066  66.681  1.00  0.00    -0.387 C  
HETATM    8  C   UNL     1     -11.664  12.159  67.812  1.00  0.00    -0.390 A  
HETATM    9  O   UNL     1     -12.503  14.160  66.856  1.00  0.00    -0.359 OA 
HETATM   10  O   UNL     1     -11.711  12.994  62.968  1.00  0.00    -0.312 OA 
HETATM   11  O   UNL     1     -12.595  14.559  64.326  1.00  0.00    -0.681 OA 
HETATM   12  C   UNL     1     -12.084  12.519  69.096  1.00  0.00    -0.187 A  
HETATM   13  C   UNL     1     -11.852  11.653  70.160  1.00  0.00    -0.344 A  
HETATM   14  F   UNL     1     -12.290  12.028  71.371  1.00  0.00    -0.381 F  
HETATM   15  C   UNL     1     -11.183  10.433  69.985  1.00  0.00    -0.316 A  
HETATM   16  C   UNL     1     -10.990  10.948  67.566  1.00  0.00    -0.293 A  
HETATM   17  C   UNL     1     -10.754  10.120  68.677  1.00  0.00    -0.253 A  
BRANCH  15  18
HETATM   18  N   UNL     1     -10.992   9.479  70.981  1.00  0.00    -0.326 NA 
HETATM   19  C   UNL     1      -9.656   8.914  71.235  1.00  0.00    -0.278 C  
HETATM   20  C   UNL     1      -9.605   8.405  72.699  1.00  0.00    -0.267 C  
HETATM   21  N   UNL     1     -10.673   7.438  73.036  1.00  0.00    -0.330 NA 
HETATM   22  H   UNL     1     -10.635   7.152  74.014  1.00  0.00     0.000 HD 
HETATM   23  C   UNL     1     -11.990   7.996  72.671  1.00  0.00    -0.277 C  
HETATM   24  C   UNL     1     -12.068   8.494  71.209  1.00  0.00    -0.286 C  
ENDBRANCH  15  18
ENDBRANCH   2   3
TORSDOF 2
ENDMDL
MODEL       17
REMARK 921   NORMALIZED FREE ENERGY PREDICTED BY IDOCK:   -6.59 KCAL/MOL
REMARK 922        TOTAL FREE ENERGY PREDICTED BY IDOCK:   -7.75 KCAL/MOL
REMARK 923 INTER-LIGAND FREE ENERGY PREDICTED BY IDOCK:   -7.33 KCAL/MOL
REMARK 924 INTRA-LIGAND FREE ENERGY PREDICTED BY IDOCK:   -0.42 KCAL/MOL
REMARK 927      BINDING AFFINITY PREDICTED BY RF-SCORE:    0.00 PKD
ROOT
HETATM    1  C   UNL     1      -7.885  15.828  69.299  1.00  0.00    -0.233 C  
HETATM    2  C   UNL     1      -9.058  14.959  68.866  1.00  0.00    -0.191 C  
ENDROOT
BRANCH   2   3
HETATM    3  N   UNL     1      -9.665  15.452  67.614  1.00  0.00    -0.211 NA 
HETATM    4  C   UNL     1      -9.805  16.814  67.384  1.00  0.00    -0.252 C  
HETATM    5  C   UNL     1     -10.348  17.386  66.299  1.00  0.00    -0.330 C  
HETATM    6  C   UNL     1     -10.409  18.860  66.211  1.00  0.00    -0.453 C  
HETATM    7  C   UNL     1     -10.848  16.482  65.249  1.00  0.00    -0.221 C  
HETATM    8  C   UNL     1     -10.637  15.025  65.418  1.00  0.00    -0.398 A  
HETATM    9  O   UNL     1     -11.410  16.943  64.257  1.00  0.00    -1.202 OA 
HETATM   10  O   UNL     1      -9.967  19.605  67.075  1.00  0.00    -0.342 OA 
HETATM   11  O   UNL     1     -10.991  19.331  65.087  1.00  0.00    -0.448 OA 
HETATM   12  C   UNL     1     -11.000  14.167  64.376  1.00  0.00    -0.240 A  
HETATM   13  C   UNL     1     -10.760  12.802  64.497  1.00  0.00    -0.358 A  
HETATM   14  F   UNL     1     -11.104  12.018  63.464  1.00  0.00    -0.386 F  
HETATM   15  C   UNL     1     -10.183  12.255  65.652  1.00  0.00    -0.261 A  
HETATM   16  C   UNL     1     -10.051  14.543  66.603  1.00  0.00    -0.272 A  
HETATM   17  C   UNL     1      -9.854  13.154  66.690  1.00  0.00    -0.261 A  
BRANCH  15  18
HETATM   18  N   UNL     1      -9.833  10.918  65.810  1.00  0.00    -0.225 NA 
HETATM   19  C   UNL     1     -10.163  10.195  67.052  1.00  0.00    -0.234 C  
HETATM   20  C   UNL     1     -10.237   8.679  66.736  1.00  0.00    -0.291 C  
HETATM   21  N   UNL     1      -9.014   8.136  66.106  1.00  0.00    -0.170 NA 
HETATM   22  H   UNL     1      -9.109   7.147  65.876  1.00  0.00     0.000 HD 
HETATM   23  C   UNL     1      -8.654   8.948  64.926  1.00  0.00    -0.172 C  
HETATM   24  C   UNL     1      -8.558  10.462  65.223  1.00  0.00    -0.176 C  
ENDBRANCH  15  18
ENDBRANCH   2   3
TORSDOF 2
ENDMDL
MODEL       18
REMARK 921   NORMALIZED FREE ENERGY PREDICTED BY IDOCK:   -6.56 KCAL/MOL
REMARK 922        TOTAL FREE ENERGY PREDICTED BY IDOCK:   -7.72 KCAL/MOL
REMARK 923 INTER-LIGAND FREE ENERGY PREDICTED BY IDOCK:   -7.54 KCAL/MOL
REMARK 924 INTRA-LIGAND FREE ENERGY PREDICTED BY IDOCK:   -0.19 KCAL/MOL
REMARK 927      BINDING AFFINITY PREDICTED BY RF-SCORE:    0.00 PKD
ROOT
HETATM    1  C   UNL     1     -11.687  13.379  64.093  1.00  0.00    -0.466 C  
HETATM    2  C   UNL     1     -10.414  13.428  64.926  1.00  0.00    -0.390 C  
ENDROOT
BRANCH   2   3
HETATM    3  N   UNL     1     -10.668  13.040  66.328  1.00  0.00    -0.274 NA 
HETATM    4  C   UNL     1     -10.688  11.702  66.700  1.00  0.00    -0.270 C  
HETATM    5  C   UNL     1     -10.917  11.222  67.931  1.00  0.00    -0.302 C  
HETATM    6  C   UNL     1     -10.892   9.762  68.155  1.00  0.00    -0.214 C  
HETATM    7  C   UNL     1     -11.177  12.209  68.994  1.00  0.00    -0.260 C  
HETATM    8  C   UNL     1     -11.077  13.648  68.655  1.00  0.00    -0.299 A  
HETATM    9  O   UNL     1     -11.453  11.830  70.130  1.00  0.00    -0.225 OA 
HETATM   10  O   UNL     1     -10.648   8.950  67.273  1.00  0.00    -0.283 OA 
HETATM   11  O   UNL     1     -11.154   9.385  69.425  1.00  0.00    -0.189 OA 
HETATM   12  C   UNL     1     -11.205  14.591  69.679  1.00  0.00    -0.292 A  
HETATM   13  C   UNL     1     -11.060  15.944  69.386  1.00  0.00    -0.322 A  
HETATM   14  F   UNL     1     -11.169  16.813  70.403  1.00  0.00    -0.351 F  
HETATM   15  C   UNL     1     -10.814  16.393  68.081  1.00  0.00    -0.346 A  
HETATM   16  C   UNL     1     -10.827  14.031  67.324  1.00  0.00    -0.284 A  
HETATM   17  C   UNL     1     -10.717  15.409  67.073  1.00  0.00    -0.321 A  
BRANCH  15  18
HETATM   18  N   UNL     1     -10.572  17.717  67.728  1.00  0.00    -0.386 NA 
HETATM   19  C   UNL     1     -10.398  18.099  66.315  1.00  0.00    -0.397 C  
HETATM   20  C   UNL     1     -10.761  19.598  66.160  1.00  0.00    -0.416 C  
HETATM   21  N   UNL     1     -10.002  20.496  67.058  1.00  0.00    -0.498 NA 
HETATM   22  H   UNL     1     -10.291  21.469  66.960  1.00  0.00     0.000 HD 
HETATM   23  C   UNL     1     -10.113  20.023  68.452  1.00  0.00    -0.386 C  
HETATM   24  C   UNL     1      -9.739  18.533  68.632  1.00  0.00    -0.365 C  
ENDBRANCH  15  18
ENDBRANCH   2   3
TORSDOF 2
ENDMDL
MODEL       19
REMARK 921   NORMALIZED FREE ENERGY PREDICTED BY IDOCK:   -6.50 KCAL/MOL
REMARK 922        TOTAL FREE ENERGY PREDICTED BY IDOCK:   -7.66 KCAL/MOL
REMARK 923 INTER-LIGAND FREE ENERGY PREDICTED BY IDOCK:   -7.24 KCAL/MOL
REMARK 924 INTRA-LIGAND FREE ENERGY PREDICTED BY IDOCK:   -0.42 KCAL/MOL
REMARK 927      BINDING AFFINITY PREDICTED BY RF-SCORE:    0.00 PKD
ROOT
HETATM    1  C   UNL     1      -8.662   8.790  65.035  1.00  0.00    -0.183 C  
HETATM    2  C   UNL     1      -9.573   8.712  66.253  1.00  0.00    -0.252 C  
ENDROOT
BRANCH   2   3
HETATM    3  N   UNL     1     -10.258   9.996  66.501  1.00  0.00    -0.233 NA 
HETATM    4  C   UNL     1     -10.460  10.902  65.468  1.00  0.00    -0.219 C  
HETATM    5  C   UNL     1     -11.054  12.100  65.565  1.00  0.00    -0.361 C  
HETATM    6  C   UNL     1     -11.197  12.938  64.357  1.00  0.00    -0.351 C  
HETATM    7  C   UNL     1     -11.539  12.497  66.899  1.00  0.00    -0.370 C  
HETATM    8  C   UNL     1     -11.421  11.522  68.009  1.00  0.00    -0.381 A  
HETATM    9  O   UNL     1     -12.038  13.608  67.066  1.00  0.00    -0.398 OA 
HETATM   10  O   UNL     1     -10.817  12.590  63.248  1.00  0.00    -0.406 OA 
HETATM   11  O   UNL     1     -11.792  14.132  64.569  1.00  0.00    -0.397 OA 
HETATM   12  C   UNL     1     -11.982  11.841  69.248  1.00  0.00    -0.354 A  
HETATM   13  C   UNL     1     -11.927  10.914  70.284  1.00  0.00    -0.361 A  
HETATM   14  F   UNL     1     -12.497  11.254  71.451  1.00  0.00    -0.439 F  
HETATM   15  C   UNL     1     -11.298   9.671  70.128  1.00  0.00    -0.227 A  
HETATM   16  C   UNL     1     -10.777  10.291  67.783  1.00  0.00    -0.275 A  
HETATM   17  C   UNL     1     -10.722   9.399  68.867  1.00  0.00    -0.203 A  
BRANCH  15  18
HETATM   18  N   UNL     1     -11.279   8.662  71.086  1.00  0.00    -0.259 NA 
HETATM   19  C   UNL     1     -12.505   7.913  71.414  1.00  0.00    -0.309 C  
HETATM   20  C   UNL     1     -12.101   6.530  71.987  1.00  0.00    -0.312 C  
HETATM   21  N   UNL     1     -11.188   6.605  73.149  1.00  0.00    -0.482 NA 
HETATM   22  H   UNL     1     -10.911   5.681  73.478  1.00  0.00     0.000 HD 
HETATM   23  C   UNL     1     -10.022   7.449  72.819  1.00  0.00    -0.215 C  
HETATM   24  C   UNL     1     -10.404   8.840  72.261  1.00  0.00    -0.250 C  
ENDBRANCH  15  18
ENDBRANCH   2   3
TORSDOF 2
ENDMDL
MODEL       20
REMARK 921   NORMALIZED FREE ENERGY PREDICTED BY IDOCK:   -6.35 KCAL/MOL
REMARK 922        TOTAL FREE ENERGY PREDICTED BY IDOCK:   -7.48 KCAL/MOL
REMARK 923 INTER-LIGAND FREE ENERGY PREDICTED BY IDOCK:   -7.13 KCAL/MOL
REMARK 924 INTRA-LIGAND FREE ENERGY PREDICTED BY IDOCK:   -0.34 KCAL/MOL
REMARK 927      BINDING AFFINITY PREDICTED BY RF-SCORE:    0.00 PKD
ROOT
HETATM    1  C   UNL     1     -12.988  11.066  71.804  1.00  0.00    -0.544 C  
HETATM    2  C   UNL     1     -12.213  11.489  70.564  1.00  0.00    -0.377 C  
ENDROOT
BRANCH   2   3
HETATM    3  N   UNL     1     -11.640  10.325  69.860  1.00  0.00    -0.261 NA 
HETATM    4  C   UNL     1     -11.628   9.072  70.457  1.00  0.00    -0.175 C  
HETATM    5  C   UNL     1     -11.128   7.944  69.931  1.00  0.00    -0.123 C  
HETATM    6  C   UNL     1     -11.208   6.687  70.704  1.00  0.00    -0.317 C  
HETATM    7  C   UNL     1     -10.532   8.043  68.587  1.00  0.00    -0.167 C  
HETATM    8  C   UNL     1     -10.604   9.343  67.881  1.00  0.00    -0.293 A  
HETATM    9  O   UNL     1     -10.004   7.057  68.076  1.00  0.00    -0.145 OA 
HETATM   10  O   UNL     1     -11.730   6.607  71.807  1.00  0.00    -0.286 OA 
HETATM   11  O   UNL     1     -10.659   5.616  70.090  1.00  0.00    -0.271 OA 
HETATM   12  C   UNL     1     -10.147   9.419  66.562  1.00  0.00    -0.332 A  
HETATM   13  C   UNL     1     -10.258  10.619  65.867  1.00  0.00    -0.251 A  
HETATM   14  F   UNL     1      -9.826  10.641  64.596  1.00  0.00    -0.268 F  
HETATM   15  C   UNL     1     -10.794  11.769  66.463  1.00  0.00    -0.282 A  
HETATM   16  C   UNL     1     -11.156  10.459  68.538  1.00  0.00    -0.266 A  
HETATM   17  C   UNL     1     -11.220  11.655  67.804  1.00  0.00    -0.333 A  
BRANCH  15  18
HETATM   18  N   UNL     1     -11.016  12.976  65.807  1.00  0.00    -0.275 NA 
HETATM   19  C   UNL     1     -11.799  13.021  64.559  1.00  0.00    -0.377 C  
HETATM   20  C   UNL     1     -12.397  14.442  64.402  1.00  0.00    -0.403 C  
HETATM   21  N   UNL     1     -11.391  15.526  64.446  1.00  0.00    -0.727 NA 
HETATM   22  H   UNL     1     -11.819  16.449  64.379  1.00  0.00     0.000 HD 
HETATM   23  C   UNL     1     -10.557  15.389  65.657  1.00  0.00    -0.364 C  
HETATM   24  C   UNL     1      -9.936  13.982  65.824  1.00  0.00    -0.298 C  
ENDBRANCH  15  18
ENDBRANCH   2   3
TORSDOF 2
ENDMDL
MODEL       21
REMARK 921   NORMALIZED FREE ENERGY PREDICTED BY IDOCK:   -6.32 KCAL/MOL
REMARK 922        TOTAL FREE ENERGY PREDICTED BY IDOCK:   -7.45 KCAL/MOL
REMARK 923 INTER-LIGAND FREE ENERGY PREDICTED BY IDOCK:   -7.07 KCAL/MOL
REMARK 924 INTRA-LIGAND FREE ENERGY PREDICTED BY IDOCK:   -0.38 KCAL/MOL
REMARK 927      BINDING AFFINITY PREDICTED BY RF-SCORE:    0.00 PKD
ROOT
HETATM    1  C   UNL     1      -6.329  13.547  67.824  1.00  0.00    -0.166 C  
HETATM    2  C   UNL     1      -7.527  14.022  68.635  1.00  0.00    -0.125 C  
ENDROOT
BRANCH   2   3
HETATM    3  N   UNL     1      -7.936  15.387  68.251  1.00  0.00    -0.125 NA 
HETATM    4  C   UNL     1      -7.329  16.496  68.827  1.00  0.00    -0.208 C  
HETATM    5  C   UNL     1      -7.617  17.781  68.574  1.00  0.00    -0.276 C  
HETATM    6  C   UNL     1      -6.863  18.843  69.272  1.00  0.00    -0.266 C  
HETATM    7  C   UNL     1      -8.683  18.044  67.591  1.00  0.00    -0.247 C  
HETATM    8  C   UNL     1      -9.293  16.890  66.890  1.00  0.00    -0.254 A  
HETATM    9  O   UNL     1      -9.033  19.200  67.360  1.00  0.00    -0.287 OA 
HETATM   10  O   UNL     1      -5.961  18.617  70.066  1.00  0.00    -0.249 OA 
HETATM   11  O   UNL     1      -7.245  20.100  68.958  1.00  0.00    -0.211 OA 
HETATM   12  C   UNL     1     -10.220  17.133  65.872  1.00  0.00    -0.290 A  
HETATM   13  C   UNL     1     -10.761  16.062  65.169  1.00  0.00    -0.409 A  
HETATM   14  F   UNL     1     -11.631  16.342  64.186  1.00  0.00    -0.538 F  
HETATM   15  C   UNL     1     -10.421  14.735  65.470  1.00  0.00    -0.359 A  
HETATM   16  C   UNL     1      -8.905  15.583  67.241  1.00  0.00    -0.201 A  
HETATM   17  C   UNL     1      -9.501  14.534  66.521  1.00  0.00    -0.310 A  
BRANCH  15  18
HETATM   18  N   UNL     1     -10.852  13.622  64.756  1.00  0.00    -0.372 NA 
HETATM   19  C   UNL     1     -12.266  13.209  64.788  1.00  0.00    -0.425 C  
HETATM   20  C   UNL     1     -12.575  12.400  63.501  1.00  0.00    -0.425 C  
HETATM   21  N   UNL     1     -11.679  11.242  63.291  1.00  0.00    -0.739 NA 
HETATM   22  H   UNL     1     -11.883  10.755  62.418  1.00  0.00     0.000 HD 
HETATM   23  C   UNL     1     -10.270  11.675  63.369  1.00  0.00    -0.433 C  
HETATM   24  C   UNL     1      -9.937  12.468  64.653  1.00  0.00    -0.151 C  
ENDBRANCH  15  18
ENDBRANCH   2   3
TORSDOF 2
ENDMDL
MODEL       22
REMARK 921   NORMALIZED FREE ENERGY PREDICTED BY IDOCK:   -6.31 KCAL/MOL
REMARK 922        TOTAL FREE ENERGY PREDICTED BY IDOCK:   -7.44 KCAL/MOL
REMARK 923 INTER-LIGAND FREE ENERGY PREDICTED BY IDOCK:   -7.47 KCAL/MOL
REMARK 924 INTRA-LIGAND FREE ENERGY PREDICTED BY IDOCK:    0.02 KCAL/MOL
REMARK 927      BINDING AFFINITY PREDICTED BY RF-SCORE:    0.00 PKD
ROOT
HETATM    1  C   UNL     1     -13.510   9.546  72.079  1.00  0.00    -0.522 C  
HETATM    2  C   UNL     1     -12.253   9.768  71.248  1.00  0.00    -0.374 C  
ENDROOT
BRANCH   2   3
HETATM    3  N   UNL     1     -12.202  11.136  70.697  1.00  0.00    -0.370 NA 
HETATM    4  C   UNL     1     -12.583  12.225  71.471  1.00  0.00    -0.152 C  
HETATM    5  C   UNL     1     -12.593  13.510  71.086  1.00  0.00    -0.438 C  
HETATM    6  C   UNL     1     -13.021  14.550  72.044  1.00  0.00    -0.341 C  
HETATM    7  C   UNL     1     -12.161  13.795  69.706  1.00  0.00    -0.340 C  
HETATM    8  C   UNL     1     -11.664  12.671  68.879  1.00  0.00    -0.370 A  
HETATM    9  O   UNL     1     -12.205  14.945  69.274  1.00  0.00    -0.266 OA 
HETATM   10  O   UNL     1     -13.352  14.308  73.196  1.00  0.00    -0.643 OA 
HETATM   11  O   UNL     1     -13.012  15.806  71.549  1.00  0.00    -0.470 OA 
HETATM   12  C   UNL     1     -11.141  12.947  67.612  1.00  0.00    -0.297 A  
HETATM   13  C   UNL     1     -10.621  11.909  66.845  1.00  0.00    -0.230 A  
HETATM   14  F   UNL     1     -10.111  12.222  65.644  1.00  0.00    -0.243 F  
HETATM   15  C   UNL     1     -10.629  10.582  67.298  1.00  0.00    -0.264 A  
HETATM   16  C   UNL     1     -11.699  11.362  69.395  1.00  0.00    -0.338 A  
HETATM   17  C   UNL     1     -11.188  10.345  68.572  1.00  0.00    -0.308 A  
BRANCH  15  18
HETATM   18  N   UNL     1     -10.050   9.509  66.628  1.00  0.00    -0.243 NA 
HETATM   19  C   UNL     1      -9.680   9.621  65.206  1.00  0.00    -0.260 C  
HETATM   20  C   UNL     1      -8.557   8.597  64.905  1.00  0.00    -0.135 C  
HETATM   21  N   UNL     1      -8.902   7.204  65.264  1.00  0.00    -0.370 NA 
HETATM   22  H   UNL     1      -8.129   6.561  65.090  1.00  0.00     0.000 HD 
HETATM   23  C   UNL     1      -9.367   7.146  66.664  1.00  0.00    -0.166 C  
HETATM   24  C   UNL     1     -10.501   8.149  66.981  1.00  0.00    -0.326 C  
ENDBRANCH  15  18
ENDBRANCH   2   3
TORSDOF 2
ENDMDL
MODEL       23
REMARK 921   NORMALIZED FREE ENERGY PREDICTED BY IDOCK:   -6.29 KCAL/MOL
REMARK 922        TOTAL FREE ENERGY PREDICTED BY IDOCK:   -7.42 KCAL/MOL
REMARK 923 INTER-LIGAND FREE ENERGY PREDICTED BY IDOCK:   -7.01 KCAL/MOL
REMARK 924 INTRA-LIGAND FREE ENERGY PREDICTED BY IDOCK:   -0.41 KCAL/MOL
REMARK 927      BINDING AFFINITY PREDICTED BY RF-SCORE:    0.00 PKD
ROOT
HETATM    1  C   UNL     1     -12.536  14.489  70.454  1.00  0.00    -0.407 C  
HETATM    2  C   UNL     1     -12.357  12.977  70.479  1.00  0.00    -0.287 C  
ENDROOT
BRANCH   2   3
HETATM    3  N   UNL     1     -11.865  12.467  69.184  1.00  0.00    -0.310 NA 
HETATM    4  C   UNL     1     -11.691  13.325  68.106  1.00  0.00    -0.362 C  
HETATM    5  C   UNL     1     -11.265  12.987  66.880  1.00  0.00    -0.331 C  
HETATM    6  C   UNL     1     -11.127  14.033  65.847  1.00  0.00    -0.301 C  
HETATM    7  C   UNL     1     -10.952  11.564  66.653  1.00  0.00    -0.296 C  
HETATM    8  C   UNL     1     -11.040  10.633  67.802  1.00  0.00    -0.385 A  
HETATM    9  O   UNL     1     -10.614  11.181  65.535  1.00  0.00    -0.263 OA 
HETATM   10  O   UNL     1     -11.362  15.216  66.051  1.00  0.00    -0.318 OA 
HETATM   11  O   UNL     1     -10.709  13.582  64.644  1.00  0.00    -0.373 OA 
HETATM   12  C   UNL     1     -10.633   9.307  67.627  1.00  0.00    -0.324 A  
HETATM   13  C   UNL     1     -10.659   8.435  68.710  1.00  0.00    -0.125 A  
HETATM   14  F   UNL     1     -10.240   7.177  68.502  1.00  0.00    -0.154 F  
HETATM   15  C   UNL     1     -11.109   8.842  69.974  1.00  0.00    -0.162 A  
HETATM   16  C   UNL     1     -11.500  11.108  69.045  1.00  0.00    -0.296 A  
HETATM   17  C   UNL     1     -11.534  10.182  70.101  1.00  0.00    -0.368 A  
BRANCH  15  18
HETATM   18  N   UNL     1     -11.081   8.054  71.121  1.00  0.00    -0.247 NA 
HETATM   19  C   UNL     1     -12.177   7.113  71.413  1.00  0.00    -0.362 C  
HETATM   20  C   UNL     1     -11.631   5.987  72.329  1.00  0.00    -0.307 C  
HETATM   21  N   UNL     1     -10.996   6.479  73.571  1.00  0.00    -0.480 NA 
HETATM   22  H   UNL     1     -10.614   5.718  74.132  1.00  0.00     0.000 HD 
HETATM   23  C   UNL     1      -9.976   7.496  73.247  1.00  0.00    -0.313 C  
HETATM   24  C   UNL     1     -10.505   8.638  72.348  1.00  0.00    -0.237 C  
ENDBRANCH  15  18
ENDBRANCH   2   3
TORSDOF 2
ENDMDL
MODEL       24
REMARK 921   NORMALIZED FREE ENERGY PREDICTED BY IDOCK:   -6.29 KCAL/MOL
REMARK 922        TOTAL FREE ENERGY PREDICTED BY IDOCK:   -7.41 KCAL/MOL
REMARK 923 INTER-LIGAND FREE ENERGY PREDICTED BY IDOCK:   -6.98 KCAL/MOL
REMARK 924 INTRA-LIGAND FREE ENERGY PREDICTED BY IDOCK:   -0.43 KCAL/MOL
REMARK 927      BINDING AFFINITY PREDICTED BY RF-SCORE:    0.00 PKD
ROOT
HETATM    1  C   UNL     1     -12.092   7.975  72.409  1.00  0.00    -0.374 C  
HETATM    2  C   UNL     1     -10.813   8.679  71.977  1.00  0.00    -0.360 C  
ENDROOT
BRANCH   2   3
HETATM    3  N   UNL     1     -10.733   8.806  70.508  1.00  0.00    -0.215 NA 
HETATM    4  C   UNL     1     -10.363   7.721  69.724  1.00  0.00    -0.221 C  
HETATM    5  C   UNL     1     -10.242   7.709  68.388  1.00  0.00    -0.226 C  
HETATM    6  C   UNL     1      -9.846   6.459  67.708  1.00  0.00    -0.123 C  
HETATM    7  C   UNL     1     -10.527   8.971  67.682  1.00  0.00    -0.260 C  
HETATM    8  C   UNL     1     -11.009  10.126  68.475  1.00  0.00    -0.278 A  
HETATM    9  O   UNL     1     -10.376   9.041  66.464  1.00  0.00    -0.264 OA 
HETATM   10  O   UNL     1      -9.639   5.408  68.298  1.00  0.00    -0.115 OA 
HETATM   11  O   UNL     1      -9.736   6.561  66.365  1.00  0.00    -0.156 OA 
HETATM   12  C   UNL     1     -11.394  11.290  67.804  1.00  0.00    -0.354 A  
HETATM   13  C   UNL     1     -11.900  12.364  68.529  1.00  0.00    -0.304 A  
HETATM   14  F   UNL     1     -12.277  13.453  67.842  1.00  0.00    -0.366 F  
HETATM   15  C   UNL     1     -12.011  12.322  69.926  1.00  0.00    -0.306 A  
HETATM   16  C   UNL     1     -11.098  10.016  69.875  1.00  0.00    -0.288 A  
HETATM   17  C   UNL     1     -11.588  11.137  70.567  1.00  0.00    -0.287 A  
BRANCH  15  18
HETATM   18  N   UNL     1     -12.586  13.318  70.709  1.00  0.00    -0.315 NA 
HETATM   19  C   UNL     1     -11.904  14.610  70.904  1.00  0.00    -0.313 C  
HETATM   20  C   UNL     1     -12.968  15.683  71.249  1.00  0.00    -0.492 C  
HETATM   21  N   UNL     1     -13.813  15.340  72.413  1.00  0.00    -0.503 NA 
HETATM   22  H   UNL     1     -14.526  16.047  72.590  1.00  0.00     0.000 HD 
HETATM   23  C   UNL     1     -14.397  13.996  72.231  1.00  0.00    -0.429 C  
HETATM   24  C   UNL     1     -13.350  12.906  71.903  1.00  0.00    -0.435 C  
ENDBRANCH  15  18
ENDBRANCH   2   3
TORSDOF 2
ENDMDL
MODEL       25
REMARK 921   NORMALIZED FREE ENERGY PREDICTED BY IDOCK:   -6.28 KCAL/MOL
REMARK 922        TOTAL FREE ENERGY PREDICTED BY IDOCK:   -7.41 KCAL/MOL
REMARK 923 INTER-LIGAND FREE ENERGY PREDICTED BY IDOCK:   -6.98 KCAL/MOL
REMARK 924 INTRA-LIGAND FREE ENERGY PREDICTED BY IDOCK:   -0.43 KCAL/MOL
REMARK 927      BINDING AFFINITY PREDICTED BY RF-SCORE:    0.00 PKD
ROOT
HETATM    1  C   UNL     1     -12.411  12.647  63.372  1.00  0.00    -0.553 C  
HETATM    2  C   UNL     1     -12.510  12.659  64.892  1.00  0.00    -0.494 C  
ENDROOT
BRANCH   2   3
HETATM    3  N   UNL     1     -11.394  13.408  65.502  1.00  0.00    -0.291 NA 
HETATM    4  C   UNL     1     -11.217  14.759  65.234  1.00  0.00    -0.366 C  
HETATM    5  C   UNL     1     -10.242  15.545  65.713  1.00  0.00    -0.390 C  
HETATM    6  C   UNL     1     -10.208  16.971  65.331  1.00  0.00     0.016 C  
HETATM    7  C   UNL     1      -9.259  14.913  66.611  1.00  0.00    -0.276 C  
HETATM    8  C   UNL     1      -9.464  13.496  66.992  1.00  0.00    -0.251 A  
HETATM    9  O   UNL     1      -8.307  15.566  67.036  1.00  0.00    -0.193 OA 
HETATM   10  O   UNL     1     -11.043  17.495  64.607  1.00  0.00    -0.978 OA 
HETATM   11  O   UNL     1      -9.174  17.667  65.853  1.00  0.00    -0.517 OA 
HETATM   12  C   UNL     1      -8.606  12.921  67.935  1.00  0.00    -0.185 A  
HETATM   13  C   UNL     1      -8.819  11.608  68.342  1.00  0.00    -0.161 A  
HETATM   14  F   UNL     1      -7.985  11.104  69.265  1.00  0.00    -0.139 F  
HETATM   15  C   UNL     1      -9.859  10.831  67.813  1.00  0.00    -0.166 A  
HETATM   16  C   UNL     1     -10.529  12.773  66.424  1.00  0.00    -0.250 A  
HETATM   17  C   UNL     1     -10.686  11.443  66.846  1.00  0.00    -0.308 A  
BRANCH  15  18
HETATM   18  N   UNL     1     -10.186   9.546  68.234  1.00  0.00    -0.185 NA 
HETATM   19  C   UNL     1     -10.475   8.484  67.255  1.00  0.00    -0.296 C  
HETATM   20  C   UNL     1     -10.193   7.111  67.916  1.00  0.00    -0.187 C  
HETATM   21  N   UNL     1     -10.928   6.891  69.182  1.00  0.00    -0.393 NA 
HETATM   22  H   UNL     1     -10.691   5.997  69.611  1.00  0.00     0.000 HD 
HETATM   23  C   UNL     1     -10.697   8.025  70.099  1.00  0.00    -0.244 C  
HETATM   24  C   UNL     1     -10.990   9.404  69.464  1.00  0.00    -0.173 C  
ENDBRANCH  15  18
ENDBRANCH   2   3
TORSDOF 2
ENDMDL
MODEL       26
REMARK 921   NORMALIZED FREE ENERGY PREDICTED BY IDOCK:   -6.15 KCAL/MOL
REMARK 922        TOTAL FREE ENERGY PREDICTED BY IDOCK:   -7.26 KCAL/MOL
REMARK 923 INTER-LIGAND FREE ENERGY PREDICTED BY IDOCK:   -6.95 KCAL/MOL
REMARK 924 INTRA-LIGAND FREE ENERGY PREDICTED BY IDOCK:   -0.32 KCAL/MOL
REMARK 927      BINDING AFFINITY PREDICTED BY RF-SCORE:    0.00 PKD
ROOT
HETATM    1  C   UNL     1     -10.460  13.720  67.648  1.00  0.00    -0.242 C  
HETATM    2  C   UNL     1     -10.461  12.362  68.337  1.00  0.00    -0.235 C  
ENDROOT
BRANCH   2   3
HETATM    3  N   UNL     1     -11.364  12.346  69.505  1.00  0.00    -0.220 NA 
HETATM    4  C   UNL     1     -12.003  13.507  69.920  1.00  0.00    -0.348 C  
HETATM    5  C   UNL     1     -12.833  13.627  70.967  1.00  0.00    -0.360 C  
HETATM    6  C   UNL     1     -13.439  14.942  71.264  1.00  0.00    -0.430 C  
HETATM    7  C   UNL     1     -13.091  12.410  71.756  1.00  0.00    -0.342 C  
HETATM    8  C   UNL     1     -12.497  11.134  71.293  1.00  0.00    -0.466 A  
HETATM    9  O   UNL     1     -13.795  12.468  72.762  1.00  0.00    -0.235 OA 
HETATM   10  O   UNL     1     -13.242  15.942  70.587  1.00  0.00    -0.447 OA 
HETATM   11  O   UNL     1     -14.243  14.957  72.349  1.00  0.00    -0.464 OA 
HETATM   12  C   UNL     1     -12.830   9.953  71.964  1.00  0.00    -0.488 A  
HETATM   13  C   UNL     1     -12.323   8.741  71.508  1.00  0.00    -0.328 A  
HETATM   14  F   UNL     1     -12.685   7.630  72.170  1.00  0.00    -0.307 F  
HETATM   15  C   UNL     1     -11.462   8.670  70.404  1.00  0.00    -0.136 A  
HETATM   16  C   UNL     1     -11.642  11.133  70.175  1.00  0.00    -0.323 A  
HETATM   17  C   UNL     1     -11.133   9.888  69.770  1.00  0.00    -0.294 A  
BRANCH  15  18
HETATM   18  N   UNL     1     -10.988   7.490  69.839  1.00  0.00    -0.240 NA 
HETATM   19  C   UNL     1     -10.299   6.483  70.666  1.00  0.00    -0.201 C  
HETATM   20  C   UNL     1     -10.441   5.100  69.982  1.00  0.00    -0.235 C  
HETATM   21  N   UNL     1      -9.960   5.069  68.583  1.00  0.00    -0.160 NA 
HETATM   22  H   UNL     1     -10.102   4.157  68.150  1.00  0.00     0.000 HD 
HETATM   23  C   UNL     1     -10.592   6.156  67.810  1.00  0.00    -0.269 C  
HETATM   24  C   UNL     1     -10.447   7.548  68.467  1.00  0.00    -0.180 C  
ENDBRANCH  15  18
ENDBRANCH   2   3
TORSDOF 2
ENDMDL
MODEL       27
REMARK 921   NORMALIZED FREE ENERGY PREDICTED BY IDOCK:   -6.14 KCAL/MOL
REMARK 922        TOTAL FREE ENERGY PREDICTED BY IDOCK:   -7.24 KCAL/MOL
REMARK 923 INTER-LIGAND FREE ENERGY PREDICTED BY IDOCK:   -6.82 KCAL/MOL
REMARK 924 INTRA-LIGAND FREE ENERGY PREDICTED BY IDOCK:   -0.42 KCAL/MOL
REMARK 927      BINDING AFFINITY PREDICTED BY RF-SCORE:    0.00 PKD
ROOT
HETATM    1  C   UNL     1     -11.705  15.467  68.825  1.00  0.00    -0.372 C  
HETATM    2  C   UNL     1     -12.089  13.999  68.951  1.00  0.00    -0.316 C  
ENDROOT
BRANCH   2   3
HETATM    3  N   UNL     1     -11.887  13.274  67.681  1.00  0.00    -0.360 NA 
HETATM    4  C   UNL     1     -12.167  13.885  66.466  1.00  0.00    -0.442 C  
HETATM    5  C   UNL     1     -12.039  13.335  65.250  1.00  0.00    -0.456 C  
HETATM    6  C   UNL     1     -12.374  14.134  64.053  1.00  0.00    -0.275 C  
HETATM    7  C   UNL     1     -11.555  11.944  65.196  1.00  0.00    -0.215 C  
HETATM    8  C   UNL     1     -11.162  11.288  66.465  1.00  0.00    -0.222 A  
HETATM    9  O   UNL     1     -11.473  11.363  64.116  1.00  0.00    -0.288 OA 
HETATM   10  O   UNL     1     -12.748  15.297  64.104  1.00  0.00    -0.651 OA 
HETATM   11  O   UNL     1     -12.227  13.478  62.881  1.00  0.00    -0.434 OA 
HETATM   12  C   UNL     1     -10.591  10.012  66.415  1.00  0.00    -0.138 A  
HETATM   13  C   UNL     1     -10.167   9.405  67.593  1.00  0.00    -0.227 A  
HETATM   14  F   UNL     1      -9.606   8.190  67.496  1.00  0.00    -0.154 F  
HETATM   15  C   UNL     1     -10.319  10.028  68.839  1.00  0.00    -0.202 A  
HETATM   16  C   UNL     1     -11.341  11.970  67.682  1.00  0.00    -0.307 A  
HETATM   17  C   UNL     1     -10.923  11.305  68.847  1.00  0.00    -0.274 A  
BRANCH  15  18
HETATM   18  N   UNL     1      -9.843   9.523  70.045  1.00  0.00    -0.218 NA 
HETATM   19  C   UNL     1     -10.684   9.543  71.255  1.00  0.00    -0.316 C  
HETATM   20  C   UNL     1     -10.198   8.426  72.213  1.00  0.00    -0.326 C  
HETATM   21  N   UNL     1      -8.761   8.510  72.555  1.00  0.00    -0.347 NA 
HETATM   22  H   UNL     1      -8.465   7.741  73.155  1.00  0.00     0.000 HD 
HETATM   23  C   UNL     1      -7.955   8.594  71.321  1.00  0.00    -0.136 C  
HETATM   24  C   UNL     1      -8.413   9.714  70.358  1.00  0.00    -0.146 C  
ENDBRANCH  15  18
ENDBRANCH   2   3
TORSDOF 2
ENDMDL
MODEL       28
REMARK 921   NORMALIZED FREE ENERGY PREDICTED BY IDOCK:   -6.09 KCAL/MOL
REMARK 922        TOTAL FREE ENERGY PREDICTED BY IDOCK:   -7.19 KCAL/MOL
REMARK 923 INTER-LIGAND FREE ENERGY PREDICTED BY IDOCK:   -6.80 KCAL/MOL
REMARK 924 INTRA-LIGAND FREE ENERGY PREDICTED BY IDOCK:   -0.39 KCAL/MOL
REMARK 927      BINDING AFFINITY PREDICTED BY RF-SCORE:    0.00 PKD
ROOT
HETATM    1  C   UNL     1     -10.936  11.109  65.912  1.00  0.00    -0.171 C  
HETATM    2  C   UNL     1     -10.000  11.424  67.071  1.00  0.00    -0.201 C  
ENDROOT
BRANCH   2   3
HETATM    3  N   UNL     1     -10.743  11.906  68.253  1.00  0.00    -0.213 NA 
HETATM    4  C   UNL     1     -11.351  11.008  69.120  1.00  0.00    -0.280 C  
HETATM    5  C   UNL     1     -12.061  11.317  70.216  1.00  0.00    -0.459 C  
HETATM    6  C   UNL     1     -12.634  10.231  71.038  1.00  0.00    -0.390 C  
HETATM    7  C   UNL     1     -12.213  12.749  70.529  1.00  0.00    -0.307 C  
HETATM    8  C   UNL     1     -11.506  13.733  69.678  1.00  0.00    -0.300 A  
HETATM    9  O   UNL     1     -12.902  13.098  71.486  1.00  0.00    -0.358 OA 
HETATM   10  O   UNL     1     -12.480   9.044  70.786  1.00  0.00    -0.144 OA 
HETATM   11  O   UNL     1     -13.345  10.652  72.106  1.00  0.00    -0.444 OA 
HETATM   12  C   UNL     1     -11.546  15.084  70.034  1.00  0.00    -0.324 A  
HETATM   13  C   UNL     1     -10.843  16.014  69.275  1.00  0.00    -0.300 A  
HETATM   14  F   UNL     1     -10.892  17.297  69.666  1.00  0.00    -0.279 F  
HETATM   15  C   UNL     1     -10.110  15.637  68.141  1.00  0.00    -0.222 A  
HETATM   16  C   UNL     1     -10.787  13.287  68.553  1.00  0.00    -0.265 A  
HETATM   17  C   UNL     1     -10.116  14.267  67.802  1.00  0.00    -0.231 A  
BRANCH  15  18
HETATM   18  N   UNL     1      -9.314  16.494  67.387  1.00  0.00    -0.220 NA 
HETATM   19  C   UNL     1      -9.900  17.662  66.706  1.00  0.00    -0.304 C  
HETATM   20  C   UNL     1      -8.788  18.721  66.495  1.00  0.00    -0.312 C  
HETATM   21  N   UNL     1      -7.604  18.212  65.769  1.00  0.00    -0.543 NA 
HETATM   22  H   UNL     1      -6.876  18.920  65.680  1.00  0.00     0.000 HD 
HETATM   23  C   UNL     1      -7.106  16.982  66.418  1.00  0.00    -0.250 C  
HETATM   24  C   UNL     1      -8.197  15.905  66.622  1.00  0.00    -0.282 C  
ENDBRANCH  15  18
ENDBRANCH   2   3
TORSDOF 2
ENDMDL
MODEL       29
REMARK 921   NORMALIZED FREE ENERGY PREDICTED BY IDOCK:   -6.09 KCAL/MOL
REMARK 922        TOTAL FREE ENERGY PREDICTED BY IDOCK:   -7.19 KCAL/MOL
REMARK 923 INTER-LIGAND FREE ENERGY PREDICTED BY IDOCK:   -7.12 KCAL/MOL
REMARK 924 INTRA-LIGAND FREE ENERGY PREDICTED BY IDOCK:   -0.07 KCAL/MOL
REMARK 927      BINDING AFFINITY PREDICTED BY RF-SCORE:    0.00 PKD
ROOT
HETATM    1  C   UNL     1     -10.154   8.928  66.660  1.00  0.00    -0.357 C  
HETATM    2  C   UNL     1      -9.525   9.408  67.961  1.00  0.00    -0.133 C  
ENDROOT
BRANCH   2   3
HETATM    3  N   UNL     1     -10.413   9.165  69.115  1.00  0.00    -0.216 NA 
HETATM    4  C   UNL     1     -10.467   7.913  69.714  1.00  0.00    -0.233 C  
HETATM    5  C   UNL     1     -11.236   7.561  70.755  1.00  0.00    -0.287 C  
HETATM    6  C   UNL     1     -11.163   6.180  71.277  1.00  0.00    -0.287 C  
HETATM    7  C   UNL     1     -12.112   8.604  71.318  1.00  0.00    -0.290 C  
HETATM    8  C   UNL     1     -12.019   9.974  70.764  1.00  0.00    -0.426 A  
HETATM    9  O   UNL     1     -12.884   8.328  72.234  1.00  0.00    -0.325 OA 
HETATM   10  O   UNL     1     -10.413   5.328  70.822  1.00  0.00    -0.253 OA 
HETATM   11  O   UNL     1     -11.992   5.927  72.313  1.00  0.00    -0.295 OA 
HETATM   12  C   UNL     1     -12.757  10.997  71.367  1.00  0.00    -0.534 A  
HETATM   13  C   UNL     1     -12.639  12.299  70.892  1.00  0.00    -0.241 A  
HETATM   14  F   UNL     1     -13.350  13.252  71.514  1.00  0.00    -0.424 F  
HETATM   15  C   UNL     1     -11.814  12.614  69.803  1.00  0.00    -0.309 A  
HETATM   16  C   UNL     1     -11.170  10.222  69.669  1.00  0.00    -0.269 A  
HETATM   17  C   UNL     1     -11.105  11.548  69.208  1.00  0.00    -0.305 A  
BRANCH  15  18
HETATM   18  N   UNL     1     -11.578  13.901  69.330  1.00  0.00    -0.288 NA 
HETATM   19  C   UNL     1     -11.754  15.070  70.209  1.00  0.00    -0.294 C  
HETATM   20  C   UNL     1     -10.874  16.228  69.674  1.00  0.00    -0.345 C  
HETATM   21  N   UNL     1     -11.131  16.575  68.259  1.00  0.00    -0.353 NA 
HETATM   22  H   UNL     1     -10.510  17.312  67.926  1.00  0.00     0.000 HD 
HETATM   23  C   UNL     1     -11.049  15.361  67.421  1.00  0.00    -0.311 C  
HETATM   24  C   UNL     1     -11.934  14.199  67.928  1.00  0.00    -0.343 C  
ENDBRANCH  15  18
ENDBRANCH   2   3
TORSDOF 2
ENDMDL
MODEL       30
REMARK 921   NORMALIZED FREE ENERGY PREDICTED BY IDOCK:   -6.08 KCAL/MOL
REMARK 922        TOTAL FREE ENERGY PREDICTED BY IDOCK:   -7.19 KCAL/MOL
REMARK 923 INTER-LIGAND FREE ENERGY PREDICTED BY IDOCK:   -6.75 KCAL/MOL
REMARK 924 INTRA-LIGAND FREE ENERGY PREDICTED BY IDOCK:   -0.44 KCAL/MOL
REMARK 927      BINDING AFFINITY PREDICTED BY RF-SCORE:    0.00 PKD
ROOT
HETATM    1  C   UNL     1      -7.433   8.006  65.980  1.00  0.00    -0.077 C  
HETATM    2  C   UNL     1      -8.840   7.850  66.541  1.00  0.00    -0.152 C  
ENDROOT
BRANCH   2   3
HETATM    3  N   UNL     1      -9.582   9.126  66.508  1.00  0.00    -0.206 NA 
HETATM    4  C   UNL     1      -9.683   9.855  65.330  1.00  0.00    -0.313 C  
HETATM    5  C   UNL     1     -10.314  11.027  65.171  1.00  0.00    -0.346 C  
HETATM    6  C   UNL     1     -10.333  11.665  63.839  1.00  0.00    -0.369 C  
HETATM    7  C   UNL     1     -10.964  11.601  66.363  1.00  0.00    -0.295 C  
HETATM    8  C   UNL     1     -10.953  10.811  67.617  1.00  0.00    -0.365 A  
HETATM    9  O   UNL     1     -11.507  12.701  66.297  1.00  0.00    -0.323 OA 
HETATM   10  O   UNL     1      -9.816  11.170  62.848  1.00  0.00    -0.317 OA 
HETATM   11  O   UNL     1     -10.979  12.851  63.794  1.00  0.00    -0.413 OA 
HETATM   12  C   UNL     1     -11.666  11.290  68.720  1.00  0.00    -0.405 A  
HETATM   13  C   UNL     1     -11.711  10.534  69.887  1.00  0.00    -0.294 A  
HETATM   14  F   UNL     1     -12.424  11.022  70.914  1.00  0.00    -0.383 F  
HETATM   15  C   UNL     1     -11.036   9.310  69.999  1.00  0.00    -0.205 A  
HETATM   16  C   UNL     1     -10.257   9.589  67.660  1.00  0.00    -0.220 A  
HETATM   17  C   UNL     1     -10.309   8.875  68.869  1.00  0.00    -0.229 A  
BRANCH  15  18
HETATM   18  N   UNL     1     -11.106   8.460  71.098  1.00  0.00    -0.247 NA 
HETATM   19  C   UNL     1     -12.352   7.738  71.413  1.00  0.00    -0.323 C  
HETATM   20  C   UNL     1     -11.995   6.470  72.231  1.00  0.00    -0.231 C  
HETATM   21  N   UNL     1     -11.208   6.745  73.453  1.00  0.00    -0.492 NA 
HETATM   22  H   UNL     1     -10.957   5.889  73.947  1.00  0.00     0.000 HD 
HETATM   23  C   UNL     1     -10.023   7.559  73.115  1.00  0.00    -0.289 C  
HETATM   24  C   UNL     1     -10.359   8.838  72.313  1.00  0.00    -0.250 C  
ENDBRANCH  15  18
ENDBRANCH   2   3
TORSDOF 2
ENDMDL
MODEL       31
REMARK 921   NORMALIZED FREE ENERGY PREDICTED BY IDOCK:   -6.07 KCAL/MOL
REMARK 922        TOTAL FREE ENERGY PREDICTED BY IDOCK:   -7.17 KCAL/MOL
REMARK 923 INTER-LIGAND FREE ENERGY PREDICTED BY IDOCK:   -6.76 KCAL/MOL
REMARK 924 INTRA-LIGAND FREE ENERGY PREDICTED BY IDOCK:   -0.41 KCAL/MOL
REMARK 927      BINDING AFFINITY PREDICTED BY RF-SCORE:    0.00 PKD
ROOT
HETATM    1  C   UNL     1     -12.751  11.773  63.360  1.00  0.00    -0.395 C  
HETATM    2  C   UNL     1     -11.255  11.605  63.586  1.00  0.00    -0.411 C  
ENDROOT
BRANCH   2   3
HETATM    3  N   UNL     1     -10.739  12.593  64.554  1.00  0.00    -0.320 NA 
HETATM    4  C   UNL     1     -10.973  13.950  64.373  1.00  0.00    -0.308 C  
HETATM    5  C   UNL     1     -10.550  14.943  65.169  1.00  0.00    -0.450 C  
HETATM    6  C   UNL     1     -10.899  16.339  64.833  1.00  0.00    -0.296 C  
HETATM    7  C   UNL     1      -9.758  14.558  66.351  1.00  0.00    -0.296 C  
HETATM    8  C   UNL     1      -9.562  13.116  66.626  1.00  0.00    -0.260 A  
HETATM    9  O   UNL     1      -9.292  15.426  67.087  1.00  0.00    -0.205 OA 
HETATM   10  O   UNL     1     -11.580  16.648  63.866  1.00  0.00    -1.204 OA 
HETATM   11  O   UNL     1     -10.408  17.261  65.689  1.00  0.00    -0.580 OA 
HETATM   12  C   UNL     1      -8.914  12.737  67.806  1.00  0.00    -0.190 A  
HETATM   13  C   UNL     1      -8.770  11.386  68.105  1.00  0.00    -0.154 A  
HETATM   14  F   UNL     1      -8.161  11.068  69.258  1.00  0.00    -0.148 F  
HETATM   15  C   UNL     1      -9.236  10.386  67.240  1.00  0.00    -0.142 A  
HETATM   16  C   UNL     1     -10.057  12.164  65.716  1.00  0.00    -0.247 A  
HETATM   17  C   UNL     1      -9.862  10.812  66.048  1.00  0.00    -0.285 A  
BRANCH  15  18
HETATM   18  N   UNL     1      -9.207   9.022  67.511  1.00  0.00    -0.135 NA 
HETATM   19  C   UNL     1     -10.205   8.411  68.407  1.00  0.00    -0.206 C  
HETATM   20  C   UNL     1     -10.333   6.907  68.052  1.00  0.00    -0.192 C  
HETATM   21  N   UNL     1      -9.051   6.170  68.091  1.00  0.00    -0.113 NA 
HETATM   22  H   UNL     1      -9.163   5.194  67.815  1.00  0.00     0.000 HD 
HETATM   23  C   UNL     1      -8.045   6.867  67.265  1.00  0.00    -0.118 C  
HETATM   24  C   UNL     1      -7.889   8.366  67.615  1.00  0.00    -0.107 C  
ENDBRANCH  15  18
ENDBRANCH   2   3
TORSDOF 2
ENDMDL
MODEL       32
REMARK 921   NORMALIZED FREE ENERGY PREDICTED BY IDOCK:   -6.06 KCAL/MOL
REMARK 922        TOTAL FREE ENERGY PREDICTED BY IDOCK:   -7.16 KCAL/MOL
REMARK 923 INTER-LIGAND FREE ENERGY PREDICTED BY IDOCK:   -6.78 KCAL/MOL
REMARK 924 INTRA-LIGAND FREE ENERGY PREDICTED BY IDOCK:   -0.38 KCAL/MOL
REMARK 927      BINDING AFFINITY PREDICTED BY RF-SCORE:    0.00 PKD
ROOT
HETATM    1  C   UNL     1     -10.894   6.611  66.940  1.00  0.00    -0.415 C  
HETATM    2  C   UNL     1     -10.298   7.859  67.577  1.00  0.00    -0.259 C  
ENDROOT
BRANCH   2   3
HETATM    3  N   UNL     1     -10.744   8.021  68.974  1.00  0.00    -0.147 NA 
HETATM    4  C   UNL     1     -10.620   6.977  69.882  1.00  0.00    -0.229 C  
HETATM    5  C   UNL     1     -10.996   6.992  71.169  1.00  0.00    -0.275 C  
HETATM    6  C   UNL     1     -10.782   5.790  72.001  1.00  0.00    -0.233 C  
HETATM    7  C   UNL     1     -11.602   8.238  71.671  1.00  0.00    -0.284 C  
HETATM    8  C   UNL     1     -11.670   9.404  70.759  1.00  0.00    -0.349 A  
HETATM    9  O   UNL     1     -12.021   8.296  72.825  1.00  0.00    -0.377 OA 
HETATM   10  O   UNL     1     -10.253   4.769  71.584  1.00  0.00    -0.194 OA 
HETATM   11  O   UNL     1     -11.213   5.906  73.276  1.00  0.00    -0.227 OA 
HETATM   12  C   UNL     1     -12.133  10.624  71.258  1.00  0.00    -0.401 A  
HETATM   13  C   UNL     1     -12.153  11.741  70.429  1.00  0.00    -0.352 A  
HETATM   14  F   UNL     1     -12.585  12.897  70.956  1.00  0.00    -0.419 F  
HETATM   15  C   UNL     1     -11.743  11.671  69.090  1.00  0.00    -0.326 A  
HETATM   16  C   UNL     1     -11.240   9.266  69.426  1.00  0.00     0.052 A  
HETATM   17  C   UNL     1     -11.305  10.414  68.619  1.00  0.00    -0.277 A  
BRANCH  15  18
HETATM   18  N   UNL     1     -11.652  12.760  68.228  1.00  0.00    -0.312 NA 
HETATM   19  C   UNL     1     -11.766  12.577  66.770  1.00  0.00    -0.384 C  
HETATM   20  C   UNL     1     -12.243  13.911  66.141  1.00  0.00    -0.464 C  
HETATM   21  N   UNL     1     -11.387  15.071  66.473  1.00  0.00    -0.319 NA 
HETATM   22  H   UNL     1     -11.748  15.939  66.076  1.00  0.00     0.000 HD 
HETATM   23  C   UNL     1     -11.208  15.162  67.935  1.00  0.00    -0.329 C  
HETATM   24  C   UNL     1     -10.717  13.846  68.582  1.00  0.00    -0.260 C  
ENDBRANCH  15  18
ENDBRANCH   2   3
TORSDOF 2
ENDMDL
MODEL       33
REMARK 921   NORMALIZED FREE ENERGY PREDICTED BY IDOCK:   -6.02 KCAL/MOL
REMARK 922        TOTAL FREE ENERGY PREDICTED BY IDOCK:   -7.12 KCAL/MOL
REMARK 923 INTER-LIGAND FREE ENERGY PREDICTED BY IDOCK:   -6.72 KCAL/MOL
REMARK 924 INTRA-LIGAND FREE ENERGY PREDICTED BY IDOCK:   -0.40 KCAL/MOL
REMARK 927      BINDING AFFINITY PREDICTED BY RF-SCORE:    0.00 PKD
ROOT
HETATM    1  C   UNL     1      -5.798  13.560  68.220  1.00  0.00    -0.100 C  
HETATM    2  C   UNL     1      -7.221  13.730  68.735  1.00  0.00    -0.106 C  
ENDROOT
BRANCH   2   3
HETATM    3  N   UNL     1      -8.208  13.147  67.805  1.00  0.00    -0.154 NA 
HETATM    4  C   UNL     1      -8.500  11.790  67.843  1.00  0.00    -0.154 C  
HETATM    5  C   UNL     1      -9.364  11.140  67.048  1.00  0.00    -0.182 C  
HETATM    6  C   UNL     1      -9.564   9.687  67.232  1.00  0.00    -0.164 C  
HETATM    7  C   UNL     1     -10.070  11.942  66.034  1.00  0.00    -0.231 C  
HETATM    8  C   UNL     1      -9.851  13.407  66.020  1.00  0.00    -0.273 A  
HETATM    9  O   UNL     1     -10.829  11.395  65.237  1.00  0.00    -0.284 OA 
HETATM   10  O   UNL     1      -8.995   9.033  68.094  1.00  0.00    -0.133 OA 
HETATM   11  O   UNL     1     -10.439   9.129  66.368  1.00  0.00    -0.213 OA 
HETATM   12  C   UNL     1     -10.603  14.193  65.141  1.00  0.00    -0.414 A  
HETATM   13  C   UNL     1     -10.447  15.575  65.154  1.00  0.00    -0.403 A  
HETATM   14  F   UNL     1     -11.205  16.291  64.309  1.00  0.00    -0.491 F  
HETATM   15  C   UNL     1      -9.534  16.206  66.010  1.00  0.00    -0.339 A  
HETATM   16  C   UNL     1      -8.919  13.977  66.908  1.00  0.00    -0.227 A  
HETATM   17  C   UNL     1      -8.777  15.374  66.863  1.00  0.00    -0.285 A  
BRANCH  15  18
HETATM   18  N   UNL     1      -9.386  17.584  66.141  1.00  0.00    -0.478 NA 
HETATM   19  C   UNL     1      -8.097  18.167  66.553  1.00  0.00    -0.269 C  
HETATM   20  C   UNL     1      -8.025  19.625  66.033  1.00  0.00    -0.328 C  
HETATM   21  N   UNL     1      -9.161  20.472  66.460  1.00  0.00    -0.593 NA 
HETATM   22  H   UNL     1      -9.104  21.413  66.070  1.00  0.00     0.000 HD 
HETATM   23  C   UNL     1     -10.437  19.808  66.125  1.00  0.00    -0.509 C  
HETATM   24  C   UNL     1     -10.536  18.357  66.650  1.00  0.00    -0.385 C  
ENDBRANCH  15  18
ENDBRANCH   2   3
TORSDOF 2
ENDMDL
MODEL       34
REMARK 921   NORMALIZED FREE ENERGY PREDICTED BY IDOCK:   -6.00 KCAL/MOL
REMARK 922        TOTAL FREE ENERGY PREDICTED BY IDOCK:   -7.09 KCAL/MOL
REMARK 923 INTER-LIGAND FREE ENERGY PREDICTED BY IDOCK:   -6.74 KCAL/MOL
REMARK 924 INTRA-LIGAND FREE ENERGY PREDICTED BY IDOCK:   -0.35 KCAL/MOL
REMARK 927      BINDING AFFINITY PREDICTED BY RF-SCORE:    0.00 PKD
ROOT
HETATM    1  C   UNL     1     -12.632  10.860  70.979  1.00  0.00    -0.517 C  
HETATM    2  C   UNL     1     -11.852  11.451  69.812  1.00  0.00    -0.364 C  
ENDROOT
BRANCH   2   3
HETATM    3  N   UNL     1     -11.331  10.397  68.919  1.00  0.00    -0.241 NA 
HETATM    4  C   UNL     1     -11.272   9.076  69.344  1.00  0.00     0.122 C  
HETATM    5  C   UNL     1     -10.811   8.033  68.637  1.00  0.00     0.035 C  
HETATM    6  C   UNL     1     -10.830   6.684  69.240  1.00  0.00    -0.289 C  
HETATM    7  C   UNL     1     -10.317   8.315  67.278  1.00  0.00    -0.302 C  
HETATM    8  C   UNL     1     -10.445   9.696  66.757  1.00  0.00    -0.257 A  
HETATM    9  O   UNL     1      -9.827   7.412  66.603  1.00  0.00    -0.209 OA 
HETATM   10  O   UNL     1     -11.268   6.453  70.359  1.00  0.00    -0.314 OA 
HETATM   11  O   UNL     1     -10.327   5.710  68.452  1.00  0.00    -0.178 OA 
HETATM   12  C   UNL     1     -10.088   9.951  65.429  1.00  0.00    -0.270 A  
HETATM   13  C   UNL     1     -10.253  11.230  64.909  1.00  0.00    -0.286 A  
HETATM   14  F   UNL     1      -9.919  11.425  63.624  1.00  0.00    -0.257 F  
HETATM   15  C   UNL     1     -10.746  12.286  65.691  1.00  0.00    -0.267 A  
HETATM   16  C   UNL     1     -10.948  10.709  67.595  1.00  0.00    -0.310 A  
HETATM   17  C   UNL     1     -11.070  11.991  67.033  1.00  0.00    -0.351 A  
BRANCH  15  18
HETATM   18  N   UNL     1     -11.019  13.566  65.218  1.00  0.00    -0.287 NA 
HETATM   19  C   UNL     1     -11.892  13.765  64.048  1.00  0.00    -0.370 C  
HETATM   20  C   UNL     1     -12.504  15.188  64.124  1.00  0.00     0.029 C  
HETATM   21  N   UNL     1     -11.500  16.268  64.238  1.00  0.00    -1.168 NA 
HETATM   22  H   UNL     1     -11.934  17.186  64.325  1.00  0.00     0.000 HD 
HETATM   23  C   UNL     1     -10.578  15.982  65.355  1.00  0.00    -0.408 C  
HETATM   24  C   UNL     1      -9.943  14.574  65.289  1.00  0.00    -0.287 C  
ENDBRANCH  15  18
ENDBRANCH   2   3
TORSDOF 2
ENDMDL
MODEL       35
REMARK 921   NORMALIZED FREE ENERGY PREDICTED BY IDOCK:   -5.97 KCAL/MOL
REMARK 922        TOTAL FREE ENERGY PREDICTED BY IDOCK:   -7.05 KCAL/MOL
REMARK 923 INTER-LIGAND FREE ENERGY PREDICTED BY IDOCK:   -6.64 KCAL/MOL
REMARK 924 INTRA-LIGAND FREE ENERGY PREDICTED BY IDOCK:   -0.41 KCAL/MOL
REMARK 927      BINDING AFFINITY PREDICTED BY RF-SCORE:    0.00 PKD
ROOT
HETATM    1  C   UNL     1     -13.062  10.634  71.741  1.00  0.00    -0.571 C  
HETATM    2  C   UNL     1     -12.028  10.154  70.732  1.00  0.00    -0.348 C  
ENDROOT
BRANCH   2   3
HETATM    3  N   UNL     1     -11.787  11.161  69.680  1.00  0.00    -0.318 NA 
HETATM    4  C   UNL     1     -11.971  12.513  69.940  1.00  0.00    -0.301 C  
HETATM    5  C   UNL     1     -11.800  13.521  69.071  1.00  0.00    -0.385 C  
HETATM    6  C   UNL     1     -12.030  14.910  69.519  1.00  0.00    -0.310 C  
HETATM    7  C   UNL     1     -11.376  13.160  67.707  1.00  0.00    -0.290 C  
HETATM    8  C   UNL     1     -11.085  11.737  67.415  1.00  0.00    -0.338 A  
HETATM    9  O   UNL     1     -11.260  14.033  66.849  1.00  0.00    -0.297 OA 
HETATM   10  O   UNL     1     -12.355  15.204  70.661  1.00  0.00    -0.316 OA 
HETATM   11  O   UNL     1     -11.848  15.845  68.562  1.00  0.00    -0.366 OA 
HETATM   12  C   UNL     1     -10.570  11.398  66.160  1.00  0.00    -0.316 A  
HETATM   13  C   UNL     1     -10.241  10.074  65.890  1.00  0.00    -0.205 A  
HETATM   14  F   UNL     1      -9.731   9.797  64.680  1.00  0.00    -0.348 F  
HETATM   15  C   UNL     1     -10.435   9.058  66.837  1.00  0.00    -0.223 A  
HETATM   16  C   UNL     1     -11.301  10.767  68.412  1.00  0.00    -0.302 A  
HETATM   17  C   UNL     1     -10.980   9.440  68.082  1.00  0.00    -0.102 A  
BRANCH  15  18
HETATM   18  N   UNL     1     -10.050   7.731  66.671  1.00  0.00    -0.249 NA 
HETATM   19  C   UNL     1     -10.899   6.633  67.167  1.00  0.00    -0.401 C  
HETATM   20  C   UNL     1     -10.585   5.356  66.346  1.00  0.00    -0.260 C  
HETATM   21  N   UNL     1      -9.155   4.976  66.350  1.00  0.00    -0.125 NA 
HETATM   22  H   UNL     1      -8.976   4.156  65.771  1.00  0.00     0.000 HD 
HETATM   23  C   UNL     1      -8.327   6.130  65.948  1.00  0.00    -0.140 C  
HETATM   24  C   UNL     1      -8.612   7.411  66.767  1.00  0.00    -0.127 C  
ENDBRANCH  15  18
ENDBRANCH   2   3
TORSDOF 2
ENDMDL
MODEL       36
REMARK 921   NORMALIZED FREE ENERGY PREDICTED BY IDOCK:   -5.92 KCAL/MOL
REMARK 922        TOTAL FREE ENERGY PREDICTED BY IDOCK:   -7.00 KCAL/MOL
REMARK 923 INTER-LIGAND FREE ENERGY PREDICTED BY IDOCK:   -6.62 KCAL/MOL
REMARK 924 INTRA-LIGAND FREE ENERGY PREDICTED BY IDOCK:   -0.39 KCAL/MOL
REMARK 927      BINDING AFFINITY PREDICTED BY RF-SCORE:    0.00 PKD
ROOT
HETATM    1  C   UNL     1     -12.698  15.233  71.453  1.00  0.00    -0.462 C  
HETATM    2  C   UNL     1     -12.544  13.745  71.171  1.00  0.00    -0.373 C  
ENDROOT
BRANCH   2   3
HETATM    3  N   UNL     1     -11.845  13.504  69.894  1.00  0.00    -0.317 NA 
HETATM    4  C   UNL     1     -11.520  14.561  69.055  1.00  0.00    -0.290 C  
HETATM    5  C   UNL     1     -10.900  14.475  67.868  1.00  0.00    -0.260 C  
HETATM    6  C   UNL     1     -10.621  15.709  67.105  1.00  0.00    -0.308 C  
HETATM    7  C   UNL     1     -10.529  13.125  67.408  1.00  0.00    -0.242 C  
HETATM    8  C   UNL     1     -10.779  11.980  68.314  1.00  0.00    -0.252 A  
HETATM    9  O   UNL     1     -10.012  12.974  66.303  1.00  0.00    -0.271 OA 
HETATM   10  O   UNL     1     -10.907  16.828  67.507  1.00  0.00    -0.307 OA 
HETATM   11  O   UNL     1     -10.011  15.507  65.917  1.00  0.00    -0.296 OA 
HETATM   12  C   UNL     1     -10.325  10.712  67.939  1.00  0.00    -0.231 A  
HETATM   13  C   UNL     1     -10.504   9.637  68.803  1.00  0.00    -0.215 A  
HETATM   14  F   UNL     1     -10.034   8.443  68.412  1.00  0.00    -0.170 F  
HETATM   15  C   UNL     1     -11.155   9.783  70.037  1.00  0.00    -0.267 A  
HETATM   16  C   UNL     1     -11.437  12.197  69.539  1.00  0.00    -0.265 A  
HETATM   17  C   UNL     1     -11.620  11.075  70.365  1.00  0.00    -0.389 A  
BRANCH  15  18
HETATM   18  N   UNL     1     -11.293   8.777  70.988  1.00  0.00    -0.267 NA 
HETATM   19  C   UNL     1     -10.172   8.421  71.875  1.00  0.00    -0.270 C  
HETATM   20  C   UNL     1     -10.746   7.779  73.164  1.00  0.00    -0.351 C  
HETATM   21  N   UNL     1     -11.626   6.616  72.915  1.00  0.00    -0.492 NA 
HETATM   22  H   UNL     1     -12.018   6.241  73.778  1.00  0.00     0.000 HD 
HETATM   23  C   UNL     1     -12.676   6.979  71.942  1.00  0.00    -0.278 C  
HETATM   24  C   UNL     1     -12.123   7.607  70.641  1.00  0.00    -0.043 C  
ENDBRANCH  15  18
ENDBRANCH   2   3
TORSDOF 2
ENDMDL
MODEL       37
REMARK 921   NORMALIZED FREE ENERGY PREDICTED BY IDOCK:   -5.90 KCAL/MOL
REMARK 922        TOTAL FREE ENERGY PREDICTED BY IDOCK:   -6.99 KCAL/MOL
REMARK 923 INTER-LIGAND FREE ENERGY PREDICTED BY IDOCK:   -6.57 KCAL/MOL
REMARK 924 INTRA-LIGAND FREE ENERGY PREDICTED BY IDOCK:   -0.42 KCAL/MOL
REMARK 927      BINDING AFFINITY PREDICTED BY RF-SCORE:    0.00 PKD
ROOT
HETATM    1  C   UNL     1     -14.112   8.637  71.916  1.00  0.00    -0.512 C  
HETATM    2  C   UNL     1     -12.771   9.281  72.240  1.00  0.00    -0.363 C  
ENDROOT
BRANCH   2   3
HETATM    3  N   UNL     1     -12.523  10.470  71.403  1.00  0.00    -0.397 NA 
HETATM    4  C   UNL     1     -12.931  11.729  71.824  1.00  0.00    -0.361 C  
HETATM    5  C   UNL     1     -12.777  12.881  71.154  1.00  0.00    -0.366 C  
HETATM    6  C   UNL     1     -13.264  14.140  71.756  1.00  0.00    -0.373 C  
HETATM    7  C   UNL     1     -12.112  12.805  69.841  1.00  0.00    -0.259 C  
HETATM    8  C   UNL     1     -11.584  11.494  69.397  1.00  0.00    -0.388 A  
HETATM    9  O   UNL     1     -11.995  13.816  69.153  1.00  0.00    -0.331 OA 
HETATM   10  O   UNL     1     -13.790  14.199  72.858  1.00  0.00    -0.639 OA 
HETATM   11  O   UNL     1     -13.076  15.237  70.990  1.00  0.00    -0.423 OA 
HETATM   12  C   UNL     1     -10.849  11.432  68.210  1.00  0.00    -0.253 A  
HETATM   13  C   UNL     1     -10.300  10.218  67.806  1.00  0.00    -0.204 A  
HETATM   14  F   UNL     1      -9.584  10.209  66.672  1.00  0.00    -0.185 F  
HETATM   15  C   UNL     1     -10.486   9.043  68.548  1.00  0.00    -0.196 A  
HETATM   16  C   UNL     1     -11.806  10.353  70.190  1.00  0.00    -0.297 A  
HETATM   17  C   UNL     1     -11.256   9.145  69.727  1.00  0.00    -0.073 A  
BRANCH  15  18
HETATM   18  N   UNL     1      -9.898   7.816  68.256  1.00  0.00    -0.162 NA 
HETATM   19  C   UNL     1     -10.503   6.909  67.264  1.00  0.00    -0.287 C  
HETATM   20  C   UNL     1      -9.395   5.984  66.700  1.00  0.00    -0.144 C  
HETATM   21  N   UNL     1      -8.654   5.232  67.736  1.00  0.00    -0.105 NA 
HETATM   22  H   UNL     1      -7.908   4.664  67.337  1.00  0.00     0.000 HD 
HETATM   23  C   UNL     1      -8.151   6.161  68.768  1.00  0.00    -0.105 C  
HETATM   24  C   UNL     1      -9.245   7.082  69.357  1.00  0.00    -0.147 C  
ENDBRANCH  15  18
ENDBRANCH   2   3
TORSDOF 2
ENDMDL
MODEL       38
REMARK 921   NORMALIZED FREE ENERGY PREDICTED BY IDOCK:   -5.88 KCAL/MOL
REMARK 922        TOTAL FREE ENERGY PREDICTED BY IDOCK:   -6.96 KCAL/MOL
REMARK 923 INTER-LIGAND FREE ENERGY PREDICTED BY IDOCK:   -6.62 KCAL/MOL
REMARK 924 INTRA-LIGAND FREE ENERGY PREDICTED BY IDOCK:   -0.34 KCAL/MOL
REMARK 927      BINDING AFFINITY PREDICTED BY RF-SCORE:    0.00 PKD
ROOT
HETATM    1  C   UNL     1     -11.171  13.098  66.808  1.00  0.00    -0.330 C  
HETATM    2  C   UNL     1     -10.347  12.523  67.951  1.00  0.00    -0.216 C  
ENDROOT
BRANCH   2   3
HETATM    3  N   UNL     1     -11.168  12.316  69.161  1.00  0.00    -0.250 NA 
HETATM    4  C   UNL     1     -11.885  13.367  69.718  1.00  0.00    -0.326 C  
HETATM    5  C   UNL     1     -12.653  13.312  70.816  1.00  0.00    -0.357 C  
HETATM    6  C   UNL     1     -13.358  14.529  71.268  1.00  0.00    -0.365 C  
HETATM    7  C   UNL     1     -12.746  12.010  71.500  1.00  0.00    -0.255 C  
HETATM    8  C   UNL     1     -12.067  10.845  70.887  1.00  0.00    -0.455 A  
HETATM    9  O   UNL     1     -13.386  11.910  72.545  1.00  0.00    -0.249 OA 
HETATM   10  O   UNL     1     -13.299  15.600  70.678  1.00  0.00    -0.494 OA 
HETATM   11  O   UNL     1     -14.089  14.369  72.392  1.00  0.00    -0.477 OA 
HETATM   12  C   UNL     1     -12.244   9.583  71.462  1.00  0.00    -0.468 A  
HETATM   13  C   UNL     1     -11.657   8.471  70.868  1.00  0.00    -0.263 A  
HETATM   14  F   UNL     1     -11.872   7.276  71.441  1.00  0.00    -0.280 F  
HETATM   15  C   UNL     1     -10.867   8.582  69.715  1.00  0.00    -0.175 A  
HETATM   16  C   UNL     1     -11.288  11.027  69.729  1.00  0.00    -0.292 A  
HETATM   17  C   UNL     1     -10.693   9.878  69.182  1.00  0.00    -0.247 A  
BRANCH  15  18
HETATM   18  N   UNL     1     -10.322   7.509  69.017  1.00  0.00    -0.209 NA 
HETATM   19  C   UNL     1     -11.157   6.355  68.639  1.00  0.00    -0.311 C  
HETATM   20  C   UNL     1     -10.516   5.662  67.409  1.00  0.00    -0.241 C  
HETATM   21  N   UNL     1      -9.106   5.264  67.612  1.00  0.00    -0.109 NA 
HETATM   22  H   UNL     1      -8.702   4.846  66.774  1.00  0.00     0.000 HD 
HETATM   23  C   UNL     1      -8.320   6.419  68.090  1.00  0.00    -0.116 C  
HETATM   24  C   UNL     1      -8.934   7.115  69.328  1.00  0.00    -0.138 C  
ENDBRANCH  15  18
ENDBRANCH   2   3
TORSDOF 2
ENDMDL
MODEL       39
REMARK 921   NORMALIZED FREE ENERGY PREDICTED BY IDOCK:   -5.86 KCAL/MOL
REMARK 922        TOTAL FREE ENERGY PREDICTED BY IDOCK:   -6.94 KCAL/MOL
REMARK 923 INTER-LIGAND FREE ENERGY PREDICTED BY IDOCK:   -6.57 KCAL/MOL
REMARK 924 INTRA-LIGAND FREE ENERGY PREDICTED BY IDOCK:   -0.37 KCAL/MOL
REMARK 927      BINDING AFFINITY PREDICTED BY RF-SCORE:    0.00 PKD
ROOT
HETATM    1  C   UNL     1     -11.985  12.619  63.634  1.00  0.00    -0.615 C  
HETATM    2  C   UNL     1     -11.361  13.718  64.484  1.00  0.00    -0.380 C  
ENDROOT
BRANCH   2   3
HETATM    3  N   UNL     1     -10.581  13.159  65.606  1.00  0.00    -0.273 NA 
HETATM    4  C   UNL     1     -10.373  11.790  65.710  1.00  0.00    -0.253 C  
HETATM    5  C   UNL     1      -9.697  11.159  66.682  1.00  0.00    -0.224 C  
HETATM    6  C   UNL     1      -9.563   9.688  66.634  1.00  0.00    -0.187 C  
HETATM    7  C   UNL     1      -9.119  12.000  67.745  1.00  0.00    -0.187 C  
HETATM    8  C   UNL     1      -9.244  13.471  67.623  1.00  0.00    -0.214 A  
HETATM    9  O   UNL     1      -8.540  11.477  68.695  1.00  0.00    -0.158 OA 
HETATM   10  O   UNL     1     -10.022   9.000  65.733  1.00  0.00    -0.241 OA 
HETATM   11  O   UNL     1      -8.880   9.153  67.669  1.00  0.00    -0.120 OA 
HETATM   12  C   UNL     1      -8.599  14.282  68.561  1.00  0.00    -0.175 A  
HETATM   13  C   UNL     1      -8.662  15.665  68.429  1.00  0.00    -0.178 A  
HETATM   14  F   UNL     1      -8.011  16.405  69.340  1.00  0.00    -0.241 F  
HETATM   15  C   UNL     1      -9.378  16.275  67.389  1.00  0.00    -0.221 A  
HETATM   16  C   UNL     1      -9.977  14.018  66.553  1.00  0.00    -0.284 A  
HETATM   17  C   UNL     1     -10.035  15.419  66.478  1.00  0.00    -0.282 A  
BRANCH  15  18
HETATM   18  N   UNL     1      -9.414  17.644  67.142  1.00  0.00    -0.261 NA 
HETATM   19  C   UNL     1      -8.168  18.402  66.929  1.00  0.00    -0.247 C  
HETATM   20  C   UNL     1      -8.497  19.670  66.100  1.00  0.00    -0.334 C  
HETATM   21  N   UNL     1      -9.551  20.521  66.695  1.00  0.00    -0.650 NA 
HETATM   22  H   UNL     1      -9.771  21.324  66.108  1.00  0.00     0.000 HD 
HETATM   23  C   UNL     1     -10.747  19.706  66.992  1.00  0.00    -0.455 C  
HETATM   24  C   UNL     1     -10.443  18.445  67.834  1.00  0.00    -0.391 C  
ENDBRANCH  15  18
ENDBRANCH   2   3
TORSDOF 2
ENDMDL
MODEL       40
REMARK 921   NORMALIZED FREE ENERGY PREDICTED BY IDOCK:   -5.86 KCAL/MOL
REMARK 922        TOTAL FREE ENERGY PREDICTED BY IDOCK:   -6.94 KCAL/MOL
REMARK 923 INTER-LIGAND FREE ENERGY PREDICTED BY IDOCK:   -6.51 KCAL/MOL
REMARK 924 INTRA-LIGAND FREE ENERGY PREDICTED BY IDOCK:   -0.43 KCAL/MOL
REMARK 927      BINDING AFFINITY PREDICTED BY RF-SCORE:    0.00 PKD
ROOT
HETATM    1  C   UNL     1      -7.175  12.686  67.902  1.00  0.00    -0.116 C  
HETATM    2  C   UNL     1      -7.765  14.025  68.325  1.00  0.00    -0.141 C  
ENDROOT
BRANCH   2   3
HETATM    3  N   UNL     1      -8.897  14.416  67.462  1.00  0.00    -0.183 NA 
HETATM    4  C   UNL     1      -9.855  13.483  67.086  1.00  0.00    -0.245 C  
HETATM    5  C   UNL     1     -10.919  13.708  66.301  1.00  0.00    -0.300 C  
HETATM    6  C   UNL     1     -11.850  12.599  66.008  1.00  0.00    -0.436 C  
HETATM    7  C   UNL     1     -11.087  15.077  65.783  1.00  0.00    -0.346 C  
HETATM    8  C   UNL     1     -10.135  16.120  66.232  1.00  0.00    -0.337 A  
HETATM    9  O   UNL     1     -12.008  15.332  65.010  1.00  0.00    -0.179 OA 
HETATM   10  O   UNL     1     -11.719  11.471  66.464  1.00  0.00    -0.455 OA 
HETATM   11  O   UNL     1     -12.875  12.928  65.193  1.00  0.00    -0.702 OA 
HETATM   12  C   UNL     1     -10.354  17.444  65.842  1.00  0.00    -0.276 A  
HETATM   13  C   UNL     1      -9.501  18.443  66.299  1.00  0.00    -0.241 A  
HETATM   14  F   UNL     1      -9.760  19.703  65.917  1.00  0.00    -0.402 F  
HETATM   15  C   UNL     1      -8.405  18.155  67.125  1.00  0.00    -0.238 A  
HETATM   16  C   UNL     1      -9.057  15.762  67.062  1.00  0.00    -0.220 A  
HETATM   17  C   UNL     1      -8.206  16.801  67.475  1.00  0.00    -0.187 A  
BRANCH  15  18
HETATM   18  N   UNL     1      -7.562  19.107  67.691  1.00  0.00    -0.237 NA 
HETATM   19  C   UNL     1      -6.538  19.784  66.877  1.00  0.00    -0.193 C  
HETATM   20  C   UNL     1      -6.204  21.147  67.535  1.00  0.00    -0.363 C  
HETATM   21  N   UNL     1      -5.786  21.044  68.951  1.00  0.00    -0.341 NA 
HETATM   22  H   UNL     1      -5.611  21.959  69.366  1.00  0.00     0.000 HD 
HETATM   23  C   UNL     1      -6.785  20.270  69.715  1.00  0.00    -0.104 C  
HETATM   24  C   UNL     1      -7.120  18.898  69.083  1.00  0.00    -0.269 C  
ENDBRANCH  15  18
ENDBRANCH   2   3
TORSDOF 2
ENDMDL
MODEL       41
REMARK 921   NORMALIZED FREE ENERGY PREDICTED BY IDOCK:   -5.86 KCAL/MOL
REMARK 922        TOTAL FREE ENERGY PREDICTED BY IDOCK:   -6.93 KCAL/MOL
REMARK 923 INTER-LIGAND FREE ENERGY PREDICTED BY IDOCK:   -6.51 KCAL/MOL
REMARK 924 INTRA-LIGAND FREE ENERGY PREDICTED BY IDOCK:   -0.43 KCAL/MOL
REMARK 927      BINDING AFFINITY PREDICTED BY RF-SCORE:    0.00 PKD
ROOT
HETATM    1  C   UNL     1     -14.385   8.139  71.937  1.00  0.00    -0.566 C  
HETATM    2  C   UNL     1     -13.421   9.315  72.031  1.00  0.00    -0.451 C  
ENDROOT
BRANCH   2   3
HETATM    3  N   UNL     1     -12.015   8.869  71.979  1.00  0.00    -0.362 NA 
HETATM    4  C   UNL     1     -11.583   7.799  72.752  1.00  0.00    -0.314 C  
HETATM    5  C   UNL     1     -10.336   7.307  72.805  1.00  0.00    -0.282 C  
HETATM    6  C   UNL     1     -10.050   6.151  73.679  1.00  0.00    -0.221 C  
HETATM    7  C   UNL     1      -9.324   7.967  71.961  1.00  0.00    -0.178 C  
HETATM    8  C   UNL     1      -9.764   9.055  71.056  1.00  0.00    -0.348 A  
HETATM    9  O   UNL     1      -8.151   7.601  72.009  1.00  0.00    -0.094 OA 
HETATM   10  O   UNL     1     -10.901   5.591  74.355  1.00  0.00    -0.212 OA 
HETATM   11  O   UNL     1      -8.760   5.748  73.671  1.00  0.00    -0.122 OA 
HETATM   12  C   UNL     1      -8.838   9.607  70.167  1.00  0.00    -0.266 A  
HETATM   13  C   UNL     1      -9.249  10.592  69.274  1.00  0.00    -0.148 A  
HETATM   14  F   UNL     1      -8.332  11.079  68.424  1.00  0.00    -0.112 F  
HETATM   15  C   UNL     1     -10.568  11.067  69.257  1.00  0.00    -0.201 A  
HETATM   16  C   UNL     1     -11.104   9.483  71.089  1.00  0.00    -0.379 A  
HETATM   17  C   UNL     1     -11.465  10.499  70.188  1.00  0.00    -0.405 A  
BRANCH  15  18
HETATM   18  N   UNL     1     -11.072  11.983  68.338  1.00  0.00    -0.226 NA 
HETATM   19  C   UNL     1     -11.955  13.079  68.776  1.00  0.00    -0.266 C  
HETATM   20  C   UNL     1     -11.854  14.235  67.748  1.00  0.00    -0.379 C  
HETATM   21  N   UNL     1     -12.148  13.829  66.356  1.00  0.00    -0.431 NA 
HETATM   22  H   UNL     1     -12.035  14.602  65.700  1.00  0.00     0.000 HD 
HETATM   23  C   UNL     1     -11.320  12.663  65.987  1.00  0.00    -0.327 C  
HETATM   24  C   UNL     1     -11.420  11.491  66.991  1.00  0.00    -0.214 C  
ENDBRANCH  15  18
ENDBRANCH   2   3
TORSDOF 2
ENDMDL
MODEL       42
REMARK 921   NORMALIZED FREE ENERGY PREDICTED BY IDOCK:   -5.84 KCAL/MOL
REMARK 922        TOTAL FREE ENERGY PREDICTED BY IDOCK:   -6.92 KCAL/MOL
REMARK 923 INTER-LIGAND FREE ENERGY PREDICTED BY IDOCK:   -6.58 KCAL/MOL
REMARK 924 INTRA-LIGAND FREE ENERGY PREDICTED BY IDOCK:   -0.34 KCAL/MOL
REMARK 927      BINDING AFFINITY PREDICTED BY RF-SCORE:    0.00 PKD
ROOT
HETATM    1  C   UNL     1      -7.637  16.259  67.055  1.00  0.00    -0.250 C  
HETATM    2  C   UNL     1      -8.169  15.004  67.733  1.00  0.00    -0.153 C  
ENDROOT
BRANCH   2   3
HETATM    3  N   UNL     1      -9.384  14.499  67.064  1.00  0.00    -0.228 NA 
HETATM    4  C   UNL     1     -10.035  15.267  66.107  1.00  0.00    -0.302 C  
HETATM    5  C   UNL     1     -11.149  14.930  65.439  1.00  0.00    -0.366 C  
HETATM    6  C   UNL     1     -11.706  15.866  64.441  1.00  0.00    -0.179 C  
HETATM    7  C   UNL     1     -11.741  13.617  65.751  1.00  0.00    -0.348 C  
HETATM    8  C   UNL     1     -11.027  12.732  66.701  1.00  0.00    -0.300 A  
HETATM    9  O   UNL     1     -12.794  13.276  65.216  1.00  0.00    -0.629 OA 
HETATM   10  O   UNL     1     -11.193  16.942  64.168  1.00  0.00    -1.176 OA 
HETATM   11  O   UNL     1     -12.838  15.438  63.841  1.00  0.00    -0.604 OA 
HETATM   12  C   UNL     1     -11.516  11.440  66.915  1.00  0.00    -0.198 A  
HETATM   13  C   UNL     1     -10.827  10.579  67.763  1.00  0.00    -0.294 A  
HETATM   14  F   UNL     1     -11.320   9.341  67.922  1.00  0.00    -0.141 F  
HETATM   15  C   UNL     1      -9.663  10.980  68.433  1.00  0.00    -0.180 A  
HETATM   16  C   UNL     1      -9.863  13.198  67.340  1.00  0.00    -0.226 A  
HETATM   17  C   UNL     1      -9.218  12.301  68.208  1.00  0.00    -0.189 A  
BRANCH  15  18
HETATM   18  N   UNL     1      -8.874  10.151  69.225  1.00  0.00    -0.173 NA 
HETATM   19  C   UNL     1      -9.454   9.433  70.373  1.00  0.00    -0.268 C  
HETATM   20  C   UNL     1      -8.587   8.181  70.663  1.00  0.00    -0.130 C  
HETATM   21  N   UNL     1      -7.155   8.480  70.882  1.00  0.00    -0.056 NA 
HETATM   22  H   UNL     1      -6.606   7.634  71.032  1.00  0.00     0.000 HD 
HETATM   23  C   UNL     1      -6.633   9.289  69.763  1.00  0.00    -0.043 C  
HETATM   24  C   UNL     1      -7.475  10.553  69.468  1.00  0.00    -0.146 C  
ENDBRANCH  15  18
ENDBRANCH   2   3
TORSDOF 2
ENDMDL
MODEL       43
REMARK 921   NORMALIZED FREE ENERGY PREDICTED BY IDOCK:   -5.81 KCAL/MOL
REMARK 922        TOTAL FREE ENERGY PREDICTED BY IDOCK:   -6.88 KCAL/MOL
REMARK 923 INTER-LIGAND FREE ENERGY PREDICTED BY IDOCK:   -6.47 KCAL/MOL
REMARK 924 INTRA-LIGAND FREE ENERGY PREDICTED BY IDOCK:   -0.41 KCAL/MOL
REMARK 927      BINDING AFFINITY PREDICTED BY RF-SCORE:    0.00 PKD
ROOT
HETATM    1  C   UNL     1     -13.579  12.995  72.269  1.00  0.00    -0.643 C  
HETATM    2  C   UNL     1     -13.176  11.570  71.912  1.00  0.00    -0.374 C  
ENDROOT
BRANCH   2   3
HETATM    3  N   UNL     1     -12.228  11.543  70.780  1.00  0.00    -0.381 NA 
HETATM    4  C   UNL     1     -12.089  12.645  69.946  1.00  0.00    -0.252 C  
HETATM    5  C   UNL     1     -11.277  12.741  68.883  1.00  0.00    -0.332 C  
HETATM    6  C   UNL     1     -11.246  13.998  68.107  1.00  0.00    -0.275 C  
HETATM    7  C   UNL     1     -10.452  11.562  68.567  1.00  0.00    -0.208 C  
HETATM    8  C   UNL     1     -10.506  10.399  69.483  1.00  0.00    -0.274 A  
HETATM    9  O   UNL     1      -9.731  11.566  67.570  1.00  0.00    -0.177 OA 
HETATM   10  O   UNL     1     -11.913  14.982  68.393  1.00  0.00    -0.291 OA 
HETATM   11  O   UNL     1     -10.409  13.982  67.047  1.00  0.00    -0.264 OA 
HETATM   12  C   UNL     1      -9.642   9.324  69.259  1.00  0.00    -0.161 A  
HETATM   13  C   UNL     1      -9.643   8.249  70.142  1.00  0.00    -0.167 A  
HETATM   14  F   UNL     1      -8.783   7.248  69.901  1.00  0.00    -0.136 F  
HETATM   15  C   UNL     1     -10.510   8.200  71.243  1.00  0.00    -0.209 A  
HETATM   16  C   UNL     1     -11.399  10.416  70.571  1.00  0.00    -0.341 A  
HETATM   17  C   UNL     1     -11.383   9.296  71.418  1.00  0.00    -0.434 A  
BRANCH  15  18
HETATM   18  N   UNL     1     -10.508   7.204  72.215  1.00  0.00    -0.204 NA 
HETATM   19  C   UNL     1      -9.454   7.159  73.244  1.00  0.00    -0.179 C  
HETATM   20  C   UNL     1     -10.005   6.406  74.482  1.00  0.00    -0.351 C  
HETATM   21  N   UNL     1     -10.523   5.054  74.182  1.00  0.00    -0.271 NA 
HETATM   22  H   UNL     1     -10.913   4.601  75.009  1.00  0.00     0.000 HD 
HETATM   23  C   UNL     1     -11.499   5.124  73.076  1.00  0.00    -0.274 C  
HETATM   24  C   UNL     1     -10.964   5.856  71.824  1.00  0.00    -0.269 C  
ENDBRANCH  15  18
ENDBRANCH   2   3
TORSDOF 2
ENDMDL
MODEL       44
REMARK 921   NORMALIZED FREE ENERGY PREDICTED BY IDOCK:   -5.80 KCAL/MOL
REMARK 922        TOTAL FREE ENERGY PREDICTED BY IDOCK:   -6.87 KCAL/MOL
REMARK 923 INTER-LIGAND FREE ENERGY PREDICTED BY IDOCK:   -6.50 KCAL/MOL
REMARK 924 INTRA-LIGAND FREE ENERGY PREDICTED BY IDOCK:   -0.37 KCAL/MOL
REMARK 927      BINDING AFFINITY PREDICTED BY RF-SCORE:    0.00 PKD
ROOT
HETATM    1  C   UNL     1     -11.805  15.653  72.046  1.00  0.00    -0.548 C  
HETATM    2  C   UNL     1     -12.422  15.255  70.712  1.00  0.00    -0.402 C  
ENDROOT
BRANCH   2   3
HETATM    3  N   UNL     1     -11.571  14.292  69.986  1.00  0.00    -0.271 NA 
HETATM    4  C   UNL     1     -11.820  12.928  70.065  1.00  0.00    -0.286 C  
HETATM    5  C   UNL     1     -11.118  11.954  69.467  1.00  0.00    -0.169 C  
HETATM    6  C   UNL     1     -11.529  10.547  69.650  1.00  0.00    -0.282 C  
HETATM    7  C   UNL     1      -9.967  12.371  68.647  1.00  0.00    -0.107 C  
HETATM    8  C   UNL     1      -9.721  13.821  68.467  1.00  0.00    -0.193 A  
HETATM    9  O   UNL     1      -9.248  11.524  68.121  1.00  0.00    -0.168 OA 
HETATM   10  O   UNL     1     -12.503  10.211  70.309  1.00  0.00    -0.214 OA 
HETATM   11  O   UNL     1     -10.743   9.647  69.020  1.00  0.00    -0.217 OA 
HETATM   12  C   UNL     1      -8.705  14.229  67.597  1.00  0.00    -0.192 A  
HETATM   13  C   UNL     1      -8.497  15.587  67.376  1.00  0.00    -0.180 A  
HETATM   14  F   UNL     1      -7.525  15.933  66.518  1.00  0.00    -0.249 F  
HETATM   15  C   UNL     1      -9.265  16.565  68.023  1.00  0.00    -0.214 A  
HETATM   16  C   UNL     1     -10.530  14.751  69.146  1.00  0.00    -0.239 A  
HETATM   17  C   UNL     1     -10.263  16.110  68.912  1.00  0.00    -0.245 A  
BRANCH  15  18
HETATM   18  N   UNL     1      -9.174  17.933  67.787  1.00  0.00    -0.255 NA 
HETATM   19  C   UNL     1      -8.064  18.722  68.351  1.00  0.00    -0.340 C  
HETATM   20  C   UNL     1      -7.859  19.983  67.473  1.00  0.00    -0.301 C  
HETATM   21  N   UNL     1      -9.076  20.807  67.310  1.00  0.00    -0.549 NA 
HETATM   22  H   UNL     1      -8.918  21.606  66.697  1.00  0.00     0.000 HD 
HETATM   23  C   UNL     1     -10.195  19.963  66.843  1.00  0.00    -0.470 C  
HETATM   24  C   UNL     1     -10.429  18.708  67.716  1.00  0.00    -0.411 C  
ENDBRANCH  15  18
ENDBRANCH   2   3
TORSDOF 2
ENDMDL
MODEL       45
REMARK 921   NORMALIZED FREE ENERGY PREDICTED BY IDOCK:   -5.78 KCAL/MOL
REMARK 922        TOTAL FREE ENERGY PREDICTED BY IDOCK:   -6.84 KCAL/MOL
REMARK 923 INTER-LIGAND FREE ENERGY PREDICTED BY IDOCK:   -6.41 KCAL/MOL
REMARK 924 INTRA-LIGAND FREE ENERGY PREDICTED BY IDOCK:   -0.43 KCAL/MOL
REMARK 927      BINDING AFFINITY PREDICTED BY RF-SCORE:    0.00 PKD
ROOT
HETATM    1  C   UNL     1     -11.724  16.138  71.643  1.00  0.00    -0.558 C  
HETATM    2  C   UNL     1     -12.474  15.294  70.621  1.00  0.00    -0.406 C  
ENDROOT
BRANCH   2   3
HETATM    3  N   UNL     1     -11.754  15.235  69.334  1.00  0.00    -0.320 NA 
HETATM    4  C   UNL     1     -11.428  16.399  68.651  1.00  0.00    -0.224 C  
HETATM    5  C   UNL     1     -10.790  16.479  67.474  1.00  0.00    -0.237 C  
HETATM    6  C   UNL     1     -10.512  17.808  66.890  1.00  0.00    -0.307 C  
HETATM    7  C   UNL     1     -10.398  15.207  66.841  1.00  0.00    -0.272 C  
HETATM    8  C   UNL     1     -10.650  13.948  67.579  1.00  0.00    -0.256 A  
HETATM    9  O   UNL     1      -9.864  15.212  65.734  1.00  0.00    -0.311 OA 
HETATM   10  O   UNL     1     -10.816  18.860  67.435  1.00  0.00    -0.458 OA 
HETATM   11  O   UNL     1      -9.882  17.774  65.695  1.00  0.00    -0.528 OA 
HETATM   12  C   UNL     1     -10.177  12.747  67.043  1.00  0.00    -0.245 A  
HETATM   13  C   UNL     1     -10.359  11.563  67.751  1.00  0.00    -0.182 A  
HETATM   14  F   UNL     1      -9.870  10.436  67.209  1.00  0.00    -0.182 F  
HETATM   15  C   UNL     1     -11.028  11.535  68.982  1.00  0.00    -0.234 A  
HETATM   16  C   UNL     1     -11.328  13.992  68.812  1.00  0.00    -0.278 A  
HETATM   17  C   UNL     1     -11.511  12.767  69.475  1.00  0.00    -0.293 A  
BRANCH  15  18
HETATM   18  N   UNL     1     -11.171  10.408  69.786  1.00  0.00    -0.272 NA 
HETATM   19  C   UNL     1     -12.386  10.209  70.595  1.00  0.00    -0.293 C  
HETATM   20  C   UNL     1     -12.557   8.693  70.866  1.00  0.00     0.049 C  
HETATM   21  N   UNL     1     -11.379   8.059  71.498  1.00  0.00    -0.252 NA 
HETATM   22  H   UNL     1     -11.507   7.056  71.628  1.00  0.00     0.000 HD 
HETATM   23  C   UNL     1     -10.163   8.366  70.718  1.00  0.00    -0.194 C  
HETATM   24  C   UNL     1      -9.965   9.877  70.451  1.00  0.00    -0.160 C  
ENDBRANCH  15  18
ENDBRANCH   2   3
TORSDOF 2
ENDMDL
MODEL       46
REMARK 921   NORMALIZED FREE ENERGY PREDICTED BY IDOCK:   -5.77 KCAL/MOL
REMARK 922        TOTAL FREE ENERGY PREDICTED BY IDOCK:   -6.83 KCAL/MOL
REMARK 923 INTER-LIGAND FREE ENERGY PREDICTED BY IDOCK:   -6.43 KCAL/MOL
REMARK 924 INTRA-LIGAND FREE ENERGY PREDICTED BY IDOCK:   -0.41 KCAL/MOL
REMARK 927      BINDING AFFINITY PREDICTED BY RF-SCORE:    0.00 PKD
ROOT
HETATM    1  C   UNL     1     -11.552   9.504  71.572  1.00  0.00    -0.465 C  
HETATM    2  C   UNL     1     -11.326  10.052  70.169  1.00  0.00    -0.291 C  
ENDROOT
BRANCH   2   3
HETATM    3  N   UNL     1     -10.797   9.015  69.261  1.00  0.00    -0.168 NA 
HETATM    4  C   UNL     1     -10.692   7.695  69.679  1.00  0.00    -0.228 C  
HETATM    5  C   UNL     1     -10.220   6.667  68.959  1.00  0.00    -0.196 C  
HETATM    6  C   UNL     1     -10.187   5.317  69.558  1.00  0.00    -0.268 C  
HETATM    7  C   UNL     1      -9.765   6.967  67.589  1.00  0.00    -0.127 C  
HETATM    8  C   UNL     1      -9.942   8.345  67.076  1.00  0.00    -0.323 A  
HETATM    9  O   UNL     1      -9.266   6.079  66.900  1.00  0.00    -0.121 OA 
HETATM   10  O   UNL     1     -10.593   5.070  70.685  1.00  0.00    -0.200 OA 
HETATM   11  O   UNL     1      -9.676   4.359  68.754  1.00  0.00    -0.163 OA 
HETATM   12  C   UNL     1      -9.624   8.613  65.742  1.00  0.00    -0.134 A  
HETATM   13  C   UNL     1      -9.835   9.889  65.230  1.00  0.00    -0.303 A  
HETATM   14  F   UNL     1      -9.536  10.097  63.939  1.00  0.00    -0.297 F  
HETATM   15  C   UNL     1     -10.338  10.928  66.026  1.00  0.00    -0.245 A  
HETATM   16  C   UNL     1     -10.454   9.341  67.929  1.00  0.00    -0.236 A  
HETATM   17  C   UNL     1     -10.623  10.621  67.375  1.00  0.00    -0.304 A  
BRANCH  15  18
HETATM   18  N   UNL     1     -10.658  12.202  65.565  1.00  0.00    -0.268 NA 
HETATM   19  C   UNL     1     -10.246  13.400  66.317  1.00  0.00    -0.298 C  
HETATM   20  C   UNL     1     -10.166  14.597  65.335  1.00  0.00    -0.387 C  
HETATM   21  N   UNL     1     -11.414  14.838  64.578  1.00  0.00    -0.597 NA 
HETATM   22  H   UNL     1     -11.316  15.606  63.914  1.00  0.00     0.000 HD 
HETATM   23  C   UNL     1     -11.853  13.590  63.923  1.00  0.00    -0.411 C  
HETATM   24  C   UNL     1     -11.957  12.387  64.889  1.00  0.00    -0.398 C  
ENDBRANCH  15  18
ENDBRANCH   2   3
TORSDOF 2
ENDMDL
MODEL       47
REMARK 921   NORMALIZED FREE ENERGY PREDICTED BY IDOCK:   -5.74 KCAL/MOL
REMARK 922        TOTAL FREE ENERGY PREDICTED BY IDOCK:   -6.80 KCAL/MOL
REMARK 923 INTER-LIGAND FREE ENERGY PREDICTED BY IDOCK:   -6.54 KCAL/MOL
REMARK 924 INTRA-LIGAND FREE ENERGY PREDICTED BY IDOCK:   -0.26 KCAL/MOL
REMARK 927      BINDING AFFINITY PREDICTED BY RF-SCORE:    0.00 PKD
ROOT
HETATM    1  C   UNL     1      -7.992   8.341  68.332  1.00  0.00    -0.119 C  
HETATM    2  C   UNL     1      -9.472   8.651  68.154  1.00  0.00    -0.141 C  
ENDROOT
BRANCH   2   3
HETATM    3  N   UNL     1      -9.692   9.658  67.098  1.00  0.00    -0.166 NA 
HETATM    4  C   UNL     1      -9.282   9.417  65.793  1.00  0.00    -0.219 C  
HETATM    5  C   UNL     1      -9.412  10.250  64.750  1.00  0.00    -0.341 C  
HETATM    6  C   UNL     1      -8.927   9.828  63.420  1.00  0.00    -0.246 C  
HETATM    7  C   UNL     1     -10.050  11.552  65.014  1.00  0.00    -0.270 C  
HETATM    8  C   UNL     1     -10.579  11.813  66.373  1.00  0.00    -0.293 A  
HETATM    9  O   UNL     1     -10.144  12.384  64.114  1.00  0.00    -0.330 OA 
HETATM   10  O   UNL     1      -8.424   8.735  63.203  1.00  0.00    -0.187 OA 
HETATM   11  O   UNL     1      -9.089  10.749  62.446  1.00  0.00    -0.267 OA 
HETATM   12  C   UNL     1     -11.290  12.994  66.604  1.00  0.00    -0.366 A  
HETATM   13  C   UNL     1     -11.840  13.228  67.861  1.00  0.00    -0.349 A  
HETATM   14  F   UNL     1     -12.532  14.365  68.032  1.00  0.00    -0.285 F  
HETATM   15  C   UNL     1     -11.679  12.319  68.916  1.00  0.00    -0.328 A  
HETATM   16  C   UNL     1     -10.384  10.857  67.388  1.00  0.00    -0.211 A  
HETATM   17  C   UNL     1     -10.934  11.151  68.647  1.00  0.00    -0.268 A  
BRANCH  15  18
HETATM   18  N   UNL     1     -12.271  12.442  70.170  1.00  0.00    -0.271 NA 
HETATM   19  C   UNL     1     -12.248  13.728  70.890  1.00  0.00    -0.349 C  
HETATM   20  C   UNL     1     -13.439  13.761  71.881  1.00  0.00    -0.429 C  
HETATM   21  N   UNL     1     -13.472  12.618  72.820  1.00  0.00    -0.573 NA 
HETATM   22  H   UNL     1     -14.287  12.648  73.431  1.00  0.00     0.000 HD 
HETATM   23  C   UNL     1     -13.389  11.349  72.069  1.00  0.00    -0.283 C  
HETATM   24  C   UNL     1     -12.196  11.288  71.086  1.00  0.00    -0.246 C  
ENDBRANCH  15  18
ENDBRANCH   2   3
TORSDOF 2
ENDMDL
MODEL       48
REMARK 921   NORMALIZED FREE ENERGY PREDICTED BY IDOCK:   -5.71 KCAL/MOL
REMARK 922        TOTAL FREE ENERGY PREDICTED BY IDOCK:   -6.77 KCAL/MOL
REMARK 923 INTER-LIGAND FREE ENERGY PREDICTED BY IDOCK:   -6.37 KCAL/MOL
REMARK 924 INTRA-LIGAND FREE ENERGY PREDICTED BY IDOCK:   -0.40 KCAL/MOL
REMARK 927      BINDING AFFINITY PREDICTED BY RF-SCORE:    0.00 PKD
ROOT
HETATM    1  C   UNL     1      -7.718  10.397  66.024  1.00  0.00    -0.136 C  
HETATM    2  C   UNL     1      -8.296  10.108  67.402  1.00  0.00    -0.118 C  
ENDROOT
BRANCH   2   3
HETATM    3  N   UNL     1      -9.380  11.049  67.744  1.00  0.00    -0.156 NA 
HETATM    4  C   UNL     1      -9.672  12.124  66.914  1.00  0.00    -0.206 C  
HETATM    5  C   UNL     1     -10.619  13.052  67.117  1.00  0.00    -0.251 C  
HETATM    6  C   UNL     1     -10.804  14.128  66.122  1.00  0.00    -0.296 C  
HETATM    7  C   UNL     1     -11.428  12.922  68.342  1.00  0.00    -0.312 C  
HETATM    8  C   UNL     1     -11.206  11.740  69.208  1.00  0.00    -0.318 A  
HETATM    9  O   UNL     1     -12.271  13.774  68.615  1.00  0.00    -0.347 OA 
HETATM   10  O   UNL     1     -10.147  14.214  65.094  1.00  0.00    -0.364 OA 
HETATM   11  O   UNL     1     -11.770  15.020  66.433  1.00  0.00    -0.256 OA 
HETATM   12  C   UNL     1     -12.046  11.544  70.308  1.00  0.00    -0.444 A  
HETATM   13  C   UNL     1     -11.885  10.412  71.100  1.00  0.00    -0.337 A  
HETATM   14  F   UNL     1     -12.726  10.253  72.133  1.00  0.00    -0.472 F  
HETATM   15  C   UNL     1     -10.881   9.467  70.840  1.00  0.00    -0.337 A  
HETATM   16  C   UNL     1     -10.181  10.830  68.889  1.00  0.00    -0.203 A  
HETATM   17  C   UNL     1     -10.040   9.717  69.734  1.00  0.00    -0.258 A  
BRANCH  15  18
HETATM   18  N   UNL     1     -10.715   8.271  71.531  1.00  0.00    -0.224 NA 
HETATM   19  C   UNL     1      -9.754   8.172  72.643  1.00  0.00    -0.290 C  
HETATM   20  C   UNL     1     -10.199   7.021  73.581  1.00  0.00    -0.358 C  
HETATM   21  N   UNL     1     -10.368   5.720  72.897  1.00  0.00    -0.190 NA 
HETATM   22  H   UNL     1     -10.698   4.994  73.532  1.00  0.00     0.000 HD 
HETATM   23  C   UNL     1     -11.254   5.879  71.727  1.00  0.00    -0.250 C  
HETATM   24  C   UNL     1     -10.818   7.012  70.769  1.00  0.00    -0.246 C  
ENDBRANCH  15  18
ENDBRANCH   2   3
TORSDOF 2
ENDMDL
MODEL       49
REMARK 921   NORMALIZED FREE ENERGY PREDICTED BY IDOCK:   -5.67 KCAL/MOL
REMARK 922        TOTAL FREE ENERGY PREDICTED BY IDOCK:   -6.73 KCAL/MOL
REMARK 923 INTER-LIGAND FREE ENERGY PREDICTED BY IDOCK:   -6.37 KCAL/MOL
REMARK 924 INTRA-LIGAND FREE ENERGY PREDICTED BY IDOCK:   -0.35 KCAL/MOL
REMARK 927      BINDING AFFINITY PREDICTED BY RF-SCORE:    0.00 PKD
ROOT
HETATM    1  C   UNL     1     -10.596   5.384  66.951  1.00  0.00    -0.320 C  
HETATM    2  C   UNL     1     -10.104   6.817  67.097  1.00  0.00    -0.190 C  
ENDROOT
BRANCH   2   3
HETATM    3  N   UNL     1     -10.463   7.383  68.412  1.00  0.00    -0.197 NA 
HETATM    4  C   UNL     1     -10.447   6.590  69.552  1.00  0.00    -0.222 C  
HETATM    5  C   UNL     1     -10.762   6.979  70.796  1.00  0.00    -0.252 C  
HETATM    6  C   UNL     1     -10.680   6.002  71.903  1.00  0.00    -0.234 C  
HETATM    7  C   UNL     1     -11.167   8.385  70.973  1.00  0.00    -0.266 C  
HETATM    8  C   UNL     1     -11.112   9.284  69.797  1.00  0.00    -0.168 A  
HETATM    9  O   UNL     1     -11.525   8.786  72.078  1.00  0.00    -0.338 OA 
HETATM   10  O   UNL     1     -10.316   4.844  71.753  1.00  0.00    -0.201 OA 
HETATM   11  O   UNL     1     -11.037   6.492  73.110  1.00  0.00    -0.243 OA 
HETATM   12  C   UNL     1     -11.380  10.644  69.977  1.00  0.00    -0.400 A  
HETATM   13  C   UNL     1     -11.280  11.511  68.893  1.00  0.00    -0.247 A  
HETATM   14  F   UNL     1     -11.526  12.811  69.115  1.00  0.00    -0.280 F  
HETATM   15  C   UNL     1     -10.941  11.053  67.612  1.00  0.00    -0.275 A  
HETATM   16  C   UNL     1     -10.763   8.759  68.539  1.00  0.00    -0.060 A  
HETATM   17  C   UNL     1     -10.702   9.669  67.470  1.00  0.00    -0.321 A  
BRANCH  15  18
HETATM   18  N   UNL     1     -10.737  11.869  66.503  1.00  0.00    -0.247 NA 
HETATM   19  C   UNL     1     -10.863  11.329  65.138  1.00  0.00    -0.200 C  
HETATM   20  C   UNL     1     -11.200  12.495  64.174  1.00  0.00    -0.382 C  
HETATM   21  N   UNL     1     -10.233  13.614  64.224  1.00  0.00    -0.753 NA 
HETATM   22  H   UNL     1     -10.502  14.380  63.608  1.00  0.00     0.000 HD 
HETATM   23  C   UNL     1     -10.052  14.060  65.619  1.00  0.00    -0.322 C  
HETATM   24  C   UNL     1      -9.698  12.914  66.595  1.00  0.00    -0.254 C  
ENDBRANCH  15  18
ENDBRANCH   2   3
TORSDOF 2
ENDMDL
MODEL       50
REMARK 921   NORMALIZED FREE ENERGY PREDICTED BY IDOCK:   -5.67 KCAL/MOL
REMARK 922        TOTAL FREE ENERGY PREDICTED BY IDOCK:   -6.72 KCAL/MOL
REMARK 923 INTER-LIGAND FREE ENERGY PREDICTED BY IDOCK:   -6.31 KCAL/MOL
REMARK 924 INTRA-LIGAND FREE ENERGY PREDICTED BY IDOCK:   -0.41 KCAL/MOL
REMARK 927      BINDING AFFINITY PREDICTED BY RF-SCORE:    0.00 PKD
ROOT
HETATM    1  C   UNL     1      -5.918  16.294  69.978  1.00  0.00    -0.167 C  
HETATM    2  C   UNL     1      -7.094  15.455  69.495  1.00  0.00    -0.200 C  
ENDROOT
BRANCH   2   3
HETATM    3  N   UNL     1      -8.093  16.279  68.787  1.00  0.00    -0.214 NA 
HETATM    4  C   UNL     1      -7.851  17.623  68.535  1.00  0.00    -0.282 C  
HETATM    5  C   UNL     1      -8.678  18.478  67.915  1.00  0.00    -0.301 C  
HETATM    6  C   UNL     1      -8.256  19.880  67.718  1.00  0.00    -0.301 C  
HETATM    7  C   UNL     1      -9.972  17.940  67.459  1.00  0.00    -0.322 C  
HETATM    8  C   UNL     1     -10.231  16.492  67.632  1.00  0.00    -0.279 A  
HETATM    9  O   UNL     1     -10.798  18.687  66.938  1.00  0.00    -0.356 OA 
HETATM   10  O   UNL     1      -7.169  20.313  68.075  1.00  0.00    -0.290 OA 
HETATM   11  O   UNL     1      -9.171  20.660  67.101  1.00  0.00    -0.365 OA 
HETATM   12  C   UNL     1     -11.404  15.949  67.098  1.00  0.00     0.036 A  
HETATM   13  C   UNL     1     -11.636  14.582  67.205  1.00  0.00    -0.388 A  
HETATM   14  F   UNL     1     -12.763  14.100  66.660  1.00  0.00    -0.447 F  
HETATM   15  C   UNL     1     -10.734  13.730  67.859  1.00  0.00    -0.247 A  
HETATM   16  C   UNL     1      -9.283  15.693  68.297  1.00  0.00    -0.188 A  
HETATM   17  C   UNL     1      -9.575  14.323  68.404  1.00  0.00    -0.221 A  
BRANCH  15  18
HETATM   18  N   UNL     1     -10.854  12.345  67.928  1.00  0.00    -0.214 NA 
HETATM   19  C   UNL     1     -10.773  11.521  66.710  1.00  0.00    -0.270 C  
HETATM   20  C   UNL     1     -10.323  10.092  67.109  1.00  0.00    -0.241 C  
HETATM   21  N   UNL     1     -11.180   9.457  68.134  1.00  0.00    -0.497 NA 
HETATM   22  H   UNL     1     -10.836   8.535  68.402  1.00  0.00     0.000 HD 
HETATM   23  C   UNL     1     -11.325  10.355  69.296  1.00  0.00    -0.235 C  
HETATM   24  C   UNL     1     -11.790  11.782  68.921  1.00  0.00    -0.320 C  
ENDBRANCH  15  18
ENDBRANCH   2   3
TORSDOF 2
ENDMDL
MODEL       51
REMARK 921   NORMALIZED FREE ENERGY PREDICTED BY IDOCK:   -5.65 KCAL/MOL
REMARK 922        TOTAL FREE ENERGY PREDICTED BY IDOCK:   -6.71 KCAL/MOL
REMARK 923 INTER-LIGAND FREE ENERGY PREDICTED BY IDOCK:   -6.31 KCAL/MOL
REMARK 924 INTRA-LIGAND FREE ENERGY PREDICTED BY IDOCK:   -0.39 KCAL/MOL
REMARK 927      BINDING AFFINITY PREDICTED BY RF-SCORE:    0.00 PKD
ROOT
HETATM    1  C   UNL     1     -12.169  11.908  63.523  1.00  0.00    -0.591 C  
HETATM    2  C   UNL     1     -11.242  11.550  64.676  1.00  0.00    -0.206 C  
ENDROOT
BRANCH   2   3
HETATM    3  N   UNL     1     -10.610  12.750  65.258  1.00  0.00    -0.284 NA 
HETATM    4  C   UNL     1     -10.984  14.020  64.839  1.00  0.00    -0.392 C  
HETATM    5  C   UNL     1     -10.481  15.184  65.278  1.00  0.00    -0.434 C  
HETATM    6  C   UNL     1     -11.004  16.452  64.729  1.00  0.00    -0.231 C  
HETATM    7  C   UNL     1      -9.426  15.108  66.304  1.00  0.00    -0.309 C  
HETATM    8  C   UNL     1      -9.061  13.776  66.840  1.00  0.00    -0.253 A  
HETATM    9  O   UNL     1      -8.883  16.136  66.703  1.00  0.00    -0.212 OA 
HETATM   10  O   UNL     1     -11.899  16.507  63.898  1.00  0.00    -1.059 OA 
HETATM   11  O   UNL     1     -10.415  17.562  65.225  1.00  0.00    -0.643 OA 
HETATM   12  C   UNL     1      -8.148  13.702  67.895  1.00  0.00    -0.164 A  
HETATM   13  C   UNL     1      -7.836  12.463  68.446  1.00  0.00    -0.142 A  
HETATM   14  F   UNL     1      -6.970  12.440  69.471  1.00  0.00    -0.081 F  
HETATM   15  C   UNL     1      -8.396  11.275  67.952  1.00  0.00    -0.131 A  
HETATM   16  C   UNL     1      -9.663  12.624  66.300  1.00  0.00    -0.259 A  
HETATM   17  C   UNL     1      -9.295  11.393  66.870  1.00  0.00    -0.191 A  
BRANCH  15  18
HETATM   18  N   UNL     1      -8.200  10.014  68.506  1.00  0.00    -0.105 NA 
HETATM   19  C   UNL     1      -8.613   9.727  69.891  1.00  0.00    -0.218 C  
HETATM   20  C   UNL     1      -8.859   8.203  70.028  1.00  0.00    -0.139 C  
HETATM   21  N   UNL     1      -7.704   7.370  69.627  1.00  0.00    -0.105 NA 
HETATM   22  H   UNL     1      -7.910   6.373  69.692  1.00  0.00     0.000 HD 
HETATM   23  C   UNL     1      -7.252   7.755  68.275  1.00  0.00    -0.089 C  
HETATM   24  C   UNL     1      -6.984   9.271  68.121  1.00  0.00    -0.076 C  
ENDBRANCH  15  18
ENDBRANCH   2   3
TORSDOF 2
ENDMDL
MODEL       52
REMARK 921   NORMALIZED FREE ENERGY PREDICTED BY IDOCK:   -5.64 KCAL/MOL
REMARK 922        TOTAL FREE ENERGY PREDICTED BY IDOCK:   -6.70 KCAL/MOL
REMARK 923 INTER-LIGAND FREE ENERGY PREDICTED BY IDOCK:   -6.49 KCAL/MOL
REMARK 924 INTRA-LIGAND FREE ENERGY PREDICTED BY IDOCK:   -0.21 KCAL/MOL
REMARK 927      BINDING AFFINITY PREDICTED BY RF-SCORE:    0.00 PKD
ROOT
HETATM    1  C   UNL     1      -9.930  12.813  67.018  1.00  0.00    -0.231 C  
HETATM    2  C   UNL     1      -9.821  11.680  68.029  1.00  0.00    -0.190 C  
ENDROOT
BRANCH   2   3
HETATM    3  N   UNL     1     -10.804  11.828  69.119  1.00  0.00    -0.207 NA 
HETATM    4  C   UNL     1     -11.418  13.051  69.357  1.00  0.00    -0.261 C  
HETATM    5  C   UNL     1     -12.314  13.319  70.318  1.00  0.00    -0.334 C  
HETATM    6  C   UNL     1     -12.878  14.680  70.424  1.00  0.00    -0.270 C  
HETATM    7  C   UNL     1     -12.683  12.207  71.213  1.00  0.00    -0.261 C  
HETATM    8  C   UNL     1     -12.117  10.866  70.937  1.00  0.00    -0.455 A  
HETATM    9  O   UNL     1     -13.454  12.403  72.150  1.00  0.00    -0.525 OA 
HETATM   10  O   UNL     1     -12.588  15.591  69.661  1.00  0.00    -0.206 OA 
HETATM   11  O   UNL     1     -13.756  14.846  71.437  1.00  0.00    -0.395 OA 
HETATM   12  C   UNL     1     -12.551   9.781  71.705  1.00  0.00    -0.509 A  
HETATM   13  C   UNL     1     -12.069   8.507  71.423  1.00  0.00    -0.303 A  
HETATM   14  F   UNL     1     -12.528   7.492  72.171  1.00  0.00    -0.306 F  
HETATM   15  C   UNL     1     -11.136   8.281  70.401  1.00  0.00    -0.235 A  
HETATM   16  C   UNL     1     -11.185  10.709  69.894  1.00  0.00    -0.308 A  
HETATM   17  C   UNL     1     -10.706   9.408  69.667  1.00  0.00    -0.251 A  
BRANCH  15  18
HETATM   18  N   UNL     1     -10.678   7.028  70.005  1.00  0.00    -0.233 NA 
HETATM   19  C   UNL     1     -11.279   6.337  68.851  1.00  0.00    -0.309 C  
HETATM   20  C   UNL     1     -10.239   5.342  68.274  1.00  0.00    -0.160 C  
HETATM   21  N   UNL     1      -9.716   4.378  69.266  1.00  0.00    -0.191 NA 
HETATM   22  H   UNL     1      -9.007   3.764  68.866  1.00  0.00     0.000 HD 
HETATM   23  C   UNL     1      -9.217   5.100  70.454  1.00  0.00    -0.148 C  
HETATM   24  C   UNL     1     -10.245   6.086  71.056  1.00  0.00    -0.201 C  
ENDBRANCH  15  18
ENDBRANCH   2   3
TORSDOF 2
ENDMDL
MODEL       53
REMARK 921   NORMALIZED FREE ENERGY PREDICTED BY IDOCK:   -5.63 KCAL/MOL
REMARK 922        TOTAL FREE ENERGY PREDICTED BY IDOCK:   -6.67 KCAL/MOL
REMARK 923 INTER-LIGAND FREE ENERGY PREDICTED BY IDOCK:   -6.25 KCAL/MOL
REMARK 924 INTRA-LIGAND FREE ENERGY PREDICTED BY IDOCK:   -0.43 KCAL/MOL
REMARK 927      BINDING AFFINITY PREDICTED BY RF-SCORE:    0.00 PKD
ROOT
HETATM    1  C   UNL     1      -7.185   9.626  64.155  1.00  0.00    -0.122 C  
HETATM    2  C   UNL     1      -8.706   9.707  64.149  1.00  0.00    -0.216 C  
ENDROOT
BRANCH   2   3
HETATM    3  N   UNL     1      -9.263   9.552  65.507  1.00  0.00    -0.217 NA 
HETATM    4  C   UNL     1      -8.954   8.437  66.276  1.00  0.00    -0.174 C  
HETATM    5  C   UNL     1      -9.402   8.173  67.512  1.00  0.00    -0.165 C  
HETATM    6  C   UNL     1      -8.963   6.938  68.194  1.00  0.00    -0.123 C  
HETATM    7  C   UNL     1     -10.314   9.162  68.115  1.00  0.00    -0.216 C  
HETATM    8  C   UNL     1     -10.598  10.406  67.362  1.00  0.00    -0.321 A  
HETATM    9  O   UNL     1     -10.806   8.949  69.221  1.00  0.00    -0.197 OA 
HETATM   10  O   UNL     1      -8.184   6.136  67.698  1.00  0.00    -0.112 OA 
HETATM   11  O   UNL     1      -9.488   6.761  69.426  1.00  0.00    -0.148 OA 
HETATM   12  C   UNL     1     -11.366  11.402  67.973  1.00  0.00    -0.372 A  
HETATM   13  C   UNL     1     -11.596  12.598  67.300  1.00  0.00    -0.364 A  
HETATM   14  F   UNL     1     -12.320  13.535  67.932  1.00  0.00    -0.356 F  
HETATM   15  C   UNL     1     -11.098  12.825  66.009  1.00  0.00    -0.285 A  
HETATM   16  C   UNL     1     -10.066  10.570  66.070  1.00  0.00    -0.256 A  
HETATM   17  C   UNL     1     -10.349  11.784  65.420  1.00  0.00    -0.311 A  
BRANCH  15  18
HETATM   18  N   UNL     1     -11.212  14.024  65.312  1.00  0.00    -0.309 NA 
HETATM   19  C   UNL     1     -11.850  14.064  63.984  1.00  0.00    -0.308 C  
HETATM   20  C   UNL     1     -12.387  15.497  63.737  1.00  0.00     0.534 C  
HETATM   21  N   UNL     1     -11.362  16.555  63.874  1.00  0.00    -1.559 NA 
HETATM   22  H   UNL     1     -11.754  17.487  63.744  1.00  0.00     0.000 HD 
HETATM   23  C   UNL     1     -10.671  16.420  65.172  1.00  0.00    -0.291 C  
HETATM   24  C   UNL     1     -10.113  15.001  65.432  1.00  0.00    -0.362 C  
ENDBRANCH  15  18
ENDBRANCH   2   3
TORSDOF 2
ENDMDL
MODEL       54
REMARK 921   NORMALIZED FREE ENERGY PREDICTED BY IDOCK:   -5.58 KCAL/MOL
REMARK 922        TOTAL FREE ENERGY PREDICTED BY IDOCK:   -6.63 KCAL/MOL
REMARK 923 INTER-LIGAND FREE ENERGY PREDICTED BY IDOCK:   -6.22 KCAL/MOL
REMARK 924 INTRA-LIGAND FREE ENERGY PREDICTED BY IDOCK:   -0.41 KCAL/MOL
REMARK 927      BINDING AFFINITY PREDICTED BY RF-SCORE:    0.00 PKD
ROOT
HETATM    1  C   UNL     1      -7.439  10.777  66.676  1.00  0.00    -0.135 C  
HETATM    2  C   UNL     1      -8.290  12.026  66.862  1.00  0.00    -0.159 C  
ENDROOT
BRANCH   2   3
HETATM    3  N   UNL     1      -9.375  11.802  67.838  1.00  0.00    -0.178 NA 
HETATM    4  C   UNL     1      -9.564  10.552  68.412  1.00  0.00    -0.160 C  
HETATM    5  C   UNL     1     -10.515  10.217  69.297  1.00  0.00    -0.250 C  
HETATM    6  C   UNL     1     -10.566   8.836  69.818  1.00  0.00    -0.224 C  
HETATM    7  C   UNL     1     -11.454  11.280  69.698  1.00  0.00    -0.309 C  
HETATM    8  C   UNL     1     -11.232  12.648  69.175  1.00  0.00    -0.300 A  
HETATM    9  O   UNL     1     -12.384  11.022  70.460  1.00  0.00    -0.323 OA 
HETATM   10  O   UNL     1      -9.766   7.967  69.501  1.00  0.00    -0.170 OA 
HETATM   11  O   UNL     1     -11.573   8.602  70.688  1.00  0.00    -0.271 OA 
HETATM   12  C   UNL     1     -12.044  13.687  69.640  1.00  0.00    -0.378 A  
HETATM   13  C   UNL     1     -11.814  14.986  69.199  1.00  0.00    -0.308 A  
HETATM   14  F   UNL     1     -12.603  15.955  69.688  1.00  0.00    -0.313 F  
HETATM   15  C   UNL     1     -10.800  15.282  68.277  1.00  0.00    -0.262 A  
HETATM   16  C   UNL     1     -10.196  12.877  68.251  1.00  0.00    -0.245 A  
HETATM   17  C   UNL     1     -10.020  14.200  67.814  1.00  0.00    -0.235 A  
BRANCH  15  18
HETATM   18  N   UNL     1     -10.455  16.563  67.858  1.00  0.00    -0.302 NA 
HETATM   19  C   UNL     1     -10.195  16.846  66.436  1.00  0.00    -0.321 C  
HETATM   20  C   UNL     1     -10.449  18.353  66.176  1.00  0.00    -0.395 C  
HETATM   21  N   UNL     1      -9.672  19.253  67.055  1.00  0.00    -0.315 NA 
HETATM   22  H   UNL     1      -9.890  20.235  66.886  1.00  0.00     0.000 HD 
HETATM   23  C   UNL     1      -9.875  18.875  68.468  1.00  0.00    -0.399 C  
HETATM   24  C   UNL     1      -9.609  17.379  68.752  1.00  0.00    -0.267 C  
ENDBRANCH  15  18
ENDBRANCH   2   3
TORSDOF 2
ENDMDL
MODEL       55
REMARK 921   NORMALIZED FREE ENERGY PREDICTED BY IDOCK:   -5.52 KCAL/MOL
REMARK 922        TOTAL FREE ENERGY PREDICTED BY IDOCK:   -6.56 KCAL/MOL
REMARK 923 INTER-LIGAND FREE ENERGY PREDICTED BY IDOCK:   -6.61 KCAL/MOL
REMARK 924 INTRA-LIGAND FREE ENERGY PREDICTED BY IDOCK:    0.05 KCAL/MOL
REMARK 927      BINDING AFFINITY PREDICTED BY RF-SCORE:    0.00 PKD
ROOT
HETATM    1  C   UNL     1      -7.748  10.127  68.669  1.00  0.00    -0.092 C  
HETATM    2  C   UNL     1      -9.131   9.711  68.186  1.00  0.00    -0.122 C  
ENDROOT
BRANCH   2   3
HETATM    3  N   UNL     1      -9.886   9.008  69.242  1.00  0.00    -0.175 NA 
HETATM    4  C   UNL     1      -9.585   7.693  69.572  1.00  0.00    -0.163 C  
HETATM    5  C   UNL     1     -10.200   6.944  70.498  1.00  0.00    -0.209 C  
HETATM    6  C   UNL     1      -9.743   5.558  70.729  1.00  0.00    -0.177 C  
HETATM    7  C   UNL     1     -11.306   7.576  71.239  1.00  0.00    -0.261 C  
HETATM    8  C   UNL     1     -11.600   9.005  70.978  1.00  0.00    -0.360 A  
HETATM    9  O   UNL     1     -11.949   6.923  72.059  1.00  0.00    -0.298 OA 
HETATM   10  O   UNL     1      -8.806   5.049  70.130  1.00  0.00    -0.106 OA 
HETATM   11  O   UNL     1     -10.443   4.886  71.670  1.00  0.00    -0.193 OA 
HETATM   12  C   UNL     1     -12.567   9.646  71.757  1.00  0.00    -0.497 A  
HETATM   13  C   UNL     1     -12.817  11.001  71.561  1.00  0.00    -0.450 A  
HETATM   14  F   UNL     1     -13.738  11.581  72.346  1.00  0.00    -0.437 F  
HETATM   15  C   UNL     1     -12.140  11.740  70.581  1.00  0.00    -0.311 A  
HETATM   16  C   UNL     1     -10.882   9.689  69.980  1.00  0.00    -0.264 A  
HETATM   17  C   UNL     1     -11.189  11.048  69.800  1.00  0.00    -0.339 A  
BRANCH  15  18
HETATM   18  N   UNL     1     -12.272  13.112  70.386  1.00  0.00    -0.345 NA 
HETATM   19  C   UNL     1     -13.189  13.906  71.223  1.00  0.00    -0.282 C  
HETATM   20  C   UNL     1     -12.700  15.377  71.232  1.00  0.00    -0.436 C  
HETATM   21  N   UNL     1     -12.551  15.969  69.885  1.00  0.00    -0.550 NA 
HETATM   22  H   UNL     1     -12.192  16.923  69.924  1.00  0.00     0.000 HD 
HETATM   23  C   UNL     1     -11.712  15.095  69.042  1.00  0.00    -0.335 C  
HETATM   24  C   UNL     1     -12.192  13.625  69.005  1.00  0.00    -0.208 C  
ENDBRANCH  15  18
ENDBRANCH   2   3
TORSDOF 2
ENDMDL
MODEL       56
REMARK 921   NORMALIZED FREE ENERGY PREDICTED BY IDOCK:   -5.45 KCAL/MOL
REMARK 922        TOTAL FREE ENERGY PREDICTED BY IDOCK:   -6.47 KCAL/MOL
REMARK 923 INTER-LIGAND FREE ENERGY PREDICTED BY IDOCK:   -6.04 KCAL/MOL
REMARK 924 INTRA-LIGAND FREE ENERGY PREDICTED BY IDOCK:   -0.43 KCAL/MOL
REMARK 927      BINDING AFFINITY PREDICTED BY RF-SCORE:    0.00 PKD
ROOT
HETATM    1  C   UNL     1      -9.410   8.638  70.821  1.00  0.00    -0.231 C  
HETATM    2  C   UNL     1     -10.664   9.425  70.466  1.00  0.00    -0.276 C  
ENDROOT
BRANCH   2   3
HETATM    3  N   UNL     1     -10.558  10.038  69.127  1.00  0.00    -0.206 NA 
HETATM    4  C   UNL     1     -10.169   9.281  68.030  1.00  0.00    -0.209 C  
HETATM    5  C   UNL     1     -10.024   9.719  66.771  1.00  0.00    -0.278 C  
HETATM    6  C   UNL     1      -9.610   8.771  65.717  1.00  0.00    -0.120 C  
HETATM    7  C   UNL     1     -10.301  11.146  66.527  1.00  0.00    -0.243 C  
HETATM    8  C   UNL     1     -10.803  11.967  67.653  1.00  0.00    -0.271 A  
HETATM    9  O   UNL     1     -10.129  11.622  65.407  1.00  0.00    -0.239 OA 
HETATM   10  O   UNL     1      -9.408   7.582  65.922  1.00  0.00    -0.065 OA 
HETATM   11  O   UNL     1      -9.475   9.320  64.490  1.00  0.00    -0.043 OA 
HETATM   12  C   UNL     1     -11.182  13.290  67.406  1.00  0.00    -0.316 A  
HETATM   13  C   UNL     1     -11.705  14.057  68.442  1.00  0.00    -0.354 A  
HETATM   14  F   UNL     1     -12.075  15.315  68.155  1.00  0.00    -0.321 F  
HETATM   15  C   UNL     1     -11.842  13.547  69.741  1.00  0.00    -0.329 A  
HETATM   16  C   UNL     1     -10.917  11.392  68.933  1.00  0.00    -0.226 A  
HETATM   17  C   UNL     1     -11.425  12.215  69.952  1.00  0.00    -0.210 A  
BRANCH  15  18
HETATM   18  N   UNL     1     -12.436  14.223  70.802  1.00  0.00    -0.335 NA 
HETATM   19  C   UNL     1     -13.897  14.412  70.851  1.00  0.00     0.063 C  
HETATM   20  C   UNL     1     -14.321  14.604  72.330  1.00  0.00    -0.415 C  
HETATM   21  N   UNL     1     -13.612  15.703  73.021  1.00  0.00    -0.573 NA 
HETATM   22  H   UNL     1     -13.885  15.778  74.000  1.00  0.00     0.000 HD 
HETATM   23  C   UNL     1     -12.153  15.538  72.862  1.00  0.00    -0.448 C  
HETATM   24  C   UNL     1     -11.706  15.362  71.392  1.00  0.00    -0.395 C  
ENDBRANCH  15  18
ENDBRANCH   2   3
TORSDOF 2
ENDMDL
MODEL       57
REMARK 921   NORMALIZED FREE ENERGY PREDICTED BY IDOCK:   -5.37 KCAL/MOL
REMARK 922        TOTAL FREE ENERGY PREDICTED BY IDOCK:   -6.39 KCAL/MOL
REMARK 923 INTER-LIGAND FREE ENERGY PREDICTED BY IDOCK:   -5.96 KCAL/MOL
REMARK 924 INTRA-LIGAND FREE ENERGY PREDICTED BY IDOCK:   -0.42 KCAL/MOL
REMARK 927      BINDING AFFINITY PREDICTED BY RF-SCORE:    0.00 PKD
ROOT
HETATM    1  C   UNL     1      -7.798   7.783  66.389  1.00  0.00    -0.094 C  
HETATM    2  C   UNL     1      -8.992   7.517  67.297  1.00  0.00    -0.124 C  
ENDROOT
BRANCH   2   3
HETATM    3  N   UNL     1      -9.814   8.729  67.480  1.00  0.00    -0.168 NA 
HETATM    4  C   UNL     1     -10.041   9.597  66.420  1.00  0.00    -0.247 C  
HETATM    5  C   UNL     1     -10.756  10.731  66.460  1.00  0.00    -0.245 C  
HETATM    6  C   UNL     1     -10.906  11.536  65.230  1.00  0.00    -0.259 C  
HETATM    7  C   UNL     1     -11.359  11.094  67.755  1.00  0.00    -0.293 C  
HETATM    8  C   UNL     1     -11.214  10.149  68.886  1.00  0.00    -0.220 A  
HETATM    9  O   UNL     1     -11.976  12.151  67.870  1.00  0.00    -0.489 OA 
HETATM   10  O   UNL     1     -10.426  11.214  64.152  1.00  0.00    -0.333 OA 
HETATM   11  O   UNL     1     -11.629  12.667  65.384  1.00  0.00    -0.329 OA 
HETATM   12  C   UNL     1     -11.879  10.426  70.084  1.00  0.00    -0.379 A  
HETATM   13  C   UNL     1     -11.796   9.521  71.138  1.00  0.00    -0.358 A  
HETATM   14  F   UNL     1     -12.468   9.816  72.262  1.00  0.00    -0.419 F  
HETATM   15  C   UNL     1     -11.039   8.345  71.042  1.00  0.00    -0.258 A  
HETATM   16  C   UNL     1     -10.439   8.986  68.722  1.00  0.00    -0.206 A  
HETATM   17  C   UNL     1     -10.362   8.118  69.824  1.00  0.00    -0.216 A  
BRANCH  15  18
HETATM   18  N   UNL     1     -10.979   7.355  72.018  1.00  0.00    -0.230 NA 
HETATM   19  C   UNL     1     -12.175   6.565  72.363  1.00  0.00    -0.057 C  
HETATM   20  C   UNL     1     -11.717   5.210  72.959  1.00  0.00    -0.150 C  
HETATM   21  N   UNL     1     -10.805   5.341  74.117  1.00  0.00    -0.398 NA 
HETATM   22  H   UNL     1     -10.492   4.433  74.462  1.00  0.00     0.000 HD 
HETATM   23  C   UNL     1      -9.673   6.222  73.769  1.00  0.00    -0.184 C  
HETATM   24  C   UNL     1     -10.109   7.588  73.188  1.00  0.00    -0.308 C  
ENDBRANCH  15  18
ENDBRANCH   2   3
TORSDOF 2
ENDMDL
MODEL       58
REMARK 921   NORMALIZED FREE ENERGY PREDICTED BY IDOCK:   -5.35 KCAL/MOL
REMARK 922        TOTAL FREE ENERGY PREDICTED BY IDOCK:   -6.36 KCAL/MOL
REMARK 923 INTER-LIGAND FREE ENERGY PREDICTED BY IDOCK:   -5.94 KCAL/MOL
REMARK 924 INTRA-LIGAND FREE ENERGY PREDICTED BY IDOCK:   -0.43 KCAL/MOL
REMARK 927      BINDING AFFINITY PREDICTED BY RF-SCORE:    0.00 PKD
ROOT
HETATM    1  C   UNL     1     -11.487  13.336  69.048  1.00  0.00    -0.350 C  
HETATM    2  C   UNL     1     -11.914  11.896  68.797  1.00  0.00    -0.249 C  
ENDROOT
BRANCH   2   3
HETATM    3  N   UNL     1     -11.255  11.336  67.601  1.00  0.00    -0.278 NA 
HETATM    4  C   UNL     1     -11.074  12.112  66.464  1.00  0.00    -0.307 C  
HETATM    5  C   UNL     1     -10.504  11.719  65.314  1.00  0.00    -0.320 C  
HETATM    6  C   UNL     1     -10.382  12.682  64.201  1.00  0.00    -0.387 C  
HETATM    7  C   UNL     1     -10.025  10.327  65.250  1.00  0.00    -0.317 C  
HETATM    8  C   UNL     1     -10.120   9.494  66.472  1.00  0.00    -0.326 A  
HETATM    9  O   UNL     1      -9.548   9.890  64.205  1.00  0.00    -0.282 OA 
HETATM   10  O   UNL     1     -10.758  13.844  64.271  1.00  0.00    -0.339 OA 
HETATM   11  O   UNL     1      -9.811  12.179  63.084  1.00  0.00    -0.398 OA 
HETATM   12  C   UNL     1      -9.562   8.213  66.458  1.00  0.00    -0.303 A  
HETATM   13  C   UNL     1      -9.596   7.439  67.614  1.00  0.00    -0.138 A  
HETATM   14  F   UNL     1      -9.030   6.223  67.562  1.00  0.00    -0.113 F  
HETATM   15  C   UNL     1     -10.200   7.900  68.792  1.00  0.00    -0.205 A  
HETATM   16  C   UNL     1     -10.738  10.020  67.622  1.00  0.00    -0.284 A  
HETATM   17  C   UNL     1     -10.773   9.190  68.755  1.00  0.00    -0.162 A  
BRANCH  15  18
HETATM   18  N   UNL     1     -10.195   7.221  70.007  1.00  0.00    -0.197 NA 
HETATM   19  C   UNL     1      -8.978   7.171  70.836  1.00  0.00    -0.151 C  
HETATM   20  C   UNL     1      -9.394   6.931  72.310  1.00  0.00    -0.137 C  
HETATM   21  N   UNL     1     -10.232   5.729  72.510  1.00  0.00    -0.184 NA 
HETATM   22  H   UNL     1     -10.521   5.620  73.482  1.00  0.00     0.000 HD 
HETATM   23  C   UNL     1     -11.387   5.762  71.590  1.00  0.00    -0.148 C  
HETATM   24  C   UNL     1     -10.992   5.983  70.111  1.00  0.00    -0.359 C  
ENDBRANCH  15  18
ENDBRANCH   2   3
TORSDOF 2
ENDMDL
MODEL       59
REMARK 921   NORMALIZED FREE ENERGY PREDICTED BY IDOCK:   -5.29 KCAL/MOL
REMARK 922        TOTAL FREE ENERGY PREDICTED BY IDOCK:   -6.29 KCAL/MOL
REMARK 923 INTER-LIGAND FREE ENERGY PREDICTED BY IDOCK:   -6.01 KCAL/MOL
REMARK 924 INTRA-LIGAND FREE ENERGY PREDICTED BY IDOCK:   -0.28 KCAL/MOL
REMARK 927      BINDING AFFINITY PREDICTED BY RF-SCORE:    0.00 PKD
ROOT
HETATM    1  C   UNL     1     -12.854  14.079  65.297  1.00  0.00    -0.418 C  
HETATM    2  C   UNL     1     -11.525  14.616  64.785  1.00  0.00    -0.410 C  
ENDROOT
BRANCH   2   3
HETATM    3  N   UNL     1     -10.649  15.044  65.893  1.00  0.00    -0.312 NA 
HETATM    4  C   UNL     1     -10.627  16.370  66.305  1.00  0.00    -0.242 C  
HETATM    5  C   UNL     1      -9.871  16.887  67.286  1.00  0.00    -0.265 C  
HETATM    6  C   UNL     1      -9.980  18.325  67.603  1.00  0.00    -0.338 C  
HETATM    7  C   UNL     1      -8.973  15.957  67.994  1.00  0.00    -0.182 C  
HETATM    8  C   UNL     1      -9.032  14.519  67.643  1.00  0.00    -0.193 A  
HETATM    9  O   UNL     1      -8.212  16.380  68.862  1.00  0.00    -0.218 OA 
HETATM   10  O   UNL     1     -10.747  19.085  67.029  1.00  0.00    -0.441 OA 
HETATM   11  O   UNL     1      -9.162  18.745  68.593  1.00  0.00    -0.342 OA 
HETATM   12  C   UNL     1      -8.272  13.612  68.388  1.00  0.00    -0.146 A  
HETATM   13  C   UNL     1      -8.358  12.253  68.105  1.00  0.00    -0.174 A  
HETATM   14  F   UNL     1      -7.628  11.416  68.859  1.00  0.00    -0.109 F  
HETATM   15  C   UNL     1      -9.170  11.764  67.071  1.00  0.00    -0.187 A  
HETATM   16  C   UNL     1      -9.870  14.096  66.594  1.00  0.00    -0.283 A  
HETATM   17  C   UNL     1      -9.901  12.716  66.328  1.00  0.00    -0.266 A  
BRANCH  15  18
HETATM   18  N   UNL     1      -9.373  10.417  66.788  1.00  0.00    -0.155 NA 
HETATM   19  C   UNL     1      -9.059   9.873  65.455  1.00  0.00    -0.196 C  
HETATM   20  C   UNL     1      -8.785   8.354  65.593  1.00  0.00    -0.172 C  
HETATM   21  N   UNL     1      -9.883   7.601  66.237  1.00  0.00    -0.450 NA 
HETATM   22  H   UNL     1      -9.656   6.613  66.348  1.00  0.00     0.000 HD 
HETATM   23  C   UNL     1     -10.242   8.235  67.521  1.00  0.00    -0.243 C  
HETATM   24  C   UNL     1     -10.537   9.749  67.403  1.00  0.00    -0.267 C  
ENDBRANCH  15  18
ENDBRANCH   2   3
TORSDOF 2
ENDMDL
MODEL       60
REMARK 921   NORMALIZED FREE ENERGY PREDICTED BY IDOCK:   -5.26 KCAL/MOL
REMARK 922        TOTAL FREE ENERGY PREDICTED BY IDOCK:   -6.26 KCAL/MOL
REMARK 923 INTER-LIGAND FREE ENERGY PREDICTED BY IDOCK:   -6.19 KCAL/MOL
REMARK 924 INTRA-LIGAND FREE ENERGY PREDICTED BY IDOCK:   -0.07 KCAL/MOL
REMARK 927      BINDING AFFINITY PREDICTED BY RF-SCORE:    0.00 PKD
ROOT
HETATM    1  C   UNL     1      -9.393  12.050  65.956  1.00  0.00    -0.196 C  
HETATM    2  C   UNL     1     -10.787  11.674  66.440  1.00  0.00    -0.287 C  
ENDROOT
BRANCH   2   3
HETATM    3  N   UNL     1     -10.756  10.479  67.307  1.00  0.00    -0.269 NA 
HETATM    4  C   UNL     1     -10.152   9.306  66.873  1.00  0.00    -0.256 C  
HETATM    5  C   UNL     1     -10.069   8.155  67.557  1.00  0.00    -0.286 C  
HETATM    6  C   UNL     1      -9.378   6.999  66.947  1.00  0.00    -0.153 C  
HETATM    7  C   UNL     1     -10.679   8.130  68.898  1.00  0.00    -0.064 C  
HETATM    8  C   UNL     1     -11.255   9.387  69.430  1.00  0.00    -0.019 A  
HETATM    9  O   UNL     1     -10.688   7.088  69.549  1.00  0.00    -0.226 OA 
HETATM   10  O   UNL     1      -8.850   7.036  65.845  1.00  0.00    -0.154 OA 
HETATM   11  O   UNL     1      -9.368   5.885  67.711  1.00  0.00    -0.109 OA 
HETATM   12  C   UNL     1     -11.731   9.406  70.745  1.00  0.00    -0.349 A  
HETATM   13  C   UNL     1     -12.225  10.592  71.277  1.00  0.00    -0.368 A  
HETATM   14  F   UNL     1     -12.651  10.570  72.550  1.00  0.00    -0.221 F  
HETATM   15  C   UNL     1     -12.285  11.771  70.521  1.00  0.00    -0.347 A  
HETATM   16  C   UNL     1     -11.283  10.535  68.618  1.00  0.00    -0.270 A  
HETATM   17  C   UNL     1     -11.817  11.702  69.190  1.00  0.00    -0.390 A  
BRANCH  15  18
HETATM   18  N   UNL     1     -12.683  13.011  71.010  1.00  0.00    -0.309 NA 
HETATM   19  C   UNL     1     -13.614  13.108  72.148  1.00  0.00    -0.544 C  
HETATM   20  C   UNL     1     -13.400  14.474  72.848  1.00  0.00    -0.482 C  
HETATM   21  N   UNL     1     -13.529  15.639  71.946  1.00  0.00    -0.476 NA 
HETATM   22  H   UNL     1     -13.345  16.518  72.428  1.00  0.00     0.000 HD 
HETATM   23  C   UNL     1     -12.660  15.459  70.766  1.00  0.00    -0.442 C  
HETATM   24  C   UNL     1     -12.871  14.109  70.042  1.00  0.00     0.030 C  
ENDBRANCH  15  18
ENDBRANCH   2   3
TORSDOF 2
ENDMDL
MODEL       61
REMARK 921   NORMALIZED FREE ENERGY PREDICTED BY IDOCK:   -5.24 KCAL/MOL
REMARK 922        TOTAL FREE ENERGY PREDICTED BY IDOCK:   -6.25 KCAL/MOL
REMARK 923 INTER-LIGAND FREE ENERGY PREDICTED BY IDOCK:   -5.89 KCAL/MOL
REMARK 924 INTRA-LIGAND FREE ENERGY PREDICTED BY IDOCK:   -0.36 KCAL/MOL
REMARK 927      BINDING AFFINITY PREDICTED BY RF-SCORE:    0.00 PKD
ROOT
HETATM    1  C   UNL     1      -8.862   6.792  67.647  1.00  0.00    -0.117 C  
HETATM    2  C   UNL     1      -8.977   8.254  68.055  1.00  0.00    -0.138 C  
ENDROOT
BRANCH   2   3
HETATM    3  N   UNL     1      -9.819   8.418  69.256  1.00  0.00    -0.182 NA 
HETATM    4  C   UNL     1      -9.833   7.446  70.248  1.00  0.00    -0.187 C  
HETATM    5  C   UNL     1     -10.560   7.470  71.375  1.00  0.00    -0.229 C  
HETATM    6  C   UNL     1     -10.446   6.352  72.334  1.00  0.00    -0.198 C  
HETATM    7  C   UNL     1     -11.431   8.641  71.582  1.00  0.00    -0.305 C  
HETATM    8  C   UNL     1     -11.378   9.740  70.589  1.00  0.00    -0.401 A  
HETATM    9  O   UNL     1     -12.166   8.694  72.566  1.00  0.00    -0.381 OA 
HETATM   10  O   UNL     1      -9.700   5.397  72.169  1.00  0.00    -0.158 OA 
HETATM   11  O   UNL     1     -11.234   6.466  73.425  1.00  0.00    -0.125 OA 
HETATM   12  C   UNL     1     -12.110  10.905  70.835  1.00  0.00    -0.455 A  
HETATM   13  C   UNL     1     -12.028  11.966  69.939  1.00  0.00    -0.325 A  
HETATM   14  F   UNL     1     -12.730  13.074  70.225  1.00  0.00    -0.260 F  
HETATM   15  C   UNL     1     -11.247  11.892  68.777  1.00  0.00    -0.259 A  
HETATM   16  C   UNL     1     -10.572   9.600  69.444  1.00  0.00    -0.225 A  
HETATM   17  C   UNL     1     -10.544  10.688  68.555  1.00  0.00    -0.229 A  
BRANCH  15  18
HETATM   18  N   UNL     1     -11.047  12.940  67.884  1.00  0.00    -0.241 NA 
HETATM   19  C   UNL     1     -10.541  14.242  68.352  1.00  0.00    -0.253 C  
HETATM   20  C   UNL     1      -9.851  14.961  67.165  1.00  0.00    -0.231 C  
HETATM   21  N   UNL     1     -10.713  15.115  65.973  1.00  0.00    -0.319 NA 
HETATM   22  H   UNL     1     -10.218  15.556  65.197  1.00  0.00     0.000 HD 
HETATM   23  C   UNL     1     -11.286  13.808  65.594  1.00  0.00    -0.302 C  
HETATM   24  C   UNL     1     -11.995  13.081  66.761  1.00  0.00    -0.369 C  
ENDBRANCH  15  18
ENDBRANCH   2   3
TORSDOF 2
ENDMDL
MODEL       62
REMARK 921   NORMALIZED FREE ENERGY PREDICTED BY IDOCK:   -5.23 KCAL/MOL
REMARK 922        TOTAL FREE ENERGY PREDICTED BY IDOCK:   -6.23 KCAL/MOL
REMARK 923 INTER-LIGAND FREE ENERGY PREDICTED BY IDOCK:   -5.79 KCAL/MOL
REMARK 924 INTRA-LIGAND FREE ENERGY PREDICTED BY IDOCK:   -0.43 KCAL/MOL
REMARK 927      BINDING AFFINITY PREDICTED BY RF-SCORE:    0.00 PKD
ROOT
HETATM    1  C   UNL     1     -10.652  20.325  67.992  1.00  0.00    -0.208 C  
HETATM    2  C   UNL     1      -9.852  19.603  69.068  1.00  0.00    -0.393 C  
ENDROOT
BRANCH   2   3
HETATM    3  N   UNL     1      -9.120  18.447  68.515  1.00  0.00    -0.324 NA 
HETATM    4  C   UNL     1      -7.966  18.634  67.765  1.00  0.00    -0.250 C  
HETATM    5  C   UNL     1      -7.219  17.673  67.200  1.00  0.00    -0.206 C  
HETATM    6  C   UNL     1      -6.009  18.048  66.440  1.00  0.00    -0.176 C  
HETATM    7  C   UNL     1      -7.668  16.282  67.392  1.00  0.00    -0.160 C  
HETATM    8  C   UNL     1      -8.844  16.037  68.258  1.00  0.00    -0.182 A  
HETATM    9  O   UNL     1      -7.061  15.361  66.850  1.00  0.00    -0.191 OA 
HETATM   10  O   UNL     1      -5.628  19.203  66.309  1.00  0.00    -0.156 OA 
HETATM   11  O   UNL     1      -5.342  17.006  65.898  1.00  0.00    -0.241 OA 
HETATM   12  C   UNL     1      -9.208  14.717  68.542  1.00  0.00    -0.193 A  
HETATM   13  C   UNL     1     -10.277  14.470  69.397  1.00  0.00    -0.035 A  
HETATM   14  F   UNL     1     -10.578  13.189  69.659  1.00  0.00     0.014 F  
HETATM   15  C   UNL     1     -11.021  15.513  69.967  1.00  0.00    -0.319 A  
HETATM   16  C   UNL     1      -9.547  17.130  68.799  1.00  0.00    -0.269 A  
HETATM   17  C   UNL     1     -10.636  16.830  69.634  1.00  0.00    -0.242 A  
BRANCH  15  18
HETATM   18  N   UNL     1     -12.044  15.346  70.896  1.00  0.00    -0.329 NA 
HETATM   19  C   UNL     1     -13.443  15.204  70.457  1.00  0.00    -0.078 C  
HETATM   20  C   UNL     1     -14.231  14.443  71.555  1.00  0.00    -0.365 C  
HETATM   21  N   UNL     1     -14.146  15.065  72.895  1.00  0.00    -0.440 NA 
HETATM   22  H   UNL     1     -14.641  14.520  73.601  1.00  0.00     0.000 HD 
HETATM   23  C   UNL     1     -12.732  15.287  73.257  1.00  0.00    -0.511 C  
HETATM   24  C   UNL     1     -11.932  16.060  72.183  1.00  0.00    -0.538 C  
ENDBRANCH  15  18
ENDBRANCH   2   3
TORSDOF 2
ENDMDL
MODEL       63
REMARK 921   NORMALIZED FREE ENERGY PREDICTED BY IDOCK:   -5.21 KCAL/MOL
REMARK 922        TOTAL FREE ENERGY PREDICTED BY IDOCK:   -6.21 KCAL/MOL
REMARK 923 INTER-LIGAND FREE ENERGY PREDICTED BY IDOCK:   -5.79 KCAL/MOL
REMARK 924 INTRA-LIGAND FREE ENERGY PREDICTED BY IDOCK:   -0.42 KCAL/MOL
REMARK 927      BINDING AFFINITY PREDICTED BY RF-SCORE:    0.00 PKD
ROOT
HETATM    1  C   UNL     1      -7.391  10.580  69.011  1.00  0.00    -0.103 C  
HETATM    2  C   UNL     1      -7.127  11.597  67.909  1.00  0.00    -0.081 C  
ENDROOT
BRANCH   2   3
HETATM    3  N   UNL     1      -8.039  11.406  66.765  1.00  0.00    -0.158 NA 
HETATM    4  C   UNL     1      -7.768  10.448  65.796  1.00  0.00    -0.146 C  
HETATM    5  C   UNL     1      -8.506  10.185  64.708  1.00  0.00    -0.180 C  
HETATM    6  C   UNL     1      -8.075   9.118  63.780  1.00  0.00    -0.156 C  
HETATM    7  C   UNL     1      -9.724  10.992  64.518  1.00  0.00    -0.273 C  
HETATM    8  C   UNL     1     -10.095  11.963  65.574  1.00  0.00    -0.277 A  
HETATM    9  O   UNL     1     -10.411  10.840  63.510  1.00  0.00    -0.312 OA 
HETATM   10  O   UNL     1      -7.078   8.433  63.959  1.00  0.00    -0.083 OA 
HETATM   11  O   UNL     1      -8.879   8.949  62.708  1.00  0.00    -0.169 OA 
HETATM   12  C   UNL     1     -11.307  12.650  65.462  1.00  0.00    -0.356 A  
HETATM   13  C   UNL     1     -11.695  13.525  66.472  1.00  0.00    -0.371 A  
HETATM   14  F   UNL     1     -12.876  14.146  66.334  1.00  0.00    -0.456 F  
HETATM   15  C   UNL     1     -10.887  13.759  67.594  1.00  0.00    -0.254 A  
HETATM   16  C   UNL     1      -9.238  12.150  66.675  1.00  0.00    -0.206 A  
HETATM   17  C   UNL     1      -9.659  13.064  67.655  1.00  0.00    -0.206 A  
BRANCH  15  18
HETATM   18  N   UNL     1     -11.246  14.550  68.682  1.00  0.00    -0.249 NA 
HETATM   19  C   UNL     1     -12.282  14.101  69.629  1.00  0.00    -0.326 C  
HETATM   20  C   UNL     1     -12.045  14.805  70.990  1.00  0.00    -0.330 C  
HETATM   21  N   UNL     1     -11.998  16.281  70.902  1.00  0.00    -0.534 NA 
HETATM   22  H   UNL     1     -11.803  16.711  71.806  1.00  0.00     0.000 HD 
HETATM   23  C   UNL     1     -11.025  16.692  69.871  1.00  0.00    -0.187 C  
HETATM   24  C   UNL     1     -11.253  16.014  68.499  1.00  0.00    -0.374 C  
ENDBRANCH  15  18
ENDBRANCH   2   3
TORSDOF 2
ENDMDL
MODEL       64
REMARK 921   NORMALIZED FREE ENERGY PREDICTED BY IDOCK:   -5.14 KCAL/MOL
REMARK 922        TOTAL FREE ENERGY PREDICTED BY IDOCK:   -6.13 KCAL/MOL
REMARK 923 INTER-LIGAND FREE ENERGY PREDICTED BY IDOCK:   -5.74 KCAL/MOL
REMARK 924 INTRA-LIGAND FREE ENERGY PREDICTED BY IDOCK:   -0.39 KCAL/MOL
REMARK 927      BINDING AFFINITY PREDICTED BY RF-SCORE:    0.00 PKD
ROOT
HETATM    1  C   UNL     1     -13.020   9.734  71.636  1.00  0.00    -0.517 C  
HETATM    2  C   UNL     1     -11.556   9.774  71.221  1.00  0.00    -0.390 C  
ENDROOT
BRANCH   2   3
HETATM    3  N   UNL     1     -11.385  10.399  69.895  1.00  0.00    -0.281 NA 
HETATM    4  C   UNL     1     -11.699  11.738  69.698  1.00  0.00    -0.344 C  
HETATM    5  C   UNL     1     -11.601  12.417  68.545  1.00  0.00    -0.358 C  
HETATM    6  C   UNL     1     -11.969  13.848  68.514  1.00  0.00    -0.359 C  
HETATM    7  C   UNL     1     -11.115  11.671  67.371  1.00  0.00    -0.281 C  
HETATM    8  C   UNL     1     -10.687  10.265  67.561  1.00  0.00    -0.348 A  
HETATM    9  O   UNL     1     -11.059  12.221  66.274  1.00  0.00    -0.274 OA 
HETATM   10  O   UNL     1     -12.345  14.468  69.499  1.00  0.00    -0.291 OA 
HETATM   11  O   UNL     1     -11.851  14.431  67.301  1.00  0.00    -0.384 OA 
HETATM   12  C   UNL     1     -10.115   9.584  66.482  1.00  0.00    -0.326 A  
HETATM   13  C   UNL     1      -9.659   8.282  66.658  1.00  0.00    -0.233 A  
HETATM   14  F   UNL     1      -9.097   7.673  65.602  1.00  0.00    -0.173 F  
HETATM   15  C   UNL     1      -9.780   7.618  67.888  1.00  0.00    -0.148 A  
HETATM   16  C   UNL     1     -10.836   9.659  68.822  1.00  0.00    -0.168 A  
HETATM   17  C   UNL     1     -10.386   8.334  68.943  1.00  0.00    -0.230 A  
BRANCH  15  18
HETATM   18  N   UNL     1      -9.271   6.353  68.163  1.00  0.00    -0.113 NA 
HETATM   19  C   UNL     1      -7.855   6.175  68.529  1.00  0.00    -0.104 C  
HETATM   20  C   UNL     1      -7.716   4.867  69.349  1.00  0.00    -0.067 C  
HETATM   21  N   UNL     1      -8.250   3.670  68.664  1.00  0.00    -0.072 NA 
HETATM   22  H   UNL     1      -8.180   2.834  69.245  1.00  0.00     0.000 HD 
HETATM   23  C   UNL     1      -9.636   3.921  68.220  1.00  0.00    -0.114 C  
HETATM   24  C   UNL     1      -9.793   5.213  67.385  1.00  0.00    -0.166 C  
ENDBRANCH  15  18
ENDBRANCH   2   3
TORSDOF 2
ENDMDL
MODEL       65
REMARK 921   NORMALIZED FREE ENERGY PREDICTED BY IDOCK:   -5.09 KCAL/MOL
REMARK 922        TOTAL FREE ENERGY PREDICTED BY IDOCK:   -6.07 KCAL/MOL
REMARK 923 INTER-LIGAND FREE ENERGY PREDICTED BY IDOCK:   -5.69 KCAL/MOL
REMARK 924 INTRA-LIGAND FREE ENERGY PREDICTED BY IDOCK:   -0.38 KCAL/MOL
REMARK 927      BINDING AFFINITY PREDICTED BY RF-SCORE:    0.00 PKD
ROOT
HETATM    1  C   UNL     1     -10.193  11.326  69.299  1.00  0.00    -0.058 C  
HETATM    2  C   UNL     1     -11.178  10.568  68.418  1.00  0.00    -0.279 C  
ENDROOT
BRANCH   2   3
HETATM    3  N   UNL     1     -11.044  10.953  67.000  1.00  0.00    -0.263 NA 
HETATM    4  C   UNL     1     -11.732  12.050  66.496  1.00  0.00    -0.256 C  
HETATM    5  C   UNL     1     -11.706  12.493  65.231  1.00  0.00    -0.430 C  
HETATM    6  C   UNL     1     -12.495  13.688  64.865  1.00  0.00    -0.384 C  
HETATM    7  C   UNL     1     -10.866  11.744  64.280  1.00  0.00    -0.349 C  
HETATM    8  C   UNL     1     -10.048  10.622  64.797  1.00  0.00    -0.412 A  
HETATM    9  O   UNL     1     -10.846  12.065  63.093  1.00  0.00    -0.356 OA 
HETATM   10  O   UNL     1     -13.167  14.321  65.667  1.00  0.00    -0.558 OA 
HETATM   11  O   UNL     1     -12.412  14.038  63.563  1.00  0.00    -0.826 OA 
HETATM   12  C   UNL     1      -9.160   9.980  63.929  1.00  0.00    -0.296 A  
HETATM   13  C   UNL     1      -8.347   8.960  64.413  1.00  0.00    -0.168 A  
HETATM   14  F   UNL     1      -7.494   8.386  63.551  1.00  0.00    -0.097 F  
HETATM   15  C   UNL     1      -8.410   8.538  65.749  1.00  0.00    -0.140 A  
HETATM   16  C   UNL     1     -10.160  10.250  66.150  1.00  0.00    -0.242 A  
HETATM   17  C   UNL     1      -9.338   9.197  66.585  1.00  0.00    -0.228 A  
BRANCH  15  18
HETATM   18  N   UNL     1      -7.570   7.589  66.324  1.00  0.00    -0.086 NA 
HETATM   19  C   UNL     1      -6.165   7.913  66.628  1.00  0.00    -0.050 C  
HETATM   20  C   UNL     1      -5.676   6.978  67.763  1.00  0.00    -0.024 C  
HETATM   21  N   UNL     1      -5.846   5.538  67.469  1.00  0.00    -0.017 NA 
HETATM   22  H   UNL     1      -5.551   4.951  68.249  1.00  0.00     0.000 HD 
HETATM   23  C   UNL     1      -7.241   5.267  67.068  1.00  0.00    -0.078 C  
HETATM   24  C   UNL     1      -7.743   6.179  65.924  1.00  0.00    -0.093 C  
ENDBRANCH  15  18
ENDBRANCH   2   3
TORSDOF 2
ENDMDL
MODEL       66
REMARK 921   NORMALIZED FREE ENERGY PREDICTED BY IDOCK:   -5.08 KCAL/MOL
REMARK 922        TOTAL FREE ENERGY PREDICTED BY IDOCK:   -6.06 KCAL/MOL
REMARK 923 INTER-LIGAND FREE ENERGY PREDICTED BY IDOCK:   -5.68 KCAL/MOL
REMARK 924 INTRA-LIGAND FREE ENERGY PREDICTED BY IDOCK:   -0.38 KCAL/MOL
REMARK 927      BINDING AFFINITY PREDICTED BY RF-SCORE:    0.00 PKD
ROOT
HETATM    1  C   UNL     1      -7.418   7.200  68.663  1.00  0.00    -0.102 C  
HETATM    2  C   UNL     1      -8.370   8.381  68.531  1.00  0.00    -0.131 C  
ENDROOT
BRANCH   2   3
HETATM    3  N   UNL     1      -9.315   8.444  69.663  1.00  0.00    -0.160 NA 
HETATM    4  C   UNL     1      -9.329   7.447  70.630  1.00  0.00    -0.160 C  
HETATM    5  C   UNL     1     -10.142   7.382  71.695  1.00  0.00    -0.200 C  
HETATM    6  C   UNL     1     -10.014   6.251  72.636  1.00  0.00    -0.172 C  
HETATM    7  C   UNL     1     -11.120   8.474  71.854  1.00  0.00    -0.325 C  
HETATM    8  C   UNL     1     -11.078   9.600  70.892  1.00  0.00    -0.422 A  
HETATM    9  O   UNL     1     -11.932   8.441  72.776  1.00  0.00    -0.367 OA 
HETATM   10  O   UNL     1      -9.182   5.363  72.513  1.00  0.00    -0.136 OA 
HETATM   11  O   UNL     1     -10.893   6.272  73.662  1.00  0.00    -0.242 OA 
HETATM   12  C   UNL     1     -11.920  10.696  71.102  1.00  0.00    -0.401 A  
HETATM   13  C   UNL     1     -11.854  11.785  70.238  1.00  0.00    -0.295 A  
HETATM   14  F   UNL     1     -12.666  12.824  70.489  1.00  0.00    -0.307 F  
HETATM   15  C   UNL     1     -10.980  11.804  69.142  1.00  0.00    -0.209 A  
HETATM   16  C   UNL     1     -10.175   9.556  69.814  1.00  0.00    -0.228 A  
HETATM   17  C   UNL     1     -10.165  10.667  68.953  1.00  0.00    -0.216 A  
BRANCH  15  18
HETATM   18  N   UNL     1     -10.797  12.889  68.290  1.00  0.00    -0.233 NA 
HETATM   19  C   UNL     1     -11.904  13.384  67.453  1.00  0.00    -0.375 C  
HETATM   20  C   UNL     1     -11.641  14.874  67.116  1.00  0.00    -0.315 C  
HETATM   21  N   UNL     1     -10.330  15.123  66.477  1.00  0.00    -0.275 NA 
HETATM   22  H   UNL     1     -10.171  16.116  66.304  1.00  0.00     0.000 HD 
HETATM   23  C   UNL     1      -9.253  14.523  67.290  1.00  0.00    -0.207 C  
HETATM   24  C   UNL     1      -9.488  13.031  67.623  1.00  0.00    -0.201 C  
ENDBRANCH  15  18
ENDBRANCH   2   3
TORSDOF 2
ENDMDL
MODEL       67
REMARK 921   NORMALIZED FREE ENERGY PREDICTED BY IDOCK:   -5.07 KCAL/MOL
REMARK 922        TOTAL FREE ENERGY PREDICTED BY IDOCK:   -6.05 KCAL/MOL
REMARK 923 INTER-LIGAND FREE ENERGY PREDICTED BY IDOCK:   -6.02 KCAL/MOL
REMARK 924 INTRA-LIGAND FREE ENERGY PREDICTED BY IDOCK:   -0.03 KCAL/MOL
REMARK 927      BINDING AFFINITY PREDICTED BY RF-SCORE:    0.00 PKD
ROOT
HETATM    1  C   UNL     1     -13.193  10.663  71.797  1.00  0.00    -0.526 C  
HETATM    2  C   UNL     1     -12.600  10.694  70.395  1.00  0.00    -0.316 C  
ENDROOT
BRANCH   2   3
HETATM    3  N   UNL     1     -11.254  10.091  70.361  1.00  0.00    -0.300 NA 
HETATM    4  C   UNL     1     -10.788   9.342  71.434  1.00  0.00    -0.364 C  
HETATM    5  C   UNL     1      -9.586   8.754  71.532  1.00  0.00    -0.354 C  
HETATM    6  C   UNL     1      -9.254   7.982  72.747  1.00  0.00    -0.252 C  
HETATM    7  C   UNL     1      -8.668   8.920  70.391  1.00  0.00    -0.180 C  
HETATM    8  C   UNL     1      -9.161   9.637  69.192  1.00  0.00    -0.168 A  
HETATM    9  O   UNL     1      -7.531   8.456  70.445  1.00  0.00    -0.062 OA 
HETATM   10  O   UNL     1     -10.032   7.825  73.679  1.00  0.00    -0.301 OA 
HETATM   11  O   UNL     1      -8.013   7.448  72.751  1.00  0.00    -0.095 OA 
HETATM   12  C   UNL     1      -8.343   9.699  68.060  1.00  0.00    -0.117 A  
HETATM   13  C   UNL     1      -8.812  10.322  66.909  1.00  0.00    -0.132 A  
HETATM   14  F   UNL     1      -8.002  10.339  65.839  1.00  0.00    -0.115 F  
HETATM   15  C   UNL     1     -10.081  10.916  66.857  1.00  0.00    -0.212 A  
HETATM   16  C   UNL     1     -10.446  10.210  69.207  1.00  0.00    -0.225 A  
HETATM   17  C   UNL     1     -10.865  10.853  68.030  1.00  0.00    -0.293 A  
BRANCH  15  18
HETATM   18  N   UNL     1     -10.652  11.478  65.719  1.00  0.00    -0.258 NA 
HETATM   19  C   UNL     1      -9.805  11.980  64.623  1.00  0.00    -0.157 C  
HETATM   20  C   UNL     1     -10.630  11.958  63.311  1.00  0.00    -0.365 C  
HETATM   21  N   UNL     1     -11.906  12.703  63.391  1.00  0.00    -0.635 NA 
HETATM   22  H   UNL     1     -12.442  12.638  62.526  1.00  0.00     0.000 HD 
HETATM   23  C   UNL     1     -12.682  12.247  64.561  1.00  0.00    -0.243 C  
HETATM   24  C   UNL     1     -11.881  12.278  65.884  1.00  0.00    -0.354 C  
ENDBRANCH  15  18
ENDBRANCH   2   3
TORSDOF 2
ENDMDL
MODEL       68
REMARK 921   NORMALIZED FREE ENERGY PREDICTED BY IDOCK:   -5.06 KCAL/MOL
REMARK 922        TOTAL FREE ENERGY PREDICTED BY IDOCK:   -6.04 KCAL/MOL
REMARK 923 INTER-LIGAND FREE ENERGY PREDICTED BY IDOCK:   -6.18 KCAL/MOL
REMARK 924 INTRA-LIGAND FREE ENERGY PREDICTED BY IDOCK:    0.14 KCAL/MOL
REMARK 927      BINDING AFFINITY PREDICTED BY RF-SCORE:    0.00 PKD
ROOT
HETATM    1  C   UNL     1      -9.931   7.885  72.953  1.00  0.00    -0.360 C  
HETATM    2  C   UNL     1     -10.328   8.953  71.942  1.00  0.00    -0.337 C  
ENDROOT
BRANCH   2   3
HETATM    3  N   UNL     1     -10.317   8.425  70.564  1.00  0.00    -0.196 NA 
HETATM    4  C   UNL     1     -10.179   7.063  70.328  1.00  0.00    -0.193 C  
HETATM    5  C   UNL     1     -10.142   6.462  69.130  1.00  0.00    -0.194 C  
HETATM    6  C   UNL     1     -10.000   4.993  69.060  1.00  0.00    -0.181 C  
HETATM    7  C   UNL     1     -10.256   7.332  67.945  1.00  0.00    -0.191 C  
HETATM    8  C   UNL     1     -10.492   8.779  68.156  1.00  0.00    -0.243 A  
HETATM    9  O   UNL     1     -10.169   6.848  66.818  1.00  0.00    -0.219 OA 
HETATM   10  O   UNL     1      -9.934   4.276  70.048  1.00  0.00    -0.223 OA 
HETATM   11  O   UNL     1      -9.954   4.494  67.806  1.00  0.00    -0.142 OA 
HETATM   12  C   UNL     1     -10.719   9.594  67.043  1.00  0.00    -0.225 A  
HETATM   13  C   UNL     1     -10.996  10.944  67.228  1.00  0.00    -0.294 A  
HETATM   14  F   UNL     1     -11.229  11.685  66.133  1.00  0.00    -0.331 F  
HETATM   15  C   UNL     1     -11.029  11.522  68.505  1.00  0.00    -0.223 A  
HETATM   16  C   UNL     1     -10.514   9.294  69.466  1.00  0.00    -0.220 A  
HETATM   17  C   UNL     1     -10.769  10.669  69.600  1.00  0.00    -0.290 A  
BRANCH  15  18
HETATM   18  N   UNL     1     -11.383  12.841  68.773  1.00  0.00    -0.268 NA 
HETATM   19  C   UNL     1     -11.955  13.215  70.079  1.00  0.00    -0.321 C  
HETATM   20  C   UNL     1     -11.676  14.720  70.327  1.00  0.00    -0.298 C  
HETATM   21  N   UNL     1     -12.165  15.607  69.250  1.00  0.00    -0.565 NA 
HETATM   22  H   UNL     1     -11.933  16.585  69.424  1.00  0.00     0.000 HD 
HETATM   23  C   UNL     1     -11.658  15.141  67.944  1.00  0.00    -0.311 C  
HETATM   24  C   UNL     1     -11.941  13.645  67.669  1.00  0.00    -0.351 C  
ENDBRANCH  15  18
ENDBRANCH   2   3
TORSDOF 2
ENDMDL
MODEL       69
REMARK 921   NORMALIZED FREE ENERGY PREDICTED BY IDOCK:   -5.03 KCAL/MOL
REMARK 922        TOTAL FREE ENERGY PREDICTED BY IDOCK:   -6.01 KCAL/MOL
REMARK 923 INTER-LIGAND FREE ENERGY PREDICTED BY IDOCK:   -5.64 KCAL/MOL
REMARK 924 INTRA-LIGAND FREE ENERGY PREDICTED BY IDOCK:   -0.37 KCAL/MOL
REMARK 927      BINDING AFFINITY PREDICTED BY RF-SCORE:    0.00 PKD
ROOT
HETATM    1  C   UNL     1     -11.326  12.423  64.597  1.00  0.00    -0.364 C  
HETATM    2  C   UNL     1     -10.510  13.628  65.045  1.00  0.00    -0.391 C  
ENDROOT
BRANCH   2   3
HETATM    3  N   UNL     1      -9.580  13.278  66.137  1.00  0.00    -0.241 NA 
HETATM    4  C   UNL     1      -9.166  11.966  66.320  1.00  0.00    -0.214 C  
HETATM    5  C   UNL     1      -8.338  11.518  67.276  1.00  0.00    -0.154 C  
HETATM    6  C   UNL     1      -7.991  10.083  67.321  1.00  0.00    -0.106 C  
HETATM    7  C   UNL     1      -7.819  12.517  68.228  1.00  0.00    -0.144 C  
HETATM    8  C   UNL     1      -8.168  13.941  68.013  1.00  0.00    -0.161 A  
HETATM    9  O   UNL     1      -7.104  12.161  69.162  1.00  0.00    -0.090 OA 
HETATM   10  O   UNL     1      -8.404   9.265  66.511  1.00  0.00    -0.122 OA 
HETATM   11  O   UNL     1      -7.167   9.737  68.334  1.00  0.00    -0.076 OA 
HETATM   12  C   UNL     1      -7.587  14.908  68.837  1.00  0.00    -0.144 A  
HETATM   13  C   UNL     1      -7.862  16.254  68.614  1.00  0.00    -0.202 A  
HETATM   14  F   UNL     1      -7.267  17.150  69.415  1.00  0.00    -0.243 F  
HETATM   15  C   UNL     1      -8.731  16.668  67.595  1.00  0.00    -0.202 A  
HETATM   16  C   UNL     1      -9.046  14.288  66.970  1.00  0.00    -0.233 A  
HETATM   17  C   UNL     1      -9.316  15.657  66.801  1.00  0.00    -0.268 A  
BRANCH  15  18
HETATM   18  N   UNL     1      -8.986  17.994  67.256  1.00  0.00    -0.248 NA 
HETATM   19  C   UNL     1     -10.254  18.375  66.610  1.00  0.00    -0.394 C  
HETATM   20  C   UNL     1     -10.531  19.871  66.909  1.00  0.00    -0.450 C  
HETATM   21  N   UNL     1      -9.431  20.776  66.512  1.00  0.00    -0.617 NA 
HETATM   22  H   UNL     1      -9.627  21.747  66.757  1.00  0.00     0.000 HD 
HETATM   23  C   UNL     1      -8.157  20.305  67.092  1.00  0.00    -0.335 C  
HETATM   24  C   UNL     1      -7.853  18.818  66.791  1.00  0.00    -0.245 C  
ENDBRANCH  15  18
ENDBRANCH   2   3
TORSDOF 2
ENDMDL
MODEL       70
REMARK 921   NORMALIZED FREE ENERGY PREDICTED BY IDOCK:   -5.03 KCAL/MOL
REMARK 922        TOTAL FREE ENERGY PREDICTED BY IDOCK:   -6.01 KCAL/MOL
REMARK 923 INTER-LIGAND FREE ENERGY PREDICTED BY IDOCK:   -6.08 KCAL/MOL
REMARK 924 INTRA-LIGAND FREE ENERGY PREDICTED BY IDOCK:    0.07 KCAL/MOL
REMARK 927      BINDING AFFINITY PREDICTED BY RF-SCORE:    0.00 PKD
ROOT
HETATM    1  C   UNL     1     -10.890  19.477  67.165  1.00  0.00    -0.555 C  
HETATM    2  C   UNL     1     -10.337  18.744  65.951  1.00  0.00    -0.342 C  
ENDROOT
BRANCH   2   3
HETATM    3  N   UNL     1      -9.943  17.362  66.284  1.00  0.00    -0.346 NA 
HETATM    4  C   UNL     1     -10.489  16.285  65.598  1.00  0.00    -0.368 C  
HETATM    5  C   UNL     1     -10.225  14.987  65.812  1.00  0.00    -0.361 C  
HETATM    6  C   UNL     1     -10.891  13.965  64.978  1.00  0.00    -0.382 C  
HETATM    7  C   UNL     1      -9.263  14.672  66.882  1.00  0.00    -0.249 C  
HETATM    8  C   UNL     1      -8.593  15.795  67.578  1.00  0.00    -0.180 A  
HETATM    9  O   UNL     1      -9.024  13.500  67.167  1.00  0.00    -0.210 OA 
HETATM   10  O   UNL     1     -11.668  14.236  64.073  1.00  0.00    -0.301 OA 
HETATM   11  O   UNL     1     -10.569  12.691  65.290  1.00  0.00    -0.279 OA 
HETATM   12  C   UNL     1      -7.593  15.508  68.512  1.00  0.00    -0.127 A  
HETATM   13  C   UNL     1      -6.917  16.553  69.134  1.00  0.00    -0.225 A  
HETATM   14  F   UNL     1      -5.950  16.232  70.008  1.00  0.00    -0.170 F  
HETATM   15  C   UNL     1      -7.228  17.894  68.869  1.00  0.00    -0.256 A  
HETATM   16  C   UNL     1      -8.953  17.119  67.263  1.00  0.00    -0.221 A  
HETATM   17  C   UNL     1      -8.261  18.138  67.938  1.00  0.00    -0.253 A  
BRANCH  15  18
HETATM   18  N   UNL     1      -6.540  18.988  69.385  1.00  0.00    -0.302 NA 
HETATM   19  C   UNL     1      -6.594  19.301  70.824  1.00  0.00     0.544 C  
HETATM   20  C   UNL     1      -5.326  20.109  71.201  1.00  0.00    -0.297 C  
HETATM   21  N   UNL     1      -5.129  21.331  70.391  1.00  0.00    -0.575 NA 
HETATM   22  H   UNL     1      -4.268  21.818  70.637  1.00  0.00     0.000 HD 
HETATM   23  C   UNL     1      -5.185  20.995  68.954  1.00  0.00    -0.318 C  
HETATM   24  C   UNL     1      -6.451  20.203  68.552  1.00  0.00    -0.307 C  
ENDBRANCH  15  18
ENDBRANCH   2   3
TORSDOF 2
ENDMDL
MODEL       71
REMARK 921   NORMALIZED FREE ENERGY PREDICTED BY IDOCK:   -5.01 KCAL/MOL
REMARK 922        TOTAL FREE ENERGY PREDICTED BY IDOCK:   -5.98 KCAL/MOL
REMARK 923 INTER-LIGAND FREE ENERGY PREDICTED BY IDOCK:   -5.71 KCAL/MOL
REMARK 924 INTRA-LIGAND FREE ENERGY PREDICTED BY IDOCK:   -0.27 KCAL/MOL
REMARK 927      BINDING AFFINITY PREDICTED BY RF-SCORE:    0.00 PKD
ROOT
HETATM    1  C   UNL     1     -12.291   9.093  71.230  1.00  0.00    -0.382 C  
HETATM    2  C   UNL     1     -11.229   9.583  70.255  1.00  0.00    -0.261 C  
ENDROOT
BRANCH   2   3
HETATM    3  N   UNL     1     -11.452  10.991  69.873  1.00  0.00    -0.298 NA 
HETATM    4  C   UNL     1     -12.062  11.875  70.753  1.00  0.00    -0.226 C  
HETATM    5  C   UNL     1     -12.332  13.169  70.523  1.00  0.00    -0.380 C  
HETATM    6  C   UNL     1     -12.980  13.973  71.580  1.00  0.00    -0.351 C  
HETATM    7  C   UNL     1     -11.944  13.706  69.206  1.00  0.00    -0.336 C  
HETATM    8  C   UNL     1     -11.213  12.818  68.273  1.00  0.00    -0.308 A  
HETATM    9  O   UNL     1     -12.218  14.868  68.913  1.00  0.00    -0.219 OA 
HETATM   10  O   UNL     1     -13.273  13.527  72.680  1.00  0.00    -0.491 OA 
HETATM   11  O   UNL     1     -13.223  15.257  71.238  1.00  0.00    -0.416 OA 
HETATM   12  C   UNL     1     -10.738  13.350  67.071  1.00  0.00    -0.271 A  
HETATM   13  C   UNL     1     -10.002  12.543  66.208  1.00  0.00    -0.252 A  
HETATM   14  F   UNL     1      -9.547  13.100  65.075  1.00  0.00    -0.132 F  
HETATM   15  C   UNL     1      -9.743  11.196  66.500  1.00  0.00    -0.198 A  
HETATM   16  C   UNL     1     -10.986  11.475  68.629  1.00  0.00    -0.223 A  
HETATM   17  C   UNL     1     -10.263  10.693  67.713  1.00  0.00    -0.212 A  
BRANCH  15  18
HETATM   18  N   UNL     1      -8.945  10.355  65.732  1.00  0.00    -0.162 NA 
HETATM   19  C   UNL     1      -7.504  10.224  66.010  1.00  0.00    -0.128 C  
HETATM   20  C   UNL     1      -7.020   8.851  65.477  1.00  0.00    -0.080 C  
HETATM   21  N   UNL     1      -7.315   8.626  64.045  1.00  0.00    -0.102 NA 
HETATM   22  H   UNL     1      -7.019   7.700  63.734  1.00  0.00     0.000 HD 
HETATM   23  C   UNL     1      -8.747   8.867  63.782  1.00  0.00    -0.022 C  
HETATM   24  C   UNL     1      -9.247  10.239  64.292  1.00  0.00    -0.257 C  
ENDBRANCH  15  18
ENDBRANCH   2   3
TORSDOF 2
ENDMDL
MODEL       72
REMARK 921   NORMALIZED FREE ENERGY PREDICTED BY IDOCK:   -4.95 KCAL/MOL
REMARK 922        TOTAL FREE ENERGY PREDICTED BY IDOCK:   -5.92 KCAL/MOL
REMARK 923 INTER-LIGAND FREE ENERGY PREDICTED BY IDOCK:   -5.63 KCAL/MOL
REMARK 924 INTRA-LIGAND FREE ENERGY PREDICTED BY IDOCK:   -0.29 KCAL/MOL
REMARK 927      BINDING AFFINITY PREDICTED BY RF-SCORE:    0.00 PKD
ROOT
HETATM    1  C   UNL     1     -12.128  14.147  65.647  1.00  0.00    -0.425 C  
HETATM    2  C   UNL     1     -10.882  14.724  64.988  1.00  0.00    -0.425 C  
ENDROOT
BRANCH   2   3
HETATM    3  N   UNL     1     -10.216  15.712  65.860  1.00  0.00    -0.325 NA 
HETATM    4  C   UNL     1     -10.470  17.070  65.713  1.00  0.00    -0.251 C  
HETATM    5  C   UNL     1      -9.924  18.064  66.429  1.00  0.00    -0.362 C  
HETATM    6  C   UNL     1     -10.315  19.460  66.147  1.00  0.00    -0.504 C  
HETATM    7  C   UNL     1      -8.957  17.679  67.473  1.00  0.00    -0.235 C  
HETATM    8  C   UNL     1      -8.726  16.236  67.719  1.00  0.00    -0.182 A  
HETATM    9  O   UNL     1      -8.377  18.547  68.122  1.00  0.00    -0.279 OA 
HETATM   10  O   UNL     1     -11.139  19.769  65.298  1.00  0.00    -0.395 OA 
HETATM   11  O   UNL     1      -9.692  20.383  66.912  1.00  0.00    -0.428 OA 
HETATM   12  C   UNL     1      -7.902  15.858  68.783  1.00  0.00    -0.185 A  
HETATM   13  C   UNL     1      -7.718  14.507  69.060  1.00  0.00    -0.113 A  
HETATM   14  F   UNL     1      -6.936  14.190  70.104  1.00  0.00    -0.083 F  
HETATM   15  C   UNL     1      -8.318  13.507  68.283  1.00  0.00    -0.165 A  
HETATM   16  C   UNL     1      -9.361  15.283  66.901  1.00  0.00    -0.237 A  
HETATM   17  C   UNL     1      -9.122  13.932  67.203  1.00  0.00    -0.245 A  
BRANCH  15  18
HETATM   18  N   UNL     1      -8.252  12.143  68.551  1.00  0.00    -0.138 NA 
HETATM   19  C   UNL     1      -7.010  11.388  68.307  1.00  0.00    -0.072 C  
HETATM   20  C   UNL     1      -7.005  10.137  69.223  1.00  0.00    -0.068 C  
HETATM   21  N   UNL     1      -8.198   9.276  69.071  1.00  0.00    -0.108 NA 
HETATM   22  H   UNL     1      -8.182   8.484  69.714  1.00  0.00     0.000 HD 
HETATM   23  C   UNL     1      -9.424  10.085  69.218  1.00  0.00    -0.217 C  
HETATM   24  C   UNL     1      -9.458  11.329  68.300  1.00  0.00    -0.190 C  
ENDBRANCH  15  18
ENDBRANCH   2   3
TORSDOF 2
ENDMDL
MODEL       73
REMARK 921   NORMALIZED FREE ENERGY PREDICTED BY IDOCK:   -4.93 KCAL/MOL
REMARK 922        TOTAL FREE ENERGY PREDICTED BY IDOCK:   -5.89 KCAL/MOL
REMARK 923 INTER-LIGAND FREE ENERGY PREDICTED BY IDOCK:   -5.65 KCAL/MOL
REMARK 924 INTRA-LIGAND FREE ENERGY PREDICTED BY IDOCK:   -0.25 KCAL/MOL
REMARK 927      BINDING AFFINITY PREDICTED BY RF-SCORE:    0.00 PKD
ROOT
HETATM    1  C   UNL     1     -10.243   7.034  71.053  1.00  0.00    -0.209 C  
HETATM    2  C   UNL     1     -11.156   7.380  69.885  1.00  0.00    -0.190 C  
ENDROOT
BRANCH   2   3
HETATM    3  N   UNL     1     -10.465   7.221  68.590  1.00  0.00    -0.197 NA 
HETATM    4  C   UNL     1     -10.079   5.964  68.144  1.00  0.00    -0.166 C  
HETATM    5  C   UNL     1      -9.438   5.688  66.999  1.00  0.00    -0.132 C  
HETATM    6  C   UNL     1      -9.109   4.285  66.672  1.00  0.00    -0.129 C  
HETATM    7  C   UNL     1      -9.108   6.831  66.129  1.00  0.00    -0.109 C  
HETATM    8  C   UNL     1      -9.580   8.177  66.527  1.00  0.00    -0.303 A  
HETATM    9  O   UNL     1      -8.468   6.650  65.094  1.00  0.00    -0.122 OA 
HETATM   10  O   UNL     1      -9.411   3.340  67.386  1.00  0.00    -0.204 OA 
HETATM   11  O   UNL     1      -8.447   4.121  65.506  1.00  0.00    -0.109 OA 
HETATM   12  C   UNL     1      -9.376   9.249  65.653  1.00  0.00    -0.308 A  
HETATM   13  C   UNL     1      -9.861  10.509  65.989  1.00  0.00    -0.222 A  
HETATM   14  F   UNL     1      -9.661  11.504  65.111  1.00  0.00    -0.238 F  
HETATM   15  C   UNL     1     -10.532  10.742  67.198  1.00  0.00    -0.237 A  
HETATM   16  C   UNL     1     -10.248   8.341  67.755  1.00  0.00    -0.223 A  
HETATM   17  C   UNL     1     -10.695   9.638  68.063  1.00  0.00    -0.284 A  
BRANCH  15  18
HETATM   18  N   UNL     1     -11.120  11.949  67.562  1.00  0.00    -0.255 NA 
HETATM   19  C   UNL     1     -11.637  12.153  68.927  1.00  0.00    -0.324 C  
HETATM   20  C   UNL     1     -11.646  13.674  69.230  1.00  0.00    -0.311 C  
HETATM   21  N   UNL     1     -12.399  14.478  68.243  1.00  0.00    -0.595 NA 
HETATM   22  H   UNL     1     -12.354  15.476  68.448  1.00  0.00     0.000 HD 
HETATM   23  C   UNL     1     -11.926  14.171  66.878  1.00  0.00    -0.449 C  
HETATM   24  C   UNL     1     -11.925  12.660  66.549  1.00  0.00    -0.331 C  
ENDBRANCH  15  18
ENDBRANCH   2   3
TORSDOF 2
ENDMDL
MODEL       74
REMARK 921   NORMALIZED FREE ENERGY PREDICTED BY IDOCK:   -4.92 KCAL/MOL
REMARK 922        TOTAL FREE ENERGY PREDICTED BY IDOCK:   -5.88 KCAL/MOL
REMARK 923 INTER-LIGAND FREE ENERGY PREDICTED BY IDOCK:   -5.68 KCAL/MOL
REMARK 924 INTRA-LIGAND FREE ENERGY PREDICTED BY IDOCK:   -0.20 KCAL/MOL
REMARK 927      BINDING AFFINITY PREDICTED BY RF-SCORE:    0.00 PKD
ROOT
HETATM    1  C   UNL     1      -6.011  15.214  69.005  1.00  0.00    -0.097 C  
HETATM    2  C   UNL     1      -7.430  15.477  69.490  1.00  0.00    -0.200 C  
ENDROOT
BRANCH   2   3
HETATM    3  N   UNL     1      -8.254  16.107  68.440  1.00  0.00    -0.165 NA 
HETATM    4  C   UNL     1      -8.154  17.469  68.185  1.00  0.00    -0.249 C  
HETATM    5  C   UNL     1      -8.852  18.161  67.272  1.00  0.00    -0.251 C  
HETATM    6  C   UNL     1      -8.613  19.611  67.124  1.00  0.00    -0.308 C  
HETATM    7  C   UNL     1      -9.822  17.404  66.461  1.00  0.00    -0.304 C  
HETATM    8  C   UNL     1      -9.895  15.935  66.643  1.00  0.00    -0.267 A  
HETATM    9  O   UNL     1     -10.535  17.991  65.649  1.00  0.00    -0.619 OA 
HETATM   10  O   UNL     1      -7.786  20.228  67.781  1.00  0.00    -0.291 OA 
HETATM   11  O   UNL     1      -9.381  20.214  66.190  1.00  0.00    -0.353 OA 
HETATM   12  C   UNL     1     -10.726  15.192  65.798  1.00  0.00    -0.359 A  
HETATM   13  C   UNL     1     -10.764  13.807  65.921  1.00  0.00    -0.285 A  
HETATM   14  F   UNL     1     -11.559  13.132  65.076  1.00  0.00    -0.321 F  
HETATM   15  C   UNL     1     -10.008  13.132  66.890  1.00  0.00    -0.245 A  
HETATM   16  C   UNL     1      -9.108  15.320  67.634  1.00  0.00    -0.183 A  
HETATM   17  C   UNL     1      -9.202  13.922  67.738  1.00  0.00    -0.197 A  
BRANCH  15  18
HETATM   18  N   UNL     1      -9.928  11.748  67.015  1.00  0.00    -0.203 NA 
HETATM   19  C   UNL     1      -9.197  11.135  68.137  1.00  0.00    -0.166 C  
HETATM   20  C   UNL     1      -9.766   9.713  68.380  1.00  0.00    -0.150 C  
HETATM   21  N   UNL     1      -9.742   8.844  67.183  1.00  0.00    -0.171 NA 
HETATM   22  H   UNL     1     -10.158   7.931  67.365  1.00  0.00     0.000 HD 
HETATM   23  C   UNL     1     -10.391   9.533  66.049  1.00  0.00    -0.060 C  
HETATM   24  C   UNL     1      -9.826  10.947  65.779  1.00  0.00    -0.237 C  
ENDBRANCH  15  18
ENDBRANCH   2   3
TORSDOF 2
ENDMDL
MODEL       75
REMARK 921   NORMALIZED FREE ENERGY PREDICTED BY IDOCK:   -4.91 KCAL/MOL
REMARK 922        TOTAL FREE ENERGY PREDICTED BY IDOCK:   -5.87 KCAL/MOL
REMARK 923 INTER-LIGAND FREE ENERGY PREDICTED BY IDOCK:   -5.47 KCAL/MOL
REMARK 924 INTRA-LIGAND FREE ENERGY PREDICTED BY IDOCK:   -0.40 KCAL/MOL
REMARK 927      BINDING AFFINITY PREDICTED BY RF-SCORE:    0.00 PKD
ROOT
HETATM    1  C   UNL     1      -6.206  11.324  68.153  1.00  0.00    -0.049 C  
HETATM    2  C   UNL     1      -7.053  10.059  68.195  1.00  0.00    -0.080 C  
ENDROOT
BRANCH   2   3
HETATM    3  N   UNL     1      -8.493  10.373  68.284  1.00  0.00    -0.120 NA 
HETATM    4  C   UNL     1      -9.152  10.979  67.223  1.00  0.00    -0.138 C  
HETATM    5  C   UNL     1     -10.447  11.325  67.183  1.00  0.00    -0.259 C  
HETATM    6  C   UNL     1     -10.992  11.955  65.963  1.00  0.00    -0.309 C  
HETATM    7  C   UNL     1     -11.250  11.037  68.385  1.00  0.00    -0.274 C  
HETATM    8  C   UNL     1     -10.605  10.312  69.504  1.00  0.00    -0.270 A  
HETATM    9  O   UNL     1     -12.429  11.384  68.434  1.00  0.00    -0.379 OA 
HETATM   10  O   UNL     1     -10.326  12.166  64.959  1.00  0.00    -0.271 OA 
HETATM   11  O   UNL     1     -12.301  12.280  66.037  1.00  0.00    -0.609 OA 
HETATM   12  C   UNL     1     -11.386   9.930  70.599  1.00  0.00    -0.413 A  
HETATM   13  C   UNL     1     -10.806   9.202  71.633  1.00  0.00    -0.372 A  
HETATM   14  F   UNL     1     -11.597   8.838  72.654  1.00  0.00    -0.409 F  
HETATM   15  C   UNL     1      -9.446   8.860  71.622  1.00  0.00    -0.281 A  
HETATM   16  C   UNL     1      -9.235   9.999  69.428  1.00  0.00    -0.216 A  
HETATM   17  C   UNL     1      -8.688   9.288  70.510  1.00  0.00    -0.276 A  
BRANCH  15  18
HETATM   18  N   UNL     1      -8.818   8.063  72.573  1.00  0.00    -0.157 NA 
HETATM   19  C   UNL     1      -7.383   8.228  72.865  1.00  0.00    -0.104 C  
HETATM   20  C   UNL     1      -7.107   7.710  74.300  1.00  0.00    -0.116 C  
HETATM   21  N   UNL     1      -7.547   6.317  74.530  1.00  0.00    -0.099 NA 
HETATM   22  H   UNL     1      -7.387   6.019  75.493  1.00  0.00     0.000 HD 
HETATM   23  C   UNL     1      -8.959   6.162  74.129  1.00  0.00    -0.131 C  
HETATM   24  C   UNL     1      -9.253   6.657  72.694  1.00  0.00    -0.139 C  
ENDBRANCH  15  18
ENDBRANCH   2   3
TORSDOF 2
ENDMDL
MODEL       76
REMARK 921   NORMALIZED FREE ENERGY PREDICTED BY IDOCK:   -4.86 KCAL/MOL
REMARK 922        TOTAL FREE ENERGY PREDICTED BY IDOCK:   -5.82 KCAL/MOL
REMARK 923 INTER-LIGAND FREE ENERGY PREDICTED BY IDOCK:   -5.48 KCAL/MOL
REMARK 924 INTRA-LIGAND FREE ENERGY PREDICTED BY IDOCK:   -0.35 KCAL/MOL
REMARK 927      BINDING AFFINITY PREDICTED BY RF-SCORE:    0.00 PKD
ROOT
HETATM    1  C   UNL     1     -11.488   8.065  72.657  1.00  0.00    -0.465 C  
HETATM    2  C   UNL     1     -11.999   8.302  71.242  1.00  0.00    -0.287 C  
ENDROOT
BRANCH   2   3
HETATM    3  N   UNL     1     -10.973   7.979  70.233  1.00  0.00    -0.249 NA 
HETATM    4  C   UNL     1     -10.534   6.672  70.063  1.00  0.00    -0.212 C  
HETATM    5  C   UNL     1      -9.603   6.251  69.194  1.00  0.00    -0.148 C  
HETATM    6  C   UNL     1      -9.261   4.815  69.137  1.00  0.00    -0.123 C  
HETATM    7  C   UNL     1      -8.982   7.276  68.335  1.00  0.00    -0.126 C  
HETATM    8  C   UNL     1      -9.486   8.666  68.424  1.00  0.00    -0.144 A  
HETATM    9  O   UNL     1      -8.081   6.963  67.560  1.00  0.00    -0.114 OA 
HETATM   10  O   UNL     1      -9.800   3.967  69.834  1.00  0.00    -0.199 OA 
HETATM   11  O   UNL     1      -8.299   4.502  68.242  1.00  0.00    -0.090 OA 
HETATM   12  C   UNL     1      -8.988   9.621  67.533  1.00  0.00    -0.136 A  
HETATM   13  C   UNL     1      -9.489  10.918  67.569  1.00  0.00    -0.155 A  
HETATM   14  F   UNL     1      -8.998  11.797  66.681  1.00  0.00    -0.172 F  
HETATM   15  C   UNL     1     -10.468  11.305  68.495  1.00  0.00    -0.197 A  
HETATM   16  C   UNL     1     -10.471   8.986  69.377  1.00  0.00    -0.222 A  
HETATM   17  C   UNL     1     -10.926  10.316  69.393  1.00  0.00    -0.289 A  
BRANCH  15  18
HETATM   18  N   UNL     1     -11.079  12.555  68.533  1.00  0.00    -0.246 NA 
HETATM   19  C   UNL     1     -11.759  13.023  69.753  1.00  0.00    -0.276 C  
HETATM   20  C   UNL     1     -11.783  14.573  69.742  1.00  0.00    -0.303 C  
HETATM   21  N   UNL     1     -12.394  15.155  68.527  1.00  0.00    -0.544 NA 
HETATM   22  H   UNL     1     -12.360  16.175  68.533  1.00  0.00     0.000 HD 
HETATM   23  C   UNL     1     -11.759  14.586  67.322  1.00  0.00    -0.406 C  
HETATM   24  C   UNL     1     -11.739  13.039  67.305  1.00  0.00    -0.375 C  
ENDBRANCH  15  18
ENDBRANCH   2   3
TORSDOF 2
ENDMDL
MODEL       77
REMARK 921   NORMALIZED FREE ENERGY PREDICTED BY IDOCK:   -4.84 KCAL/MOL
REMARK 922        TOTAL FREE ENERGY PREDICTED BY IDOCK:   -5.80 KCAL/MOL
REMARK 923 INTER-LIGAND FREE ENERGY PREDICTED BY IDOCK:   -5.44 KCAL/MOL
REMARK 924 INTRA-LIGAND FREE ENERGY PREDICTED BY IDOCK:   -0.36 KCAL/MOL
REMARK 927      BINDING AFFINITY PREDICTED BY RF-SCORE:    0.00 PKD
ROOT
HETATM    1  C   UNL     1     -12.111  10.347  71.115  1.00  0.00    -0.487 C  
HETATM    2  C   UNL     1     -11.324  10.181  69.823  1.00  0.00    -0.256 C  
ENDROOT
BRANCH   2   3
HETATM    3  N   UNL     1     -10.799   8.808  69.680  1.00  0.00    -0.209 NA 
HETATM    4  C   UNL     1     -10.986   7.871  70.688  1.00  0.00    -0.245 C  
HETATM    5  C   UNL     1     -10.550   6.602  70.686  1.00  0.00    -0.268 C  
HETATM    6  C   UNL     1     -10.848   5.732  71.842  1.00  0.00    -0.252 C  
HETATM    7  C   UNL     1      -9.797   6.159  69.499  1.00  0.00    -0.159 C  
HETATM    8  C   UNL     1      -9.653   7.102  68.366  1.00  0.00    -0.137 A  
HETATM    9  O   UNL     1      -9.320   5.026  69.462  1.00  0.00    -0.111 OA 
HETATM   10  O   UNL     1     -11.497   6.100  72.811  1.00  0.00    -0.254 OA 
HETATM   11  O   UNL     1     -10.347   4.481  71.746  1.00  0.00    -0.179 OA 
HETATM   12  C   UNL     1      -9.044   6.654  67.190  1.00  0.00    -0.132 A  
HETATM   13  C   UNL     1      -8.949   7.511  66.098  1.00  0.00    -0.153 A  
HETATM   14  F   UNL     1      -8.376   7.033  64.983  1.00  0.00    -0.135 F  
HETATM   15  C   UNL     1      -9.427   8.828  66.151  1.00  0.00    -0.247 A  
HETATM   16  C   UNL     1     -10.157   8.411  68.485  1.00  0.00    -0.197 A  
HETATM   17  C   UNL     1     -10.012   9.248  67.366  1.00  0.00    -0.253 A  
BRANCH  15  18
HETATM   18  N   UNL     1      -9.446   9.712  65.077  1.00  0.00    -0.267 NA 
HETATM   19  C   UNL     1      -8.196  10.099  64.398  1.00  0.00    -0.165 C  
HETATM   20  C   UNL     1      -8.536  10.541  62.951  1.00  0.00    -0.186 C  
HETATM   21  N   UNL     1      -9.547  11.618  62.874  1.00  0.00    -0.550 NA 
HETATM   22  H   UNL     1      -9.776  11.858  61.910  1.00  0.00     0.000 HD 
HETATM   23  C   UNL     1     -10.744  11.240  63.651  1.00  0.00    -0.367 C  
HETATM   24  C   UNL     1     -10.429  10.812  65.103  1.00  0.00    -0.229 C  
ENDBRANCH  15  18
ENDBRANCH   2   3
TORSDOF 2
ENDMDL
MODEL       78
REMARK 921   NORMALIZED FREE ENERGY PREDICTED BY IDOCK:   -4.83 KCAL/MOL
REMARK 922        TOTAL FREE ENERGY PREDICTED BY IDOCK:   -5.78 KCAL/MOL
REMARK 923 INTER-LIGAND FREE ENERGY PREDICTED BY IDOCK:   -5.45 KCAL/MOL
REMARK 924 INTRA-LIGAND FREE ENERGY PREDICTED BY IDOCK:   -0.33 KCAL/MOL
REMARK 927      BINDING AFFINITY PREDICTED BY RF-SCORE:    0.00 PKD
ROOT
HETATM    1  C   UNL     1     -12.493   9.725  71.136  1.00  0.00    -0.443 C  
HETATM    2  C   UNL     1     -10.984   9.748  70.934  1.00  0.00    -0.341 C  
ENDROOT
BRANCH   2   3
HETATM    3  N   UNL     1     -10.619   9.429  69.540  1.00  0.00    -0.217 NA 
HETATM    4  C   UNL     1     -10.593   8.112  69.098  1.00  0.00    -0.166 C  
HETATM    5  C   UNL     1     -10.269   7.692  67.867  1.00  0.00    -0.250 C  
HETATM    6  C   UNL     1     -10.304   6.247  67.562  1.00  0.00    -0.200 C  
HETATM    7  C   UNL     1      -9.900   8.727  66.885  1.00  0.00    -0.229 C  
HETATM    8  C   UNL     1     -10.000  10.148  67.292  1.00  0.00    -0.241 A  
HETATM    9  O   UNL     1      -9.535   8.402  65.757  1.00  0.00    -0.146 OA 
HETATM   10  O   UNL     1     -10.638   5.395  68.374  1.00  0.00    -0.163 OA 
HETATM   11  O   UNL     1      -9.941   5.931  66.299  1.00  0.00    -0.141 OA 
HETATM   12  C   UNL     1      -9.766  11.141  66.335  1.00  0.00    -0.235 A  
HETATM   13  C   UNL     1      -9.909  12.479  66.688  1.00  0.00    -0.241 A  
HETATM   14  F   UNL     1      -9.696  13.397  65.733  1.00  0.00    -0.271 F  
HETATM   15  C   UNL     1     -10.257  12.865  67.991  1.00  0.00    -0.229 A  
HETATM   16  C   UNL     1     -10.355  10.467  68.616  1.00  0.00    -0.184 A  
HETATM   17  C   UNL     1     -10.459  11.832  68.931  1.00  0.00    -0.182 A  
BRANCH  15  18
HETATM   18  N   UNL     1     -10.502  14.174  68.394  1.00  0.00    -0.247 NA 
HETATM   19  C   UNL     1      -9.501  15.231  68.168  1.00  0.00    -0.203 C  
HETATM   20  C   UNL     1     -10.228  16.599  68.124  1.00  0.00    -0.280 C  
HETATM   21  N   UNL     1     -11.049  16.882  69.322  1.00  0.00    -0.298 NA 
HETATM   22  H   UNL     1     -11.544  17.770  69.245  1.00  0.00     0.000 HD 
HETATM   23  C   UNL     1     -11.968  15.755  69.578  1.00  0.00    -0.310 C  
HETATM   24  C   UNL     1     -11.260  14.382  69.643  1.00  0.00    -0.232 C  
ENDBRANCH  15  18
ENDBRANCH   2   3
TORSDOF 2
ENDMDL
MODEL       79
REMARK 921   NORMALIZED FREE ENERGY PREDICTED BY IDOCK:   -4.82 KCAL/MOL
REMARK 922        TOTAL FREE ENERGY PREDICTED BY IDOCK:   -5.78 KCAL/MOL
REMARK 923 INTER-LIGAND FREE ENERGY PREDICTED BY IDOCK:   -5.50 KCAL/MOL
REMARK 924 INTRA-LIGAND FREE ENERGY PREDICTED BY IDOCK:   -0.28 KCAL/MOL
REMARK 927      BINDING AFFINITY PREDICTED BY RF-SCORE:    0.00 PKD
ROOT
HETATM    1  C   UNL     1     -10.363   7.233  69.773  1.00  0.00    -0.227 C  
HETATM    2  C   UNL     1     -10.379   8.282  68.669  1.00  0.00    -0.200 C  
ENDROOT
BRANCH   2   3
HETATM    3  N   UNL     1      -9.517   7.891  67.537  1.00  0.00    -0.142 NA 
HETATM    4  C   UNL     1      -8.841   6.677  67.549  1.00  0.00    -0.116 C  
HETATM    5  C   UNL     1      -8.022   6.213  66.593  1.00  0.00    -0.105 C  
HETATM    6  C   UNL     1      -7.388   4.889  66.763  1.00  0.00    -0.086 C  
HETATM    7  C   UNL     1      -7.817   7.075  65.416  1.00  0.00    -0.119 C  
HETATM    8  C   UNL     1      -8.588   8.336  65.325  1.00  0.00    -0.159 A  
HETATM    9  O   UNL     1      -7.032   6.732  64.533  1.00  0.00    -0.053 OA 
HETATM   10  O   UNL     1      -7.586   4.167  67.730  1.00  0.00    -0.068 OA 
HETATM   11  O   UNL     1      -6.569   4.526  65.752  1.00  0.00    -0.042 OA 
HETATM   12  C   UNL     1      -8.491   9.103  64.160  1.00  0.00    -0.198 A  
HETATM   13  C   UNL     1      -9.250  10.262  64.038  1.00  0.00    -0.271 A  
HETATM   14  F   UNL     1      -9.142  10.956  62.895  1.00  0.00    -0.203 F  
HETATM   15  C   UNL     1     -10.097  10.701  65.067  1.00  0.00    -0.321 A  
HETATM   16  C   UNL     1      -9.421   8.717  66.394  1.00  0.00    -0.228 A  
HETATM   17  C   UNL     1     -10.146   9.910  66.235  1.00  0.00    -0.311 A  
BRANCH  15  18
HETATM   18  N   UNL     1     -10.950  11.797  64.983  1.00  0.00    -0.306 NA 
HETATM   19  C   UNL     1     -11.566  12.366  66.195  1.00  0.00    -0.396 C  
HETATM   20  C   UNL     1     -11.919  13.850  65.920  1.00  0.00    -0.407 C  
HETATM   21  N   UNL     1     -12.778  14.053  64.733  1.00  0.00    -0.683 NA 
HETATM   22  H   UNL     1     -12.960  15.041  64.557  1.00  0.00     0.000 HD 
HETATM   23  C   UNL     1     -12.182  13.382  63.560  1.00  0.00    -0.400 C  
HETATM   24  C   UNL     1     -11.837  11.895  63.808  1.00  0.00    -0.458 C  
ENDBRANCH  15  18
ENDBRANCH   2   3
TORSDOF 2
ENDMDL
MODEL       80
REMARK 921   NORMALIZED FREE ENERGY PREDICTED BY IDOCK:   -4.79 KCAL/MOL
REMARK 922        TOTAL FREE ENERGY PREDICTED BY IDOCK:   -5.74 KCAL/MOL
REMARK 923 INTER-LIGAND FREE ENERGY PREDICTED BY IDOCK:   -5.28 KCAL/MOL
REMARK 924 INTRA-LIGAND FREE ENERGY PREDICTED BY IDOCK:   -0.45 KCAL/MOL
REMARK 927      BINDING AFFINITY PREDICTED BY RF-SCORE:    0.00 PKD
ROOT
HETATM    1  C   UNL     1      -5.853  12.454  68.975  1.00  0.00    -0.070 C  
HETATM    2  C   UNL     1      -6.411  12.513  67.559  1.00  0.00    -0.153 C  
ENDROOT
BRANCH   2   3
HETATM    3  N   UNL     1      -7.636  11.700  67.424  1.00  0.00    -0.130 NA 
HETATM    4  C   UNL     1      -7.593  10.323  67.596  1.00  0.00    -0.090 C  
HETATM    5  C   UNL     1      -8.627   9.474  67.488  1.00  0.00    -0.126 C  
HETATM    6  C   UNL     1      -8.406   8.031  67.714  1.00  0.00    -0.129 C  
HETATM    7  C   UNL     1      -9.937  10.061  67.153  1.00  0.00    -0.201 C  
HETATM    8  C   UNL     1     -10.041  11.535  67.049  1.00  0.00    -0.237 A  
HETATM    9  O   UNL     1     -10.911   9.330  66.982  1.00  0.00    -0.186 OA 
HETATM   10  O   UNL     1      -7.321   7.556  68.020  1.00  0.00    -0.090 OA 
HETATM   11  O   UNL     1      -9.508   7.265  67.563  1.00  0.00    -0.127 OA 
HETATM   12  C   UNL     1     -11.300  12.108  66.848  1.00  0.00    -0.402 A  
HETATM   13  C   UNL     1     -11.422  13.493  66.801  1.00  0.00    -0.346 A  
HETATM   14  F   UNL     1     -12.652  14.001  66.628  1.00  0.00    -0.462 F  
HETATM   15  C   UNL     1     -10.308  14.336  66.925  1.00  0.00    -0.268 A  
HETATM   16  C   UNL     1      -8.882  12.322  67.184  1.00  0.00    -0.194 A  
HETATM   17  C   UNL     1      -9.052  13.714  67.102  1.00  0.00    -0.241 A  
BRANCH  15  18
HETATM   18  N   UNL     1     -10.363  15.725  66.976  1.00  0.00    -0.286 NA 
HETATM   19  C   UNL     1     -10.977  16.412  68.126  1.00  0.00    -0.339 C  
HETATM   20  C   UNL     1     -10.375  17.837  68.230  1.00  0.00    -0.385 C  
HETATM   21  N   UNL     1     -10.505  18.636  66.992  1.00  0.00    -0.393 NA 
HETATM   22  H   UNL     1     -10.065  19.552  67.080  1.00  0.00     0.000 HD 
HETATM   23  C   UNL     1      -9.973  17.875  65.844  1.00  0.00    -0.111 C  
HETATM   24  C   UNL     1     -10.575  16.456  65.711  1.00  0.00    -0.315 C  
ENDBRANCH  15  18
ENDBRANCH   2   3
TORSDOF 2
ENDMDL
MODEL       81
REMARK 921   NORMALIZED FREE ENERGY PREDICTED BY IDOCK:   -4.77 KCAL/MOL
REMARK 922        TOTAL FREE ENERGY PREDICTED BY IDOCK:   -5.72 KCAL/MOL
REMARK 923 INTER-LIGAND FREE ENERGY PREDICTED BY IDOCK:   -5.31 KCAL/MOL
REMARK 924 INTRA-LIGAND FREE ENERGY PREDICTED BY IDOCK:   -0.41 KCAL/MOL
REMARK 927      BINDING AFFINITY PREDICTED BY RF-SCORE:    0.00 PKD
ROOT
HETATM    1  C   UNL     1     -13.315  10.181  71.960  1.00  0.00    -0.492 C  
HETATM    2  C   UNL     1     -12.635  10.957  70.841  1.00  0.00    -0.397 C  
ENDROOT
BRANCH   2   3
HETATM    3  N   UNL     1     -11.538  10.182  70.231  1.00  0.00    -0.284 NA 
HETATM    4  C   UNL     1     -11.432   8.814  70.449  1.00  0.00    -0.144 C  
HETATM    5  C   UNL     1     -10.480   8.002  69.965  1.00  0.00    -0.228 C  
HETATM    6  C   UNL     1     -10.524   6.561  70.288  1.00  0.00    -0.216 C  
HETATM    7  C   UNL     1      -9.442   8.621  69.121  1.00  0.00    -0.157 C  
HETATM    8  C   UNL     1      -9.569  10.061  68.795  1.00  0.00    -0.168 A  
HETATM    9  O   UNL     1      -8.510   7.942  68.697  1.00  0.00    -0.127 OA 
HETATM   10  O   UNL     1     -11.405   6.050  70.965  1.00  0.00    -0.295 OA 
HETATM   11  O   UNL     1      -9.509   5.838  69.766  1.00  0.00    -0.143 OA 
HETATM   12  C   UNL     1      -8.658  10.632  67.901  1.00  0.00    -0.124 A  
HETATM   13  C   UNL     1      -8.796  11.969  67.543  1.00  0.00    -0.172 A  
HETATM   14  F   UNL     1      -7.912  12.470  66.666  1.00  0.00    -0.110 F  
HETATM   15  C   UNL     1      -9.815  12.773  68.074  1.00  0.00    -0.226 A  
HETATM   16  C   UNL     1     -10.617  10.810  69.362  1.00  0.00    -0.221 A  
HETATM   17  C   UNL     1     -10.698  12.163  68.991  1.00  0.00    -0.163 A  
BRANCH  15  18
HETATM   18  N   UNL     1     -10.068  14.088  67.698  1.00  0.00    -0.239 NA 
HETATM   19  C   UNL     1     -10.402  15.108  68.707  1.00  0.00    -0.236 C  
HETATM   20  C   UNL     1     -10.027  16.503  68.143  1.00  0.00    -0.248 C  
HETATM   21  N   UNL     1     -10.653  16.811  66.838  1.00  0.00    -0.266 NA 
HETATM   22  H   UNL     1     -10.356  17.717  66.477  1.00  0.00     0.000 HD 
HETATM   23  C   UNL     1     -10.385  15.718  65.882  1.00  0.00    -0.354 C  
HETATM   24  C   UNL     1     -10.768  14.319  66.419  1.00  0.00    -0.297 C  
ENDBRANCH  15  18
ENDBRANCH   2   3
TORSDOF 2
ENDMDL
MODEL       82
REMARK 921   NORMALIZED FREE ENERGY PREDICTED BY IDOCK:   -4.76 KCAL/MOL
REMARK 922        TOTAL FREE ENERGY PREDICTED BY IDOCK:   -5.70 KCAL/MOL
REMARK 923 INTER-LIGAND FREE ENERGY PREDICTED BY IDOCK:   -5.50 KCAL/MOL
REMARK 924 INTRA-LIGAND FREE ENERGY PREDICTED BY IDOCK:   -0.21 KCAL/MOL
REMARK 927      BINDING AFFINITY PREDICTED BY RF-SCORE:    0.00 PKD
ROOT
HETATM    1  C   UNL     1     -10.994  13.149  66.465  1.00  0.00    -0.303 C  
HETATM    2  C   UNL     1     -11.393  11.748  66.907  1.00  0.00    -0.320 C  
ENDROOT
BRANCH   2   3
HETATM    3  N   UNL     1     -10.546  10.718  66.275  1.00  0.00    -0.226 NA 
HETATM    4  C   UNL     1      -9.990  10.930  65.020  1.00  0.00    -0.298 C  
HETATM    5  C   UNL     1      -9.217  10.074  64.336  1.00  0.00    -0.316 C  
HETATM    6  C   UNL     1      -8.698  10.467  63.009  1.00  0.00    -0.206 C  
HETATM    7  C   UNL     1      -8.930   8.779  64.977  1.00  0.00    -0.060 C  
HETATM    8  C   UNL     1      -9.431   8.549  66.352  1.00  0.00    -0.297 A  
HETATM    9  O   UNL     1      -8.276   7.928  64.376  1.00  0.00    -0.129 OA 
HETATM   10  O   UNL     1      -8.919  11.555  62.496  1.00  0.00    -0.328 OA 
HETATM   11  O   UNL     1      -7.947   9.524  62.400  1.00  0.00    -0.112 OA 
HETATM   12  C   UNL     1      -9.066   7.373  67.014  1.00  0.00    -0.155 A  
HETATM   13  C   UNL     1      -9.484   7.167  68.325  1.00  0.00    -0.133 A  
HETATM   14  F   UNL     1      -9.092   6.035  68.930  1.00  0.00    -0.121 F  
HETATM   15  C   UNL     1     -10.287   8.099  68.997  1.00  0.00    -0.218 A  
HETATM   16  C   UNL     1     -10.233   9.527  66.970  1.00  0.00    -0.255 A  
HETATM   17  C   UNL     1     -10.654   9.261  68.283  1.00  0.00    -0.237 A  
BRANCH  15  18
HETATM   18  N   UNL     1     -10.670   8.004  70.332  1.00  0.00    -0.229 NA 
HETATM   19  C   UNL     1     -11.627   8.964  70.911  1.00  0.00    -0.283 C  
HETATM   20  C   UNL     1     -12.321   8.298  72.126  1.00  0.00    -0.360 C  
HETATM   21  N   UNL     1     -11.381   7.790  73.150  1.00  0.00    -0.558 NA 
HETATM   22  H   UNL     1     -11.867   7.324  73.917  1.00  0.00     0.000 HD 
HETATM   23  C   UNL     1     -10.375   6.914  72.518  1.00  0.00    -0.196 C  
HETATM   24  C   UNL     1      -9.658   7.566  71.312  1.00  0.00    -0.156 C  
ENDBRANCH  15  18
ENDBRANCH   2   3
TORSDOF 2
ENDMDL
MODEL       83
REMARK 921   NORMALIZED FREE ENERGY PREDICTED BY IDOCK:   -4.70 KCAL/MOL
REMARK 922        TOTAL FREE ENERGY PREDICTED BY IDOCK:   -5.64 KCAL/MOL
REMARK 923 INTER-LIGAND FREE ENERGY PREDICTED BY IDOCK:   -5.35 KCAL/MOL
REMARK 924 INTRA-LIGAND FREE ENERGY PREDICTED BY IDOCK:   -0.29 KCAL/MOL
REMARK 927      BINDING AFFINITY PREDICTED BY RF-SCORE:    0.00 PKD
ROOT
HETATM    1  C   UNL     1      -7.921   7.320  65.832  1.00  0.00    -0.115 C  
HETATM    2  C   UNL     1      -9.108   8.236  66.100  1.00  0.00    -0.189 C  
ENDROOT
BRANCH   2   3
HETATM    3  N   UNL     1      -9.653   8.036  67.457  1.00  0.00    -0.148 NA 
HETATM    4  C   UNL     1      -9.529   6.808  68.095  1.00  0.00    -0.120 C  
HETATM    5  C   UNL     1      -9.989   6.495  69.315  1.00  0.00    -0.172 C  
HETATM    6  C   UNL     1      -9.761   5.137  69.849  1.00  0.00    -0.199 C  
HETATM    7  C   UNL     1     -10.697   7.557  70.053  1.00  0.00    -0.240 C  
HETATM    8  C   UNL     1     -10.773   8.905  69.443  1.00  0.00    -0.192 A  
HETATM    9  O   UNL     1     -11.194   7.315  71.151  1.00  0.00    -0.248 OA 
HETATM   10  O   UNL     1      -9.148   4.269  69.243  1.00  0.00    -0.101 OA 
HETATM   11  O   UNL     1     -10.281   4.922  71.078  1.00  0.00    -0.217 OA 
HETATM   12  C   UNL     1     -11.337   9.948  70.183  1.00  0.00    -0.335 A  
HETATM   13  C   UNL     1     -11.367  11.231  69.646  1.00  0.00    -0.287 A  
HETATM   14  F   UNL     1     -11.899  12.206  70.399  1.00  0.00    -0.393 F  
HETATM   15  C   UNL     1     -10.866  11.505  68.365  1.00  0.00    -0.211 A  
HETATM   16  C   UNL     1     -10.249   9.112  68.153  1.00  0.00    -0.207 A  
HETATM   17  C   UNL     1     -10.327  10.419  67.642  1.00  0.00    -0.260 A  
BRANCH  15  18
HETATM   18  N   UNL     1     -10.782  12.773  67.798  1.00  0.00    -0.217 NA 
HETATM   19  C   UNL     1     -11.948  13.675  67.794  1.00  0.00    -0.352 C  
HETATM   20  C   UNL     1     -11.442  15.137  67.697  1.00  0.00    -0.309 C  
HETATM   21  N   UNL     1     -10.559  15.392  66.538  1.00  0.00    -0.301 NA 
HETATM   22  H   UNL     1     -10.213  16.351  66.524  1.00  0.00     0.000 HD 
HETATM   23  C   UNL     1      -9.461  14.405  66.515  1.00  0.00    -0.289 C  
HETATM   24  C   UNL     1      -9.945  12.939  66.594  1.00  0.00    -0.251 C  
ENDBRANCH  15  18
ENDBRANCH   2   3
TORSDOF 2
ENDMDL
MODEL       84
REMARK 921   NORMALIZED FREE ENERGY PREDICTED BY IDOCK:   -4.65 KCAL/MOL
REMARK 922        TOTAL FREE ENERGY PREDICTED BY IDOCK:   -5.58 KCAL/MOL
REMARK 923 INTER-LIGAND FREE ENERGY PREDICTED BY IDOCK:   -5.18 KCAL/MOL
REMARK 924 INTRA-LIGAND FREE ENERGY PREDICTED BY IDOCK:   -0.40 KCAL/MOL
REMARK 927      BINDING AFFINITY PREDICTED BY RF-SCORE:    0.00 PKD
ROOT
HETATM    1  C   UNL     1      -5.812  14.193  68.074  1.00  0.00    -0.138 C  
HETATM    2  C   UNL     1      -7.227  14.032  68.612  1.00  0.00    -0.114 C  
ENDROOT
BRANCH   2   3
HETATM    3  N   UNL     1      -8.227  14.063  67.527  1.00  0.00    -0.173 NA 
HETATM    4  C   UNL     1      -8.672  15.273  67.009  1.00  0.00    -0.234 C  
HETATM    5  C   UNL     1      -9.581  15.436  66.037  1.00  0.00    -0.382 C  
HETATM    6  C   UNL     1      -9.933  16.802  65.596  1.00  0.00    -0.134 C  
HETATM    7  C   UNL     1     -10.169  14.213  65.462  1.00  0.00    -0.351 C  
HETATM    8  C   UNL     1      -9.657  12.903  65.927  1.00  0.00    -0.133 A  
HETATM    9  O   UNL     1     -11.050  14.297  64.609  1.00  0.00    -0.379 OA 
HETATM   10  O   UNL     1      -9.420  17.811  66.058  1.00  0.00    -0.502 OA 
HETATM   11  O   UNL     1     -10.871  16.854  64.625  1.00  0.00    -0.864 OA 
HETATM   12  C   UNL     1     -10.122  11.740  65.306  1.00  0.00    -0.300 A  
HETATM   13  C   UNL     1      -9.611  10.505  65.694  1.00  0.00    -0.226 A  
HETATM   14  F   UNL     1     -10.070   9.417  65.057  1.00  0.00    -0.259 F  
HETATM   15  C   UNL     1      -8.656  10.391  66.714  1.00  0.00    -0.124 A  
HETATM   16  C   UNL     1      -8.697  12.859  66.955  1.00  0.00    -0.161 A  
HETATM   17  C   UNL     1      -8.232  11.588  67.331  1.00  0.00    -0.149 A  
BRANCH  15  18
HETATM   18  N   UNL     1      -8.036   9.204  67.095  1.00  0.00    -0.109 NA 
HETATM   19  C   UNL     1      -7.233   8.431  66.131  1.00  0.00    -0.077 C  
HETATM   20  C   UNL     1      -6.209   7.573  66.916  1.00  0.00    -0.048 C  
HETATM   21  N   UNL     1      -6.820   6.693  67.937  1.00  0.00    -0.074 NA 
HETATM   22  H   UNL     1      -6.118   6.172  68.462  1.00  0.00     0.000 HD 
HETATM   23  C   UNL     1      -7.699   7.484  68.821  1.00  0.00    -0.119 C  
HETATM   24  C   UNL     1      -8.741   8.334  68.057  1.00  0.00    -0.135 C  
ENDBRANCH  15  18
ENDBRANCH   2   3
TORSDOF 2
ENDMDL
MODEL       85
REMARK 921   NORMALIZED FREE ENERGY PREDICTED BY IDOCK:   -4.62 KCAL/MOL
REMARK 922        TOTAL FREE ENERGY PREDICTED BY IDOCK:   -5.55 KCAL/MOL
REMARK 923 INTER-LIGAND FREE ENERGY PREDICTED BY IDOCK:   -5.14 KCAL/MOL
REMARK 924 INTRA-LIGAND FREE ENERGY PREDICTED BY IDOCK:   -0.41 KCAL/MOL
REMARK 927      BINDING AFFINITY PREDICTED BY RF-SCORE:    0.00 PKD
ROOT
HETATM    1  C   UNL     1      -6.039  13.356  69.706  1.00  0.00    -0.128 C  
HETATM    2  C   UNL     1      -6.313  12.397  68.556  1.00  0.00    -0.064 C  
ENDROOT
BRANCH   2   3
HETATM    3  N   UNL     1      -7.510  11.572  68.811  1.00  0.00    -0.116 NA 
HETATM    4  C   UNL     1      -7.430  10.437  69.608  1.00  0.00    -0.157 C  
HETATM    5  C   UNL     1      -8.436   9.601  69.905  1.00  0.00    -0.211 C  
HETATM    6  C   UNL     1      -8.178   8.440  70.782  1.00  0.00    -0.124 C  
HETATM    7  C   UNL     1      -9.755   9.914  69.327  1.00  0.00    -0.208 C  
HETATM    8  C   UNL     1      -9.900  11.162  68.543  1.00  0.00    -0.199 A  
HETATM    9  O   UNL     1     -10.703   9.153  69.514  1.00  0.00    -0.228 OA 
HETATM   10  O   UNL     1      -7.086   8.203  71.281  1.00  0.00    -0.053 OA 
HETATM   11  O   UNL     1      -9.253   7.653  71.002  1.00  0.00    -0.147 OA 
HETATM   12  C   UNL     1     -11.171  11.529  68.090  1.00  0.00    -0.335 A  
HETATM   13  C   UNL     1     -11.333  12.726  67.399  1.00  0.00    -0.313 A  
HETATM   14  F   UNL     1     -12.573  13.049  67.002  1.00  0.00    -0.252 F  
HETATM   15  C   UNL     1     -10.247  13.568  67.120  1.00  0.00    -0.247 A  
HETATM   16  C   UNL     1      -8.769  11.963  68.300  1.00  0.00    -0.170 A  
HETATM   17  C   UNL     1      -8.978  13.148  67.574  1.00  0.00    -0.197 A  
BRANCH  15  18
HETATM   18  N   UNL     1     -10.344  14.817  66.514  1.00  0.00    -0.279 NA 
HETATM   19  C   UNL     1     -10.687  14.935  65.085  1.00  0.00    -0.411 C  
HETATM   20  C   UNL     1     -11.316  16.331  64.842  1.00  0.00    -0.159 C  
HETATM   21  N   UNL     1     -10.467  17.458  65.287  1.00  0.00    -0.615 NA 
HETATM   22  H   UNL     1     -10.924  18.359  65.149  1.00  0.00     0.000 HD 
HETATM   23  C   UNL     1     -10.057  17.254  66.691  1.00  0.00    -0.302 C  
HETATM   24  C   UNL     1      -9.411  15.873  66.952  1.00  0.00    -0.225 C  
ENDBRANCH  15  18
ENDBRANCH   2   3
TORSDOF 2
ENDMDL
MODEL       86
REMARK 921   NORMALIZED FREE ENERGY PREDICTED BY IDOCK:   -4.58 KCAL/MOL
REMARK 922        TOTAL FREE ENERGY PREDICTED BY IDOCK:   -5.51 KCAL/MOL
REMARK 923 INTER-LIGAND FREE ENERGY PREDICTED BY IDOCK:   -5.10 KCAL/MOL
REMARK 924 INTRA-LIGAND FREE ENERGY PREDICTED BY IDOCK:   -0.41 KCAL/MOL
REMARK 927      BINDING AFFINITY PREDICTED BY RF-SCORE:    0.00 PKD
ROOT
HETATM    1  C   UNL     1      -9.813  11.941  67.473  1.00  0.00    -0.194 C  
HETATM    2  C   UNL     1      -9.395  10.536  67.885  1.00  0.00    -0.143 C  
ENDROOT
BRANCH   2   3
HETATM    3  N   UNL     1     -10.247  10.013  68.971  1.00  0.00    -0.191 NA 
HETATM    4  C   UNL     1     -11.038  10.871  69.725  1.00  0.00    -0.262 C  
HETATM    5  C   UNL     1     -11.843  10.524  70.741  1.00  0.00    -0.465 C  
HETATM    6  C   UNL     1     -12.627  11.568  71.432  1.00  0.00    -0.314 C  
HETATM    7  C   UNL     1     -11.891   9.095  71.094  1.00  0.00    -0.307 C  
HETATM    8  C   UNL     1     -11.130   8.138  70.258  1.00  0.00    -0.221 A  
HETATM    9  O   UNL     1     -12.563   8.722  72.054  1.00  0.00    -0.335 OA 
HETATM   10  O   UNL     1     -12.603  12.749  71.114  1.00  0.00    -0.371 OA 
HETATM   11  O   UNL     1     -13.389  11.115  72.451  1.00  0.00    -0.262 OA 
HETATM   12  C   UNL     1     -11.261   6.769  70.511  1.00  0.00    -0.370 A  
HETATM   13  C   UNL     1     -10.595   5.856  69.700  1.00  0.00    -0.313 A  
HETATM   14  F   UNL     1     -10.767   4.552  69.965  1.00  0.00    -0.102 F  
HETATM   15  C   UNL     1      -9.769   6.271  68.645  1.00  0.00    -0.127 A  
HETATM   16  C   UNL     1     -10.320   8.622  69.214  1.00  0.00    -0.221 A  
HETATM   17  C   UNL     1      -9.645   7.663  68.441  1.00  0.00    -0.155 A  
BRANCH  15  18
HETATM   18  N   UNL     1      -9.143   5.419  67.741  1.00  0.00    -0.108 NA 
HETATM   19  C   UNL     1      -7.799   5.728  67.223  1.00  0.00    -0.102 C  
HETATM   20  C   UNL     1      -7.124   4.404  66.779  1.00  0.00    -0.067 C  
HETATM   21  N   UNL     1      -7.914   3.626  65.800  1.00  0.00    -0.092 NA 
HETATM   22  H   UNL     1      -7.462   2.745  65.558  1.00  0.00     0.000 HD 
HETATM   23  C   UNL     1      -9.286   3.425  66.306  1.00  0.00    -0.145 C  
HETATM   24  C   UNL     1      -9.984   4.736  66.739  1.00  0.00    -0.228 C  
ENDBRANCH  15  18
ENDBRANCH   2   3
TORSDOF 2
ENDMDL
MODEL       87
REMARK 921   NORMALIZED FREE ENERGY PREDICTED BY IDOCK:   -4.54 KCAL/MOL
REMARK 922        TOTAL FREE ENERGY PREDICTED BY IDOCK:   -5.46 KCAL/MOL
REMARK 923 INTER-LIGAND FREE ENERGY PREDICTED BY IDOCK:   -5.06 KCAL/MOL
REMARK 924 INTRA-LIGAND FREE ENERGY PREDICTED BY IDOCK:   -0.40 KCAL/MOL
REMARK 927      BINDING AFFINITY PREDICTED BY RF-SCORE:    0.00 PKD
ROOT
HETATM    1  C   UNL     1     -10.906   7.429  69.921  1.00  0.00    -0.259 C  
HETATM    2  C   UNL     1     -10.521   8.426  68.836  1.00  0.00    -0.189 C  
ENDROOT
BRANCH   2   3
HETATM    3  N   UNL     1      -9.343   9.224  69.226  1.00  0.00    -0.155 NA 
HETATM    4  C   UNL     1      -8.408   8.716  70.119  1.00  0.00    -0.126 C  
HETATM    5  C   UNL     1      -7.307   9.342  70.561  1.00  0.00    -0.120 C  
HETATM    6  C   UNL     1      -6.410   8.648  71.508  1.00  0.00    -0.066 C  
HETATM    7  C   UNL     1      -7.065  10.703  70.050  1.00  0.00    -0.087 C  
HETATM    8  C   UNL     1      -7.990  11.245  69.029  1.00  0.00    -0.062 A  
HETATM    9  O   UNL     1      -6.105  11.351  70.462  1.00  0.00    -0.258 OA 
HETATM   10  O   UNL     1      -6.604   7.508  71.906  1.00  0.00    -0.042 OA 
HETATM   11  O   UNL     1      -5.342   9.374  71.903  1.00  0.00    -0.067 OA 
HETATM   12  C   UNL     1      -7.704  12.486  68.451  1.00  0.00    -0.136 A  
HETATM   13  C   UNL     1      -8.534  12.984  67.453  1.00  0.00    -0.200 A  
HETATM   14  F   UNL     1      -8.210  14.169  66.911  1.00  0.00    -0.200 F  
HETATM   15  C   UNL     1      -9.672  12.286  67.023  1.00  0.00    -0.205 A  
HETATM   16  C   UNL     1      -9.114  10.491  68.642  1.00  0.00    -0.158 A  
HETATM   17  C   UNL     1      -9.938  11.049  67.650  1.00  0.00    -0.196 A  
BRANCH  15  18
HETATM   18  N   UNL     1     -10.497  12.677  65.973  1.00  0.00    -0.263 NA 
HETATM   19  C   UNL     1     -10.076  12.486  64.574  1.00  0.00    -0.247 C  
HETATM   20  C   UNL     1     -11.343  12.412  63.682  1.00  0.00    -0.482 C  
HETATM   21  N   UNL     1     -12.242  13.578  63.820  1.00  0.00    -0.748 NA 
HETATM   22  H   UNL     1     -13.083  13.482  63.251  1.00  0.00     0.000 HD 
HETATM   23  C   UNL     1     -12.559  13.804  65.244  1.00  0.00    -0.473 C  
HETATM   24  C   UNL     1     -11.308  13.898  66.149  1.00  0.00    -0.320 C  
ENDBRANCH  15  18
ENDBRANCH   2   3
TORSDOF 2
ENDMDL
MODEL       88
REMARK 921   NORMALIZED FREE ENERGY PREDICTED BY IDOCK:   -4.53 KCAL/MOL
REMARK 922        TOTAL FREE ENERGY PREDICTED BY IDOCK:   -5.45 KCAL/MOL
REMARK 923 INTER-LIGAND FREE ENERGY PREDICTED BY IDOCK:   -5.31 KCAL/MOL
REMARK 924 INTRA-LIGAND FREE ENERGY PREDICTED BY IDOCK:   -0.14 KCAL/MOL
REMARK 927      BINDING AFFINITY PREDICTED BY RF-SCORE:    0.00 PKD
ROOT
HETATM    1  C   UNL     1      -9.637  10.761  63.524  1.00  0.00    -0.359 C  
HETATM    2  C   UNL     1      -9.675   9.764  64.674  1.00  0.00    -0.096 C  
ENDROOT
BRANCH   2   3
HETATM    3  N   UNL     1     -10.142  10.395  65.924  1.00  0.00    -0.260 NA 
HETATM    4  C   UNL     1     -10.590  11.709  65.929  1.00  0.00    -0.271 C  
HETATM    5  C   UNL     1     -11.026  12.398  66.994  1.00  0.00    -0.303 C  
HETATM    6  C   UNL     1     -11.480  13.793  66.818  1.00  0.00    -0.348 C  
HETATM    7  C   UNL     1     -11.028  11.692  68.288  1.00  0.00    -0.226 C  
HETATM    8  C   UNL     1     -10.640  10.263  68.309  1.00  0.00    -0.255 A  
HETATM    9  O   UNL     1     -11.360  12.287  69.311  1.00  0.00    -0.255 OA 
HETATM   10  O   UNL     1     -11.501  14.363  65.736  1.00  0.00    -0.326 OA 
HETATM   11  O   UNL     1     -11.880  14.400  67.957  1.00  0.00    -0.326 OA 
HETATM   12  C   UNL     1     -10.751   9.553  69.508  1.00  0.00    -0.246 A  
HETATM   13  C   UNL     1     -10.442   8.196  69.532  1.00  0.00    -0.227 A  
HETATM   14  F   UNL     1     -10.583   7.549  70.699  1.00  0.00    -0.213 F  
HETATM   15  C   UNL     1      -9.995   7.522  68.386  1.00  0.00    -0.170 A  
HETATM   16  C   UNL     1     -10.202   9.646  67.122  1.00  0.00    -0.243 A  
HETATM   17  C   UNL     1      -9.874   8.282  67.203  1.00  0.00    -0.281 A  
BRANCH  15  18
HETATM   18  N   UNL     1      -9.752   6.154  68.312  1.00  0.00    -0.120 NA 
HETATM   19  C   UNL     1      -9.182   5.428  69.461  1.00  0.00    -0.117 C  
HETATM   20  C   UNL     1      -9.587   3.935  69.352  1.00  0.00    -0.169 C  
HETATM   21  N   UNL     1      -9.206   3.301  68.071  1.00  0.00    -0.176 NA 
HETATM   22  H   UNL     1      -9.519   2.332  68.015  1.00  0.00     0.000 HD 
HETATM   23  C   UNL     1      -9.704   4.111  66.942  1.00  0.00    -0.205 C  
HETATM   24  C   UNL     1      -9.297   5.601  67.022  1.00  0.00    -0.118 C  
ENDBRANCH  15  18
ENDBRANCH   2   3
TORSDOF 2
ENDMDL
MODEL       89
REMARK 921   NORMALIZED FREE ENERGY PREDICTED BY IDOCK:   -4.50 KCAL/MOL
REMARK 922        TOTAL FREE ENERGY PREDICTED BY IDOCK:   -5.41 KCAL/MOL
REMARK 923 INTER-LIGAND FREE ENERGY PREDICTED BY IDOCK:   -5.45 KCAL/MOL
REMARK 924 INTRA-LIGAND FREE ENERGY PREDICTED BY IDOCK:    0.04 KCAL/MOL
REMARK 927      BINDING AFFINITY PREDICTED BY RF-SCORE:    0.00 PKD
ROOT
HETATM    1  C   UNL     1      -5.721  15.463  69.883  1.00  0.00    -0.132 C  
HETATM    2  C   UNL     1      -6.349  14.899  68.615  1.00  0.00    -0.084 C  
ENDROOT
BRANCH   2   3
HETATM    3  N   UNL     1      -7.587  15.618  68.257  1.00  0.00    -0.117 NA 
HETATM    4  C   UNL     1      -7.732  16.968  68.552  1.00  0.00    -0.238 C  
HETATM    5  C   UNL     1      -8.805  17.729  68.291  1.00  0.00    -0.277 C  
HETATM    6  C   UNL     1      -8.788  19.158  68.665  1.00  0.00    -0.365 C  
HETATM    7  C   UNL     1      -9.945  17.068  67.630  1.00  0.00    -0.280 C  
HETATM    8  C   UNL     1      -9.795  15.652  67.221  1.00  0.00    -0.225 A  
HETATM    9  O   UNL     1     -10.980  17.696  67.418  1.00  0.00    -0.237 OA 
HETATM   10  O   UNL     1      -7.828  19.705  69.188  1.00  0.00    -0.328 OA 
HETATM   11  O   UNL     1      -9.926  19.827  68.375  1.00  0.00    -0.404 OA 
HETATM   12  C   UNL     1     -10.823  15.051  66.489  1.00  0.00    -0.320 A  
HETATM   13  C   UNL     1     -10.675  13.738  66.051  1.00  0.00    -0.284 A  
HETATM   14  F   UNL     1     -11.677  13.208  65.334  1.00  0.00    -0.329 F  
HETATM   15  C   UNL     1      -9.528  12.988  66.346  1.00  0.00    -0.224 A  
HETATM   16  C   UNL     1      -8.616  14.957  67.548  1.00  0.00    -0.184 A  
HETATM   17  C   UNL     1      -8.525  13.626  67.108  1.00  0.00    -0.186 A  
BRANCH  15  18
HETATM   18  N   UNL     1      -9.271  11.706  65.870  1.00  0.00    -0.219 NA 
HETATM   19  C   UNL     1     -10.098  11.121  64.800  1.00  0.00    -0.295 C  
HETATM   20  C   UNL     1      -9.265  10.037  64.069  1.00  0.00    -0.272 C  
HETATM   21  N   UNL     1      -8.723   8.991  64.963  1.00  0.00    -0.205 NA 
HETATM   22  H   UNL     1      -8.149   8.316  64.459  1.00  0.00     0.000 HD 
HETATM   23  C   UNL     1      -7.989   9.617  66.081  1.00  0.00    -0.108 C  
HETATM   24  C   UNL     1      -8.808  10.690  66.836  1.00  0.00    -0.138 C  
ENDBRANCH  15  18
ENDBRANCH   2   3
TORSDOF 2
ENDMDL
MODEL       90
REMARK 921   NORMALIZED FREE ENERGY PREDICTED BY IDOCK:   -4.41 KCAL/MOL
REMARK 922        TOTAL FREE ENERGY PREDICTED BY IDOCK:   -5.31 KCAL/MOL
REMARK 923 INTER-LIGAND FREE ENERGY PREDICTED BY IDOCK:   -4.87 KCAL/MOL
REMARK 924 INTRA-LIGAND FREE ENERGY PREDICTED BY IDOCK:   -0.45 KCAL/MOL
REMARK 927      BINDING AFFINITY PREDICTED BY RF-SCORE:    0.00 PKD
ROOT
HETATM    1  C   UNL     1     -12.055  10.449  71.576  1.00  0.00    -0.364 C  
HETATM    2  C   UNL     1     -12.261  10.577  70.073  1.00  0.00    -0.250 C  
ENDROOT
BRANCH   2   3
HETATM    3  N   UNL     1     -11.550  11.750  69.526  1.00  0.00    -0.310 NA 
HETATM    4  C   UNL     1     -11.914  13.036  69.903  1.00  0.00    -0.311 C  
HETATM    5  C   UNL     1     -11.358  14.179  69.472  1.00  0.00    -0.308 C  
HETATM    6  C   UNL     1     -11.863  15.469  69.985  1.00  0.00    -0.359 C  
HETATM    7  C   UNL     1     -10.256  14.059  68.501  1.00  0.00    -0.237 C  
HETATM    8  C   UNL     1      -9.781  12.702  68.142  1.00  0.00    -0.219 A  
HETATM    9  O   UNL     1      -9.745  15.070  68.023  1.00  0.00    -0.210 OA 
HETATM   10  O   UNL     1     -12.761  15.559  70.811  1.00  0.00    -0.430 OA 
HETATM   11  O   UNL     1     -11.248  16.556  69.472  1.00  0.00    -0.283 OA 
HETATM   12  C   UNL     1      -8.660  12.578  67.315  1.00  0.00    -0.191 A  
HETATM   13  C   UNL     1      -8.170  11.312  67.013  1.00  0.00    -0.151 A  
HETATM   14  F   UNL     1      -7.080  11.239  66.233  1.00  0.00    -0.132 F  
HETATM   15  C   UNL     1      -8.785  10.148  67.495  1.00  0.00    -0.125 A  
HETATM   16  C   UNL     1     -10.444  11.575  68.663  1.00  0.00    -0.202 A  
HETATM   17  C   UNL     1      -9.928  10.318  68.306  1.00  0.00    -0.166 A  
BRANCH  15  18
HETATM   18  N   UNL     1      -8.303   8.856  67.308  1.00  0.00    -0.104 NA 
HETATM   19  C   UNL     1      -8.500   8.158  66.025  1.00  0.00    -0.141 C  
HETATM   20  C   UNL     1      -7.394   7.082  65.874  1.00  0.00    -0.075 C  
HETATM   21  N   UNL     1      -7.326   6.127  67.002  1.00  0.00    -0.081 NA 
HETATM   22  H   UNL     1      -6.565   5.457  66.891  1.00  0.00     0.000 HD 
HETATM   23  C   UNL     1      -7.235   6.863  68.278  1.00  0.00    -0.091 C  
HETATM   24  C   UNL     1      -8.339   7.931  68.458  1.00  0.00    -0.128 C  
ENDBRANCH  15  18
ENDBRANCH   2   3
TORSDOF 2
ENDMDL
MODEL       91
REMARK 921   NORMALIZED FREE ENERGY PREDICTED BY IDOCK:   -4.31 KCAL/MOL
REMARK 922        TOTAL FREE ENERGY PREDICTED BY IDOCK:   -5.20 KCAL/MOL
REMARK 923 INTER-LIGAND FREE ENERGY PREDICTED BY IDOCK:   -5.00 KCAL/MOL
REMARK 924 INTRA-LIGAND FREE ENERGY PREDICTED BY IDOCK:   -0.21 KCAL/MOL
REMARK 927      BINDING AFFINITY PREDICTED BY RF-SCORE:    0.00 PKD
ROOT
HETATM    1  C   UNL     1      -5.330  13.433  67.967  1.00  0.00    -0.110 C  
HETATM    2  C   UNL     1      -6.519  13.610  68.901  1.00  0.00    -0.101 C  
ENDROOT
BRANCH   2   3
HETATM    3  N   UNL     1      -7.799  13.413  68.193  1.00  0.00    -0.133 NA 
HETATM    4  C   UNL     1      -8.477  12.203  68.280  1.00  0.00    -0.176 C  
HETATM    5  C   UNL     1      -9.635  11.895  67.678  1.00  0.00    -0.185 C  
HETATM    6  C   UNL     1     -10.226  10.557  67.888  1.00  0.00    -0.183 C  
HETATM    7  C   UNL     1     -10.249  12.940  66.840  1.00  0.00    -0.242 C  
HETATM    8  C   UNL     1      -9.603  14.272  66.793  1.00  0.00    -0.290 A  
HETATM    9  O   UNL     1     -11.280  12.698  66.215  1.00  0.00    -0.285 OA 
HETATM   10  O   UNL     1      -9.724   9.704  68.607  1.00  0.00    -0.150 OA 
HETATM   11  O   UNL     1     -11.382  10.344  67.222  1.00  0.00    -0.327 OA 
HETATM   12  C   UNL     1     -10.239  15.304  66.097  1.00  0.00    -0.320 A  
HETATM   13  C   UNL     1      -9.672  16.575  66.088  1.00  0.00    -0.317 A  
HETATM   14  F   UNL     1     -10.327  17.541  65.426  1.00  0.00    -0.234 F  
HETATM   15  C   UNL     1      -8.460  16.846  66.739  1.00  0.00    -0.234 A  
HETATM   16  C   UNL     1      -8.387  14.477  67.470  1.00  0.00    -0.188 A  
HETATM   17  C   UNL     1      -7.839  15.769  67.409  1.00  0.00    -0.203 A  
BRANCH  15  18
HETATM   18  N   UNL     1      -7.879  18.106  66.847  1.00  0.00    -0.222 NA 
HETATM   19  C   UNL     1      -6.476  18.253  67.274  1.00  0.00    -0.178 C  
HETATM   20  C   UNL     1      -5.933  19.598  66.728  1.00  0.00    -0.172 C  
HETATM   21  N   UNL     1      -6.741  20.775  67.117  1.00  0.00    -0.291 NA 
HETATM   22  H   UNL     1      -6.380  21.638  66.711  1.00  0.00     0.000 HD 
HETATM   23  C   UNL     1      -8.158  20.549  66.769  1.00  0.00    -0.165 C  
HETATM   24  C   UNL     1      -8.725  19.219  67.319  1.00  0.00    -0.292 C  
ENDBRANCH  15  18
ENDBRANCH   2   3
TORSDOF 2
ENDMDL
MODEL       92
REMARK 921   NORMALIZED FREE ENERGY PREDICTED BY IDOCK:   -4.31 KCAL/MOL
REMARK 922        TOTAL FREE ENERGY PREDICTED BY IDOCK:   -5.20 KCAL/MOL
REMARK 923 INTER-LIGAND FREE ENERGY PREDICTED BY IDOCK:   -4.77 KCAL/MOL
REMARK 924 INTRA-LIGAND FREE ENERGY PREDICTED BY IDOCK:   -0.43 KCAL/MOL
REMARK 927      BINDING AFFINITY PREDICTED BY RF-SCORE:    0.00 PKD
ROOT
HETATM    1  C   UNL     1     -12.405  15.294  70.252  1.00  0.00    -0.407 C  
HETATM    2  C   UNL     1     -11.888  14.399  69.134  1.00  0.00    -0.323 C  
ENDROOT
BRANCH   2   3
HETATM    3  N   UNL     1     -10.536  14.801  68.698  1.00  0.00    -0.247 NA 
HETATM    4  C   UNL     1     -10.135  16.128  68.771  1.00  0.00    -0.237 C  
HETATM    5  C   UNL     1      -8.945  16.622  68.398  1.00  0.00    -0.223 C  
HETATM    6  C   UNL     1      -8.678  18.067  68.554  1.00  0.00    -0.295 C  
HETATM    7  C   UNL     1      -7.967  15.662  67.855  1.00  0.00    -0.142 C  
HETATM    8  C   UNL     1      -8.325  14.225  67.843  1.00  0.00    -0.162 A  
HETATM    9  O   UNL     1      -6.880  16.062  67.440  1.00  0.00    -0.155 OA 
HETATM   10  O   UNL     1      -9.485  18.852  69.032  1.00  0.00    -0.322 OA 
HETATM   11  O   UNL     1      -7.458  18.461  68.131  1.00  0.00    -0.251 OA 
HETATM   12  C   UNL     1      -7.362  13.295  67.440  1.00  0.00    -0.125 A  
HETATM   13  C   UNL     1      -7.666  11.937  67.474  1.00  0.00    -0.151 A  
HETATM   14  F   UNL     1      -6.705  11.078  67.100  1.00  0.00    -0.073 F  
HETATM   15  C   UNL     1      -8.926  11.473  67.879  1.00  0.00    -0.159 A  
HETATM   16  C   UNL     1      -9.608  13.827  68.263  1.00  0.00    -0.219 A  
HETATM   17  C   UNL     1      -9.876  12.448  68.254  1.00  0.00    -0.224 A  
BRANCH  15  18
HETATM   18  N   UNL     1      -9.272  10.133  68.022  1.00  0.00    -0.137 NA 
HETATM   19  C   UNL     1      -8.614   9.290  69.036  1.00  0.00    -0.134 C  
HETATM   20  C   UNL     1      -9.563   8.117  69.394  1.00  0.00    -0.167 C  
HETATM   21  N   UNL     1      -9.996   7.318  68.228  1.00  0.00    -0.155 NA 
HETATM   22  H   UNL     1     -10.648   6.579  68.491  1.00  0.00     0.000 HD 
HETATM   23  C   UNL     1     -10.555   8.206  67.189  1.00  0.00    -0.285 C  
HETATM   24  C   UNL     1      -9.617   9.374  66.804  1.00  0.00    -0.179 C  
ENDBRANCH  15  18
ENDBRANCH   2   3
TORSDOF 2
ENDMDL
MODEL       93
REMARK 921   NORMALIZED FREE ENERGY PREDICTED BY IDOCK:   -4.28 KCAL/MOL
REMARK 922        TOTAL FREE ENERGY PREDICTED BY IDOCK:   -5.17 KCAL/MOL
REMARK 923 INTER-LIGAND FREE ENERGY PREDICTED BY IDOCK:   -5.21 KCAL/MOL
REMARK 924 INTRA-LIGAND FREE ENERGY PREDICTED BY IDOCK:    0.03 KCAL/MOL
REMARK 927      BINDING AFFINITY PREDICTED BY RF-SCORE:    0.00 PKD
ROOT
HETATM    1  C   UNL     1      -7.809  14.929  67.392  1.00  0.00    -0.224 C  
HETATM    2  C   UNL     1      -9.058  14.255  66.841  1.00  0.00    -0.252 C  
ENDROOT
BRANCH   2   3
HETATM    3  N   UNL     1      -9.048  12.802  67.097  1.00  0.00    -0.211 NA 
HETATM    4  C   UNL     1      -8.164  11.970  66.421  1.00  0.00     0.104 C  
HETATM    5  C   UNL     1      -8.064  10.639  66.554  1.00  0.00    -0.140 C  
HETATM    6  C   UNL     1      -7.056   9.906  65.760  1.00  0.00    -0.110 C  
HETATM    7  C   UNL     1      -8.983   9.994  67.509  1.00  0.00    -0.134 C  
HETATM    8  C   UNL     1      -9.879  10.856  68.313  1.00  0.00    -0.179 A  
HETATM    9  O   UNL     1      -8.981   8.771  67.631  1.00  0.00    -0.134 OA 
HETATM   10  O   UNL     1      -6.278  10.452  64.991  1.00  0.00    -0.124 OA 
HETATM   11  O   UNL     1      -7.053   8.569  65.956  1.00  0.00    -0.074 OA 
HETATM   12  C   UNL     1     -10.670  10.267  69.304  1.00  0.00    -0.265 A  
HETATM   13  C   UNL     1     -11.477  11.070  70.104  1.00  0.00    -0.296 A  
HETATM   14  F   UNL     1     -12.203  10.465  71.057  1.00  0.00    -0.356 F  
HETATM   15  C   UNL     1     -11.540  12.459  69.927  1.00  0.00    -0.186 A  
HETATM   16  C   UNL     1      -9.893  12.245  68.085  1.00  0.00    -0.212 A  
HETATM   17  C   UNL     1     -10.744  13.010  68.899  1.00  0.00    -0.201 A  
BRANCH  15  18
HETATM   18  N   UNL     1     -12.253  13.334  70.742  1.00  0.00    -0.353 NA 
HETATM   19  C   UNL     1     -13.178  12.821  71.768  1.00  0.00    -0.374 C  
HETATM   20  C   UNL     1     -13.334  13.895  72.874  1.00  0.00    -0.308 C  
HETATM   21  N   UNL     1     -13.767  15.217  72.371  1.00  0.00    -0.473 NA 
HETATM   22  H   UNL     1     -13.822  15.911  73.117  1.00  0.00     0.000 HD 
HETATM   23  C   UNL     1     -12.880  15.653  71.274  1.00  0.00    -0.487 C  
HETATM   24  C   UNL     1     -12.724  14.601  70.150  1.00  0.00    -0.220 C  
ENDBRANCH  15  18
ENDBRANCH   2   3
TORSDOF 2
ENDMDL
MODEL       94
REMARK 921   NORMALIZED FREE ENERGY PREDICTED BY IDOCK:   -4.27 KCAL/MOL
REMARK 922        TOTAL FREE ENERGY PREDICTED BY IDOCK:   -5.16 KCAL/MOL
REMARK 923 INTER-LIGAND FREE ENERGY PREDICTED BY IDOCK:   -4.75 KCAL/MOL
REMARK 924 INTRA-LIGAND FREE ENERGY PREDICTED BY IDOCK:   -0.41 KCAL/MOL
REMARK 927      BINDING AFFINITY PREDICTED BY RF-SCORE:    0.00 PKD
ROOT
HETATM    1  C   UNL     1     -11.830   8.988  71.039  1.00  0.00    -0.339 C  
HETATM    2  C   UNL     1     -10.921   8.579  69.888  1.00  0.00    -0.165 C  
ENDROOT
BRANCH   2   3
HETATM    3  N   UNL     1     -10.897   9.603  68.825  1.00  0.00    -0.201 NA 
HETATM    4  C   UNL     1     -11.361  10.889  69.071  1.00  0.00    -0.281 C  
HETATM    5  C   UNL     1     -11.404  11.901  68.192  1.00  0.00    -0.350 C  
HETATM    6  C   UNL     1     -11.920  13.216  68.626  1.00  0.00    -0.284 C  
HETATM    7  C   UNL     1     -10.914  11.622  66.830  1.00  0.00    -0.292 C  
HETATM    8  C   UNL     1     -10.331  10.289  66.553  1.00  0.00    -0.276 A  
HETATM    9  O   UNL     1     -10.983  12.491  65.963  1.00  0.00    -0.268 OA 
HETATM   10  O   UNL     1     -12.299  13.447  69.765  1.00  0.00    -0.261 OA 
HETATM   11  O   UNL     1     -11.938  14.158  67.658  1.00  0.00    -0.377 OA 
HETATM   12  C   UNL     1      -9.757  10.052  65.300  1.00  0.00    -0.373 A  
HETATM   13  C   UNL     1      -9.157   8.823  65.043  1.00  0.00     0.015 A  
HETATM   14  F   UNL     1      -8.600   8.647  63.835  1.00  0.00    -0.182 F  
HETATM   15  C   UNL     1      -9.134   7.799  66.001  1.00  0.00    -0.121 A  
HETATM   16  C   UNL     1     -10.339   9.306  67.560  1.00  0.00    -0.262 A  
HETATM   17  C   UNL     1      -9.747   8.072  67.243  1.00  0.00    -0.232 A  
BRANCH  15  18
HETATM   18  N   UNL     1      -8.480   6.581  65.848  1.00  0.00    -0.143 NA 
HETATM   19  C   UNL     1      -9.160   5.435  65.219  1.00  0.00    -0.051 C  
HETATM   20  C   UNL     1      -8.086   4.484  64.632  1.00  0.00    -0.101 C  
HETATM   21  N   UNL     1      -7.076   4.037  65.616  1.00  0.00    -0.062 NA 
HETATM   22  H   UNL     1      -6.363   3.445  65.191  1.00  0.00     0.000 HD 
HETATM   23  C   UNL     1      -6.490   5.207  66.301  1.00  0.00    -0.044 C  
HETATM   24  C   UNL     1      -7.544   6.160  66.909  1.00  0.00    -0.099 C  
ENDBRANCH  15  18
ENDBRANCH   2   3
TORSDOF 2
ENDMDL
MODEL       95
REMARK 921   NORMALIZED FREE ENERGY PREDICTED BY IDOCK:   -4.25 KCAL/MOL
REMARK 922        TOTAL FREE ENERGY PREDICTED BY IDOCK:   -5.14 KCAL/MOL
REMARK 923 INTER-LIGAND FREE ENERGY PREDICTED BY IDOCK:   -4.74 KCAL/MOL
REMARK 924 INTRA-LIGAND FREE ENERGY PREDICTED BY IDOCK:   -0.40 KCAL/MOL
REMARK 927      BINDING AFFINITY PREDICTED BY RF-SCORE:    0.00 PKD
ROOT
HETATM    1  C   UNL     1     -10.566  11.202  67.172  1.00  0.00    -0.286 C  
HETATM    2  C   UNL     1      -9.844   9.862  67.133  1.00  0.00    -0.186 C  
ENDROOT
BRANCH   2   3
HETATM    3  N   UNL     1     -10.299   8.969  68.217  1.00  0.00    -0.205 NA 
HETATM    4  C   UNL     1     -10.981   9.479  69.314  1.00  0.00    -0.145 C  
HETATM    5  C   UNL     1     -11.435   8.779  70.364  1.00  0.00    -0.163 C  
HETATM    6  C   UNL     1     -12.154   9.482  71.447  1.00  0.00    -0.378 C  
HETATM    7  C   UNL     1     -11.182   7.327  70.356  1.00  0.00    -0.276 C  
HETATM    8  C   UNL     1     -10.535   6.733  69.164  1.00  0.00    -0.240 A  
HETATM    9  O   UNL     1     -11.520   6.640  71.318  1.00  0.00    -0.280 OA 
HETATM   10  O   UNL     1     -12.384  10.683  71.433  1.00  0.00    -0.362 OA 
HETATM   11  O   UNL     1     -12.550   8.687  72.465  1.00  0.00    -0.392 OA 
HETATM   12  C   UNL     1     -10.397   5.344  69.094  1.00  0.00    -0.300 A  
HETATM   13  C   UNL     1      -9.840   4.767  67.957  1.00  0.00    -0.126 A  
HETATM   14  F   UNL     1      -9.746   3.429  67.924  1.00  0.00    -0.245 F  
HETATM   15  C   UNL     1      -9.387   5.545  66.882  1.00  0.00    -0.127 A  
HETATM   16  C   UNL     1     -10.104   7.572  68.119  1.00  0.00    -0.183 A  
HETATM   17  C   UNL     1      -9.523   6.945  67.004  1.00  0.00    -0.183 A  
BRANCH  15  18
HETATM   18  N   UNL     1      -8.902   5.038  65.681  1.00  0.00    -0.138 NA 
HETATM   19  C   UNL     1      -9.754   4.200  64.819  1.00  0.00    -0.184 C  
HETATM   20  C   UNL     1      -9.234   4.301  63.362  1.00  0.00    -0.135 C  
HETATM   21  N   UNL     1      -7.805   3.951  63.209  1.00  0.00    -0.073 NA 
HETATM   22  H   UNL     1      -7.485   4.064  62.247  1.00  0.00     0.000 HD 
HETATM   23  C   UNL     1      -6.992   4.734  64.160  1.00  0.00    -0.049 C  
HETATM   24  C   UNL     1      -7.483   4.634  65.623  1.00  0.00    -0.081 C  
ENDBRANCH  15  18
ENDBRANCH   2   3
TORSDOF 2
ENDMDL
MODEL       96
REMARK 921   NORMALIZED FREE ENERGY PREDICTED BY IDOCK:   -4.23 KCAL/MOL
REMARK 922        TOTAL FREE ENERGY PREDICTED BY IDOCK:   -5.12 KCAL/MOL
REMARK 923 INTER-LIGAND FREE ENERGY PREDICTED BY IDOCK:   -5.52 KCAL/MOL
REMARK 924 INTRA-LIGAND FREE ENERGY PREDICTED BY IDOCK:    0.41 KCAL/MOL
REMARK 927      BINDING AFFINITY PREDICTED BY RF-SCORE:    0.00 PKD
ROOT
HETATM    1  C   UNL     1     -10.767  18.240  67.774  1.00  0.00    -0.358 C  
HETATM    2  C   UNL     1     -10.263  17.507  66.538  1.00  0.00    -0.342 C  
ENDROOT
BRANCH   2   3
HETATM    3  N   UNL     1      -9.597  16.238  66.894  1.00  0.00    -0.226 NA 
HETATM    4  C   UNL     1     -10.000  15.041  66.316  1.00  0.00    -0.281 C  
HETATM    5  C   UNL     1      -9.487  13.827  66.562  1.00  0.00    -0.282 C  
HETATM    6  C   UNL     1     -10.030  12.653  65.847  1.00  0.00    -0.264 C  
HETATM    7  C   UNL     1      -8.390  13.753  67.543  1.00  0.00    -0.192 C  
HETATM    8  C   UNL     1      -7.873  15.018  68.115  1.00  0.00    -0.121 A  
HETATM    9  O   UNL     1      -7.918  12.662  67.856  1.00  0.00    -0.131 OA 
HETATM   10  O   UNL     1     -10.922  12.726  65.014  1.00  0.00    -0.277 OA 
HETATM   11  O   UNL     1      -9.456  11.477  66.183  1.00  0.00    -0.208 OA 
HETATM   12  C   UNL     1      -6.757  14.970  68.956  1.00  0.00    -0.116 A  
HETATM   13  C   UNL     1      -6.227  16.155  69.458  1.00  0.00    -0.181 A  
HETATM   14  F   UNL     1      -5.143  16.064  70.243  1.00  0.00    -0.119 F  
HETATM   15  C   UNL     1      -6.799  17.401  69.164  1.00  0.00    -0.228 A  
HETATM   16  C   UNL     1      -8.493  16.235  67.778  1.00  0.00    -0.163 A  
HETATM   17  C   UNL     1      -7.939  17.401  68.332  1.00  0.00    -0.259 A  
BRANCH  15  18
HETATM   18  N   UNL     1      -6.275  18.629  69.557  1.00  0.00    -0.268 NA 
HETATM   19  C   UNL     1      -5.564  19.487  68.592  1.00  0.00    -0.205 C  
HETATM   20  C   UNL     1      -5.648  20.955  69.081  1.00  0.00    -0.358 C  
HETATM   21  N   UNL     1      -5.145  21.160  70.457  1.00  0.00    -0.578 NA 
HETATM   22  H   UNL     1      -5.250  22.128  70.762  1.00  0.00     0.000 HD 
HETATM   23  C   UNL     1      -5.804  20.213  71.379  1.00  0.00    -0.321 C  
HETATM   24  C   UNL     1      -5.717  18.740  70.918  1.00  0.00    -0.048 C  
ENDBRANCH  15  18
ENDBRANCH   2   3
TORSDOF 2
ENDMDL
MODEL       97
REMARK 921   NORMALIZED FREE ENERGY PREDICTED BY IDOCK:   -4.23 KCAL/MOL
REMARK 922        TOTAL FREE ENERGY PREDICTED BY IDOCK:   -5.11 KCAL/MOL
REMARK 923 INTER-LIGAND FREE ENERGY PREDICTED BY IDOCK:   -5.09 KCAL/MOL
REMARK 924 INTRA-LIGAND FREE ENERGY PREDICTED BY IDOCK:   -0.02 KCAL/MOL
REMARK 927      BINDING AFFINITY PREDICTED BY RF-SCORE:    0.00 PKD
ROOT
HETATM    1  C   UNL     1     -10.691  12.596  69.113  1.00  0.00    -0.061 C  
HETATM    2  C   UNL     1     -10.363  14.072  69.292  1.00  0.00     0.038 C  
ENDROOT
BRANCH   2   3
HETATM    3  N   UNL     1     -10.492  14.815  68.023  1.00  0.00    -0.243 NA 
HETATM    4  C   UNL     1     -11.489  14.490  67.112  1.00  0.00    -0.368 C  
HETATM    5  C   UNL     1     -11.704  15.077  65.925  1.00  0.00    -0.098 C  
HETATM    6  C   UNL     1     -12.822  14.611  65.079  1.00  0.00     0.084 C  
HETATM    7  C   UNL     1     -10.793  16.173  65.549  1.00  0.00    -0.270 C  
HETATM    8  C   UNL     1      -9.773  16.607  66.532  1.00  0.00    -0.291 A  
HETATM    9  O   UNL     1     -10.901  16.710  64.449  1.00  0.00    -0.833 OA 
HETATM   10  O   UNL     1     -13.591  13.719  65.410  1.00  0.00    -0.517 OA 
HETATM   11  O   UNL     1     -12.937  15.256  63.897  1.00  0.00    -0.494 OA 
HETATM   12  C   UNL     1      -8.982  17.721  66.234  1.00  0.00    -0.200 A  
HETATM   13  C   UNL     1      -8.057  18.173  67.169  1.00  0.00    -0.221 A  
HETATM   14  F   UNL     1      -7.334  19.258  66.851  1.00  0.00    -0.208 F  
HETATM   15  C   UNL     1      -7.876  17.526  68.400  1.00  0.00    -0.263 A  
HETATM   16  C   UNL     1      -9.645  15.913  67.749  1.00  0.00    -0.218 A  
HETATM   17  C   UNL     1      -8.678  16.391  68.649  1.00  0.00    -0.234 A  
BRANCH  15  18
HETATM   18  N   UNL     1      -7.037  17.970  69.417  1.00  0.00    -0.104 NA 
HETATM   19  C   UNL     1      -6.598  19.376  69.470  1.00  0.00    -0.311 C  
HETATM   20  C   UNL     1      -6.233  19.725  70.936  1.00  0.00    -0.098 C  
HETATM   21  N   UNL     1      -5.226  18.823  71.535  1.00  0.00    -0.453 NA 
HETATM   22  H   UNL     1      -5.037  19.054  72.510  1.00  0.00     0.000 HD 
HETATM   23  C   UNL     1      -5.649  17.417  71.371  1.00  0.00     0.495 C  
HETATM   24  C   UNL     1      -6.000  17.043  69.913  1.00  0.00    -0.219 C  
ENDBRANCH  15  18
ENDBRANCH   2   3
TORSDOF 2
ENDMDL
MODEL       98
REMARK 921   NORMALIZED FREE ENERGY PREDICTED BY IDOCK:   -4.20 KCAL/MOL
REMARK 922        TOTAL FREE ENERGY PREDICTED BY IDOCK:   -5.08 KCAL/MOL
REMARK 923 INTER-LIGAND FREE ENERGY PREDICTED BY IDOCK:   -4.73 KCAL/MOL
REMARK 924 INTRA-LIGAND FREE ENERGY PREDICTED BY IDOCK:   -0.35 KCAL/MOL
REMARK 927      BINDING AFFINITY PREDICTED BY RF-SCORE:    0.00 PKD
ROOT
HETATM    1  C   UNL     1     -12.580  12.901  71.876  1.00  0.00    -0.074 C  
HETATM    2  C   UNL     1     -12.806  11.995  70.674  1.00  0.00     0.048 C  
ENDROOT
BRANCH   2   3
HETATM    3  N   UNL     1     -12.019  12.437  69.506  1.00  0.00    -0.288 NA 
HETATM    4  C   UNL     1     -11.958  13.782  69.162  1.00  0.00    -0.361 C  
HETATM    5  C   UNL     1     -11.292  14.308  68.123  1.00  0.00    -0.313 C  
HETATM    6  C   UNL     1     -11.325  15.769  67.907  1.00  0.00    -0.277 C  
HETATM    7  C   UNL     1     -10.554  13.369  67.261  1.00  0.00    -0.255 C  
HETATM    8  C   UNL     1     -10.522  11.939  67.645  1.00  0.00    -0.232 A  
HETATM    9  O   UNL     1      -9.973  13.782  66.259  1.00  0.00    -0.289 OA 
HETATM   10  O   UNL     1     -11.918  16.545  68.644  1.00  0.00     0.021 OA 
HETATM   11  O   UNL     1     -10.638  16.192  66.824  1.00  0.00    -0.309 OA 
HETATM   12  C   UNL     1      -9.729  11.059  66.902  1.00  0.00    -0.215 A  
HETATM   13  C   UNL     1      -9.646   9.723  67.283  1.00  0.00    -0.157 A  
HETATM   14  F   UNL     1      -8.857   8.919  66.554  1.00  0.00    -0.124 F  
HETATM   15  C   UNL     1     -10.360   9.225  68.382  1.00  0.00    -0.209 A  
HETATM   16  C   UNL     1     -11.261  11.505  68.761  1.00  0.00    -0.249 A  
HETATM   17  C   UNL     1     -11.167  10.142  69.090  1.00  0.00    -0.234 A  
BRANCH  15  18
HETATM   18  N   UNL     1     -10.259   7.927  68.874  1.00  0.00    -0.202 NA 
HETATM   19  C   UNL     1     -10.525   6.769  68.002  1.00  0.00    -0.211 C  
HETATM   20  C   UNL     1      -9.773   5.539  68.570  1.00  0.00    -0.134 C  
HETATM   21  N   UNL     1     -10.096   5.236  69.982  1.00  0.00    -0.243 NA 
HETATM   22  H   UNL     1      -9.556   4.447  70.337  1.00  0.00     0.000 HD 
HETATM   23  C   UNL     1      -9.918   6.446  70.809  1.00  0.00    -0.185 C  
HETATM   24  C   UNL     1     -10.675   7.682  70.269  1.00  0.00    -0.239 C  
ENDBRANCH  15  18
ENDBRANCH   2   3
TORSDOF 2
ENDMDL
MODEL       99
REMARK 921   NORMALIZED FREE ENERGY PREDICTED BY IDOCK:   -4.18 KCAL/MOL
REMARK 922        TOTAL FREE ENERGY PREDICTED BY IDOCK:   -5.06 KCAL/MOL
REMARK 923 INTER-LIGAND FREE ENERGY PREDICTED BY IDOCK:   -4.67 KCAL/MOL
REMARK 924 INTRA-LIGAND FREE ENERGY PREDICTED BY IDOCK:   -0.39 KCAL/MOL
REMARK 927      BINDING AFFINITY PREDICTED BY RF-SCORE:    0.00 PKD
ROOT
HETATM    1  C   UNL     1     -12.722  12.056  63.440  1.00  0.00    -0.527 C  
HETATM    2  C   UNL     1     -11.447  12.851  63.688  1.00  0.00    -0.446 C  
ENDROOT
BRANCH   2   3
HETATM    3  N   UNL     1     -10.516  12.121  64.571  1.00  0.00    -0.287 NA 
HETATM    4  C   UNL     1     -10.077  10.847  64.237  1.00  0.00    -0.351 C  
HETATM    5  C   UNL     1      -9.245  10.078  64.956  1.00  0.00    -0.277 C  
HETATM    6  C   UNL     1      -8.870   8.743  64.446  1.00  0.00     0.064 C  
HETATM    7  C   UNL     1      -8.750  10.639  66.226  1.00  0.00    -0.156 C  
HETATM    8  C   UNL     1      -9.126  12.029  66.574  1.00  0.00    -0.202 A  
HETATM    9  O   UNL     1      -8.032   9.960  66.958  1.00  0.00    -0.108 OA 
HETATM   10  O   UNL     1      -9.263   8.296  63.377  1.00  0.00     0.882 OA 
HETATM   11  O   UNL     1      -8.044   8.045  65.255  1.00  0.00    -0.123 OA 
HETATM   12  C   UNL     1      -8.568  12.611  67.716  1.00  0.00    -0.179 A  
HETATM   13  C   UNL     1      -8.869  13.933  68.027  1.00  0.00    -0.184 A  
HETATM   14  F   UNL     1      -8.294  14.459  69.120  1.00  0.00    -0.144 F  
HETATM   15  C   UNL     1      -9.741  14.696  67.237  1.00  0.00    -0.231 A  
HETATM   16  C   UNL     1     -10.006  12.739  65.736  1.00  0.00    -0.251 A  
HETATM   17  C   UNL     1     -10.302  14.061  66.107  1.00  0.00    -0.301 A  
BRANCH  15  18
HETATM   18  N   UNL     1     -10.020  16.045  67.434  1.00  0.00    -0.238 NA 
HETATM   19  C   UNL     1     -10.660  16.507  68.679  1.00  0.00    -0.316 C  
HETATM   20  C   UNL     1     -10.295  17.997  68.900  1.00  0.00    -0.234 C  
HETATM   21  N   UNL     1     -10.637  18.875  67.759  1.00  0.00    -0.417 NA 
HETATM   22  H   UNL     1     -10.349  19.840  67.920  1.00  0.00     0.000 HD 
HETATM   23  C   UNL     1     -10.066  18.326  66.513  1.00  0.00    -0.385 C  
HETATM   24  C   UNL     1     -10.434  16.844  66.265  1.00  0.00    -0.262 C  
ENDBRANCH  15  18
ENDBRANCH   2   3
TORSDOF 2
ENDMDL
MODEL      100
REMARK 921   NORMALIZED FREE ENERGY PREDICTED BY IDOCK:   -4.17 KCAL/MOL
REMARK 922        TOTAL FREE ENERGY PREDICTED BY IDOCK:   -5.04 KCAL/MOL
REMARK 923 INTER-LIGAND FREE ENERGY PREDICTED BY IDOCK:   -4.83 KCAL/MOL
REMARK 924 INTRA-LIGAND FREE ENERGY PREDICTED BY IDOCK:   -0.21 KCAL/MOL
REMARK 927      BINDING AFFINITY PREDICTED BY RF-SCORE:    0.00 PKD
ROOT
HETATM    1  C   UNL     1     -11.245  20.304  65.714  1.00  0.00     0.603 C  
HETATM    2  C   UNL     1     -10.755  19.684  67.016  1.00  0.00    -0.455 C  
ENDROOT
BRANCH   2   3
HETATM    3  N   UNL     1      -9.518  18.904  66.813  1.00  0.00    -0.313 NA 
HETATM    4  C   UNL     1      -8.454  19.439  66.098  1.00  0.00    -0.291 C  
HETATM    5  C   UNL     1      -7.287  18.832  65.835  1.00  0.00    -0.261 C  
HETATM    6  C   UNL     1      -6.253  19.554  65.064  1.00  0.00    -0.273 C  
HETATM    7  C   UNL     1      -7.117  17.463  66.353  1.00  0.00    -0.293 C  
HETATM    8  C   UNL     1      -8.193  16.891  67.195  1.00  0.00    -0.215 A  
HETATM    9  O   UNL     1      -6.094  16.832  66.095  1.00  0.00    -0.159 OA 
HETATM   10  O   UNL     1      -6.392  20.700  64.662  1.00  0.00    -0.283 OA 
HETATM   11  O   UNL     1      -5.125  18.845  64.840  1.00  0.00    -0.143 OA 
HETATM   12  C   UNL     1      -7.992  15.642  67.788  1.00  0.00    -0.157 A  
HETATM   13  C   UNL     1      -8.972  15.115  68.625  1.00  0.00    -0.191 A  
HETATM   14  F   UNL     1      -8.728  13.923  69.190  1.00  0.00    -0.024 F  
HETATM   15  C   UNL     1     -10.173  15.795  68.871  1.00  0.00    -0.219 A  
HETATM   16  C   UNL     1      -9.375  17.627  67.403  1.00  0.00    -0.247 A  
HETATM   17  C   UNL     1     -10.346  17.042  68.233  1.00  0.00    -0.347 A  
BRANCH  15  18
HETATM   18  N   UNL     1     -11.157  15.374  69.761  1.00  0.00    -0.265 NA 
HETATM   19  C   UNL     1     -11.222  15.924  71.127  1.00  0.00    -0.306 C  
HETATM   20  C   UNL     1     -12.675  15.785  71.647  1.00  0.00    -0.453 C  
HETATM   21  N   UNL     1     -13.202  14.404  71.597  1.00  0.00    -0.331 NA 
HETATM   22  H   UNL     1     -14.171  14.352  71.910  1.00  0.00     0.000 HD 
HETATM   23  C   UNL     1     -13.026  13.847  70.241  1.00  0.00     0.059 C  
HETATM   24  C   UNL     1     -11.578  13.960  69.709  1.00  0.00    -0.270 C  
ENDBRANCH  15  18
ENDBRANCH   2   3
TORSDOF 2
ENDMDL
MODEL      101
REMARK 921   NORMALIZED FREE ENERGY PREDICTED BY IDOCK:   -4.16 KCAL/MOL
REMARK 922        TOTAL FREE ENERGY PREDICTED BY IDOCK:   -5.04 KCAL/MOL
REMARK 923 INTER-LIGAND FREE ENERGY PREDICTED BY IDOCK:   -5.08 KCAL/MOL
REMARK 924 INTRA-LIGAND FREE ENERGY PREDICTED BY IDOCK:    0.04 KCAL/MOL
REMARK 927      BINDING AFFINITY PREDICTED BY RF-SCORE:    0.00 PKD
ROOT
HETATM    1  C   UNL     1      -8.183   4.881  68.031  1.00  0.00    -0.096 C  
HETATM    2  C   UNL     1      -9.550   5.549  68.076  1.00  0.00    -0.125 C  
ENDROOT
BRANCH   2   3
HETATM    3  N   UNL     1      -9.894   5.990  69.442  1.00  0.00    -0.157 NA 
HETATM    4  C   UNL     1      -9.746   5.130  70.521  1.00  0.00    -0.193 C  
HETATM    5  C   UNL     1     -10.032   5.404  71.803  1.00  0.00    -0.235 C  
HETATM    6  C   UNL     1      -9.804   4.370  72.833  1.00  0.00    -0.142 C  
HETATM    7  C   UNL     1     -10.558   6.749  72.095  1.00  0.00    -0.211 C  
HETATM    8  C   UNL     1     -10.648   7.725  70.983  1.00  0.00    -0.226 A  
HETATM    9  O   UNL     1     -10.896   7.041  73.240  1.00  0.00    -0.308 OA 
HETATM   10  O   UNL     1      -9.341   3.265  72.587  1.00  0.00    -0.097 OA 
HETATM   11  O   UNL     1     -10.143   4.742  74.087  1.00  0.00    -0.164 OA 
HETATM   12  C   UNL     1     -11.033   9.038  71.269  1.00  0.00    -0.384 A  
HETATM   13  C   UNL     1     -11.070   9.979  70.246  1.00  0.00    -0.318 A  
HETATM   14  F   UNL     1     -11.425  11.232  70.569  1.00  0.00    -0.370 F  
HETATM   15  C   UNL     1     -10.754   9.641  68.922  1.00  0.00    -0.206 A  
HETATM   16  C   UNL     1     -10.315   7.319  69.677  1.00  0.00    -0.221 A  
HETATM   17  C   UNL     1     -10.394   8.299  68.673  1.00  0.00    -0.225 A  
BRANCH  15  18
HETATM   18  N   UNL     1     -10.684  10.543  67.865  1.00  0.00    -0.238 NA 
HETATM   19  C   UNL     1      -9.991  10.186  66.615  1.00  0.00    -0.216 C  
HETATM   20  C   UNL     1     -10.573  11.045  65.464  1.00  0.00    -0.200 C  
HETATM   21  N   UNL     1     -10.515  12.502  65.714  1.00  0.00    -0.265 NA 
HETATM   22  H   UNL     1     -10.940  13.037  64.957  1.00  0.00     0.000 HD 
HETATM   23  C   UNL     1     -11.125  12.812  67.022  1.00  0.00    -0.278 C  
HETATM   24  C   UNL     1     -10.546  11.977  68.188  1.00  0.00    -0.210 C  
ENDBRANCH  15  18
ENDBRANCH   2   3
TORSDOF 2
ENDMDL
MODEL      102
REMARK 921   NORMALIZED FREE ENERGY PREDICTED BY IDOCK:   -4.10 KCAL/MOL
REMARK 922        TOTAL FREE ENERGY PREDICTED BY IDOCK:   -4.97 KCAL/MOL
REMARK 923 INTER-LIGAND FREE ENERGY PREDICTED BY IDOCK:   -4.55 KCAL/MOL
REMARK 924 INTRA-LIGAND FREE ENERGY PREDICTED BY IDOCK:   -0.42 KCAL/MOL
REMARK 927      BINDING AFFINITY PREDICTED BY RF-SCORE:    0.00 PKD
ROOT
HETATM    1  C   UNL     1     -12.512   6.799  71.051  1.00  0.00    -0.318 C  
HETATM    2  C   UNL     1     -11.263   6.590  70.206  1.00  0.00    -0.374 C  
ENDROOT
BRANCH   2   3
HETATM    3  N   UNL     1     -10.087   7.256  70.801  1.00  0.00    -0.190 NA 
HETATM    4  C   UNL     1      -9.524   6.779  71.978  1.00  0.00    -0.141 C  
HETATM    5  C   UNL     1      -8.469   7.298  72.623  1.00  0.00    -0.127 C  
HETATM    6  C   UNL     1      -7.991   6.656  73.865  1.00  0.00    -0.106 C  
HETATM    7  C   UNL     1      -7.846   8.493  72.027  1.00  0.00    -0.099 C  
HETATM    8  C   UNL     1      -8.363   8.980  70.726  1.00  0.00    -0.228 A  
HETATM    9  O   UNL     1      -6.913   9.051  72.601  1.00  0.00    -0.322 OA 
HETATM   10  O   UNL     1      -8.496   5.648  74.338  1.00  0.00    -0.109 OA 
HETATM   11  O   UNL     1      -6.936   7.270  74.443  1.00  0.00    -0.091 OA 
HETATM   12  C   UNL     1      -7.705  10.040  70.094  1.00  0.00    -0.158 A  
HETATM   13  C   UNL     1      -8.145  10.472  68.847  1.00  0.00    -0.138 A  
HETATM   14  F   UNL     1      -7.472  11.478  68.268  1.00  0.00    -0.081 F  
HETATM   15  C   UNL     1      -9.252   9.890  68.213  1.00  0.00    -0.129 A  
HETATM   16  C   UNL     1      -9.477   8.349  70.143  1.00  0.00    -0.164 A  
HETATM   17  C   UNL     1      -9.901   8.840  68.897  1.00  0.00    -0.183 A  
BRANCH  15  18
HETATM   18  N   UNL     1      -9.694  10.209  66.933  1.00  0.00    -0.180 NA 
HETATM   19  C   UNL     1     -10.925  10.995  66.737  1.00  0.00    -0.217 C  
HETATM   20  C   UNL     1     -10.845  11.705  65.361  1.00  0.00    -0.280 C  
HETATM   21  N   UNL     1     -10.604  10.788  64.225  1.00  0.00    -0.392 NA 
HETATM   22  H   UNL     1     -10.517  11.289  63.341  1.00  0.00     0.000 HD 
HETATM   23  C   UNL     1      -9.424   9.944  64.502  1.00  0.00    -0.264 C  
HETATM   24  C   UNL     1      -9.493   9.213  65.863  1.00  0.00    -0.259 C  
ENDBRANCH  15  18
ENDBRANCH   2   3
TORSDOF 2
ENDMDL
MODEL      103
REMARK 921   NORMALIZED FREE ENERGY PREDICTED BY IDOCK:   -4.09 KCAL/MOL
REMARK 922        TOTAL FREE ENERGY PREDICTED BY IDOCK:   -4.96 KCAL/MOL
REMARK 923 INTER-LIGAND FREE ENERGY PREDICTED BY IDOCK:   -4.56 KCAL/MOL
REMARK 924 INTRA-LIGAND FREE ENERGY PREDICTED BY IDOCK:   -0.41 KCAL/MOL
REMARK 927      BINDING AFFINITY PREDICTED BY RF-SCORE:    0.00 PKD
ROOT
HETATM    1  C   UNL     1      -7.456   8.727  70.114  1.00  0.00    -0.056 C  
HETATM    2  C   UNL     1      -8.224   9.946  69.620  1.00  0.00    -0.171 C  
ENDROOT
BRANCH   2   3
HETATM    3  N   UNL     1      -8.524   9.851  68.178  1.00  0.00    -0.114 NA 
HETATM    4  C   UNL     1      -8.261   8.681  67.476  1.00  0.00    -0.110 C  
HETATM    5  C   UNL     1      -8.475   8.472  66.169  1.00  0.00    -0.139 C  
HETATM    6  C   UNL     1      -8.146   7.157  65.582  1.00  0.00    -0.133 C  
HETATM    7  C   UNL     1      -9.043   9.594  65.399  1.00  0.00    -0.215 C  
HETATM    8  C   UNL     1      -9.419  10.827  66.129  1.00  0.00    -0.221 A  
HETATM    9  O   UNL     1      -9.207   9.485  64.186  1.00  0.00    -0.226 OA 
HETATM   10  O   UNL     1      -7.700   6.222  66.233  1.00  0.00    -0.095 OA 
HETATM   11  O   UNL     1      -8.382   7.060  64.255  1.00  0.00    -0.008 OA 
HETATM   12  C   UNL     1     -10.066  11.851  65.431  1.00  0.00    -0.285 A  
HETATM   13  C   UNL     1     -10.474  12.993  66.114  1.00  0.00    -0.279 A  
HETATM   14  F   UNL     1     -11.110  13.941  65.410  1.00  0.00    -0.295 F  
HETATM   15  C   UNL     1     -10.230  13.159  67.485  1.00  0.00    -0.225 A  
HETATM   16  C   UNL     1      -9.147  10.928  67.506  1.00  0.00    -0.140 A  
HETATM   17  C   UNL     1      -9.552  12.111  68.145  1.00  0.00    -0.208 A  
BRANCH  15  18
HETATM   18  N   UNL     1     -10.684  14.229  68.250  1.00  0.00    -0.241 NA 
HETATM   19  C   UNL     1      -9.864  15.444  68.404  1.00  0.00    -0.215 C  
HETATM   20  C   UNL     1     -10.801  16.633  68.736  1.00  0.00    -0.331 C  
HETATM   21  N   UNL     1     -11.660  16.409  69.919  1.00  0.00    -0.334 NA 
HETATM   22  H   UNL     1     -12.291  17.193  70.088  1.00  0.00     0.000 HD 
HETATM   23  C   UNL     1     -12.388  15.132  69.777  1.00  0.00    -0.242 C  
HETATM   24  C   UNL     1     -11.469  13.928  69.463  1.00  0.00    -0.274 C  
ENDBRANCH  15  18
ENDBRANCH   2   3
TORSDOF 2
ENDMDL
MODEL      104
REMARK 921   NORMALIZED FREE ENERGY PREDICTED BY IDOCK:   -4.07 KCAL/MOL
REMARK 922        TOTAL FREE ENERGY PREDICTED BY IDOCK:   -4.94 KCAL/MOL
REMARK 923 INTER-LIGAND FREE ENERGY PREDICTED BY IDOCK:   -4.50 KCAL/MOL
REMARK 924 INTRA-LIGAND FREE ENERGY PREDICTED BY IDOCK:   -0.44 KCAL/MOL
REMARK 927      BINDING AFFINITY PREDICTED BY RF-SCORE:    0.00 PKD
ROOT
HETATM    1  C   UNL     1     -12.137  10.921  70.768  1.00  0.00    -0.469 C  
HETATM    2  C   UNL     1     -12.462  10.897  69.281  1.00  0.00     0.121 C  
ENDROOT
BRANCH   2   3
HETATM    3  N   UNL     1     -11.554  11.772  68.513  1.00  0.00    -0.296 NA 
HETATM    4  C   UNL     1     -11.704  13.152  68.548  1.00  0.00    -0.352 C  
HETATM    5  C   UNL     1     -10.957  14.051  67.890  1.00  0.00    -0.261 C  
HETATM    6  C   UNL     1     -11.248  15.491  68.049  1.00  0.00    -0.332 C  
HETATM    7  C   UNL     1      -9.872  13.523  67.044  1.00  0.00    -0.251 C  
HETATM    8  C   UNL     1      -9.624  12.063  67.049  1.00  0.00    -0.200 A  
HETATM    9  O   UNL     1      -9.190  14.293  66.369  1.00  0.00    -0.264 OA 
HETATM   10  O   UNL     1     -12.133  15.922  68.775  1.00  0.00    -0.297 OA 
HETATM   11  O   UNL     1     -10.449  16.308  67.329  1.00  0.00    -0.294 OA 
HETATM   12  C   UNL     1      -8.525  11.564  66.343  1.00  0.00    -0.138 A  
HETATM   13  C   UNL     1      -8.248  10.201  66.382  1.00  0.00    -0.122 A  
HETATM   14  F   UNL     1      -7.171   9.768  65.708  1.00  0.00    -0.091 F  
HETATM   15  C   UNL     1      -9.059   9.304  67.092  1.00  0.00    -0.130 A  
HETATM   16  C   UNL     1     -10.477  11.218  67.784  1.00  0.00    -0.187 A  
HETATM   17  C   UNL     1     -10.173   9.847  67.769  1.00  0.00    -0.241 A  
BRANCH  15  18
HETATM   18  N   UNL     1      -8.797   7.946  67.248  1.00  0.00    -0.126 NA 
HETATM   19  C   UNL     1      -9.225   6.975  66.226  1.00  0.00    -0.126 C  
HETATM   20  C   UNL     1      -8.314   5.724  66.321  1.00  0.00    -0.115 C  
HETATM   21  N   UNL     1      -8.275   5.109  67.666  1.00  0.00    -0.099 NA 
HETATM   22  H   UNL     1      -7.638   4.314  67.704  1.00  0.00     0.000 HD 
HETATM   23  C   UNL     1      -7.946   6.133  68.677  1.00  0.00    -0.101 C  
HETATM   24  C   UNL     1      -8.855   7.383  68.611  1.00  0.00    -0.126 C  
ENDBRANCH  15  18
ENDBRANCH   2   3
TORSDOF 2
ENDMDL
MODEL      105
REMARK 921   NORMALIZED FREE ENERGY PREDICTED BY IDOCK:   -4.06 KCAL/MOL
REMARK 922        TOTAL FREE ENERGY PREDICTED BY IDOCK:   -4.93 KCAL/MOL
REMARK 923 INTER-LIGAND FREE ENERGY PREDICTED BY IDOCK:   -4.59 KCAL/MOL
REMARK 924 INTRA-LIGAND FREE ENERGY PREDICTED BY IDOCK:   -0.34 KCAL/MOL
REMARK 927      BINDING AFFINITY PREDICTED BY RF-SCORE:    0.00 PKD
ROOT
HETATM    1  C   UNL     1      -7.400   9.517  68.947  1.00  0.00    -0.073 C  
HETATM    2  C   UNL     1      -8.758   9.001  68.493  1.00  0.00    -0.133 C  
ENDROOT
BRANCH   2   3
HETATM    3  N   UNL     1      -9.813   9.307  69.479  1.00  0.00    -0.174 NA 
HETATM    4  C   UNL     1     -10.542  10.486  69.392  1.00  0.00    -0.240 C  
HETATM    5  C   UNL     1     -11.513  10.885  70.228  1.00  0.00    -0.391 C  
HETATM    6  C   UNL     1     -12.197  12.171  69.982  1.00  0.00    -0.198 C  
HETATM    7  C   UNL     1     -11.836   9.986  71.351  1.00  0.00    -0.363 C  
HETATM    8  C   UNL     1     -11.141   8.680  71.427  1.00  0.00    -0.343 A  
HETATM    9  O   UNL     1     -12.674  10.322  72.185  1.00  0.00    -0.358 OA 
HETATM   10  O   UNL     1     -11.943  12.898  69.032  1.00  0.00    -0.295 OA 
HETATM   11  O   UNL     1     -13.144  12.485  70.893  1.00  0.00    -0.059 OA 
HETATM   12  C   UNL     1     -11.523   7.771  72.418  1.00  0.00    -0.418 A  
HETATM   13  C   UNL     1     -10.918   6.519  72.470  1.00  0.00    -0.248 A  
HETATM   14  F   UNL     1     -11.330   5.671  73.424  1.00  0.00    -0.292 F  
HETATM   15  C   UNL     1      -9.911   6.150  71.567  1.00  0.00    -0.182 A  
HETATM   16  C   UNL     1     -10.140   8.372  70.488  1.00  0.00    -0.190 A  
HETATM   17  C   UNL     1      -9.538   7.107  70.598  1.00  0.00    -0.165 A  
BRANCH  15  18
HETATM   18  N   UNL     1      -9.324   4.890  71.502  1.00  0.00    -0.145 NA 
HETATM   19  C   UNL     1     -10.153   3.679  71.372  1.00  0.00     0.003 C  
HETATM   20  C   UNL     1      -9.298   2.562  70.720  1.00  0.00    -0.143 C  
HETATM   21  N   UNL     1      -8.035   2.277  71.436  1.00  0.00    -0.043 NA 
HETATM   22  H   UNL     1      -7.479   1.566  70.961  1.00  0.00     0.000 HD 
HETATM   23  C   UNL     1      -7.279   3.528  71.640  1.00  0.00    -0.039 C  
HETATM   24  C   UNL     1      -8.109   4.651  72.305  1.00  0.00    -0.102 C  
ENDBRANCH  15  18
ENDBRANCH   2   3
TORSDOF 2
ENDMDL
MODEL      106
REMARK 921   NORMALIZED FREE ENERGY PREDICTED BY IDOCK:   -4.05 KCAL/MOL
REMARK 922        TOTAL FREE ENERGY PREDICTED BY IDOCK:   -4.91 KCAL/MOL
REMARK 923 INTER-LIGAND FREE ENERGY PREDICTED BY IDOCK:   -4.51 KCAL/MOL
REMARK 924 INTRA-LIGAND FREE ENERGY PREDICTED BY IDOCK:   -0.40 KCAL/MOL
REMARK 927      BINDING AFFINITY PREDICTED BY RF-SCORE:    0.00 PKD
ROOT
HETATM    1  C   UNL     1      -8.775  10.848  68.190  1.00  0.00    -0.133 C  
HETATM    2  C   UNL     1      -8.402   9.723  69.145  1.00  0.00    -0.137 C  
ENDROOT
BRANCH   2   3
HETATM    3  N   UNL     1      -9.530   9.361  70.025  1.00  0.00    -0.211 NA 
HETATM    4  C   UNL     1     -10.531  10.282  70.306  1.00  0.00    -0.146 C  
HETATM    5  C   UNL     1     -11.597  10.083  71.096  1.00  0.00    -0.460 C  
HETATM    6  C   UNL     1     -12.576  11.173  71.280  1.00  0.00    -0.398 C  
HETATM    7  C   UNL     1     -11.717   8.758  71.730  1.00  0.00    -0.346 C  
HETATM    8  C   UNL     1     -10.717   7.721  71.386  1.00  0.00    -0.250 A  
HETATM    9  O   UNL     1     -12.639   8.533  72.512  1.00  0.00    -0.376 OA 
HETATM   10  O   UNL     1     -12.484  12.261  70.728  1.00  0.00    -0.346 OA 
HETATM   11  O   UNL     1     -13.600  10.874  72.109  1.00  0.00    -0.280 OA 
HETATM   12  C   UNL     1     -10.888   6.427  71.888  1.00  0.00    -0.279 A  
HETATM   13  C   UNL     1      -9.987   5.429  71.530  1.00  0.00    -0.181 A  
HETATM   14  F   UNL     1     -10.202   4.198  72.019  1.00  0.00    -0.234 F  
HETATM   15  C   UNL     1      -8.892   5.690  70.695  1.00  0.00    -0.138 A  
HETATM   16  C   UNL     1      -9.641   8.049  70.540  1.00  0.00    -0.170 A  
HETATM   17  C   UNL     1      -8.743   7.015  70.230  1.00  0.00    -0.144 A  
BRANCH  15  18
HETATM   18  N   UNL     1      -8.003   4.728  70.225  1.00  0.00    -0.067 NA 
HETATM   19  C   UNL     1      -6.682   4.552  70.855  1.00  0.00    -0.035 C  
HETATM   20  C   UNL     1      -6.194   3.106  70.585  1.00  0.00    -0.023 C  
HETATM   21  N   UNL     1      -6.161   2.741  69.152  1.00  0.00    -0.028 NA 
HETATM   22  H   UNL     1      -5.874   1.772  69.010  1.00  0.00     0.000 HD 
HETATM   23  C   UNL     1      -7.469   3.027  68.529  1.00  0.00    -0.049 C  
HETATM   24  C   UNL     1      -7.966   4.471  68.772  1.00  0.00    -0.078 C  
ENDBRANCH  15  18
ENDBRANCH   2   3
TORSDOF 2
ENDMDL
MODEL      107
REMARK 921   NORMALIZED FREE ENERGY PREDICTED BY IDOCK:   -3.97 KCAL/MOL
REMARK 922        TOTAL FREE ENERGY PREDICTED BY IDOCK:   -4.82 KCAL/MOL
REMARK 923 INTER-LIGAND FREE ENERGY PREDICTED BY IDOCK:   -4.97 KCAL/MOL
REMARK 924 INTRA-LIGAND FREE ENERGY PREDICTED BY IDOCK:    0.15 KCAL/MOL
REMARK 927      BINDING AFFINITY PREDICTED BY RF-SCORE:    0.00 PKD
ROOT
HETATM    1  C   UNL     1      -9.325  14.038  68.753  1.00  0.00    -0.059 C  
HETATM    2  C   UNL     1     -10.684  13.373  68.578  1.00  0.00    -0.262 C  
ENDROOT
BRANCH   2   3
HETATM    3  N   UNL     1     -10.863  12.858  67.207  1.00  0.00    -0.252 NA 
HETATM    4  C   UNL     1     -11.545  13.603  66.254  1.00  0.00    -0.348 C  
HETATM    5  C   UNL     1     -11.785  13.244  64.984  1.00  0.00    -0.362 C  
HETATM    6  C   UNL     1     -12.522  14.167  64.097  1.00  0.00    -0.227 C  
HETATM    7  C   UNL     1     -11.277  11.928  64.557  1.00  0.00    -0.319 C  
HETATM    8  C   UNL     1     -10.468  11.142  65.518  1.00  0.00    -0.317 A  
HETATM    9  O   UNL     1     -11.516  11.516  63.424  1.00  0.00    -0.372 OA 
HETATM   10  O   UNL     1     -12.917  15.269  64.451  1.00  0.00    -0.256 OA 
HETATM   11  O   UNL     1     -12.726  13.700  62.846  1.00  0.00    -0.577 OA 
HETATM   12  C   UNL     1      -9.883   9.948  65.086  1.00  0.00    -0.348 A  
HETATM   13  C   UNL     1      -9.076   9.226  65.960  1.00  0.00    -0.188 A  
HETATM   14  F   UNL     1      -8.517   8.097  65.498  1.00  0.00    -0.130 F  
HETATM   15  C   UNL     1      -8.853   9.650  67.278  1.00  0.00    -0.132 A  
HETATM   16  C   UNL     1     -10.282  11.626  66.826  1.00  0.00    -0.217 A  
HETATM   17  C   UNL     1      -9.483  10.847  67.680  1.00  0.00    -0.170 A  
BRANCH  15  18
HETATM   18  N   UNL     1      -7.992   9.030  68.179  1.00  0.00    -0.101 NA 
HETATM   19  C   UNL     1      -6.954   8.097  67.707  1.00  0.00    -0.078 C  
HETATM   20  C   UNL     1      -5.813   8.056  68.755  1.00  0.00    -0.035 C  
HETATM   21  N   UNL     1      -6.264   7.713  70.121  1.00  0.00    -0.033 NA 
HETATM   22  H   UNL     1      -5.498   7.732  70.794  1.00  0.00     0.000 HD 
HETATM   23  C   UNL     1      -7.375   8.600  70.521  1.00  0.00    -0.058 C  
HETATM   24  C   UNL     1      -8.533   8.642  69.496  1.00  0.00    -0.129 C  
ENDBRANCH  15  18
ENDBRANCH   2   3
TORSDOF 2
ENDMDL
MODEL      108
REMARK 921   NORMALIZED FREE ENERGY PREDICTED BY IDOCK:   -3.89 KCAL/MOL
REMARK 922        TOTAL FREE ENERGY PREDICTED BY IDOCK:   -4.73 KCAL/MOL
REMARK 923 INTER-LIGAND FREE ENERGY PREDICTED BY IDOCK:   -4.55 KCAL/MOL
REMARK 924 INTRA-LIGAND FREE ENERGY PREDICTED BY IDOCK:   -0.18 KCAL/MOL
REMARK 927      BINDING AFFINITY PREDICTED BY RF-SCORE:    0.00 PKD
ROOT
HETATM    1  C   UNL     1      -6.954   5.418  67.071  1.00  0.00    -0.065 C  
HETATM    2  C   UNL     1      -7.999   6.503  66.847  1.00  0.00    -0.112 C  
ENDROOT
BRANCH   2   3
HETATM    3  N   UNL     1      -8.270   7.259  68.086  1.00  0.00    -0.123 NA 
HETATM    4  C   UNL     1      -7.814   6.793  69.312  1.00  0.00    -0.110 C  
HETATM    5  C   UNL     1      -8.004   7.377  70.505  1.00  0.00    -0.099 C  
HETATM    6  C   UNL     1      -7.439   6.748  71.717  1.00  0.00    -0.087 C  
HETATM    7  C   UNL     1      -8.772   8.634  70.517  1.00  0.00    -0.162 C  
HETATM    8  C   UNL     1      -9.200   9.208  69.220  1.00  0.00    -0.146 A  
HETATM    9  O   UNL     1      -9.031   9.186  71.585  1.00  0.00    -0.336 OA 
HETATM   10  O   UNL     1      -6.778   5.719  71.696  1.00  0.00    -0.051 OA 
HETATM   11  O   UNL     1      -7.704   7.407  72.866  1.00  0.00    -0.084 OA 
HETATM   12  C   UNL     1      -9.826  10.458  69.210  1.00  0.00    -0.243 A  
HETATM   13  C   UNL     1     -10.184  11.035  67.996  1.00  0.00    -0.179 A  
HETATM   14  F   UNL     1     -10.764  12.245  68.033  1.00  0.00    -0.200 F  
HETATM   15  C   UNL     1      -9.958  10.384  66.775  1.00  0.00    -0.206 A  
HETATM   16  C   UNL     1      -8.940   8.503  68.030  1.00  0.00    -0.141 A  
HETATM   17  C   UNL     1      -9.346   9.113  66.832  1.00  0.00    -0.199 A  
BRANCH  15  18
HETATM   18  N   UNL     1     -10.208  10.934  65.522  1.00  0.00    -0.264 NA 
HETATM   19  C   UNL     1     -11.411  11.752  65.285  1.00  0.00    -0.222 C  
HETATM   20  C   UNL     1     -11.137  12.699  64.089  1.00  0.00    -0.382 C  
HETATM   21  N   UNL     1     -10.708  12.003  62.857  1.00  0.00    -0.535 NA 
HETATM   22  H   UNL     1     -10.499  12.655  62.101  1.00  0.00     0.000 HD 
HETATM   23  C   UNL     1      -9.567  11.114  63.153  1.00  0.00    -0.369 C  
HETATM   24  C   UNL     1      -9.826  10.147  64.333  1.00  0.00    -0.237 C  
ENDBRANCH  15  18
ENDBRANCH   2   3
TORSDOF 2
ENDMDL
MODEL      109
REMARK 921   NORMALIZED FREE ENERGY PREDICTED BY IDOCK:   -3.87 KCAL/MOL
REMARK 922        TOTAL FREE ENERGY PREDICTED BY IDOCK:   -4.71 KCAL/MOL
REMARK 923 INTER-LIGAND FREE ENERGY PREDICTED BY IDOCK:   -4.32 KCAL/MOL
REMARK 924 INTRA-LIGAND FREE ENERGY PREDICTED BY IDOCK:   -0.39 KCAL/MOL
REMARK 927      BINDING AFFINITY PREDICTED BY RF-SCORE:    0.00 PKD
ROOT
HETATM    1  C   UNL     1      -6.920  14.031  67.502  1.00  0.00    -0.167 C  
HETATM    2  C   UNL     1      -7.228  12.564  67.234  1.00  0.00    -0.114 C  
ENDROOT
BRANCH   2   3
HETATM    3  N   UNL     1      -8.585  12.203  67.690  1.00  0.00    -0.157 NA 
HETATM    4  C   UNL     1      -9.421  13.160  68.250  1.00  0.00    -0.210 C  
HETATM    5  C   UNL     1     -10.664  12.959  68.712  1.00  0.00    -0.249 C  
HETATM    6  C   UNL     1     -11.423  14.097  69.270  1.00  0.00    -0.292 C  
HETATM    7  C   UNL     1     -11.195  11.587  68.619  1.00  0.00    -0.248 C  
HETATM    8  C   UNL     1     -10.368  10.557  67.948  1.00  0.00    -0.226 A  
HETATM    9  O   UNL     1     -12.305  11.326  69.079  1.00  0.00    -0.446 OA 
HETATM   10  O   UNL     1     -10.986  15.238  69.318  1.00  0.00    -0.234 OA 
HETATM   11  O   UNL     1     -12.656  13.781  69.724  1.00  0.00    -0.233 OA 
HETATM   12  C   UNL     1     -10.908   9.283  67.749  1.00  0.00    -0.192 A  
HETATM   13  C   UNL     1     -10.164   8.322  67.074  1.00  0.00    -0.310 A  
HETATM   14  F   UNL     1     -10.730   7.119  66.886  1.00  0.00    -0.342 F  
HETATM   15  C   UNL     1      -8.869   8.587  66.605  1.00  0.00    -0.135 A  
HETATM   16  C   UNL     1      -9.076  10.891  67.501  1.00  0.00    -0.140 A  
HETATM   17  C   UNL     1      -8.352   9.878  66.849  1.00  0.00    -0.124 A  
BRANCH  15  18
HETATM   18  N   UNL     1      -8.102   7.708  65.847  1.00  0.00    -0.115 NA 
HETATM   19  C   UNL     1      -6.964   6.991  66.450  1.00  0.00    -0.069 C  
HETATM   20  C   UNL     1      -6.707   5.697  65.635  1.00  0.00    -0.044 C  
HETATM   21  N   UNL     1      -6.493   5.930  64.190  1.00  0.00    -0.032 NA 
HETATM   22  H   UNL     1      -6.366   5.058  63.677  1.00  0.00     0.000 HD 
HETATM   23  C   UNL     1      -7.599   6.739  63.642  1.00  0.00    -0.097 C  
HETATM   24  C   UNL     1      -7.861   8.044  64.430  1.00  0.00    -0.139 C  
ENDBRANCH  15  18
ENDBRANCH   2   3
TORSDOF 2
ENDMDL
MODEL      110
REMARK 921   NORMALIZED FREE ENERGY PREDICTED BY IDOCK:   -3.79 KCAL/MOL
REMARK 922        TOTAL FREE ENERGY PREDICTED BY IDOCK:   -4.62 KCAL/MOL
REMARK 923 INTER-LIGAND FREE ENERGY PREDICTED BY IDOCK:   -4.45 KCAL/MOL
REMARK 924 INTRA-LIGAND FREE ENERGY PREDICTED BY IDOCK:   -0.17 KCAL/MOL
REMARK 927      BINDING AFFINITY PREDICTED BY RF-SCORE:    0.00 PKD
ROOT
HETATM    1  C   UNL     1      -6.618   8.515  70.378  1.00  0.00    -0.036 C  
HETATM    2  C   UNL     1      -7.863   7.870  69.785  1.00  0.00    -0.104 C  
ENDROOT
BRANCH   2   3
HETATM    3  N   UNL     1      -8.090   8.306  68.393  1.00  0.00    -0.125 NA 
HETATM    4  C   UNL     1      -7.428   7.688  67.341  1.00  0.00    -0.100 C  
HETATM    5  C   UNL     1      -7.537   7.997  66.040  1.00  0.00    -0.085 C  
HETATM    6  C   UNL     1      -6.763   7.227  65.045  1.00  0.00    -0.047 C  
HETATM    7  C   UNL     1      -8.447   9.103  65.692  1.00  0.00    -0.139 C  
HETATM    8  C   UNL     1      -9.238   9.729  66.777  1.00  0.00    -0.179 A  
HETATM    9  O   UNL     1      -8.545   9.473  64.524  1.00  0.00    -0.163 OA 
HETATM   10  O   UNL     1      -6.030   6.292  65.339  1.00  0.00    -0.024 OA 
HETATM   11  O   UNL     1      -6.931   7.632  63.768  1.00  0.00    -0.056 OA 
HETATM   12  C   UNL     1     -10.190  10.697  66.444  1.00  0.00    -0.291 A  
HETATM   13  C   UNL     1     -10.979  11.255  67.445  1.00  0.00    -0.282 A  
HETATM   14  F   UNL     1     -11.895  12.164  67.077  1.00  0.00    -0.401 F  
HETATM   15  C   UNL     1     -10.828  10.891  68.791  1.00  0.00    -0.209 A  
HETATM   16  C   UNL     1      -9.038   9.316  68.108  1.00  0.00    -0.128 A  
HETATM   17  C   UNL     1      -9.838   9.929  69.086  1.00  0.00    -0.204 A  
BRANCH  15  18
HETATM   18  N   UNL     1     -11.636  11.340  69.831  1.00  0.00    -0.315 NA 
HETATM   19  C   UNL     1     -12.700  10.482  70.382  1.00  0.00    -0.252 C  
HETATM   20  C   UNL     1     -12.993  10.929  71.837  1.00  0.00    -0.396 C  
HETATM   21  N   UNL     1     -13.335  12.362  71.967  1.00  0.00    -0.486 NA 
HETATM   22  H   UNL     1     -13.484  12.633  72.939  1.00  0.00     0.000 HD 
HETATM   23  C   UNL     1     -12.300  13.188  71.314  1.00  0.00    -0.125 C  
HETATM   24  C   UNL     1     -12.004  12.769  69.855  1.00  0.00    -0.298 C  
ENDBRANCH  15  18
ENDBRANCH   2   3
TORSDOF 2
ENDMDL
MODEL      111
REMARK 921   NORMALIZED FREE ENERGY PREDICTED BY IDOCK:   -3.71 KCAL/MOL
REMARK 922        TOTAL FREE ENERGY PREDICTED BY IDOCK:   -4.53 KCAL/MOL
REMARK 923 INTER-LIGAND FREE ENERGY PREDICTED BY IDOCK:   -4.67 KCAL/MOL
REMARK 924 INTRA-LIGAND FREE ENERGY PREDICTED BY IDOCK:    0.15 KCAL/MOL
REMARK 927      BINDING AFFINITY PREDICTED BY RF-SCORE:    0.00 PKD
ROOT
HETATM    1  C   UNL     1     -10.964  11.633  64.797  1.00  0.00    -0.351 C  
HETATM    2  C   UNL     1     -11.199  12.331  66.129  1.00  0.00    -0.328 C  
ENDROOT
BRANCH   2   3
HETATM    3  N   UNL     1      -9.977  13.002  66.614  1.00  0.00    -0.244 NA 
HETATM    4  C   UNL     1      -9.713  14.322  66.274  1.00  0.00    -0.302 C  
HETATM    5  C   UNL     1      -8.638  15.038  66.637  1.00  0.00    -0.246 C  
HETATM    6  C   UNL     1      -8.518  16.442  66.193  1.00  0.00    -0.294 C  
HETATM    7  C   UNL     1      -7.638  14.357  67.479  1.00  0.00    -0.193 C  
HETATM    8  C   UNL     1      -7.926  12.977  67.935  1.00  0.00    -0.157 A  
HETATM    9  O   UNL     1      -6.603  14.939  67.795  1.00  0.00    -0.143 OA 
HETATM   10  O   UNL     1      -9.366  17.009  65.519  1.00  0.00    -0.457 OA 
HETATM   11  O   UNL     1      -7.390  17.064  66.599  1.00  0.00    -0.204 OA 
HETATM   12  C   UNL     1      -7.042  12.364  68.828  1.00  0.00    -0.098 A  
HETATM   13  C   UNL     1      -7.326  11.090  69.307  1.00  0.00    -0.113 A  
HETATM   14  F   UNL     1      -6.462  10.549  70.179  1.00  0.00    -0.081 F  
HETATM   15  C   UNL     1      -8.469  10.387  68.899  1.00  0.00    -0.144 A  
HETATM   16  C   UNL     1      -9.092  12.329  67.487  1.00  0.00    -0.182 A  
HETATM   17  C   UNL     1      -9.322  11.032  67.978  1.00  0.00    -0.163 A  
BRANCH  15  18
HETATM   18  N   UNL     1      -8.864   9.150  69.400  1.00  0.00    -0.141 NA 
HETATM   19  C   UNL     1     -10.251   8.926  69.843  1.00  0.00    -0.200 C  
HETATM   20  C   UNL     1     -10.560   7.410  69.752  1.00  0.00    -0.236 C  
HETATM   21  N   UNL     1      -9.611   6.557  70.501  1.00  0.00    -0.169 NA 
HETATM   22  H   UNL     1      -9.818   5.565  70.390  1.00  0.00     0.000 HD 
HETATM   23  C   UNL     1      -8.226   6.882  70.107  1.00  0.00    -0.133 C  
HETATM   24  C   UNL     1      -7.891   8.388  70.207  1.00  0.00    -0.096 C  
ENDBRANCH  15  18
ENDBRANCH   2   3
TORSDOF 2
ENDMDL
MODEL      112
REMARK 921   NORMALIZED FREE ENERGY PREDICTED BY IDOCK:   -3.64 KCAL/MOL
REMARK 922        TOTAL FREE ENERGY PREDICTED BY IDOCK:   -4.45 KCAL/MOL
REMARK 923 INTER-LIGAND FREE ENERGY PREDICTED BY IDOCK:   -4.20 KCAL/MOL
REMARK 924 INTRA-LIGAND FREE ENERGY PREDICTED BY IDOCK:   -0.26 KCAL/MOL
REMARK 927      BINDING AFFINITY PREDICTED BY RF-SCORE:    0.00 PKD
ROOT
HETATM    1  C   UNL     1     -11.766  16.304  67.530  1.00  0.00     0.451 C  
HETATM    2  C   UNL     1     -10.883  15.634  66.486  1.00  0.00    -0.260 C  
ENDROOT
BRANCH   2   3
HETATM    3  N   UNL     1      -9.886  14.743  67.110  1.00  0.00    -0.230 NA 
HETATM    4  C   UNL     1     -10.054  13.365  67.085  1.00  0.00    -0.240 C  
HETATM    5  C   UNL     1      -9.231  12.452  67.624  1.00  0.00    -0.185 C  
HETATM    6  C   UNL     1      -9.557  11.017  67.496  1.00  0.00    -0.164 C  
HETATM    7  C   UNL     1      -8.031  12.962  68.311  1.00  0.00    -0.151 C  
HETATM    8  C   UNL     1      -7.771  14.420  68.283  1.00  0.00    -0.129 A  
HETATM    9  O   UNL     1      -7.269  12.180  68.876  1.00  0.00    -0.110 OA 
HETATM   10  O   UNL     1     -10.541  10.601  66.900  1.00  0.00    -0.246 OA 
HETATM   11  O   UNL     1      -8.673  10.186  68.090  1.00  0.00    -0.120 OA 
HETATM   12  C   UNL     1      -6.578  14.902  68.829  1.00  0.00    -0.087 A  
HETATM   13  C   UNL     1      -6.294  16.262  68.762  1.00  0.00    -0.125 A  
HETATM   14  F   UNL     1      -5.128  16.678  69.280  1.00  0.00    -0.121 F  
HETATM   15  C   UNL     1      -7.188  17.174  68.182  1.00  0.00    -0.193 A  
HETATM   16  C   UNL     1      -8.710  15.280  67.683  1.00  0.00    -0.172 A  
HETATM   17  C   UNL     1      -8.392  16.648  67.665  1.00  0.00    -0.183 A  
BRANCH  15  18
HETATM   18  N   UNL     1      -6.935  18.530  68.001  1.00  0.00    -0.223 NA 
HETATM   19  C   UNL     1      -6.742  19.421  69.159  1.00  0.00    -0.333 C  
HETATM   20  C   UNL     1      -5.902  20.643  68.708  1.00  0.00    -0.349 C  
HETATM   21  N   UNL     1      -6.475  21.373  67.556  1.00  0.00    -0.548 NA 
HETATM   22  H   UNL     1      -5.881  22.147  67.259  1.00  0.00     0.000 HD 
HETATM   23  C   UNL     1      -6.752  20.433  66.452  1.00  0.00    -0.245 C  
HETATM   24  C   UNL     1      -7.604  19.214  66.877  1.00  0.00    -0.235 C  
ENDBRANCH  15  18
ENDBRANCH   2   3
TORSDOF 2
ENDMDL
MODEL      113
REMARK 921   NORMALIZED FREE ENERGY PREDICTED BY IDOCK:   -3.63 KCAL/MOL
REMARK 922        TOTAL FREE ENERGY PREDICTED BY IDOCK:   -4.44 KCAL/MOL
REMARK 923 INTER-LIGAND FREE ENERGY PREDICTED BY IDOCK:   -4.04 KCAL/MOL
REMARK 924 INTRA-LIGAND FREE ENERGY PREDICTED BY IDOCK:   -0.40 KCAL/MOL
REMARK 927      BINDING AFFINITY PREDICTED BY RF-SCORE:    0.00 PKD
ROOT
HETATM    1  C   UNL     1     -12.081  11.067  69.244  1.00  0.00    -0.363 C  
HETATM    2  C   UNL     1     -10.974  10.614  68.301  1.00  0.00    -0.263 C  
ENDROOT
BRANCH   2   3
HETATM    3  N   UNL     1     -10.399   9.321  68.721  1.00  0.00    -0.206 NA 
HETATM    4  C   UNL     1     -11.006   8.566  69.716  1.00  0.00    -0.127 C  
HETATM    5  C   UNL     1     -10.579   7.388  70.194  1.00  0.00    -0.240 C  
HETATM    6  C   UNL     1     -11.356   6.711  71.253  1.00  0.00    -0.299 C  
HETATM    7  C   UNL     1      -9.342   6.841  69.609  1.00  0.00    -0.144 C  
HETATM    8  C   UNL     1      -8.713   7.573  68.485  1.00  0.00    -0.128 A  
HETATM    9  O   UNL     1      -8.866   5.795  70.046  1.00  0.00    -0.132 OA 
HETATM   10  O   UNL     1     -12.397   7.158  71.714  1.00  0.00    -0.321 OA 
HETATM   11  O   UNL     1     -10.828   5.542  71.675  1.00  0.00    -0.245 OA 
HETATM   12  C   UNL     1      -7.608   7.005  67.846  1.00  0.00    -0.111 A  
HETATM   13  C   UNL     1      -7.039   7.654  66.754  1.00  0.00    -0.083 A  
HETATM   14  F   UNL     1      -5.993   7.062  66.157  1.00  0.00    -0.031 F  
HETATM   15  C   UNL     1      -7.529   8.883  66.290  1.00  0.00    -0.091 A  
HETATM   16  C   UNL     1      -9.257   8.803  68.068  1.00  0.00    -0.139 A  
HETATM   17  C   UNL     1      -8.631   9.434  66.980  1.00  0.00    -0.131 A  
BRANCH  15  18
HETATM   18  N   UNL     1      -7.070   9.546  65.156  1.00  0.00    -0.100 NA 
HETATM   19  C   UNL     1      -6.012  10.566  65.258  1.00  0.00    -0.124 C  
HETATM   20  C   UNL     1      -5.292  10.670  63.889  1.00  0.00    -0.128 C  
HETATM   21  N   UNL     1      -6.199  10.945  62.753  1.00  0.00    -0.359 NA 
HETATM   22  H   UNL     1      -5.701  10.968  61.863  1.00  0.00     0.000 HD 
HETATM   23  C   UNL     1      -7.304   9.966  62.743  1.00  0.00    -0.126 C  
HETATM   24  C   UNL     1      -8.048   9.860  64.095  1.00  0.00    -0.152 C  
ENDBRANCH  15  18
ENDBRANCH   2   3
TORSDOF 2
ENDMDL
MODEL      114
REMARK 921   NORMALIZED FREE ENERGY PREDICTED BY IDOCK:   -3.62 KCAL/MOL
REMARK 922        TOTAL FREE ENERGY PREDICTED BY IDOCK:   -4.44 KCAL/MOL
REMARK 923 INTER-LIGAND FREE ENERGY PREDICTED BY IDOCK:   -4.20 KCAL/MOL
REMARK 924 INTRA-LIGAND FREE ENERGY PREDICTED BY IDOCK:   -0.24 KCAL/MOL
REMARK 927      BINDING AFFINITY PREDICTED BY RF-SCORE:    0.00 PKD
ROOT
HETATM    1  C   UNL     1     -10.953  19.234  67.204  1.00  0.00    -0.439 C  
HETATM    2  C   UNL     1     -10.807  17.966  68.034  1.00  0.00    -0.192 C  
ENDROOT
BRANCH   2   3
HETATM    3  N   UNL     1      -9.575  17.230  67.688  1.00  0.00    -0.252 NA 
HETATM    4  C   UNL     1      -8.492  17.890  67.122  1.00  0.00    -0.233 C  
HETATM    5  C   UNL     1      -7.328  17.336  66.752  1.00  0.00    -0.248 C  
HETATM    6  C   UNL     1      -6.271  18.191  66.172  1.00  0.00    -0.215 C  
HETATM    7  C   UNL     1      -7.183  15.885  66.965  1.00  0.00    -0.197 C  
HETATM    8  C   UNL     1      -8.281  15.162  67.647  1.00  0.00    -0.178 A  
HETATM    9  O   UNL     1      -6.162  15.309  66.593  1.00  0.00     0.412 OA 
HETATM   10  O   UNL     1      -6.389  19.399  66.024  1.00  0.00    -0.183 OA 
HETATM   11  O   UNL     1      -5.147  17.531  65.818  1.00  0.00    -0.257 OA 
HETATM   12  C   UNL     1      -8.106  13.811  67.959  1.00  0.00    -0.163 A  
HETATM   13  C   UNL     1      -9.107  13.132  68.647  1.00  0.00     0.040 A  
HETATM   14  F   UNL     1      -8.887  11.842  68.945  1.00  0.00    -0.128 F  
HETATM   15  C   UNL     1     -10.305  13.760  69.016  1.00  0.00    -0.066 A  
HETATM   16  C   UNL     1      -9.458  15.854  67.990  1.00  0.00    -0.206 A  
HETATM   17  C   UNL     1     -10.451  15.118  68.658  1.00  0.00    -0.234 A  
BRANCH  15  18
HETATM   18  N   UNL     1     -11.310  13.173  69.778  1.00  0.00    -0.120 NA 
HETATM   19  C   UNL     1     -11.767  11.801  69.492  1.00  0.00    -0.343 C  
HETATM   20  C   UNL     1     -12.379  11.205  70.785  1.00  0.00    -0.406 C  
HETATM   21  N   UNL     1     -13.464  12.023  71.369  1.00  0.00     0.110 NA 
HETATM   22  H   UNL     1     -13.819  11.624  72.238  1.00  0.00     0.000 HD 
HETATM   23  C   UNL     1     -13.004  13.415  71.545  1.00  0.00    -0.341 C  
HETATM   24  C   UNL     1     -12.405  14.036  70.261  1.00  0.00    -0.358 C  
ENDBRANCH  15  18
ENDBRANCH   2   3
TORSDOF 2
ENDMDL
MODEL      115
REMARK 921   NORMALIZED FREE ENERGY PREDICTED BY IDOCK:   -3.60 KCAL/MOL
REMARK 922        TOTAL FREE ENERGY PREDICTED BY IDOCK:   -4.41 KCAL/MOL
REMARK 923 INTER-LIGAND FREE ENERGY PREDICTED BY IDOCK:   -4.09 KCAL/MOL
REMARK 924 INTRA-LIGAND FREE ENERGY PREDICTED BY IDOCK:   -0.32 KCAL/MOL
REMARK 927      BINDING AFFINITY PREDICTED BY RF-SCORE:    0.00 PKD
ROOT
HETATM    1  C   UNL     1      -6.336   7.562  69.572  1.00  0.00    -0.032 C  
HETATM    2  C   UNL     1      -6.727   8.281  70.856  1.00  0.00    -0.040 C  
ENDROOT
BRANCH   2   3
HETATM    3  N   UNL     1      -7.926   7.678  71.471  1.00  0.00    -0.092 NA 
HETATM    4  C   UNL     1      -7.806   6.649  72.396  1.00  0.00    -0.099 C  
HETATM    5  C   UNL     1      -8.811   6.012  73.014  1.00  0.00    -0.121 C  
HETATM    6  C   UNL     1      -8.503   4.941  73.985  1.00  0.00    -0.103 C  
HETATM    7  C   UNL     1     -10.180   6.444  72.677  1.00  0.00    -0.182 C  
HETATM    8  C   UNL     1     -10.347   7.596  71.761  1.00  0.00    -0.233 A  
HETATM    9  O   UNL     1     -11.145   5.859  73.165  1.00  0.00    -0.258 OA 
HETATM   10  O   UNL     1      -7.364   4.608  74.280  1.00  0.00    -0.075 OA 
HETATM   11  O   UNL     1      -9.588   4.354  74.534  1.00  0.00    -0.114 OA 
HETATM   12  C   UNL     1     -11.635   8.088  71.527  1.00  0.00    -0.313 A  
HETATM   13  C   UNL     1     -11.804   9.203  70.712  1.00  0.00    -0.227 A  
HETATM   14  F   UNL     1     -13.054   9.654  70.532  1.00  0.00    -0.211 F  
HETATM   15  C   UNL     1     -10.716   9.836  70.094  1.00  0.00    -0.289 A  
HETATM   16  C   UNL     1      -9.212   8.186  71.175  1.00  0.00    -0.154 A  
HETATM   17  C   UNL     1      -9.436   9.291  70.338  1.00  0.00    -0.292 A  
BRANCH  15  18
HETATM   18  N   UNL     1     -10.797  11.002  69.340  1.00  0.00    -0.238 NA 
HETATM   19  C   UNL     1      -9.723  11.367  68.400  1.00  0.00    -0.203 C  
HETATM   20  C   UNL     1     -10.316  12.291  67.306  1.00  0.00    -0.214 C  
HETATM   21  N   UNL     1     -10.997  13.492  67.837  1.00  0.00    -0.250 NA 
HETATM   22  H   UNL     1     -11.409  14.058  67.096  1.00  0.00     0.000 HD 
HETATM   23  C   UNL     1     -11.994  13.096  68.852  1.00  0.00    -0.277 C  
HETATM   24  C   UNL     1     -11.419  12.187  69.963  1.00  0.00    -0.075 C  
ENDBRANCH  15  18
ENDBRANCH   2   3
TORSDOF 2
ENDMDL
MODEL      116
REMARK 921   NORMALIZED FREE ENERGY PREDICTED BY IDOCK:   -3.57 KCAL/MOL
REMARK 922        TOTAL FREE ENERGY PREDICTED BY IDOCK:   -4.38 KCAL/MOL
REMARK 923 INTER-LIGAND FREE ENERGY PREDICTED BY IDOCK:   -4.08 KCAL/MOL
REMARK 924 INTRA-LIGAND FREE ENERGY PREDICTED BY IDOCK:   -0.30 KCAL/MOL
REMARK 927      BINDING AFFINITY PREDICTED BY RF-SCORE:    0.00 PKD
ROOT
HETATM    1  C   UNL     1      -6.790  14.017  68.440  1.00  0.00    -0.099 C  
HETATM    2  C   UNL     1      -7.074  12.544  68.179  1.00  0.00    -0.103 C  
ENDROOT
BRANCH   2   3
HETATM    3  N   UNL     1      -8.520  12.286  68.041  1.00  0.00    -0.163 NA 
HETATM    4  C   UNL     1      -9.297  13.055  67.185  1.00  0.00    -0.230 C  
HETATM    5  C   UNL     1     -10.617  12.931  66.979  1.00  0.00    -0.261 C  
HETATM    6  C   UNL     1     -11.289  13.831  66.020  1.00  0.00    -0.314 C  
HETATM    7  C   UNL     1     -11.312  11.876  67.738  1.00  0.00    -0.292 C  
HETATM    8  C   UNL     1     -10.504  10.978  68.595  1.00  0.00    -0.214 A  
HETATM    9  O   UNL     1     -12.531  11.751  67.639  1.00  0.00     0.002 OA 
HETATM   10  O   UNL     1     -10.700  14.686  65.373  1.00  0.00    -0.322 OA 
HETATM   11  O   UNL     1     -12.620  13.633  65.903  1.00  0.00    -0.460 OA 
HETATM   12  C   UNL     1     -11.135   9.902  69.226  1.00  0.00    -0.220 A  
HETATM   13  C   UNL     1     -10.380   9.018  69.991  1.00  0.00    -0.206 A  
HETATM   14  F   UNL     1     -11.022   7.988  70.562  1.00  0.00    -0.232 F  
HETATM   15  C   UNL     1      -8.999   9.191  70.168  1.00  0.00    -0.198 A  
HETATM   16  C   UNL     1      -9.122  11.207  68.729  1.00  0.00    -0.139 A  
HETATM   17  C   UNL     1      -8.407  10.304  69.534  1.00  0.00    -0.162 A  
BRANCH  15  18
HETATM   18  N   UNL     1      -8.167   8.304  70.843  1.00  0.00    -0.109 NA 
HETATM   19  C   UNL     1      -8.510   7.830  72.196  1.00  0.00    -0.125 C  
HETATM   20  C   UNL     1      -7.813   6.466  72.434  1.00  0.00    -0.102 C  
HETATM   21  N   UNL     1      -6.348   6.497  72.230  1.00  0.00    -0.053 NA 
HETATM   22  H   UNL     1      -5.924   5.578  72.356  1.00  0.00     0.000 HD 
HETATM   23  C   UNL     1      -6.036   7.074  70.907  1.00  0.00    -0.036 C  
HETATM   24  C   UNL     1      -6.709   8.444  70.656  1.00  0.00    -0.038 C  
ENDBRANCH  15  18
ENDBRANCH   2   3
TORSDOF 2
ENDMDL
MODEL      117
REMARK 921   NORMALIZED FREE ENERGY PREDICTED BY IDOCK:   -3.54 KCAL/MOL
REMARK 922        TOTAL FREE ENERGY PREDICTED BY IDOCK:   -4.35 KCAL/MOL
REMARK 923 INTER-LIGAND FREE ENERGY PREDICTED BY IDOCK:   -3.89 KCAL/MOL
REMARK 924 INTRA-LIGAND FREE ENERGY PREDICTED BY IDOCK:   -0.46 KCAL/MOL
REMARK 927      BINDING AFFINITY PREDICTED BY RF-SCORE:    0.00 PKD
ROOT
HETATM    1  C   UNL     1      -5.861  12.386  69.906  1.00  0.00    -0.139 C  
HETATM    2  C   UNL     1      -5.775  11.092  69.108  1.00  0.00    -0.040 C  
ENDROOT
BRANCH   2   3
HETATM    3  N   UNL     1      -6.708  10.072  69.626  1.00  0.00    -0.057 NA 
HETATM    4  C   UNL     1      -6.541   9.542  70.899  1.00  0.00    -0.090 C  
HETATM    5  C   UNL     1      -7.309   8.606  71.478  1.00  0.00    -0.118 C  
HETATM    6  C   UNL     1      -6.994   8.160  72.851  1.00  0.00    -0.100 C  
HETATM    7  C   UNL     1      -8.438   8.088  70.687  1.00  0.00    -0.125 C  
HETATM    8  C   UNL     1      -8.702   8.691  69.359  1.00  0.00    -0.139 A  
HETATM    9  O   UNL     1      -9.142   7.187  71.139  1.00  0.00    -0.151 OA 
HETATM   10  O   UNL     1      -6.071   8.615  73.512  1.00  0.00    -0.114 OA 
HETATM   11  O   UNL     1      -7.817   7.202  73.332  1.00  0.00    -0.094 OA 
HETATM   12  C   UNL     1      -9.838   8.290  68.651  1.00  0.00    -0.186 A  
HETATM   13  C   UNL     1     -10.128   8.886  67.428  1.00  0.00    -0.227 A  
HETATM   14  F   UNL     1     -11.241   8.486  66.792  1.00  0.00    -0.074 F  
HETATM   15  C   UNL     1      -9.295   9.865  66.869  1.00  0.00    -0.152 A  
HETATM   16  C   UNL     1      -7.825   9.670  68.857  1.00  0.00    -0.081 A  
HETATM   17  C   UNL     1      -8.145  10.222  67.606  1.00  0.00    -0.106 A  
BRANCH  15  18
HETATM   18  N   UNL     1      -9.565  10.566  65.697  1.00  0.00    -0.210 NA 
HETATM   19  C   UNL     1     -10.656  11.555  65.646  1.00  0.00    -0.274 C  
HETATM   20  C   UNL     1     -10.348  12.573  64.518  1.00  0.00    -0.336 C  
HETATM   21  N   UNL     1     -10.121  11.952  63.195  1.00  0.00    -0.567 NA 
HETATM   22  H   UNL     1      -9.883  12.644  62.484  1.00  0.00     0.000 HD 
HETATM   23  C   UNL     1      -9.096  10.895  63.305  1.00  0.00    -0.247 C  
HETATM   24  C   UNL     1      -9.393   9.858  64.413  1.00  0.00    -0.265 C  
ENDBRANCH  15  18
ENDBRANCH   2   3
TORSDOF 2
ENDMDL
MODEL      118
REMARK 921   NORMALIZED FREE ENERGY PREDICTED BY IDOCK:   -3.52 KCAL/MOL
REMARK 922        TOTAL FREE ENERGY PREDICTED BY IDOCK:   -4.32 KCAL/MOL
REMARK 923 INTER-LIGAND FREE ENERGY PREDICTED BY IDOCK:   -3.88 KCAL/MOL
REMARK 924 INTRA-LIGAND FREE ENERGY PREDICTED BY IDOCK:   -0.44 KCAL/MOL
REMARK 927      BINDING AFFINITY PREDICTED BY RF-SCORE:    0.00 PKD
ROOT
HETATM    1  C   UNL     1      -5.227   5.863  67.705  1.00  0.00    -0.004 C  
HETATM    2  C   UNL     1      -6.134   4.767  68.247  1.00  0.00    -0.031 C  
ENDROOT
BRANCH   2   3
HETATM    3  N   UNL     1      -7.457   4.785  67.593  1.00  0.00    -0.078 NA 
HETATM    4  C   UNL     1      -7.619   4.276  66.310  1.00  0.00    -0.089 C  
HETATM    5  C   UNL     1      -8.759   4.245  65.605  1.00  0.00    -0.120 C  
HETATM    6  C   UNL     1      -8.757   3.655  64.250  1.00  0.00    -0.101 C  
HETATM    7  C   UNL     1      -9.958   4.807  66.252  1.00  0.00    -0.242 C  
HETATM    8  C   UNL     1      -9.846   5.278  67.652  1.00  0.00    -0.187 A  
HETATM    9  O   UNL     1     -11.020   4.861  65.635  1.00  0.00    -0.198 OA 
HETATM   10  O   UNL     1      -7.764   3.165  63.731  1.00  0.00    -0.070 OA 
HETATM   11  O   UNL     1      -9.952   3.691  63.621  1.00  0.00    -0.153 OA 
HETATM   12  C   UNL     1     -11.001   5.703  68.314  1.00  0.00    -0.030 A  
HETATM   13  C   UNL     1     -10.920   6.098  69.646  1.00  0.00    -0.389 A  
HETATM   14  F   UNL     1     -12.057   6.479  70.249  1.00  0.00    -0.460 F  
HETATM   15  C   UNL     1      -9.702   6.107  70.340  1.00  0.00    -0.169 A  
HETATM   16  C   UNL     1      -8.592   5.259  68.290  1.00  0.00    -0.099 A  
HETATM   17  C   UNL     1      -8.556   5.693  69.626  1.00  0.00    -0.110 A  
BRANCH  15  18
HETATM   18  N   UNL     1      -9.558   6.404  71.692  1.00  0.00    -0.161 NA 
HETATM   19  C   UNL     1      -9.990   5.444  72.723  1.00  0.00    -0.170 C  
HETATM   20  C   UNL     1      -9.188   5.719  74.021  1.00  0.00    -0.127 C  
HETATM   21  N   UNL     1      -9.290   7.113  74.506  1.00  0.00    -0.429 NA 
HETATM   22  H   UNL     1      -8.721   7.271  75.338  1.00  0.00     0.000 HD 
HETATM   23  C   UNL     1      -8.950   8.050  73.416  1.00  0.00    -0.274 C  
HETATM   24  C   UNL     1      -9.752   7.804  72.117  1.00  0.00    -0.185 C  
ENDBRANCH  15  18
ENDBRANCH   2   3
TORSDOF 2
ENDMDL
MODEL      119
REMARK 921   NORMALIZED FREE ENERGY PREDICTED BY IDOCK:   -3.45 KCAL/MOL
REMARK 922        TOTAL FREE ENERGY PREDICTED BY IDOCK:   -4.25 KCAL/MOL
REMARK 923 INTER-LIGAND FREE ENERGY PREDICTED BY IDOCK:   -3.85 KCAL/MOL
REMARK 924 INTRA-LIGAND FREE ENERGY PREDICTED BY IDOCK:   -0.40 KCAL/MOL
REMARK 927      BINDING AFFINITY PREDICTED BY RF-SCORE:    0.00 PKD
ROOT
HETATM    1  C   UNL     1     -12.098  12.904  66.689  1.00  0.00    -0.360 C  
HETATM    2  C   UNL     1     -10.948  12.286  65.906  1.00  0.00    -0.302 C  
ENDROOT
BRANCH   2   3
HETATM    3  N   UNL     1      -9.648  12.549  66.554  1.00  0.00    -0.238 NA 
HETATM    4  C   UNL     1      -9.495  13.619  67.425  1.00  0.00    -0.225 C  
HETATM    5  C   UNL     1      -8.369  13.971  68.065  1.00  0.00    -0.163 C  
HETATM    6  C   UNL     1      -8.384  15.139  68.969  1.00  0.00    -0.209 C  
HETATM    7  C   UNL     1      -7.176  13.141  67.818  1.00  0.00    -0.147 C  
HETATM    8  C   UNL     1      -7.321  11.939  66.964  1.00  0.00    -0.118 A  
HETATM    9  O   UNL     1      -6.100  13.446  68.328  1.00  0.00    -0.080 OA 
HETATM   10  O   UNL     1      -9.385  15.805  69.191  1.00  0.00    -0.223 OA 
HETATM   11  O   UNL     1      -7.195  15.416  69.547  1.00  0.00    -0.182 OA 
HETATM   12  C   UNL     1      -6.227  11.081  66.818  1.00  0.00    -0.110 A  
HETATM   13  C   UNL     1      -6.363   9.920  66.063  1.00  0.00    -0.082 A  
HETATM   14  F   UNL     1      -5.294   9.115  65.967  1.00  0.00    -0.037 F  
HETATM   15  C   UNL     1      -7.566   9.597  65.419  1.00  0.00    -0.111 A  
HETATM   16  C   UNL     1      -8.558  11.672  66.347  1.00  0.00    -0.143 A  
HETATM   17  C   UNL     1      -8.637  10.503  65.572  1.00  0.00    -0.187 A  
BRANCH  15  18
HETATM   18  N   UNL     1      -7.803   8.416  64.723  1.00  0.00    -0.120 NA 
HETATM   19  C   UNL     1      -8.220   8.446  63.309  1.00  0.00    -0.119 C  
HETATM   20  C   UNL     1      -7.817   7.104  62.646  1.00  0.00    -0.135 C  
HETATM   21  N   UNL     1      -8.347   5.909  63.339  1.00  0.00    -0.296 NA 
HETATM   22  H   UNL     1      -8.033   5.043  62.902  1.00  0.00     0.000 HD 
HETATM   23  C   UNL     1      -8.000   5.964  64.773  1.00  0.00    -0.126 C  
HETATM   24  C   UNL     1      -8.409   7.289  65.458  1.00  0.00    -0.133 C  
ENDBRANCH  15  18
ENDBRANCH   2   3
TORSDOF 2
ENDMDL
MODEL      120
REMARK 921   NORMALIZED FREE ENERGY PREDICTED BY IDOCK:   -3.44 KCAL/MOL
REMARK 922        TOTAL FREE ENERGY PREDICTED BY IDOCK:   -4.24 KCAL/MOL
REMARK 923 INTER-LIGAND FREE ENERGY PREDICTED BY IDOCK:   -3.82 KCAL/MOL
REMARK 924 INTRA-LIGAND FREE ENERGY PREDICTED BY IDOCK:   -0.41 KCAL/MOL
REMARK 927      BINDING AFFINITY PREDICTED BY RF-SCORE:    0.00 PKD
ROOT
HETATM    1  C   UNL     1      -7.081   7.029  62.461  1.00  0.00    -0.062 C  
HETATM    2  C   UNL     1      -7.244   7.834  63.743  1.00  0.00    -0.089 C  
ENDROOT
BRANCH   2   3
HETATM    3  N   UNL     1      -7.939   7.056  64.787  1.00  0.00    -0.126 NA 
HETATM    4  C   UNL     1      -7.651   5.710  64.976  1.00  0.00    -0.082 C  
HETATM    5  C   UNL     1      -8.218   4.894  65.877  1.00  0.00    -0.113 C  
HETATM    6  C   UNL     1      -7.785   3.484  65.950  1.00  0.00    -0.082 C  
HETATM    7  C   UNL     1      -9.249   5.481  66.751  1.00  0.00    -0.129 C  
HETATM    8  C   UNL     1      -9.521   6.933  66.640  1.00  0.00    -0.209 A  
HETATM    9  O   UNL     1      -9.848   4.771  67.556  1.00  0.00    -0.165 OA 
HETATM   10  O   UNL     1      -6.908   3.011  65.240  1.00  0.00    -0.046 OA 
HETATM   11  O   UNL     1      -8.432   2.746  66.878  1.00  0.00    -0.090 OA 
HETATM   12  C   UNL     1     -10.411   7.523  67.543  1.00  0.00    -0.341 A  
HETATM   13  C   UNL     1     -10.636   8.894  67.486  1.00  0.00    -0.237 A  
HETATM   14  F   UNL     1     -11.481   9.421  68.385  1.00  0.00    -0.028 F  
HETATM   15  C   UNL     1     -10.012   9.704  66.526  1.00  0.00    -0.246 A  
HETATM   16  C   UNL     1      -8.859   7.688  65.654  1.00  0.00    -0.050 A  
HETATM   17  C   UNL     1      -9.140   9.064  65.618  1.00  0.00    -0.278 A  
BRANCH  15  18
HETATM   18  N   UNL     1     -10.119  11.090  66.463  1.00  0.00    -0.218 NA 
HETATM   19  C   UNL     1     -10.516  11.758  65.211  1.00  0.00    -0.274 C  
HETATM   20  C   UNL     1     -11.139  13.134  65.561  1.00  0.00    -0.278 C  
HETATM   21  N   UNL     1     -10.262  14.000  66.379  1.00  0.00    -0.284 NA 
HETATM   22  H   UNL     1     -10.715  14.880  66.624  1.00  0.00     0.000 HD 
HETATM   23  C   UNL     1      -9.800  13.263  67.572  1.00  0.00    -0.220 C  
HETATM   24  C   UNL     1      -9.159  11.895  67.244  1.00  0.00    -0.178 C  
ENDBRANCH  15  18
ENDBRANCH   2   3
TORSDOF 2
ENDMDL
MODEL      121
REMARK 921   NORMALIZED FREE ENERGY PREDICTED BY IDOCK:   -3.44 KCAL/MOL
REMARK 922        TOTAL FREE ENERGY PREDICTED BY IDOCK:   -4.23 KCAL/MOL
REMARK 923 INTER-LIGAND FREE ENERGY PREDICTED BY IDOCK:   -4.02 KCAL/MOL
REMARK 924 INTRA-LIGAND FREE ENERGY PREDICTED BY IDOCK:   -0.21 KCAL/MOL
REMARK 927      BINDING AFFINITY PREDICTED BY RF-SCORE:    0.00 PKD
ROOT
HETATM    1  C   UNL     1     -10.188   5.183  66.818  1.00  0.00    -0.289 C  
HETATM    2  C   UNL     1      -8.878   5.867  67.185  1.00  0.00    -0.107 C  
ENDROOT
BRANCH   2   3
HETATM    3  N   UNL     1      -8.845   7.265  66.715  1.00  0.00    -0.128 NA 
HETATM    4  C   UNL     1      -8.208   7.597  65.526  1.00  0.00    -0.135 C  
HETATM    5  C   UNL     1      -8.098   8.825  64.998  1.00  0.00    -0.144 C  
HETATM    6  C   UNL     1      -7.391   9.000  63.713  1.00  0.00    -0.101 C  
HETATM    7  C   UNL     1      -8.710   9.932  65.754  1.00  0.00    -0.141 C  
HETATM    8  C   UNL     1      -9.474   9.608  66.981  1.00  0.00    -0.195 A  
HETATM    9  O   UNL     1      -8.592  11.089  65.353  1.00  0.00    -0.158 OA 
HETATM   10  O   UNL     1      -6.910   8.073  63.078  1.00  0.00    -0.082 OA 
HETATM   11  O   UNL     1      -7.321  10.278  63.281  1.00  0.00    -0.145 OA 
HETATM   12  C   UNL     1     -10.157  10.634  67.640  1.00  0.00    -0.208 A  
HETATM   13  C   UNL     1     -10.923  10.335  68.763  1.00  0.00    -0.243 A  
HETATM   14  F   UNL     1     -11.579  11.347  69.352  1.00  0.00    -0.265 F  
HETATM   15  C   UNL     1     -11.010   9.031  69.271  1.00  0.00    -0.032 A  
HETATM   16  C   UNL     1      -9.521   8.277  67.436  1.00  0.00    -0.151 A  
HETATM   17  C   UNL     1     -10.284   8.030  68.589  1.00  0.00    -0.225 A  
BRANCH  15  18
HETATM   18  N   UNL     1     -11.821   8.643  70.332  1.00  0.00    -0.026 NA 
HETATM   19  C   UNL     1     -11.638   9.227  71.673  1.00  0.00    -0.393 C  
HETATM   20  C   UNL     1     -12.976   9.115  72.447  1.00  0.00    -0.398 C  
HETATM   21  N   UNL     1     -13.511   7.738  72.528  1.00  0.00    -0.389 NA 
HETATM   22  H   UNL     1     -14.410   7.704  73.009  1.00  0.00     0.000 HD 
HETATM   23  C   UNL     1     -13.583   7.147  71.177  1.00  0.00    -0.102 C  
HETATM   24  C   UNL     1     -12.253   7.232  70.393  1.00  0.00     0.034 C  
ENDBRANCH  15  18
ENDBRANCH   2   3
TORSDOF 2
ENDMDL
MODEL      122
REMARK 921   NORMALIZED FREE ENERGY PREDICTED BY IDOCK:   -3.38 KCAL/MOL
REMARK 922        TOTAL FREE ENERGY PREDICTED BY IDOCK:   -4.17 KCAL/MOL
REMARK 923 INTER-LIGAND FREE ENERGY PREDICTED BY IDOCK:   -3.76 KCAL/MOL
REMARK 924 INTRA-LIGAND FREE ENERGY PREDICTED BY IDOCK:   -0.41 KCAL/MOL
REMARK 927      BINDING AFFINITY PREDICTED BY RF-SCORE:    0.00 PKD
ROOT
HETATM    1  C   UNL     1     -11.902  11.835  67.999  1.00  0.00    -0.304 C  
HETATM    2  C   UNL     1     -11.098  10.577  67.701  1.00  0.00    -0.309 C  
ENDROOT
BRANCH   2   3
HETATM    3  N   UNL     1      -9.681  10.889  67.434  1.00  0.00    -0.167 NA 
HETATM    4  C   UNL     1      -9.210  12.191  67.546  1.00  0.00    -0.182 C  
HETATM    5  C   UNL     1      -7.954  12.606  67.321  1.00  0.00    -0.166 C  
HETATM    6  C   UNL     1      -7.620  14.034  67.497  1.00  0.00    -0.180 C  
HETATM    7  C   UNL     1      -6.978  11.580  66.913  1.00  0.00    -0.134 C  
HETATM    8  C   UNL     1      -7.420  10.167  66.867  1.00  0.00    -0.096 A  
HETATM    9  O   UNL     1      -5.825  11.906  66.634  1.00  0.00    -0.221 OA 
HETATM   10  O   UNL     1      -8.430  14.874  67.864  1.00  0.00    -0.143 OA 
HETATM   11  O   UNL     1      -6.334  14.347  67.227  1.00  0.00    -0.298 OA 
HETATM   12  C   UNL     1      -6.475   9.174  66.596  1.00  0.00    -0.067 A  
HETATM   13  C   UNL     1      -6.864   7.838  66.603  1.00  0.00    -0.070 A  
HETATM   14  F   UNL     1      -5.919   6.916  66.359  1.00  0.00    -0.029 F  
HETATM   15  C   UNL     1      -8.190   7.458  66.851  1.00  0.00    -0.121 A  
HETATM   16  C   UNL     1      -8.767   9.854  67.128  1.00  0.00    -0.131 A  
HETATM   17  C   UNL     1      -9.117   8.494  67.096  1.00  0.00    -0.164 A  
BRANCH  15  18
HETATM   18  N   UNL     1      -8.634   6.144  66.961  1.00  0.00    -0.108 NA 
HETATM   19  C   UNL     1      -9.074   5.396  65.770  1.00  0.00    -0.154 C  
HETATM   20  C   UNL     1      -8.913   3.880  66.050  1.00  0.00    -0.133 C  
HETATM   21  N   UNL     1      -9.616   3.416  67.267  1.00  0.00    -0.333 NA 
HETATM   22  H   UNL     1      -9.459   2.425  67.445  1.00  0.00     0.000 HD 
HETATM   23  C   UNL     1      -9.231   4.254  68.420  1.00  0.00    -0.139 C  
HETATM   24  C   UNL     1      -9.400   5.771  68.167  1.00  0.00    -0.109 C  
ENDBRANCH  15  18
ENDBRANCH   2   3
TORSDOF 2
ENDMDL
MODEL      123
REMARK 921   NORMALIZED FREE ENERGY PREDICTED BY IDOCK:   -3.37 KCAL/MOL
REMARK 922        TOTAL FREE ENERGY PREDICTED BY IDOCK:   -4.15 KCAL/MOL
REMARK 923 INTER-LIGAND FREE ENERGY PREDICTED BY IDOCK:   -3.73 KCAL/MOL
REMARK 924 INTRA-LIGAND FREE ENERGY PREDICTED BY IDOCK:   -0.42 KCAL/MOL
REMARK 927      BINDING AFFINITY PREDICTED BY RF-SCORE:    0.00 PKD
ROOT
HETATM    1  C   UNL     1      -9.911  10.378  65.702  1.00  0.00    -0.321 C  
HETATM    2  C   UNL     1     -10.171   9.255  66.696  1.00  0.00    -0.253 C  
ENDROOT
BRANCH   2   3
HETATM    3  N   UNL     1      -9.316   8.082  66.425  1.00  0.00    -0.197 NA 
HETATM    4  C   UNL     1      -8.652   7.956  65.212  1.00  0.00    -0.060 C  
HETATM    5  C   UNL     1      -7.861   6.939  64.840  1.00  0.00    -0.122 C  
HETATM    6  C   UNL     1      -7.220   6.968  63.509  1.00  0.00    -0.071 C  
HETATM    7  C   UNL     1      -7.679   5.846  65.813  1.00  0.00    -0.096 C  
HETATM    8  C   UNL     1      -8.299   5.986  67.150  1.00  0.00    -0.105 A  
HETATM    9  O   UNL     1      -7.013   4.858  65.509  1.00  0.00    -0.060 OA 
HETATM   10  O   UNL     1      -7.354   7.892  62.718  1.00  0.00    -0.092 OA 
HETATM   11  O   UNL     1      -6.460   5.888  63.228  1.00  0.00    -0.027 OA 
HETATM   12  C   UNL     1      -8.037   5.014  68.120  1.00  0.00    -0.086 A  
HETATM   13  C   UNL     1      -8.568   5.159  69.397  1.00  0.00    -0.096 A  
HETATM   14  F   UNL     1      -8.273   4.213  70.302  1.00  0.00    -0.059 F  
HETATM   15  C   UNL     1      -9.386   6.246  69.736  1.00  0.00    -0.145 A  
HETATM   16  C   UNL     1      -9.109   7.104  67.425  1.00  0.00    -0.121 A  
HETATM   17  C   UNL     1      -9.646   7.192  68.720  1.00  0.00    -0.144 A  
BRANCH  15  18
HETATM   18  N   UNL     1      -9.880   6.503  71.011  1.00  0.00    -0.179 NA 
HETATM   19  C   UNL     1     -11.031   5.749  71.539  1.00  0.00    -0.239 C  
HETATM   20  C   UNL     1     -10.970   5.775  73.087  1.00  0.00    -0.271 C  
HETATM   21  N   UNL     1     -10.908   7.136  73.664  1.00  0.00    -0.535 NA 
HETATM   22  H   UNL     1     -10.831   7.117  74.681  1.00  0.00     0.000 HD 
HETATM   23  C   UNL     1      -9.810   7.897  73.037  1.00  0.00    -0.289 C  
HETATM   24  C   UNL     1      -9.861   7.899  71.491  1.00  0.00    -0.165 C  
ENDBRANCH  15  18
ENDBRANCH   2   3
TORSDOF 2
ENDMDL
MODEL      124
REMARK 921   NORMALIZED FREE ENERGY PREDICTED BY IDOCK:   -3.33 KCAL/MOL
REMARK 922        TOTAL FREE ENERGY PREDICTED BY IDOCK:   -4.10 KCAL/MOL
REMARK 923 INTER-LIGAND FREE ENERGY PREDICTED BY IDOCK:   -3.86 KCAL/MOL
REMARK 924 INTRA-LIGAND FREE ENERGY PREDICTED BY IDOCK:   -0.25 KCAL/MOL
REMARK 927      BINDING AFFINITY PREDICTED BY RF-SCORE:    0.00 PKD
ROOT
HETATM    1  C   UNL     1     -11.365  18.668  67.470  1.00  0.00     0.478 C  
HETATM    2  C   UNL     1     -10.698  17.596  68.323  1.00  0.00    -0.280 C  
ENDROOT
BRANCH   2   3
HETATM    3  N   UNL     1      -9.246  17.526  68.068  1.00  0.00    -0.268 NA 
HETATM    4  C   UNL     1      -8.462  18.671  68.120  1.00  0.00    -0.312 C  
HETATM    5  C   UNL     1      -7.141  18.743  67.898  1.00  0.00    -0.253 C  
HETATM    6  C   UNL     1      -6.458  20.048  68.006  1.00  0.00    -0.255 C  
HETATM    7  C   UNL     1      -6.453  17.483  67.562  1.00  0.00    -0.147 C  
HETATM    8  C   UNL     1      -7.238  16.227  67.582  1.00  0.00    -0.162 A  
HETATM    9  O   UNL     1      -5.255  17.492  67.289  1.00  0.00    -0.120 OA 
HETATM   10  O   UNL     1      -7.031  21.084  68.313  1.00  0.00    -0.100 OA 
HETATM   11  O   UNL     1      -5.133  20.011  67.744  1.00  0.00    -0.172 OA 
HETATM   12  C   UNL     1      -6.573  15.014  67.381  1.00  0.00    -0.063 A  
HETATM   13  C   UNL     1      -7.287  13.822  67.451  1.00  0.00    -0.107 A  
HETATM   14  F   UNL     1      -6.605  12.680  67.273  1.00  0.00    -0.138 F  
HETATM   15  C   UNL     1      -8.668  13.803  67.693  1.00  0.00    -0.185 A  
HETATM   16  C   UNL     1      -8.622  16.279  67.833  1.00  0.00    -0.173 A  
HETATM   17  C   UNL     1      -9.305  15.051  67.865  1.00  0.00    -0.183 A  
BRANCH  15  18
HETATM   18  N   UNL     1      -9.431  12.651  67.862  1.00  0.00    -0.198 NA 
HETATM   19  C   UNL     1      -9.267  11.501  66.957  1.00  0.00    -0.176 C  
HETATM   20  C   UNL     1      -9.726  10.219  67.698  1.00  0.00    -0.164 C  
HETATM   21  N   UNL     1     -11.104  10.294  68.231  1.00  0.00    -0.371 NA 
HETATM   22  H   UNL     1     -11.362   9.452  68.745  1.00  0.00     0.000 HD 
HETATM   23  C   UNL     1     -11.261  11.513  69.048  1.00  0.00    -0.262 C  
HETATM   24  C   UNL     1     -10.825  12.806  68.321  1.00  0.00    -0.248 C  
ENDBRANCH  15  18
ENDBRANCH   2   3
TORSDOF 2
ENDMDL
MODEL      125
REMARK 921   NORMALIZED FREE ENERGY PREDICTED BY IDOCK:   -3.25 KCAL/MOL
REMARK 922        TOTAL FREE ENERGY PREDICTED BY IDOCK:   -4.03 KCAL/MOL
REMARK 923 INTER-LIGAND FREE ENERGY PREDICTED BY IDOCK:   -3.63 KCAL/MOL
REMARK 924 INTRA-LIGAND FREE ENERGY PREDICTED BY IDOCK:   -0.39 KCAL/MOL
REMARK 927      BINDING AFFINITY PREDICTED BY RF-SCORE:    0.00 PKD
ROOT
HETATM    1  C   UNL     1      -8.328   5.868  69.117  1.00  0.00    -0.106 C  
HETATM    2  C   UNL     1      -9.323   6.545  68.184  1.00  0.00    -0.109 C  
ENDROOT
BRANCH   2   3
HETATM    3  N   UNL     1      -8.845   6.545  66.788  1.00  0.00    -0.125 NA 
HETATM    4  C   UNL     1      -8.454   5.362  66.174  1.00  0.00    -0.120 C  
HETATM    5  C   UNL     1      -7.992   5.230  64.922  1.00  0.00    -0.105 C  
HETATM    6  C   UNL     1      -7.630   3.889  64.421  1.00  0.00    -0.079 C  
HETATM    7  C   UNL     1      -7.885   6.461  64.118  1.00  0.00    -0.116 C  
HETATM    8  C   UNL     1      -8.374   7.729  64.708  1.00  0.00    -0.051 A  
HETATM    9  O   UNL     1      -7.413   6.415  62.984  1.00  0.00    -0.058 OA 
HETATM   10  O   UNL     1      -7.747   2.868  65.084  1.00  0.00    -0.078 OA 
HETATM   11  O   UNL     1      -7.158   3.871  63.155  1.00  0.00    -0.043 OA 
HETATM   12  C   UNL     1      -8.387   8.880  63.914  1.00  0.00    -0.162 A  
HETATM   13  C   UNL     1      -8.893  10.066  64.435  1.00  0.00    -0.213 A  
HETATM   14  F   UNL     1      -8.906  11.141  63.632  1.00  0.00    -0.163 F  
HETATM   15  C   UNL     1      -9.371  10.148  65.751  1.00  0.00    -0.188 A  
HETATM   16  C   UNL     1      -8.841   7.742  66.035  1.00  0.00    -0.157 A  
HETATM   17  C   UNL     1      -9.316   8.969  66.526  1.00  0.00    -0.246 A  
BRANCH  15  18
HETATM   18  N   UNL     1      -9.970  11.272  66.312  1.00  0.00    -0.214 NA 
HETATM   19  C   UNL     1      -9.906  11.513  67.764  1.00  0.00    -0.177 C  
HETATM   20  C   UNL     1     -10.073  13.033  68.021  1.00  0.00    -0.235 C  
HETATM   21  N   UNL     1     -11.301  13.611  67.432  1.00  0.00    -0.302 NA 
HETATM   22  H   UNL     1     -11.362  14.617  67.585  1.00  0.00     0.000 HD 
HETATM   23  C   UNL     1     -11.384  13.261  66.000  1.00  0.00    -0.305 C  
HETATM   24  C   UNL     1     -11.237  11.747  65.723  1.00  0.00    -0.281 C  
ENDBRANCH  15  18
ENDBRANCH   2   3
TORSDOF 2
ENDMDL
MODEL      126
REMARK 921   NORMALIZED FREE ENERGY PREDICTED BY IDOCK:   -3.25 KCAL/MOL
REMARK 922        TOTAL FREE ENERGY PREDICTED BY IDOCK:   -4.02 KCAL/MOL
REMARK 923 INTER-LIGAND FREE ENERGY PREDICTED BY IDOCK:   -3.67 KCAL/MOL
REMARK 924 INTRA-LIGAND FREE ENERGY PREDICTED BY IDOCK:   -0.35 KCAL/MOL
REMARK 927      BINDING AFFINITY PREDICTED BY RF-SCORE:    0.00 PKD
ROOT
HETATM    1  C   UNL     1      -8.014   9.210  71.155  1.00  0.00    -0.122 C  
HETATM    2  C   UNL     1      -9.475   9.092  70.741  1.00  0.00    -0.251 C  
ENDROOT
BRANCH   2   3
HETATM    3  N   UNL     1      -9.656   9.370  69.302  1.00  0.00    -0.165 NA 
HETATM    4  C   UNL     1      -9.926  10.658  68.859  1.00  0.00    -0.204 C  
HETATM    5  C   UNL     1     -10.122  11.038  67.588  1.00  0.00    -0.208 C  
HETATM    6  C   UNL     1     -10.391  12.460  67.290  1.00  0.00    -0.215 C  
HETATM    7  C   UNL     1     -10.045   9.986  66.559  1.00  0.00    -0.232 C  
HETATM    8  C   UNL     1      -9.672   8.616  66.982  1.00  0.00    -0.262 A  
HETATM    9  O   UNL     1     -10.274  10.259  65.383  1.00  0.00    -0.297 OA 
HETATM   10  O   UNL     1     -10.426  13.332  68.146  1.00  0.00    -0.231 OA 
HETATM   11  O   UNL     1     -10.592  12.730  65.982  1.00  0.00    -0.262 OA 
HETATM   12  C   UNL     1      -9.481   7.637  66.002  1.00  0.00    -0.033 A  
HETATM   13  C   UNL     1      -9.078   6.360  66.380  1.00  0.00    -0.154 A  
HETATM   14  F   UNL     1      -8.885   5.458  65.405  1.00  0.00    -0.143 F  
HETATM   15  C   UNL     1      -8.880   6.017  67.725  1.00  0.00    -0.106 A  
HETATM   16  C   UNL     1      -9.488   8.339  68.350  1.00  0.00    -0.139 A  
HETATM   17  C   UNL     1      -9.108   7.028  68.683  1.00  0.00    -0.132 A  
BRANCH  15  18
HETATM   18  N   UNL     1      -8.395   4.791  68.170  1.00  0.00    -0.098 NA 
HETATM   19  C   UNL     1      -6.999   4.395  67.912  1.00  0.00    -0.056 C  
HETATM   20  C   UNL     1      -6.571   3.363  68.986  1.00  0.00    -0.037 C  
HETATM   21  N   UNL     1      -7.458   2.183  69.073  1.00  0.00    -0.043 NA 
HETATM   22  H   UNL     1      -7.172   1.543  69.814  1.00  0.00     0.000 HD 
HETATM   23  C   UNL     1      -8.861   2.618  69.227  1.00  0.00    -0.096 C  
HETATM   24  C   UNL     1      -9.314   3.636  68.154  1.00  0.00    -0.180 C  
ENDBRANCH  15  18
ENDBRANCH   2   3
TORSDOF 2
ENDMDL
MODEL      127
REMARK 921   NORMALIZED FREE ENERGY PREDICTED BY IDOCK:   -3.15 KCAL/MOL
REMARK 922        TOTAL FREE ENERGY PREDICTED BY IDOCK:   -3.91 KCAL/MOL
REMARK 923 INTER-LIGAND FREE ENERGY PREDICTED BY IDOCK:   -3.61 KCAL/MOL
REMARK 924 INTRA-LIGAND FREE ENERGY PREDICTED BY IDOCK:   -0.30 KCAL/MOL
REMARK 927      BINDING AFFINITY PREDICTED BY RF-SCORE:    0.00 PKD
ROOT
HETATM    1  C   UNL     1     -10.844   8.624  72.095  1.00  0.00    -0.424 C  
HETATM    2  C   UNL     1      -9.377   8.641  71.689  1.00  0.00    -0.263 C  
ENDROOT
BRANCH   2   3
HETATM    3  N   UNL     1      -9.010   7.431  70.928  1.00  0.00    -0.149 NA 
HETATM    4  C   UNL     1      -8.896   6.202  71.564  1.00  0.00    -0.135 C  
HETATM    5  C   UNL     1      -8.560   5.036  70.992  1.00  0.00    -0.130 C  
HETATM    6  C   UNL     1      -8.496   3.814  71.819  1.00  0.00    -0.089 C  
HETATM    7  C   UNL     1      -8.281   5.062  69.545  1.00  0.00    -0.085 C  
HETATM    8  C   UNL     1      -8.476   6.336  68.814  1.00  0.00    -0.119 A  
HETATM    9  O   UNL     1      -7.909   4.039  68.973  1.00  0.00    -0.057 OA 
HETATM   10  O   UNL     1      -8.757   3.796  73.014  1.00  0.00    -0.093 OA 
HETATM   11  O   UNL     1      -8.130   2.701  71.147  1.00  0.00    -0.052 OA 
HETATM   12  C   UNL     1      -8.328   6.344  67.424  1.00  0.00    -0.112 A  
HETATM   13  C   UNL     1      -8.561   7.519  66.717  1.00  0.00    -0.127 A  
HETATM   14  F   UNL     1      -8.428   7.477  65.382  1.00  0.00    -0.132 F  
HETATM   15  C   UNL     1      -8.917   8.711  67.365  1.00  0.00    -0.133 A  
HETATM   16  C   UNL     1      -8.834   7.495  69.526  1.00  0.00    -0.137 A  
HETATM   17  C   UNL     1      -9.031   8.664  68.772  1.00  0.00    -0.138 A  
BRANCH  15  18
HETATM   18  N   UNL     1      -9.250   9.898  66.721  1.00  0.00    -0.146 NA 
HETATM   19  C   UNL     1      -9.338  11.163  67.473  1.00  0.00    -0.168 C  
HETATM   20  C   UNL     1      -9.103  12.339  66.491  1.00  0.00    -0.188 C  
HETATM   21  N   UNL     1     -10.015  12.340  65.326  1.00  0.00    -0.329 NA 
HETATM   22  H   UNL     1      -9.810  13.103  64.681  1.00  0.00     0.000 HD 
HETATM   23  C   UNL     1      -9.979  11.024  64.659  1.00  0.00    -0.301 C  
HETATM   24  C   UNL     1     -10.228   9.836  65.618  1.00  0.00    -0.108 C  
ENDBRANCH  15  18
ENDBRANCH   2   3
TORSDOF 2
ENDMDL
MODEL      128
REMARK 921   NORMALIZED FREE ENERGY PREDICTED BY IDOCK:   -3.12 KCAL/MOL
REMARK 922        TOTAL FREE ENERGY PREDICTED BY IDOCK:   -3.87 KCAL/MOL
REMARK 923 INTER-LIGAND FREE ENERGY PREDICTED BY IDOCK:   -3.48 KCAL/MOL
REMARK 924 INTRA-LIGAND FREE ENERGY PREDICTED BY IDOCK:   -0.39 KCAL/MOL
REMARK 927      BINDING AFFINITY PREDICTED BY RF-SCORE:    0.00 PKD
ROOT
HETATM    1  C   UNL     1     -10.852   5.683  66.604  1.00  0.00    -0.280 C  
HETATM    2  C   UNL     1      -9.345   5.508  66.739  1.00  0.00    -0.132 C  
ENDROOT
BRANCH   2   3
HETATM    3  N   UNL     1      -8.627   6.770  66.479  1.00  0.00    -0.123 NA 
HETATM    4  C   UNL     1      -8.294   7.142  65.183  1.00  0.00    -0.076 C  
HETATM    5  C   UNL     1      -7.634   8.251  64.818  1.00  0.00    -0.103 C  
HETATM    6  C   UNL     1      -7.371   8.498  63.385  1.00  0.00    -0.103 C  
HETATM    7  C   UNL     1      -7.220   9.166  65.896  1.00  0.00    -0.093 C  
HETATM    8  C   UNL     1      -7.633   8.849  67.283  1.00  0.00    -0.089 A  
HETATM    9  O   UNL     1      -6.561  10.169  65.631  1.00  0.00    -0.096 OA 
HETATM   10  O   UNL     1      -7.742   7.748  62.493  1.00  0.00    -0.109 OA 
HETATM   11  O   UNL     1      -6.684   9.633  63.129  1.00  0.00    -0.102 OA 
HETATM   12  C   UNL     1      -7.348   9.767  68.298  1.00  0.00    -0.079 A  
HETATM   13  C   UNL     1      -7.776   9.509  69.596  1.00  0.00    -0.112 A  
HETATM   14  F   UNL     1      -7.499  10.428  70.534  1.00  0.00    -0.142 F  
HETATM   15  C   UNL     1      -8.468   8.335  69.924  1.00  0.00    -0.127 A  
HETATM   16  C   UNL     1      -8.327   7.652  67.543  1.00  0.00    -0.120 A  
HETATM   17  C   UNL     1      -8.714   7.423  68.874  1.00  0.00    -0.132 A  
BRANCH  15  18
HETATM   18  N   UNL     1      -9.003   8.049  71.176  1.00  0.00    -0.137 NA 
HETATM   19  C   UNL     1      -8.145   7.543  72.263  1.00  0.00    -0.103 C  
HETATM   20  C   UNL     1      -8.806   7.897  73.620  1.00  0.00    -0.274 C  
HETATM   21  N   UNL     1     -10.195   7.409  73.757  1.00  0.00    -0.376 NA 
HETATM   22  H   UNL     1     -10.614   7.691  74.644  1.00  0.00     0.000 HD 
HETATM   23  C   UNL     1     -10.999   7.848  72.600  1.00  0.00    -0.378 C  
HETATM   24  C   UNL     1     -10.367   7.488  71.235  1.00  0.00    -0.192 C  
ENDBRANCH  15  18
ENDBRANCH   2   3
TORSDOF 2
ENDMDL
MODEL      129
REMARK 921   NORMALIZED FREE ENERGY PREDICTED BY IDOCK:   -3.01 KCAL/MOL
REMARK 922        TOTAL FREE ENERGY PREDICTED BY IDOCK:   -3.75 KCAL/MOL
REMARK 923 INTER-LIGAND FREE ENERGY PREDICTED BY IDOCK:   -3.33 KCAL/MOL
REMARK 924 INTRA-LIGAND FREE ENERGY PREDICTED BY IDOCK:   -0.43 KCAL/MOL
REMARK 927      BINDING AFFINITY PREDICTED BY RF-SCORE:    0.00 PKD
ROOT
HETATM    1  C   UNL     1     -11.773   6.347  70.249  1.00  0.00    -0.389 C  
HETATM    2  C   UNL     1     -10.502   5.520  70.389  1.00  0.00    -0.286 C  
ENDROOT
BRANCH   2   3
HETATM    3  N   UNL     1      -9.299   6.319  70.085  1.00  0.00    -0.156 NA 
HETATM    4  C   UNL     1      -8.728   7.134  71.054  1.00  0.00    -0.141 C  
HETATM    5  C   UNL     1      -7.647   7.914  70.902  1.00  0.00    -0.078 C  
HETATM    6  C   UNL     1      -7.164   8.714  72.046  1.00  0.00    -0.043 C  
HETATM    7  C   UNL     1      -7.004   7.909  69.576  1.00  0.00    -0.054 C  
HETATM    8  C   UNL     1      -7.530   6.987  68.543  1.00  0.00    -0.102 A  
HETATM    9  O   UNL     1      -6.046   8.648  69.355  1.00  0.00    -0.039 OA 
HETATM   10  O   UNL     1      -7.687   8.692  73.151  1.00  0.00    -0.373 OA 
HETATM   11  O   UNL     1      -6.082   9.478  71.779  1.00  0.00    -0.232 OA 
HETATM   12  C   UNL     1      -6.856   6.887  67.322  1.00  0.00    -0.072 A  
HETATM   13  C   UNL     1      -7.307   5.987  66.362  1.00  0.00    -0.081 A  
HETATM   14  F   UNL     1      -6.618   5.908  65.214  1.00  0.00    -0.038 F  
HETATM   15  C   UNL     1      -8.440   5.189  66.575  1.00  0.00    -0.111 A  
HETATM   16  C   UNL     1      -8.672   6.213  68.822  1.00  0.00    -0.119 A  
HETATM   17  C   UNL     1      -9.105   5.339  67.812  1.00  0.00    -0.115 A  
BRANCH  15  18
HETATM   18  N   UNL     1      -8.897   4.207  65.702  1.00  0.00    -0.119 NA 
HETATM   19  C   UNL     1     -10.264   4.264  65.154  1.00  0.00    -0.211 C  
HETATM   20  C   UNL     1     -10.295   3.480  63.817  1.00  0.00    -0.241 C  
HETATM   21  N   UNL     1      -9.817   2.084  63.929  1.00  0.00    -0.134 NA 
HETATM   22  H   UNL     1      -9.813   1.608  63.026  1.00  0.00     0.000 HD 
HETATM   23  C   UNL     1      -8.490   2.057  64.576  1.00  0.00    -0.088 C  
HETATM   24  C   UNL     1      -8.442   2.820  65.921  1.00  0.00    -0.103 C  
ENDBRANCH  15  18
ENDBRANCH   2   3
TORSDOF 2
ENDMDL
MODEL      130
REMARK 921   NORMALIZED FREE ENERGY PREDICTED BY IDOCK:   -2.94 KCAL/MOL
REMARK 922        TOTAL FREE ENERGY PREDICTED BY IDOCK:   -3.68 KCAL/MOL
REMARK 923 INTER-LIGAND FREE ENERGY PREDICTED BY IDOCK:   -4.36 KCAL/MOL
REMARK 924 INTRA-LIGAND FREE ENERGY PREDICTED BY IDOCK:    0.69 KCAL/MOL
REMARK 927      BINDING AFFINITY PREDICTED BY RF-SCORE:    0.00 PKD
ROOT
HETATM    1  C   UNL     1      -9.998   8.234  72.733  1.00  0.00    -0.333 C  
HETATM    2  C   UNL     1      -9.163   6.962  72.792  1.00  0.00    -0.134 C  
ENDROOT
BRANCH   2   3
HETATM    3  N   UNL     1      -9.398   6.103  71.615  1.00  0.00    -0.149 NA 
HETATM    4  C   UNL     1      -9.459   4.722  71.748  1.00  0.00    -0.149 C  
HETATM    5  C   UNL     1      -9.653   3.835  70.761  1.00  0.00    -0.249 C  
HETATM    6  C   UNL     1      -9.700   2.394  71.081  1.00  0.00    -0.110 C  
HETATM    7  C   UNL     1      -9.816   4.378  69.401  1.00  0.00    -0.168 C  
HETATM    8  C   UNL     1      -9.846   5.849  69.230  1.00  0.00    -0.205 A  
HETATM    9  O   UNL     1      -9.938   3.614  68.445  1.00  0.00     0.035 OA 
HETATM   10  O   UNL     1      -9.592   1.952  72.217  1.00  0.00    -0.085 OA 
HETATM   11  O   UNL     1      -9.882   1.587  70.012  1.00  0.00     0.001 OA 
HETATM   12  C   UNL     1     -10.117   6.375  67.964  1.00  0.00    -0.168 A  
HETATM   13  C   UNL     1     -10.202   7.754  67.799  1.00  0.00    -0.212 A  
HETATM   14  F   UNL     1     -10.485   8.215  66.571  1.00  0.00    -0.375 F  
HETATM   15  C   UNL     1      -9.996   8.638  68.867  1.00  0.00    -0.189 A  
HETATM   16  C   UNL     1      -9.632   6.680  70.346  1.00  0.00    -0.165 A  
HETATM   17  C   UNL     1      -9.699   8.066  70.123  1.00  0.00    -0.176 A  
BRANCH  15  18
HETATM   18  N   UNL     1     -10.149  10.020  68.798  1.00  0.00    -0.176 NA 
HETATM   19  C   UNL     1      -8.981  10.898  68.609  1.00  0.00    -0.162 C  
HETATM   20  C   UNL     1      -9.460  12.226  67.968  1.00  0.00    -0.206 C  
HETATM   21  N   UNL     1     -10.530  12.908  68.728  1.00  0.00    -0.386 NA 
HETATM   22  H   UNL     1     -10.849  13.757  68.261  1.00  0.00     0.000 HD 
HETATM   23  C   UNL     1     -11.638  11.969  68.989  1.00  0.00    -0.313 C  
HETATM   24  C   UNL     1     -11.185  10.644  69.645  1.00  0.00    -0.289 C  
ENDBRANCH  15  18
ENDBRANCH   2   3
TORSDOF 2
ENDMDL
MODEL      131
REMARK 921   NORMALIZED FREE ENERGY PREDICTED BY IDOCK:   -2.94 KCAL/MOL
REMARK 922        TOTAL FREE ENERGY PREDICTED BY IDOCK:   -3.68 KCAL/MOL
REMARK 923 INTER-LIGAND FREE ENERGY PREDICTED BY IDOCK:   -3.72 KCAL/MOL
REMARK 924 INTRA-LIGAND FREE ENERGY PREDICTED BY IDOCK:    0.05 KCAL/MOL
REMARK 927      BINDING AFFINITY PREDICTED BY RF-SCORE:    0.00 PKD
ROOT
HETATM    1  C   UNL     1     -12.983   7.208  71.491  1.00  0.00    -0.431 C  
HETATM    2  C   UNL     1     -11.866   6.768  70.555  1.00  0.00    -0.362 C  
ENDROOT
BRANCH   2   3
HETATM    3  N   UNL     1     -10.591   6.590  71.278  1.00  0.00    -0.223 NA 
HETATM    4  C   UNL     1     -10.384   5.477  72.083  1.00  0.00    -0.213 C  
HETATM    5  C   UNL     1      -9.282   5.206  72.798  1.00  0.00    -0.146 C  
HETATM    6  C   UNL     1      -9.224   3.965  73.598  1.00  0.00    -0.096 C  
HETATM    7  C   UNL     1      -8.183   6.185  72.724  1.00  0.00    -0.117 C  
HETATM    8  C   UNL     1      -8.331   7.340  71.808  1.00  0.00    -0.107 A  
HETATM    9  O   UNL     1      -7.170   6.024  73.402  1.00  0.00    -0.084 OA 
HETATM   10  O   UNL     1     -10.129   3.144  73.632  1.00  0.00    -0.104 OA 
HETATM   11  O   UNL     1      -8.078   3.799  74.293  1.00  0.00    -0.080 OA 
HETATM   12  C   UNL     1      -7.250   8.210  71.640  1.00  0.00    -0.083 A  
HETATM   13  C   UNL     1      -7.354   9.268  70.743  1.00  0.00    -0.123 A  
HETATM   14  F   UNL     1      -6.285  10.066  70.598  1.00  0.00    -0.068 F  
HETATM   15  C   UNL     1      -8.529   9.503  70.015  1.00  0.00    -0.195 A  
HETATM   16  C   UNL     1      -9.538   7.517  71.106  1.00  0.00    -0.158 A  
HETATM   17  C   UNL     1      -9.605   8.615  70.232  1.00  0.00    -0.186 A  
BRANCH  15  18
HETATM   18  N   UNL     1      -8.678  10.484  69.039  1.00  0.00    -0.154 NA 
HETATM   19  C   UNL     1      -7.532  11.311  68.623  1.00  0.00    -0.118 C  
HETATM   20  C   UNL     1      -7.794  11.832  67.186  1.00  0.00    -0.166 C  
HETATM   21  N   UNL     1      -9.070  12.565  67.036  1.00  0.00    -0.207 NA 
HETATM   22  H   UNL     1      -9.231  12.860  66.074  1.00  0.00     0.000 HD 
HETATM   23  C   UNL     1     -10.183  11.748  67.559  1.00  0.00    -0.195 C  
HETATM   24  C   UNL     1      -9.950  11.232  68.998  1.00  0.00    -0.105 C  
ENDBRANCH  15  18
ENDBRANCH   2   3
TORSDOF 2
ENDMDL
MODEL      132
REMARK 921   NORMALIZED FREE ENERGY PREDICTED BY IDOCK:   -2.88 KCAL/MOL
REMARK 922        TOTAL FREE ENERGY PREDICTED BY IDOCK:   -3.61 KCAL/MOL
REMARK 923 INTER-LIGAND FREE ENERGY PREDICTED BY IDOCK:   -3.66 KCAL/MOL
REMARK 924 INTRA-LIGAND FREE ENERGY PREDICTED BY IDOCK:    0.05 KCAL/MOL
REMARK 927      BINDING AFFINITY PREDICTED BY RF-SCORE:    0.00 PKD
ROOT
HETATM    1  C   UNL     1     -11.561  11.473  64.584  1.00  0.00    -0.117 C  
HETATM    2  C   UNL     1     -10.244  10.717  64.704  1.00  0.00    -0.350 C  
ENDROOT
BRANCH   2   3
HETATM    3  N   UNL     1      -9.497  11.117  65.912  1.00  0.00    -0.207 NA 
HETATM    4  C   UNL     1      -9.371  12.457  66.255  1.00  0.00    -0.189 C  
HETATM    5  C   UNL     1      -8.712  12.949  67.315  1.00  0.00    -0.204 C  
HETATM    6  C   UNL     1      -8.686  14.409  67.538  1.00  0.00    -0.197 C  
HETATM    7  C   UNL     1      -8.054  11.973  68.202  1.00  0.00    -0.160 C  
HETATM    8  C   UNL     1      -8.240  10.531  67.919  1.00  0.00    -0.107 A  
HETATM    9  O   UNL     1      -7.385  12.364  69.156  1.00  0.00    -0.026 OA 
HETATM   10  O   UNL     1      -9.258  15.211  66.813  1.00  0.00    -0.221 OA 
HETATM   11  O   UNL     1      -7.980  14.799  68.621  1.00  0.00    -0.129 OA 
HETATM   12  C   UNL     1      -7.720   9.596  68.819  1.00  0.00    -0.080 A  
HETATM   13  C   UNL     1      -7.932   8.239  68.596  1.00  0.00    -0.122 A  
HETATM   14  F   UNL     1      -7.433   7.378  69.496  1.00  0.00    -0.080 F  
HETATM   15  C   UNL     1      -8.634   7.778  67.474  1.00  0.00    -0.122 A  
HETATM   16  C   UNL     1      -8.957  10.135  66.775  1.00  0.00    -0.132 A  
HETATM   17  C   UNL     1      -9.121   8.754  66.577  1.00  0.00    -0.203 A  
BRANCH  15  18
HETATM   18  N   UNL     1      -8.960   6.447  67.230  1.00  0.00    -0.107 NA 
HETATM   19  C   UNL     1      -8.688   5.409  68.240  1.00  0.00    -0.101 C  
HETATM   20  C   UNL     1      -9.658   4.223  68.004  1.00  0.00    -0.147 C  
HETATM   21  N   UNL     1      -9.606   3.668  66.634  1.00  0.00    -0.338 NA 
HETATM   22  H   UNL     1     -10.282   2.916  66.500  1.00  0.00     0.000 HD 
HETATM   23  C   UNL     1      -9.779   4.752  65.646  1.00  0.00    -0.174 C  
HETATM   24  C   UNL     1      -8.808   5.938  65.853  1.00  0.00    -0.149 C  
ENDBRANCH  15  18
ENDBRANCH   2   3
TORSDOF 2
ENDMDL
MODEL      133
REMARK 921   NORMALIZED FREE ENERGY PREDICTED BY IDOCK:   -2.35 KCAL/MOL
REMARK 922        TOTAL FREE ENERGY PREDICTED BY IDOCK:   -3.01 KCAL/MOL
REMARK 923 INTER-LIGAND FREE ENERGY PREDICTED BY IDOCK:   -2.71 KCAL/MOL
REMARK 924 INTRA-LIGAND FREE ENERGY PREDICTED BY IDOCK:   -0.30 KCAL/MOL
REMARK 927      BINDING AFFINITY PREDICTED BY RF-SCORE:    0.00 PKD
ROOT
HETATM    1  C   UNL     1      -7.804   7.240  62.686  1.00  0.00    -0.133 C  
HETATM    2  C   UNL     1      -7.743   7.407  64.199  1.00  0.00    -0.121 C  
ENDROOT
BRANCH   2   3
HETATM    3  N   UNL     1      -8.144   6.170  64.897  1.00  0.00    -0.130 NA 
HETATM    4  C   UNL     1      -8.384   5.002  64.186  1.00  0.00    -0.133 C  
HETATM    5  C   UNL     1      -8.764   3.822  64.699  1.00  0.00    -0.114 C  
HETATM    6  C   UNL     1      -8.968   2.671  63.795  1.00  0.00    -0.094 C  
HETATM    7  C   UNL     1      -8.947   3.758  66.160  1.00  0.00    -0.135 C  
HETATM    8  C   UNL     1      -8.615   4.959  66.962  1.00  0.00    -0.104 A  
HETATM    9  O   UNL     1      -9.351   2.722  66.683  1.00  0.00    -0.127 OA 
HETATM   10  O   UNL     1      -8.787   2.725  62.586  1.00  0.00    -0.078 OA 
HETATM   11  O   UNL     1      -9.367   1.538  64.411  1.00  0.00    -0.125 OA 
HETATM   12  C   UNL     1      -8.672   4.874  68.356  1.00  0.00    -0.109 A  
HETATM   13  C   UNL     1      -8.311   5.976  69.125  1.00  0.00    -0.114 A  
HETATM   14  F   UNL     1      -8.360   5.843  70.459  1.00  0.00    -0.113 F  
HETATM   15  C   UNL     1      -7.915   7.186  68.538  1.00  0.00    -0.124 A  
HETATM   16  C   UNL     1      -8.223   6.142  66.309  1.00  0.00    -0.116 A  
HETATM   17  C   UNL     1      -7.896   7.236  67.127  1.00  0.00    -0.110 A  
BRANCH  15  18
HETATM   18  N   UNL     1      -7.458   8.298  69.238  1.00  0.00    -0.083 NA 
HETATM   19  C   UNL     1      -7.400   9.622  68.593  1.00  0.00    -0.074 C  
HETATM   20  C   UNL     1      -7.468  10.712  69.693  1.00  0.00    -0.115 C  
HETATM   21  N   UNL     1      -6.431  10.576  70.739  1.00  0.00    -0.344 NA 
HETATM   22  H   UNL     1      -6.526  11.283  71.467  1.00  0.00     0.000 HD 
HETATM   23  C   UNL     1      -6.449   9.206  71.290  1.00  0.00    -0.082 C  
HETATM   24  C   UNL     1      -6.364   8.103  70.210  1.00  0.00    -0.036 C  
ENDBRANCH  15  18
ENDBRANCH   2   3
TORSDOF 2
ENDMDL
MODEL      134
REMARK 921   NORMALIZED FREE ENERGY PREDICTED BY IDOCK:   -2.30 KCAL/MOL
REMARK 922        TOTAL FREE ENERGY PREDICTED BY IDOCK:   -2.96 KCAL/MOL
REMARK 923 INTER-LIGAND FREE ENERGY PREDICTED BY IDOCK:   -2.54 KCAL/MOL
REMARK 924 INTRA-LIGAND FREE ENERGY PREDICTED BY IDOCK:   -0.42 KCAL/MOL
REMARK 927      BINDING AFFINITY PREDICTED BY RF-SCORE:    0.00 PKD
ROOT
HETATM    1  C   UNL     1      -9.618   7.742  73.927  1.00  0.00    -0.073 C  
HETATM    2  C   UNL     1      -9.315   8.461  72.619  1.00  0.00    -0.264 C  
ENDROOT
BRANCH   2   3
HETATM    3  N   UNL     1      -8.298   7.741  71.828  1.00  0.00    -0.107 NA 
HETATM    4  C   UNL     1      -7.671   6.613  72.340  1.00  0.00    -0.095 C  
HETATM    5  C   UNL     1      -6.727   5.881  71.730  1.00  0.00    -0.059 C  
HETATM    6  C   UNL     1      -6.170   4.698  72.418  1.00  0.00    -0.021 C  
HETATM    7  C   UNL     1      -6.312   6.317  70.385  1.00  0.00    -0.036 C  
HETATM    8  C   UNL     1      -7.020   7.463  69.768  1.00  0.00    -0.056 A  
HETATM    9  O   UNL     1      -5.410   5.723  69.798  1.00  0.00    -0.004 OA 
HETATM   10  O   UNL     1      -6.540   4.326  73.523  1.00  0.00    -0.047 OA 
HETATM   11  O   UNL     1      -5.214   4.044  71.724  1.00  0.00     0.000 OA 
HETATM   12  C   UNL     1      -6.717   7.811  68.449  1.00  0.00    -0.062 A  
HETATM   13  C   UNL     1      -7.410   8.851  67.838  1.00  0.00    -0.084 A  
HETATM   14  F   UNL     1      -7.102   9.137  66.564  1.00  0.00    -0.077 F  
HETATM   15  C   UNL     1      -8.394   9.581  68.520  1.00  0.00    -0.118 A  
HETATM   16  C   UNL     1      -7.998   8.153  70.509  1.00  0.00    -0.095 A  
HETATM   17  C   UNL     1      -8.651   9.213  69.859  1.00  0.00    -0.155 A  
BRANCH  15  18
HETATM   18  N   UNL     1      -9.188  10.572  67.950  1.00  0.00    -0.139 NA 
HETATM   19  C   UNL     1      -8.688  11.952  67.816  1.00  0.00    -0.158 C  
HETATM   20  C   UNL     1      -9.452  12.643  66.658  1.00  0.00    -0.244 C  
HETATM   21  N   UNL     1     -10.924  12.616  66.808  1.00  0.00    -0.254 NA 
HETATM   22  H   UNL     1     -11.398  13.044  66.013  1.00  0.00     0.000 HD 
HETATM   23  C   UNL     1     -11.379  11.231  67.046  1.00  0.00    -0.187 C  
HETATM   24  C   UNL     1     -10.640  10.528  68.209  1.00  0.00    -0.206 C  
ENDBRANCH  15  18
ENDBRANCH   2   3
TORSDOF 2
ENDMDL
MODEL      135
REMARK 921   NORMALIZED FREE ENERGY PREDICTED BY IDOCK:   -2.16 KCAL/MOL
REMARK 922        TOTAL FREE ENERGY PREDICTED BY IDOCK:   -2.81 KCAL/MOL
REMARK 923 INTER-LIGAND FREE ENERGY PREDICTED BY IDOCK:   -3.11 KCAL/MOL
REMARK 924 INTRA-LIGAND FREE ENERGY PREDICTED BY IDOCK:    0.30 KCAL/MOL
REMARK 927      BINDING AFFINITY PREDICTED BY RF-SCORE:    0.00 PKD
ROOT
HETATM    1  C   UNL     1      -9.460   8.330  73.012  1.00  0.00    -0.298 C  
HETATM    2  C   UNL     1      -8.514   7.152  73.201  1.00  0.00    -0.121 C  
ENDROOT
BRANCH   2   3
HETATM    3  N   UNL     1      -8.770   6.087  72.212  1.00  0.00    -0.131 NA 
HETATM    4  C   UNL     1      -9.249   4.847  72.615  1.00  0.00    -0.130 C  
HETATM    5  C   UNL     1      -9.509   3.797  71.821  1.00  0.00    -0.214 C  
HETATM    6  C   UNL     1     -10.027   2.549  72.418  1.00  0.00    -0.158 C  
HETATM    7  C   UNL     1      -9.261   3.975  70.380  1.00  0.00    -0.134 C  
HETATM    8  C   UNL     1      -8.834   5.310  69.900  1.00  0.00    -0.132 A  
HETATM    9  O   UNL     1      -9.424   3.032  69.608  1.00  0.00    -0.154 OA 
HETATM   10  O   UNL     1     -10.257   2.418  73.612  1.00  0.00    -0.100 OA 
HETATM   11  O   UNL     1     -10.237   1.549  71.533  1.00  0.00    -0.127 OA 
HETATM   12  C   UNL     1      -8.710   5.523  68.524  1.00  0.00    -0.105 A  
HETATM   13  C   UNL     1      -8.362   6.785  68.055  1.00  0.00    -0.120 A  
HETATM   14  F   UNL     1      -8.275   6.950  66.726  1.00  0.00    -0.107 F  
HETATM   15  C   UNL     1      -8.107   7.852  68.929  1.00  0.00    -0.125 A  
HETATM   16  C   UNL     1      -8.595   6.337  70.831  1.00  0.00    -0.135 A  
HETATM   17  C   UNL     1      -8.219   7.587  70.311  1.00  0.00    -0.128 A  
BRANCH  15  18
HETATM   18  N   UNL     1      -7.841   9.159  68.533  1.00  0.00    -0.100 NA 
HETATM   19  C   UNL     1      -7.568  10.207  69.532  1.00  0.00    -0.139 C  
HETATM   20  C   UNL     1      -6.733  11.326  68.859  1.00  0.00    -0.081 C  
HETATM   21  N   UNL     1      -7.356  11.891  67.642  1.00  0.00    -0.113 NA 
HETATM   22  H   UNL     1      -6.765  12.597  67.202  1.00  0.00     0.000 HD 
HETATM   23  C   UNL     1      -7.710  10.804  66.708  1.00  0.00    -0.136 C  
HETATM   24  C   UNL     1      -8.559   9.685  67.355  1.00  0.00    -0.125 C  
ENDBRANCH  15  18
ENDBRANCH   2   3
TORSDOF 2
ENDMDL
MODEL      136
REMARK 921   NORMALIZED FREE ENERGY PREDICTED BY IDOCK:   -2.05 KCAL/MOL
REMARK 922        TOTAL FREE ENERGY PREDICTED BY IDOCK:   -2.68 KCAL/MOL
REMARK 923 INTER-LIGAND FREE ENERGY PREDICTED BY IDOCK:   -4.32 KCAL/MOL
REMARK 924 INTRA-LIGAND FREE ENERGY PREDICTED BY IDOCK:    1.64 KCAL/MOL
REMARK 927      BINDING AFFINITY PREDICTED BY RF-SCORE:    0.00 PKD
ROOT
HETATM    1  C   UNL     1      -7.807  12.536  67.029  1.00  0.00    -0.065 C  
HETATM    2  C   UNL     1      -7.812  14.037  66.771  1.00  0.00     0.507 C  
ENDROOT
BRANCH   2   3
HETATM    3  N   UNL     1      -8.768  14.736  67.651  1.00  0.00    -0.170 NA 
HETATM    4  C   UNL     1      -8.815  16.124  67.684  1.00  0.00    -0.186 C  
HETATM    5  C   UNL     1      -9.625  16.875  68.446  1.00  0.00    -0.255 C  
HETATM    6  C   UNL     1      -9.550  18.347  68.348  1.00  0.00    -0.345 C  
HETATM    7  C   UNL     1     -10.555  16.158  69.336  1.00  0.00    -0.300 C  
HETATM    8  C   UNL     1     -10.596  14.679  69.266  1.00  0.00    -0.236 A  
HETATM    9  O   UNL     1     -11.281  16.790  70.102  1.00  0.00    -0.160 OA 
HETATM   10  O   UNL     1      -8.795  18.934  67.586  1.00  0.00    -0.283 OA 
HETATM   11  O   UNL     1     -10.395  19.007  69.171  1.00  0.00    -0.209 OA 
HETATM   12  C   UNL     1     -11.555  13.996  70.019  1.00  0.00    -0.302 A  
HETATM   13  C   UNL     1     -11.642  12.611  69.923  1.00  0.00    -0.177 A  
HETATM   14  F   UNL     1     -12.591  11.997  70.647  1.00  0.00    -0.372 F  
HETATM   15  C   UNL     1     -10.774  11.873  69.106  1.00  0.00    -0.097 A  
HETATM   16  C   UNL     1      -9.696  14.000  68.424  1.00  0.00    -0.223 A  
HETATM   17  C   UNL     1      -9.804  12.600  68.382  1.00  0.00    -0.200 A  
BRANCH  15  18
HETATM   18  N   UNL     1     -10.856  10.500  68.892  1.00  0.00    -0.219 NA 
HETATM   19  C   UNL     1     -11.017   9.960  67.530  1.00  0.00    -0.173 C  
HETATM   20  C   UNL     1     -10.472   8.509  67.507  1.00  0.00    -0.258 C  
HETATM   21  N   UNL     1     -11.089   7.620  68.516  1.00  0.00    -0.403 NA 
HETATM   22  H   UNL     1     -10.682   6.684  68.501  1.00  0.00     0.000 HD 
HETATM   23  C   UNL     1     -11.002   8.240  69.853  1.00  0.00    -0.166 C  
HETATM   24  C   UNL     1     -11.556   9.683  69.902  1.00  0.00    -0.030 C  
ENDBRANCH  15  18
ENDBRANCH   2   3
TORSDOF 2
ENDMDL
MODEL      137
REMARK 921   NORMALIZED FREE ENERGY PREDICTED BY IDOCK:   -2.04 KCAL/MOL
REMARK 922        TOTAL FREE ENERGY PREDICTED BY IDOCK:   -2.67 KCAL/MOL
REMARK 923 INTER-LIGAND FREE ENERGY PREDICTED BY IDOCK:   -2.61 KCAL/MOL
REMARK 924 INTRA-LIGAND FREE ENERGY PREDICTED BY IDOCK:   -0.06 KCAL/MOL
REMARK 927      BINDING AFFINITY PREDICTED BY RF-SCORE:    0.00 PKD
ROOT
HETATM    1  C   UNL     1      -7.856  11.168  69.480  1.00  0.00     0.160 C  
HETATM    2  C   UNL     1      -8.204   9.849  68.803  1.00  0.00    -0.114 C  
ENDROOT
BRANCH   2   3
HETATM    3  N   UNL     1      -8.682  10.058  67.423  1.00  0.00    -0.125 NA 
HETATM    4  C   UNL     1      -9.195  11.288  67.030  1.00  0.00    -0.165 C  
HETATM    5  C   UNL     1      -9.671  11.600  65.815  1.00  0.00    -0.262 C  
HETATM    6  C   UNL     1     -10.173  12.967  65.564  1.00  0.00    -0.285 C  
HETATM    7  C   UNL     1      -9.650  10.535  64.797  1.00  0.00    -0.285 C  
HETATM    8  C   UNL     1      -9.031   9.237  65.152  1.00  0.00    -0.257 A  
HETATM    9  O   UNL     1     -10.127  10.741  63.683  1.00  0.00    -0.325 OA 
HETATM   10  O   UNL     1     -10.161  13.854  66.406  1.00  0.00    -0.279 OA 
HETATM   11  O   UNL     1     -10.646  13.170  64.315  1.00  0.00    -0.403 OA 
HETATM   12  C   UNL     1      -8.899   8.260  64.160  1.00  0.00     0.416 A  
HETATM   13  C   UNL     1      -8.271   7.057  64.463  1.00  0.00     0.003 A  
HETATM   14  F   UNL     1      -8.148   6.156  63.476  1.00  0.00    -0.112 F  
HETATM   15  C   UNL     1      -7.785   6.782  65.749  1.00  0.00    -0.096 A  
HETATM   16  C   UNL     1      -8.562   9.028  66.462  1.00  0.00    -0.120 A  
HETATM   17  C   UNL     1      -7.961   7.786  66.727  1.00  0.00    -0.107 A  
BRANCH  15  18
HETATM   18  N   UNL     1      -7.071   5.642  66.104  1.00  0.00    -0.066 NA 
HETATM   19  C   UNL     1      -6.318   4.881  65.092  1.00  0.00    -0.035 C  
HETATM   20  C   UNL     1      -5.182   4.102  65.803  1.00  0.00    -0.009 C  
HETATM   21  N   UNL     1      -5.649   3.225  66.899  1.00  0.00    -0.021 NA 
HETATM   22  H   UNL     1      -4.876   2.757  67.371  1.00  0.00     0.000 HD 
HETATM   23  C   UNL     1      -6.486   3.998  67.838  1.00  0.00    -0.038 C  
HETATM   24  C   UNL     1      -7.637   4.769  67.151  1.00  0.00    -0.087 C  
ENDBRANCH  15  18
ENDBRANCH   2   3
TORSDOF 2
ENDMDL
MODEL      138
REMARK 921   NORMALIZED FREE ENERGY PREDICTED BY IDOCK:   -2.02 KCAL/MOL
REMARK 922        TOTAL FREE ENERGY PREDICTED BY IDOCK:   -2.65 KCAL/MOL
REMARK 923 INTER-LIGAND FREE ENERGY PREDICTED BY IDOCK:   -2.21 KCAL/MOL
REMARK 924 INTRA-LIGAND FREE ENERGY PREDICTED BY IDOCK:   -0.44 KCAL/MOL
REMARK 927      BINDING AFFINITY PREDICTED BY RF-SCORE:    0.00 PKD
ROOT
HETATM    1  C   UNL     1     -11.036   5.778  66.563  1.00  0.00    -0.152 C  
HETATM    2  C   UNL     1      -9.642   5.168  66.628  1.00  0.00    -0.154 C  
ENDROOT
BRANCH   2   3
HETATM    3  N   UNL     1      -8.596   6.208  66.681  1.00  0.00    -0.115 NA 
HETATM    4  C   UNL     1      -8.287   6.959  65.554  1.00  0.00    -0.137 C  
HETATM    5  C   UNL     1      -7.355   7.920  65.469  1.00  0.00    -0.076 C  
HETATM    6  C   UNL     1      -7.163   8.631  64.188  1.00  0.00    -0.092 C  
HETATM    7  C   UNL     1      -6.581   8.206  66.689  1.00  0.00    -0.056 C  
HETATM    8  C   UNL     1      -6.940   7.489  67.934  1.00  0.00    -0.076 A  
HETATM    9  O   UNL     1      -5.672   9.034  66.660  1.00  0.00    -0.045 OA 
HETATM   10  O   UNL     1      -7.829   8.406  63.187  1.00  0.00    -0.133 OA 
HETATM   11  O   UNL     1      -6.187   9.565  64.206  1.00  0.00    -0.084 OA 
HETATM   12  C   UNL     1      -6.292   7.836  69.123  1.00  0.00    -0.036 A  
HETATM   13  C   UNL     1      -6.657   7.209  70.311  1.00  0.00    -0.044 A  
HETATM   14  F   UNL     1      -6.024   7.589  71.431  1.00  0.00    -0.035 F  
HETATM   15  C   UNL     1      -7.643   6.214  70.346  1.00  0.00    -0.096 A  
HETATM   16  C   UNL     1      -7.941   6.500  67.900  1.00  0.00    -0.109 A  
HETATM   17  C   UNL     1      -8.255   5.875  69.119  1.00  0.00    -0.106 A  
BRANCH  15  18
HETATM   18  N   UNL     1      -8.121   5.606  71.503  1.00  0.00    -0.116 NA 
HETATM   19  C   UNL     1      -8.252   4.141  71.585  1.00  0.00    -0.090 C  
HETATM   20  C   UNL     1      -8.191   3.721  73.076  1.00  0.00    -0.090 C  
HETATM   21  N   UNL     1      -9.188   4.400  73.932  1.00  0.00    -0.106 NA 
HETATM   22  H   UNL     1      -9.097   4.132  74.912  1.00  0.00     0.000 HD 
HETATM   23  C   UNL     1      -9.098   5.862  73.746  1.00  0.00    -0.127 C  
HETATM   24  C   UNL     1      -9.174   6.304  72.266  1.00  0.00    -0.139 C  
ENDBRANCH  15  18
ENDBRANCH   2   3
TORSDOF 2
ENDMDL
MODEL      139
REMARK 921   NORMALIZED FREE ENERGY PREDICTED BY IDOCK:   -1.06 KCAL/MOL
REMARK 922        TOTAL FREE ENERGY PREDICTED BY IDOCK:   -1.58 KCAL/MOL
REMARK 923 INTER-LIGAND FREE ENERGY PREDICTED BY IDOCK:   -3.26 KCAL/MOL
REMARK 924 INTRA-LIGAND FREE ENERGY PREDICTED BY IDOCK:    1.68 KCAL/MOL
REMARK 927      BINDING AFFINITY PREDICTED BY RF-SCORE:    0.00 PKD
ROOT
HETATM    1  C   UNL     1      -7.010  11.271  67.460  1.00  0.00    -0.091 C  
HETATM    2  C   UNL     1      -7.296  12.638  66.854  1.00  0.00     0.189 C  
ENDROOT
BRANCH   2   3
HETATM    3  N   UNL     1      -8.481  13.267  67.469  1.00  0.00    -0.189 NA 
HETATM    4  C   UNL     1      -8.870  14.550  67.105  1.00  0.00    -0.229 C  
HETATM    5  C   UNL     1      -9.914  15.234  67.596  1.00  0.00    -0.222 C  
HETATM    6  C   UNL     1     -10.194  16.593  67.087  1.00  0.00    -0.290 C  
HETATM    7  C   UNL     1     -10.728  14.561  68.624  1.00  0.00    -0.253 C  
HETATM    8  C   UNL     1     -10.397  13.161  68.976  1.00  0.00     0.025 A  
HETATM    9  O   UNL     1     -11.662  15.158  69.156  1.00  0.00    -0.295 OA 
HETATM   10  O   UNL     1      -9.531  17.134  66.213  1.00  0.00    -0.283 OA 
HETATM   11  O   UNL     1     -11.256  17.199  67.661  1.00  0.00    -0.132 OA 
HETATM   12  C   UNL     1     -11.232  12.474  69.862  1.00  0.00     0.088 A  
HETATM   13  C   UNL     1     -10.966  11.141  70.161  1.00  0.00     0.098 A  
HETATM   14  F   UNL     1     -11.805  10.515  71.000  1.00  0.00    -0.381 F  
HETATM   15  C   UNL     1      -9.862  10.470  69.615  1.00  0.00    -0.080 A  
HETATM   16  C   UNL     1      -9.275  12.546  68.390  1.00  0.00    -0.139 A  
HETATM   17  C   UNL     1      -9.031  11.208  68.744  1.00  0.00    -0.136 A  
BRANCH  15  18
HETATM   18  N   UNL     1      -9.583   9.119  69.797  1.00  0.00    -0.173 NA 
HETATM   19  C   UNL     1      -9.456   8.214  68.641  1.00  0.00    -0.147 C  
HETATM   20  C   UNL     1      -8.574   7.008  69.051  1.00  0.00    -0.129 C  
HETATM   21  N   UNL     1      -9.061   6.288  70.248  1.00  0.00    -0.153 NA 
HETATM   22  H   UNL     1      -8.439   5.524  70.515  1.00  0.00     0.000 HD 
HETATM   23  C   UNL     1      -9.276   7.240  71.355  1.00  0.00    -0.142 C  
HETATM   24  C   UNL     1     -10.168   8.444  70.972  1.00  0.00    -0.199 C  
ENDBRANCH  15  18
ENDBRANCH   2   3
TORSDOF 2
ENDMDL
MODEL      140
REMARK 921   NORMALIZED FREE ENERGY PREDICTED BY IDOCK:   -0.25 KCAL/MOL
REMARK 922        TOTAL FREE ENERGY PREDICTED BY IDOCK:   -0.68 KCAL/MOL
REMARK 923 INTER-LIGAND FREE ENERGY PREDICTED BY IDOCK:   -1.27 KCAL/MOL
REMARK 924 INTRA-LIGAND FREE ENERGY PREDICTED BY IDOCK:    0.59 KCAL/MOL
REMARK 927      BINDING AFFINITY PREDICTED BY RF-SCORE:    0.00 PKD
ROOT
HETATM    1  C   UNL     1     -11.111  15.329  64.530  1.00  0.00    -0.260 C  
HETATM    2  C   UNL     1     -12.244  14.887  65.447  1.00  0.00    -0.018 C  
ENDROOT
BRANCH   2   3
HETATM    3  N   UNL     1     -11.795  14.773  66.848  1.00  0.00    -0.319 NA 
HETATM    4  C   UNL     1     -12.183  13.692  67.630  1.00  0.00    -0.188 C  
HETATM    5  C   UNL     1     -11.855  13.479  68.913  1.00  0.00    -0.384 C  
HETATM    6  C   UNL     1     -12.348  12.264  69.594  1.00  0.00     0.012 C  
HETATM    7  C   UNL     1     -11.001  14.492  69.559  1.00  0.00    -0.224 C  
HETATM    8  C   UNL     1     -10.495  15.613  68.734  1.00  0.00    -0.225 A  
HETATM    9  O   UNL     1     -10.714  14.384  70.749  1.00  0.00     0.373 OA 
HETATM   10  O   UNL     1     -13.033  11.414  69.043  1.00  0.00     0.329 OA 
HETATM   11  O   UNL     1     -11.975  12.157  70.888  1.00  0.00    -0.213 OA 
HETATM   12  C   UNL     1      -9.590  16.514  69.304  1.00  0.00    -0.176 A  
HETATM   13  C   UNL     1      -9.065  17.541  68.527  1.00  0.00    -0.277 A  
HETATM   14  F   UNL     1      -8.184  18.370  69.109  1.00  0.00    -0.254 F  
HETATM   15  C   UNL     1      -9.437  17.716  67.187  1.00  0.00    -0.267 A  
HETATM   16  C   UNL     1     -10.908  15.729  67.394  1.00  0.00    -0.306 A  
HETATM   17  C   UNL     1     -10.371  16.799  66.658  1.00  0.00    -0.297 A  
BRANCH  15  18
HETATM   18  N   UNL     1      -8.890  18.662  66.326  1.00  0.00    -0.442 NA 
HETATM   19  C   UNL     1      -9.759  19.513  65.493  1.00  0.00     0.425 C  
HETATM   20  C   UNL     1      -8.989  20.813  65.144  1.00  0.00     1.525 C  
HETATM   21  N   UNL     1      -7.681  20.580  64.494  1.00  0.00     0.038 NA 
HETATM   22  H   UNL     1      -7.183  21.451  64.312  1.00  0.00     0.000 HD 
HETATM   23  C   UNL     1      -6.878  19.641  65.303  1.00  0.00    -0.229 C  
HETATM   24  C   UNL     1      -7.621  18.330  65.648  1.00  0.00     0.109 C  
ENDBRANCH  15  18
ENDBRANCH   2   3
TORSDOF 2
ENDMDL
MODEL      141
REMARK 921   NORMALIZED FREE ENERGY PREDICTED BY IDOCK:    6.45 KCAL/MOL
REMARK 922        TOTAL FREE ENERGY PREDICTED BY IDOCK:    6.82 KCAL/MOL
REMARK 923 INTER-LIGAND FREE ENERGY PREDICTED BY IDOCK:    7.22 KCAL/MOL
REMARK 924 INTRA-LIGAND FREE ENERGY PREDICTED BY IDOCK:   -0.41 KCAL/MOL
REMARK 927      BINDING AFFINITY PREDICTED BY RF-SCORE:    0.00 PKD
ROOT
HETATM    1  C   UNL     1     -10.198  19.012  69.192  1.00  0.00    -0.118 C  
HETATM    2  C   UNL     1      -8.937  18.201  69.456  1.00  0.00     0.662 C  
ENDROOT
BRANCH   2   3
HETATM    3  N   UNL     1      -8.138  18.025  68.227  1.00  0.00    -0.283 NA 
HETATM    4  C   UNL     1      -8.028  19.055  67.302  1.00  0.00    -0.254 C  
HETATM    5  C   UNL     1      -7.346  19.017  66.147  1.00  0.00    -0.294 C  
HETATM    6  C   UNL     1      -7.325  20.213  65.279  1.00  0.00    -0.066 C  
HETATM    7  C   UNL     1      -6.648  17.760  65.826  1.00  0.00    -0.186 C  
HETATM    8  C   UNL     1      -6.669  16.669  66.828  1.00  0.00    -0.241 A  
HETATM    9  O   UNL     1      -6.056  17.642  64.755  1.00  0.00     0.506 OA 
HETATM   10  O   UNL     1      -7.884  21.263  65.566  1.00  0.00     1.162 OA 
HETATM   11  O   UNL     1      -6.626  20.062  64.133  1.00  0.00    -0.260 OA 
HETATM   12  C   UNL     1      -5.914  15.518  66.587  1.00  0.00     1.483 A  
HETATM   13  C   UNL     1      -5.881  14.508  67.543  1.00  0.00     0.136 A  
HETATM   14  F   UNL     1      -5.126  13.430  67.279  1.00  0.00    -0.009 F  
HETATM   15  C   UNL     1      -6.608  14.600  68.738  1.00  0.00    -0.090 A  
HETATM   16  C   UNL     1      -7.420  16.827  68.008  1.00  0.00    -0.167 A  
HETATM   17  C   UNL     1      -7.377  15.768  68.931  1.00  0.00    -0.162 A  
BRANCH  15  18
HETATM   18  N   UNL     1      -6.555  13.674  69.775  1.00  0.00    -0.061 NA 
HETATM   19  C   UNL     1      -7.541  12.582  69.860  1.00  0.00     1.529 C  
HETATM   20  C   UNL     1      -6.918  11.415  70.668  1.00  0.00     1.591 C  
HETATM   21  N   UNL     1      -6.430  11.805  72.008  1.00  0.00     2.319 NA 
HETATM   22  H   UNL     1      -5.992  11.025  72.498  1.00  0.00     0.000 HD 
HETATM   23  C   UNL     1      -5.526  12.967  71.895  1.00  0.00     0.115 C  
HETATM   24  C   UNL     1      -6.135  14.150  71.108  1.00  0.00    -0.091 C  
ENDBRANCH  15  18
ENDBRANCH   2   3
TORSDOF 2
ENDMDL
MODEL      142
REMARK 921   NORMALIZED FREE ENERGY PREDICTED BY IDOCK:   18.04 KCAL/MOL
REMARK 922        TOTAL FREE ENERGY PREDICTED BY IDOCK:   19.75 KCAL/MOL
REMARK 923 INTER-LIGAND FREE ENERGY PREDICTED BY IDOCK:   18.66 KCAL/MOL
REMARK 924 INTRA-LIGAND FREE ENERGY PREDICTED BY IDOCK:    1.10 KCAL/MOL
REMARK 927      BINDING AFFINITY PREDICTED BY RF-SCORE:    0.00 PKD
ROOT
HETATM    1  C   UNL     1      -9.804   7.814  74.085  1.00  0.00     0.501 C  
HETATM    2  C   UNL     1     -10.123   9.191  73.517  1.00  0.00     3.806 C  
ENDROOT
BRANCH   2   3
HETATM    3  N   UNL     1     -10.680   9.099  72.154  1.00  0.00    -0.180 NA 
HETATM    4  C   UNL     1     -10.686  10.207  71.316  1.00  0.00     0.479 C  
HETATM    5  C   UNL     1     -11.172  10.257  70.066  1.00  0.00    -0.376 C  
HETATM    6  C   UNL     1     -11.087  11.522  69.307  1.00  0.00    -0.246 C  
HETATM    7  C   UNL     1     -11.759   9.017  69.529  1.00  0.00     0.617 C  
HETATM    8  C   UNL     1     -11.692   7.792  70.359  1.00  0.00    -0.045 A  
HETATM    9  O   UNL     1     -12.274   9.014  68.413  1.00  0.00     2.437 OA 
HETATM   10  O   UNL     1     -10.573  12.540  69.749  1.00  0.00     0.419 OA 
HETATM   11  O   UNL     1     -11.622  11.469  68.068  1.00  0.00    -0.361 OA 
HETATM   12  C   UNL     1     -12.139   6.584  69.815  1.00  0.00     0.282 A  
HETATM   13  C   UNL     1     -12.034   5.415  70.562  1.00  0.00     2.484 A  
HETATM   14  F   UNL     1     -12.455   4.276  69.992  1.00  0.00     8.607 F  
HETATM   15  C   UNL     1     -11.512   5.417  71.863  1.00  0.00     0.095 A  
HETATM   16  C   UNL     1     -11.155   7.863  71.658  1.00  0.00    -0.244 A  
HETATM   17  C   UNL     1     -11.095   6.661  72.384  1.00  0.00    -0.294 A  
BRANCH  15  18
HETATM   18  N   UNL     1     -11.295   4.279  72.635  1.00  0.00     0.151 NA 
HETATM   19  C   UNL     1     -12.391   3.678  73.413  1.00  0.00     0.771 C  
HETATM   20  C   UNL     1     -12.071   2.179  73.643  1.00  0.00     0.123 C  
HETATM   21  N   UNL     1     -10.759   1.936  74.283  1.00  0.00    -0.136 NA 
HETATM   22  H   UNL     1     -10.561   0.941  74.384  1.00  0.00     0.000 HD 
HETATM   23  C   UNL     1      -9.697   2.639  73.536  1.00  0.00    -0.095 C  
HETATM   24  C   UNL     1      -9.990   4.141  73.311  1.00  0.00    -0.136 C  
ENDBRANCH  15  18
ENDBRANCH   2   3
TORSDOF 2
ENDMDL
