MODEL        1
REMARK 921   NORMALIZED FREE ENERGY PREDICTED BY IDOCK:   -6.34 KCAL/MOL
REMARK 922        TOTAL FREE ENERGY PREDICTED BY IDOCK:   -8.62 KCAL/MOL
REMARK 923 INTER-LIGAND FREE ENERGY PREDICTED BY IDOCK:   -8.20 KCAL/MOL
REMARK 924 INTRA-LIGAND FREE ENERGY PREDICTED BY IDOCK:   -0.42 KCAL/MOL
REMARK 927      BINDING AFFINITY PREDICTED BY RF-SCORE:    0.00 PKD
ROOT
HETATM    1  C   UNL     1      -9.196   9.473  65.228  1.00  0.00    -0.307 C  
HETATM    2  C   UNL     1      -8.138   9.835  64.366  1.00  0.00    -0.150 C  
HETATM    3  C   UNL     1      -8.221  10.611  65.634  1.00  0.00    -0.154 C  
HETATM    4  C   UNL     1      -9.483   9.868  67.086  1.00  0.00    -0.158 C  
HETATM    5  C   UNL     1     -10.487  10.800  65.139  1.00  0.00    -0.299 C  
HETATM    6  C   UNL     1     -10.899  11.246  63.686  1.00  0.00    -0.410 C  
HETATM    7  C   UNL     1      -8.157   9.592  66.872  1.00  0.00    -0.109 C  
HETATM    8  C   UNL     1     -11.687  12.606  63.532  1.00  0.00    -0.604 C  
HETATM    9  C   UNL     1      -7.850  11.307  67.629  1.00  0.00    -0.116 C  
HETATM   10  C   UNL     1     -11.492  13.638  64.642  1.00  0.00    -0.383 C  
HETATM   11  C   UNL     1     -11.152  14.936  64.492  1.00  0.00    -0.249 C  
HETATM   12  C   UNL     1     -10.847  15.805  65.682  1.00  0.00    -0.307 C  
HETATM   13  C   UNL     1     -11.157  15.293  67.076  1.00  0.00    -0.305 C  
HETATM   14  C   UNL     1     -11.808  13.937  67.147  1.00  0.00    -0.445 C  
HETATM   15  C   UNL     1      -9.176  12.361  67.320  1.00  0.00    -0.187 C  
HETATM   16  C   UNL     1     -10.165  12.216  66.005  1.00  0.00    -0.265 C  
HETATM   17  C   UNL     1     -11.506  12.987  66.008  1.00  0.00    -0.374 C  
ENDROOT
BRANCH   4  18
HETATM   18  O   UNL     1      -9.461  10.081  68.554  1.00  0.00    -0.142 OA 
BRANCH  18  19
HETATM   19  C   UNL     1     -10.599  10.132  69.288  1.00  0.00    -0.230 C  
HETATM   20  O   UNL     1     -11.611  10.748  68.985  1.00  0.00    -0.280 OA 
HETATM   21  C   UNL     1     -10.388   9.460  70.626  1.00  0.00    -0.349 C  
ENDBRANCH  18  19
ENDBRANCH   4  18
BRANCH   4  22
HETATM   22  C   UNL     1     -10.217   8.490  67.072  1.00  0.00    -0.371 C  
HETATM   23  C   UNL     1     -10.771   7.426  67.150  1.00  0.00    -0.400 C  
ENDBRANCH   4  22
BRANCH   7  24
HETATM   24  C   UNL     1      -7.119   8.582  67.291  1.00  0.00    -0.076 C  
HETATM   25  C   UNL     1      -5.847   8.491  66.478  1.00  0.00    -0.051 C  
ENDBRANCH   7  24
BRANCH  12  26
HETATM   26  N   UNL     1     -10.294  16.980  65.513  1.00  0.00    -0.623 NA 
HETATM   27  O   UNL     1     -11.136  17.832  64.762  1.00  0.00    -0.852 OA 
HETATM   28  H   UNL     1     -10.734  18.684  64.640  1.00  0.00     0.000 HD 
HETATM   29  H   UNL     1      -9.378  17.244  65.874  1.00  0.00     0.000 HD 
ENDBRANCH  12  26
TORSDOF 5
ENDMDL
MODEL        2
REMARK 921   NORMALIZED FREE ENERGY PREDICTED BY IDOCK:   -6.08 KCAL/MOL
REMARK 922        TOTAL FREE ENERGY PREDICTED BY IDOCK:   -8.28 KCAL/MOL
REMARK 923 INTER-LIGAND FREE ENERGY PREDICTED BY IDOCK:   -7.80 KCAL/MOL
REMARK 924 INTRA-LIGAND FREE ENERGY PREDICTED BY IDOCK:   -0.48 KCAL/MOL
REMARK 927      BINDING AFFINITY PREDICTED BY RF-SCORE:    0.00 PKD
ROOT
HETATM    1  C   UNL     1     -11.694  13.489  67.770  1.00  0.00    -0.394 C  
HETATM    2  C   UNL     1     -11.350  14.413  68.780  1.00  0.00    -0.299 C  
HETATM    3  C   UNL     1     -10.230  13.570  68.278  1.00  0.00    -0.250 C  
HETATM    4  C   UNL     1     -10.586  12.501  66.551  1.00  0.00    -0.242 C  
HETATM    5  C   UNL     1     -11.717  11.796  68.524  1.00  0.00    -0.390 C  
HETATM    6  C   UNL     1     -12.512  11.671  69.879  1.00  0.00    -0.123 C  
HETATM    7  C   UNL     1     -10.096  13.773  66.692  1.00  0.00    -0.277 C  
HETATM    8  C   UNL     1     -12.257  10.386  70.761  1.00  0.00    -0.457 C  
HETATM    9  C   UNL     1      -8.484  12.916  67.216  1.00  0.00    -0.197 C  
HETATM   10  C   UNL     1     -10.914   9.682  70.573  1.00  0.00    -0.374 C  
HETATM   11  C   UNL     1     -10.038   9.336  71.540  1.00  0.00    -0.306 C  
HETATM   12  C   UNL     1      -8.682   8.780  71.201  1.00  0.00    -0.212 C  
HETATM   13  C   UNL     1      -8.380   8.377  69.770  1.00  0.00    -0.125 C  
HETATM   14  C   UNL     1      -9.516   8.525  68.792  1.00  0.00    -0.143 C  
HETATM   15  C   UNL     1      -8.811  11.401  67.967  1.00  0.00    -0.155 C  
HETATM   16  C   UNL     1     -10.211  11.072  68.780  1.00  0.00    -0.211 C  
HETATM   17  C   UNL     1     -10.537   9.597  69.110  1.00  0.00    -0.237 C  
ENDROOT
BRANCH   4  18
HETATM   18  O   UNL     1      -9.623  11.970  65.555  1.00  0.00    -0.229 OA 
BRANCH  18  19
HETATM   19  C   UNL     1      -9.862  10.828  64.865  1.00  0.00    -0.292 C  
HETATM   20  O   UNL     1     -10.159   9.750  65.361  1.00  0.00    -0.305 OA 
HETATM   21  C   UNL     1      -9.538  11.025  63.402  1.00  0.00    -0.361 C  
ENDBRANCH  18  19
ENDBRANCH   4  18
BRANCH   4  22
HETATM   22  C   UNL     1     -11.831  12.619  65.617  1.00  0.00    -0.488 C  
HETATM   23  C   UNL     1     -12.734  12.732  64.830  1.00  0.00    -0.479 C  
ENDBRANCH   4  22
BRANCH   7  24
HETATM   24  C   UNL     1      -9.849  15.001  65.852  1.00  0.00    -0.369 C  
HETATM   25  C   UNL     1      -9.413  16.267  66.556  1.00  0.00    -0.289 C  
ENDBRANCH   7  24
BRANCH  12  26
HETATM   26  N   UNL     1      -7.765   8.674  72.129  1.00  0.00    -0.308 NA 
HETATM   27  O   UNL     1      -6.590   9.369  71.761  1.00  0.00    -0.291 OA 
HETATM   28  H   UNL     1      -5.924   9.292  72.434  1.00  0.00     0.000 HD 
HETATM   29  H   UNL     1      -7.882   8.159  73.001  1.00  0.00     0.000 HD 
ENDBRANCH  12  26
TORSDOF 5
ENDMDL
MODEL        3
REMARK 921   NORMALIZED FREE ENERGY PREDICTED BY IDOCK:   -6.06 KCAL/MOL
REMARK 922        TOTAL FREE ENERGY PREDICTED BY IDOCK:   -8.25 KCAL/MOL
REMARK 923 INTER-LIGAND FREE ENERGY PREDICTED BY IDOCK:   -8.56 KCAL/MOL
REMARK 924 INTRA-LIGAND FREE ENERGY PREDICTED BY IDOCK:    0.31 KCAL/MOL
REMARK 927      BINDING AFFINITY PREDICTED BY RF-SCORE:    0.00 PKD
ROOT
HETATM    1  C   UNL     1      -9.038  16.514  69.161  1.00  0.00    -0.184 C  
HETATM    2  C   UNL     1      -8.059  15.576  69.558  1.00  0.00    -0.202 C  
HETATM    3  C   UNL     1      -8.170  15.800  68.090  1.00  0.00    -0.141 C  
HETATM    4  C   UNL     1      -9.287  17.426  67.490  1.00  0.00    -0.233 C  
HETATM    5  C   UNL     1     -10.462  15.581  68.429  1.00  0.00    -0.240 C  
HETATM    6  C   UNL     1     -10.977  14.358  69.278  1.00  0.00    -0.281 C  
HETATM    7  C   UNL     1      -7.950  17.361  67.785  1.00  0.00    -0.208 C  
HETATM    8  C   UNL     1     -11.907  13.305  68.556  1.00  0.00    -0.384 C  
HETATM    9  C   UNL     1      -7.791  16.502  66.098  1.00  0.00    -0.134 C  
HETATM   10  C   UNL     1     -11.774  13.204  67.037  1.00  0.00    -0.431 C  
HETATM   11  C   UNL     1     -11.578  12.081  66.313  1.00  0.00    -0.378 C  
HETATM   12  C   UNL     1     -11.316  12.143  64.833  1.00  0.00    -0.326 C  
HETATM   13  C   UNL     1     -11.513  13.456  64.098  1.00  0.00    -0.421 C  
HETATM   14  C   UNL     1     -12.017  14.606  64.929  1.00  0.00    -0.402 C  
HETATM   15  C   UNL     1      -9.230  15.639  65.710  1.00  0.00    -0.247 C  
HETATM   16  C   UNL     1     -10.252  15.017  66.849  1.00  0.00    -0.258 C  
HETATM   17  C   UNL     1     -11.665  14.572  66.401  1.00  0.00    -0.372 C  
ENDROOT
BRANCH   4  18
HETATM   18  O   UNL     1      -9.227  18.197  66.223  1.00  0.00    -0.410 OA 
BRANCH  18  19
HETATM   19  C   UNL     1     -10.344  18.677  65.623  1.00  0.00    -0.034 C  
HETATM   20  O   UNL     1     -11.123  18.020  64.946  1.00  0.00    -0.738 OA 
HETATM   21  C   UNL     1     -10.403  20.181  65.760  1.00  0.00    -0.387 C  
ENDBRANCH  18  19
ENDBRANCH   4  18
BRANCH   4  22
HETATM   22  C   UNL     1      -9.875  18.547  68.404  1.00  0.00    -0.404 C  
HETATM   23  C   UNL     1     -10.264  19.391  69.168  1.00  0.00    -0.226 C  
ENDBRANCH   4  22
BRANCH   7  24
HETATM   24  C   UNL     1      -6.796  18.289  68.070  1.00  0.00    -0.212 C  
HETATM   25  C   UNL     1      -6.522  18.660  69.510  1.00  0.00    -0.239 C  
ENDBRANCH   7  24
BRANCH  12  26
HETATM   26  N   UNL     1     -10.895  11.081  64.195  1.00  0.00    -0.429 NA 
HETATM   27  O   UNL     1     -11.458  11.010  62.901  1.00  0.00    -0.642 OA 
HETATM   28  H   UNL     1     -11.153  10.239  62.438  1.00  0.00     0.000 HD 
HETATM   29  H   UNL     1     -10.246  10.394  64.581  1.00  0.00     0.000 HD 
ENDBRANCH  12  26
TORSDOF 5
ENDMDL
MODEL        4
REMARK 921   NORMALIZED FREE ENERGY PREDICTED BY IDOCK:   -6.00 KCAL/MOL
REMARK 922        TOTAL FREE ENERGY PREDICTED BY IDOCK:   -8.17 KCAL/MOL
REMARK 923 INTER-LIGAND FREE ENERGY PREDICTED BY IDOCK:   -8.11 KCAL/MOL
REMARK 924 INTRA-LIGAND FREE ENERGY PREDICTED BY IDOCK:   -0.06 KCAL/MOL
REMARK 927      BINDING AFFINITY PREDICTED BY RF-SCORE:    0.00 PKD
ROOT
HETATM    1  C   UNL     1      -8.954  13.122  67.323  1.00  0.00    -0.216 C  
HETATM    2  C   UNL     1      -8.484  13.048  68.653  1.00  0.00     0.041 C  
HETATM    3  C   UNL     1      -9.761  13.792  68.468  1.00  0.00    -0.193 C  
HETATM    4  C   UNL     1     -10.684  13.591  66.635  1.00  0.00    -0.282 C  
HETATM    5  C   UNL     1      -8.662  14.845  66.707  1.00  0.00    -0.278 C  
HETATM    6  C   UNL     1      -7.219  15.421  66.966  1.00  0.00    -0.072 C  
HETATM    7  C   UNL     1     -10.828  12.823  67.761  1.00  0.00    -0.248 C  
HETATM    8  C   UNL     1      -7.015  16.980  66.823  1.00  0.00    -0.268 C  
HETATM    9  C   UNL     1     -11.849  14.283  68.423  1.00  0.00    -0.373 C  
HETATM   10  C   UNL     1      -8.254  17.853  67.025  1.00  0.00    -0.241 C  
HETATM   11  C   UNL     1      -8.370  18.919  67.845  1.00  0.00    -0.310 C  
HETATM   12  C   UNL     1      -9.696  19.598  68.058  1.00  0.00    -0.396 C  
HETATM   13  C   UNL     1     -10.867  19.241  67.163  1.00  0.00    -0.543 C  
HETATM   14  C   UNL     1     -10.579  18.243  66.072  1.00  0.00    -0.318 C  
HETATM   15  C   UNL     1     -11.304  15.770  67.746  1.00  0.00    -0.240 C  
HETATM   16  C   UNL     1      -9.753  16.023  67.238  1.00  0.00    -0.232 C  
HETATM   17  C   UNL     1      -9.466  17.253  66.346  1.00  0.00    -0.282 C  
ENDROOT
BRANCH   4  18
HETATM   18  O   UNL     1     -12.111  13.775  66.272  1.00  0.00    -0.401 OA 
BRANCH  18  19
HETATM   19  C   UNL     1     -12.536  13.729  64.986  1.00  0.00    -0.416 C  
HETATM   20  O   UNL     1     -13.107  12.783  64.461  1.00  0.00    -0.743 OA 
HETATM   21  C   UNL     1     -12.050  14.946  64.232  1.00  0.00    -0.373 C  
ENDBRANCH  18  19
ENDBRANCH   4  18
BRANCH   4  22
HETATM   22  C   UNL     1     -10.289  12.605  65.490  1.00  0.00    -0.305 C  
HETATM   23  C   UNL     1      -9.947  11.794  64.671  1.00  0.00    -0.275 C  
ENDBRANCH   4  22
BRANCH   7  24
HETATM   24  C   UNL     1     -11.400  11.489  68.169  1.00  0.00    -0.367 C  
HETATM   25  C   UNL     1     -11.299  11.087  69.623  1.00  0.00    -0.363 C  
ENDBRANCH   7  24
BRANCH  12  26
HETATM   26  N   UNL     1      -9.840  20.467  69.027  1.00  0.00     0.117 NA 
HETATM   27  O   UNL     1     -10.441  19.869  70.158  1.00  0.00    -0.533 OA 
HETATM   28  H   UNL     1     -10.546  20.499  70.861  1.00  0.00     0.000 HD 
HETATM   29  H   UNL     1      -9.558  21.445  68.972  1.00  0.00     0.000 HD 
ENDBRANCH  12  26
TORSDOF 5
ENDMDL
MODEL        5
REMARK 921   NORMALIZED FREE ENERGY PREDICTED BY IDOCK:   -5.85 KCAL/MOL
REMARK 922        TOTAL FREE ENERGY PREDICTED BY IDOCK:   -7.98 KCAL/MOL
REMARK 923 INTER-LIGAND FREE ENERGY PREDICTED BY IDOCK:   -7.55 KCAL/MOL
REMARK 924 INTRA-LIGAND FREE ENERGY PREDICTED BY IDOCK:   -0.43 KCAL/MOL
REMARK 927      BINDING AFFINITY PREDICTED BY RF-SCORE:    0.00 PKD
ROOT
HETATM    1  C   UNL     1     -11.154   6.162  70.772  1.00  0.00    -0.375 C  
HETATM    2  C   UNL     1      -9.997   5.378  70.979  1.00  0.00    -0.261 C  
HETATM    3  C   UNL     1      -9.774   6.850  70.949  1.00  0.00    -0.183 C  
HETATM    4  C   UNL     1     -11.456   8.038  71.048  1.00  0.00    -0.279 C  
HETATM    5  C   UNL     1     -11.101   6.814  69.038  1.00  0.00    -0.254 C  
HETATM    6  C   UNL     1     -10.777   5.748  67.924  1.00  0.00    -0.295 C  
HETATM    7  C   UNL     1     -10.693   7.539  72.071  1.00  0.00    -0.264 C  
HETATM    8  C   UNL     1     -10.341   6.282  66.503  1.00  0.00    -0.165 C  
HETATM    9  C   UNL     1      -9.442   8.878  71.568  1.00  0.00    -0.347 C  
HETATM   10  C   UNL     1      -9.715   7.676  66.459  1.00  0.00    -0.251 C  
HETATM   11  C   UNL     1      -8.547   8.022  65.877  1.00  0.00    -0.171 C  
HETATM   12  C   UNL     1      -7.976   9.404  66.037  1.00  0.00    -0.110 C  
HETATM   13  C   UNL     1      -8.831  10.495  66.655  1.00  0.00    -0.145 C  
HETATM   14  C   UNL     1     -10.238  10.100  67.019  1.00  0.00    -0.290 C  
HETATM   15  C   UNL     1      -9.557   9.225  69.885  1.00  0.00    -0.217 C  
HETATM   16  C   UNL     1     -10.070   8.126  68.764  1.00  0.00    -0.211 C  
HETATM   17  C   UNL     1     -10.457   8.641  67.357  1.00  0.00    -0.351 C  
ENDROOT
BRANCH   4  18
HETATM   18  O   UNL     1     -11.593   9.445  71.501  1.00  0.00    -0.346 OA 
BRANCH  18  19
HETATM   19  C   UNL     1     -12.516  10.283  70.969  1.00  0.00    -0.384 C  
HETATM   20  O   UNL     1     -12.647  10.529  69.778  1.00  0.00    -0.202 OA 
HETATM   21  C   UNL     1     -13.255  11.010  72.069  1.00  0.00    -0.447 C  
ENDBRANCH  18  19
ENDBRANCH   4  18
BRANCH   4  22
HETATM   22  C   UNL     1     -12.918   7.570  71.333  1.00  0.00    -0.379 C  
HETATM   23  C   UNL     1     -14.043   7.260  71.626  1.00  0.00    -0.522 C  
ENDBRANCH   4  22
BRANCH   7  24
HETATM   24  C   UNL     1     -10.767   7.351  73.565  1.00  0.00    -0.347 C  
HETATM   25  C   UNL     1      -9.571   6.743  74.265  1.00  0.00    -0.305 C  
ENDBRANCH   7  24
BRANCH  12  26
HETATM   26  N   UNL     1      -6.743   9.652  65.673  1.00  0.00    -0.083 NA 
HETATM   27  O   UNL     1      -6.641  10.924  65.066  1.00  0.00    -0.362 OA 
HETATM   28  H   UNL     1      -5.746  11.104  64.802  1.00  0.00     0.000 HD 
HETATM   29  H   UNL     1      -5.961   9.011  65.808  1.00  0.00     0.000 HD 
ENDBRANCH  12  26
TORSDOF 5
ENDMDL
MODEL        6
REMARK 921   NORMALIZED FREE ENERGY PREDICTED BY IDOCK:   -5.76 KCAL/MOL
REMARK 922        TOTAL FREE ENERGY PREDICTED BY IDOCK:   -7.86 KCAL/MOL
REMARK 923 INTER-LIGAND FREE ENERGY PREDICTED BY IDOCK:   -7.40 KCAL/MOL
REMARK 924 INTRA-LIGAND FREE ENERGY PREDICTED BY IDOCK:   -0.46 KCAL/MOL
REMARK 927      BINDING AFFINITY PREDICTED BY RF-SCORE:    0.00 PKD
ROOT
HETATM    1  C   UNL     1      -9.899   9.160  70.914  1.00  0.00    -0.359 C  
HETATM    2  C   UNL     1     -10.644  10.042  70.101  1.00  0.00    -0.350 C  
HETATM    3  C   UNL     1     -11.130   8.635  70.128  1.00  0.00    -0.199 C  
HETATM    4  C   UNL     1     -10.334   7.414  71.587  1.00  0.00    -0.196 C  
HETATM    5  C   UNL     1      -8.896   8.065  69.804  1.00  0.00    -0.144 C  
HETATM    6  C   UNL     1      -8.094   8.806  68.669  1.00  0.00    -0.116 C  
HETATM    7  C   UNL     1     -11.440   8.221  71.647  1.00  0.00    -0.333 C  
HETATM    8  C   UNL     1      -7.542   7.935  67.473  1.00  0.00    -0.105 C  
HETATM    9  C   UNL     1     -12.271   6.878  70.591  1.00  0.00    -0.311 C  
HETATM   10  C   UNL     1      -8.274   6.624  67.187  1.00  0.00    -0.113 C  
HETATM   11  C   UNL     1      -8.754   6.208  65.996  1.00  0.00    -0.157 C  
HETATM   12  C   UNL     1      -9.588   4.960  65.885  1.00  0.00    -0.175 C  
HETATM   13  C   UNL     1      -9.692   4.026  67.076  1.00  0.00    -0.214 C  
HETATM   14  C   UNL     1      -8.886   4.416  68.288  1.00  0.00    -0.128 C  
HETATM   15  C   UNL     1     -11.116   6.079  69.594  1.00  0.00    -0.474 C  
HETATM   16  C   UNL     1      -9.728   6.796  69.057  1.00  0.00    -0.145 C  
HETATM   17  C   UNL     1      -8.618   5.895  68.467  1.00  0.00    -0.110 C  
ENDROOT
BRANCH   4  18
HETATM   18  O   UNL     1     -10.891   6.178  72.190  1.00  0.00    -0.226 OA 
BRANCH  18  19
HETATM   19  C   UNL     1     -10.094   5.195  72.675  1.00  0.00    -0.177 C  
HETATM   20  O   UNL     1      -9.169   4.670  72.071  1.00  0.00    -0.128 OA 
HETATM   21  C   UNL     1     -10.615   4.710  74.008  1.00  0.00    -0.346 C  
ENDBRANCH  18  19
ENDBRANCH   4  18
BRANCH   4  22
HETATM   22  C   UNL     1      -9.418   7.849  72.774  1.00  0.00    -0.304 C  
HETATM   23  C   UNL     1      -8.656   8.120  73.664  1.00  0.00    -0.312 C  
ENDBRANCH   4  22
BRANCH   7  24
HETATM   24  C   UNL     1     -12.375   8.803  72.678  1.00  0.00    -0.254 C  
HETATM   25  C   UNL     1     -13.521   9.662  72.193  1.00  0.00    -0.516 C  
ENDBRANCH   7  24
BRANCH  12  26
HETATM   26  N   UNL     1     -10.239   4.702  64.779  1.00  0.00    -0.407 NA 
HETATM   27  O   UNL     1     -11.623   4.562  65.027  1.00  0.00    -1.101 OA 
HETATM   28  H   UNL     1     -12.095   4.374  64.225  1.00  0.00     0.000 HD 
HETATM   29  H   UNL     1      -9.804   4.612  63.860  1.00  0.00     0.000 HD 
ENDBRANCH  12  26
TORSDOF 5
ENDMDL
MODEL        7
REMARK 921   NORMALIZED FREE ENERGY PREDICTED BY IDOCK:   -5.68 KCAL/MOL
REMARK 922        TOTAL FREE ENERGY PREDICTED BY IDOCK:   -7.76 KCAL/MOL
REMARK 923 INTER-LIGAND FREE ENERGY PREDICTED BY IDOCK:   -7.30 KCAL/MOL
REMARK 924 INTRA-LIGAND FREE ENERGY PREDICTED BY IDOCK:   -0.46 KCAL/MOL
REMARK 927      BINDING AFFINITY PREDICTED BY RF-SCORE:    0.00 PKD
ROOT
HETATM    1  C   UNL     1     -10.326   9.861  70.249  1.00  0.00    -0.339 C  
HETATM    2  C   UNL     1     -11.666   9.475  70.473  1.00  0.00    -0.285 C  
HETATM    3  C   UNL     1     -11.106   9.097  69.146  1.00  0.00     0.036 C  
HETATM    4  C   UNL     1      -9.064   9.278  68.923  1.00  0.00    -0.139 C  
HETATM    5  C   UNL     1     -10.330  11.289  69.068  1.00  0.00    -0.189 C  
HETATM    6  C   UNL     1     -11.337  12.450  69.415  1.00  0.00    -0.286 C  
HETATM    7  C   UNL     1      -9.790   8.206  69.371  1.00  0.00    -0.182 C  
HETATM    8  C   UNL     1     -11.671  13.494  68.278  1.00  0.00    -0.394 C  
HETATM    9  C   UNL     1     -10.244   7.961  67.543  1.00  0.00    -0.308 C  
HETATM   10  C   UNL     1     -11.493  13.017  66.837  1.00  0.00    -0.387 C  
HETATM   11  C   UNL     1     -12.398  13.097  65.839  1.00  0.00    -0.462 C  
HETATM   12  C   UNL     1     -12.145  12.452  64.504  1.00  0.00    -0.417 C  
HETATM   13  C   UNL     1     -10.762  11.912  64.189  1.00  0.00    -0.402 C  
HETATM   14  C   UNL     1      -9.717  12.120  65.253  1.00  0.00    -0.159 C  
HETATM   15  C   UNL     1     -10.254   9.466  66.706  1.00  0.00    -0.320 C  
HETATM   16  C   UNL     1     -10.573  10.911  67.438  1.00  0.00    -0.285 C  
HETATM   17  C   UNL     1     -10.222  12.212  66.678  1.00  0.00    -0.223 C  
ENDROOT
BRANCH   4  18
HETATM   18  O   UNL     1      -8.153   8.587  67.977  1.00  0.00    -0.113 OA 
BRANCH  18  19
HETATM   19  C   UNL     1      -7.055   9.195  67.465  1.00  0.00    -0.079 C  
HETATM   20  O   UNL     1      -7.010  10.347  67.055  1.00  0.00    -0.085 OA 
HETATM   21  C   UNL     1      -5.932   8.197  67.307  1.00  0.00    -0.050 C  
ENDBRANCH  18  19
ENDBRANCH   4  18
BRANCH   4  22
HETATM   22  C   UNL     1      -8.024   9.594  70.044  1.00  0.00    -0.182 C  
HETATM   23  C   UNL     1      -7.161   9.841  70.843  1.00  0.00     0.036 C  
ENDBRANCH   4  22
BRANCH   7  24
HETATM   24  C   UNL     1      -9.571   6.899  70.091  1.00  0.00    -0.162 C  
HETATM   25  C   UNL     1     -10.781   6.044  70.396  1.00  0.00    -0.358 C  
ENDBRANCH   7  24
BRANCH  12  26
HETATM   26  N   UNL     1     -13.118  12.333  63.637  1.00  0.00    -0.760 NA 
HETATM   27  O   UNL     1     -12.869  11.271  62.738  1.00  0.00    -0.807 OA 
HETATM   28  H   UNL     1     -13.576  11.185  62.109  1.00  0.00     0.000 HD 
HETATM   29  H   UNL     1     -13.946  12.929  63.612  1.00  0.00     0.000 HD 
ENDBRANCH  12  26
TORSDOF 5
ENDMDL
MODEL        8
REMARK 921   NORMALIZED FREE ENERGY PREDICTED BY IDOCK:   -5.64 KCAL/MOL
REMARK 922        TOTAL FREE ENERGY PREDICTED BY IDOCK:   -7.71 KCAL/MOL
REMARK 923 INTER-LIGAND FREE ENERGY PREDICTED BY IDOCK:   -7.54 KCAL/MOL
REMARK 924 INTRA-LIGAND FREE ENERGY PREDICTED BY IDOCK:   -0.17 KCAL/MOL
REMARK 927      BINDING AFFINITY PREDICTED BY RF-SCORE:    0.00 PKD
ROOT
HETATM    1  C   UNL     1     -11.807  14.194  68.559  1.00  0.00    -0.390 C  
HETATM    2  C   UNL     1     -11.426  14.930  69.703  1.00  0.00    -0.325 C  
HETATM    3  C   UNL     1     -10.322  14.207  69.012  1.00  0.00    -0.159 C  
HETATM    4  C   UNL     1     -10.746  13.456  67.138  1.00  0.00    -0.264 C  
HETATM    5  C   UNL     1     -11.783  12.394  69.000  1.00  0.00    -0.372 C  
HETATM    6  C   UNL     1     -12.515  12.018  70.343  1.00  0.00    -0.235 C  
HETATM    7  C   UNL     1     -10.261  14.691  67.483  1.00  0.00    -0.225 C  
HETATM    8  C   UNL     1     -12.212  10.600  70.970  1.00  0.00    -0.498 C  
HETATM    9  C   UNL     1      -8.620  13.780  67.777  1.00  0.00    -0.184 C  
HETATM   10  C   UNL     1     -10.872   9.963  70.603  1.00  0.00    -0.400 C  
HETATM   11  C   UNL     1      -9.952   9.463  71.455  1.00  0.00    -0.230 C  
HETATM   12  C   UNL     1      -8.607   8.999  70.965  1.00  0.00    -0.210 C  
HETATM   13  C   UNL     1      -8.366   8.861  69.473  1.00  0.00    -0.119 C  
HETATM   14  C   UNL     1      -9.545   9.163  68.587  1.00  0.00    -0.157 C  
HETATM   15  C   UNL     1      -8.901  12.150  68.259  1.00  0.00    -0.182 C  
HETATM   16  C   UNL     1     -10.261  11.660  69.058  1.00  0.00    -0.077 C  
HETATM   17  C   UNL     1     -10.560  10.144  69.134  1.00  0.00    -0.247 C  
ENDROOT
BRANCH   4  18
HETATM   18  O   UNL     1      -9.824  13.126  66.023  1.00  0.00    -0.280 OA 
BRANCH  18  19
HETATM   19  C   UNL     1     -10.210  12.353  64.979  1.00  0.00    -0.283 C  
HETATM   20  O   UNL     1     -10.391  12.747  63.835  1.00  0.00    -0.420 OA 
HETATM   21  C   UNL     1     -10.556  10.963  65.459  1.00  0.00    -0.240 C  
ENDBRANCH  18  19
ENDBRANCH   4  18
BRANCH   4  22
HETATM   22  C   UNL     1     -12.032  13.719  66.293  1.00  0.00    -0.462 C  
HETATM   23  C   UNL     1     -12.970  13.957  65.579  1.00  0.00    -0.375 C  
ENDBRANCH   4  22
BRANCH   7  24
HETATM   24  C   UNL     1     -10.061  16.053  66.866  1.00  0.00    -0.266 C  
HETATM   25  C   UNL     1      -9.638  17.188  67.771  1.00  0.00    -0.256 C  
ENDBRANCH   7  24
BRANCH  12  26
HETATM   26  N   UNL     1      -7.649   8.744  71.819  1.00  0.00    -0.278 NA 
HETATM   27  O   UNL     1      -8.164   8.594  73.127  1.00  0.00    -0.409 OA 
HETATM   28  H   UNL     1      -7.468   8.409  73.747  1.00  0.00     0.000 HD 
HETATM   29  H   UNL     1      -6.662   8.665  71.574  1.00  0.00     0.000 HD 
ENDBRANCH  12  26
TORSDOF 5
ENDMDL
MODEL        9
REMARK 921   NORMALIZED FREE ENERGY PREDICTED BY IDOCK:   -5.62 KCAL/MOL
REMARK 922        TOTAL FREE ENERGY PREDICTED BY IDOCK:   -7.68 KCAL/MOL
REMARK 923 INTER-LIGAND FREE ENERGY PREDICTED BY IDOCK:   -7.40 KCAL/MOL
REMARK 924 INTRA-LIGAND FREE ENERGY PREDICTED BY IDOCK:   -0.28 KCAL/MOL
REMARK 927      BINDING AFFINITY PREDICTED BY RF-SCORE:    0.00 PKD
ROOT
HETATM    1  C   UNL     1      -8.624  11.575  67.395  1.00  0.00    -0.145 C  
HETATM    2  C   UNL     1      -8.513  11.413  68.793  1.00  0.00    -0.089 C  
HETATM    3  C   UNL     1      -9.728  12.137  68.329  1.00  0.00    -0.216 C  
HETATM    4  C   UNL     1     -10.135  12.052  66.310  1.00  0.00    -0.222 C  
HETATM    5  C   UNL     1      -8.257  13.346  66.991  1.00  0.00    -0.051 C  
HETATM    6  C   UNL     1      -6.956  13.935  67.656  1.00  0.00    -0.189 C  
HETATM    7  C   UNL     1     -10.534  11.199  67.306  1.00  0.00    -0.263 C  
HETATM    8  C   UNL     1      -6.789  15.505  67.675  1.00  0.00    -0.207 C  
HETATM    9  C   UNL     1     -11.752  12.580  67.772  1.00  0.00    -0.419 C  
HETATM   10  C   UNL     1      -8.074  16.330  67.603  1.00  0.00    -0.161 C  
HETATM   11  C   UNL     1      -8.444  17.328  68.433  1.00  0.00    -0.254 C  
HETATM   12  C   UNL     1      -9.807  17.958  68.336  1.00  0.00    -0.355 C  
HETATM   13  C   UNL     1     -10.689  17.640  67.143  1.00  0.00    -0.203 C  
HETATM   14  C   UNL     1     -10.086  16.734  66.102  1.00  0.00    -0.360 C  
HETATM   15  C   UNL     1     -11.115  14.126  67.361  1.00  0.00    -0.318 C  
HETATM   16  C   UNL     1      -9.497  14.454  67.295  1.00  0.00    -0.215 C  
HETATM   17  C   UNL     1      -9.041  15.754  66.592  1.00  0.00    -0.298 C  
ENDROOT
BRANCH   4  18
HETATM   18  O   UNL     1     -11.426  12.228  65.599  1.00  0.00    -0.340 OA 
BRANCH  18  19
HETATM   19  C   UNL     1     -11.493  12.774  64.360  1.00  0.00    -0.354 C  
HETATM   20  O   UNL     1     -10.929  13.800  64.006  1.00  0.00    -0.228 OA 
HETATM   21  C   UNL     1     -12.507  12.033  63.518  1.00  0.00    -0.654 C  
ENDBRANCH  18  19
ENDBRANCH   4  18
BRANCH   4  22
HETATM   22  C   UNL     1      -9.414  11.165  65.246  1.00  0.00    -0.257 C  
HETATM   23  C   UNL     1      -8.846  10.556  64.379  1.00  0.00    -0.210 C  
ENDBRANCH   4  22
BRANCH   7  24
HETATM   24  C   UNL     1     -11.134   9.824  67.461  1.00  0.00    -0.089 C  
HETATM   25  C   UNL     1     -10.202   8.634  67.421  1.00  0.00    -0.329 C  
ENDBRANCH   7  24
BRANCH  12  26
HETATM   26  N   UNL     1     -10.235  18.748  69.287  1.00  0.00    -0.425 NA 
HETATM   27  O   UNL     1     -10.454  20.056  68.799  1.00  0.00    -0.549 OA 
HETATM   28  H   UNL     1     -10.764  20.629  69.490  1.00  0.00     0.000 HD 
HETATM   29  H   UNL     1     -10.389  18.458  70.253  1.00  0.00     0.000 HD 
ENDBRANCH  12  26
TORSDOF 5
ENDMDL
MODEL       10
REMARK 921   NORMALIZED FREE ENERGY PREDICTED BY IDOCK:   -5.61 KCAL/MOL
REMARK 922        TOTAL FREE ENERGY PREDICTED BY IDOCK:   -7.67 KCAL/MOL
REMARK 923 INTER-LIGAND FREE ENERGY PREDICTED BY IDOCK:   -7.27 KCAL/MOL
REMARK 924 INTRA-LIGAND FREE ENERGY PREDICTED BY IDOCK:   -0.40 KCAL/MOL
REMARK 927      BINDING AFFINITY PREDICTED BY RF-SCORE:    0.00 PKD
ROOT
HETATM    1  C   UNL     1      -9.534  17.234  66.114  1.00  0.00    -0.204 C  
HETATM    2  C   UNL     1     -10.892  17.620  66.164  1.00  0.00     0.052 C  
HETATM    3  C   UNL     1     -10.381  16.925  67.378  1.00  0.00    -0.309 C  
HETATM    4  C   UNL     1      -8.336  16.699  67.517  1.00  0.00    -0.175 C  
HETATM    5  C   UNL     1      -9.469  15.397  65.877  1.00  0.00    -0.369 C  
HETATM    6  C   UNL     1     -10.394  14.830  64.735  1.00  0.00    -0.260 C  
HETATM    7  C   UNL     1      -9.121  17.736  67.951  1.00  0.00    -0.259 C  
HETATM    8  C   UNL     1     -10.683  13.277  64.729  1.00  0.00    -0.393 C  
HETATM    9  C   UNL     1      -9.622  16.553  69.350  1.00  0.00    -0.099 C  
HETATM   10  C   UNL     1     -10.561  12.554  66.071  1.00  0.00    -0.289 C  
HETATM   11  C   UNL     1     -11.477  11.742  66.640  1.00  0.00    -0.337 C  
HETATM   12  C   UNL     1     -11.290  11.213  68.036  1.00  0.00    -0.312 C  
HETATM   13  C   UNL     1      -9.950  11.392  68.725  1.00  0.00    -0.188 C  
HETATM   14  C   UNL     1      -8.875  12.060  67.908  1.00  0.00    -0.174 C  
HETATM   15  C   UNL     1      -9.552  14.915  68.822  1.00  0.00    -0.214 C  
HETATM   16  C   UNL     1      -9.766  14.456  67.250  1.00  0.00    -0.233 C  
HETATM   17  C   UNL     1      -9.347  13.024  66.841  1.00  0.00    -0.241 C  
ENDROOT
BRANCH   4  18
HETATM   18  O   UNL     1      -7.488  16.506  68.719  1.00  0.00    -0.190 OA 
BRANCH  18  19
HETATM   19  C   UNL     1      -6.261  15.935  68.646  1.00  0.00    -0.104 C  
HETATM   20  O   UNL     1      -6.023  14.823  68.196  1.00  0.00    -0.118 OA 
HETATM   21  C   UNL     1      -5.243  16.794  69.361  1.00  0.00    -0.135 C  
ENDBRANCH  18  19
ENDBRANCH   4  18
BRANCH   4  22
HETATM   22  C   UNL     1      -7.258  17.335  66.584  1.00  0.00    -0.278 C  
HETATM   23  C   UNL     1      -6.425  17.895  65.921  1.00  0.00    -0.294 C  
ENDBRANCH   4  22
BRANCH   7  24
HETATM   24  C   UNL     1      -8.972  19.160  68.426  1.00  0.00    -0.392 C  
HETATM   25  C   UNL     1     -10.224  19.996  68.568  1.00  0.00    -0.484 C  
ENDBRANCH   7  24
BRANCH  12  26
HETATM   26  N   UNL     1     -12.284  10.631  68.656  1.00  0.00    -0.814 NA 
HETATM   27  O   UNL     1     -11.811   9.746  69.652  1.00  0.00    -0.452 OA 
HETATM   28  H   UNL     1     -12.533   9.324  70.103  1.00  0.00     0.000 HD 
HETATM   29  H   UNL     1     -13.270  10.793  68.448  1.00  0.00     0.000 HD 
ENDBRANCH  12  26
TORSDOF 5
ENDMDL
MODEL       11
REMARK 921   NORMALIZED FREE ENERGY PREDICTED BY IDOCK:   -5.60 KCAL/MOL
REMARK 922        TOTAL FREE ENERGY PREDICTED BY IDOCK:   -7.66 KCAL/MOL
REMARK 923 INTER-LIGAND FREE ENERGY PREDICTED BY IDOCK:   -7.35 KCAL/MOL
REMARK 924 INTRA-LIGAND FREE ENERGY PREDICTED BY IDOCK:   -0.31 KCAL/MOL
REMARK 927      BINDING AFFINITY PREDICTED BY RF-SCORE:    0.00 PKD
ROOT
HETATM    1  C   UNL     1     -11.613   7.704  72.121  1.00  0.00    -0.354 C  
HETATM    2  C   UNL     1     -12.855   7.265  71.612  1.00  0.00    -0.415 C  
HETATM    3  C   UNL     1     -11.715   7.206  70.655  1.00  0.00    -0.348 C  
HETATM    4  C   UNL     1      -9.830   7.453  71.453  1.00  0.00    -0.185 C  
HETATM    5  C   UNL     1     -11.246   9.365  71.385  1.00  0.00    -0.452 C  
HETATM    6  C   UNL     1     -12.427  10.406  71.444  1.00  0.00    -0.521 C  
HETATM    7  C   UNL     1     -10.552   6.299  71.288  1.00  0.00    -0.285 C  
HETATM    8  C   UNL     1     -12.328  11.679  70.515  1.00  0.00    -0.410 C  
HETATM    9  C   UNL     1     -10.096   6.475  69.452  1.00  0.00    -0.198 C  
HETATM   10  C   UNL     1     -11.463  11.546  69.262  1.00  0.00    -0.370 C  
HETATM   11  C   UNL     1     -11.820  11.845  67.995  1.00  0.00    -0.323 C  
HETATM   12  C   UNL     1     -10.917  11.524  66.835  1.00  0.00    -0.296 C  
HETATM   13  C   UNL     1      -9.490  11.084  67.102  1.00  0.00    -0.181 C  
HETATM   14  C   UNL     1      -9.073  11.053  68.549  1.00  0.00    -0.173 C  
HETATM   15  C   UNL     1      -9.899   8.131  69.024  1.00  0.00    -0.176 C  
HETATM   16  C   UNL     1     -10.680   9.368  69.792  1.00  0.00    -0.250 C  
HETATM   17  C   UNL     1     -10.175  10.811  69.559  1.00  0.00    -0.146 C  
ENDROOT
BRANCH   4  18
HETATM   18  O   UNL     1      -8.517   7.005  70.927  1.00  0.00    -0.131 OA 
BRANCH  18  19
HETATM   19  C   UNL     1      -7.376   7.697  71.165  1.00  0.00    -0.073 C  
HETATM   20  O   UNL     1      -7.247   8.909  71.059  1.00  0.00    -0.078 OA 
HETATM   21  C   UNL     1      -6.229   6.743  71.412  1.00  0.00    -0.041 C  
ENDBRANCH  18  19
ENDBRANCH   4  18
BRANCH   4  22
HETATM   22  C   UNL     1      -9.455   7.513  72.967  1.00  0.00    -0.255 C  
HETATM   23  C   UNL     1      -9.093   7.511  74.114  1.00  0.00    -0.249 C  
ENDBRANCH   4  22
BRANCH   7  24
HETATM   24  C   UNL     1     -10.534   4.864  71.751  1.00  0.00    -0.214 C  
HETATM   25  C   UNL     1     -11.151   4.544  73.094  1.00  0.00    -0.350 C  
ENDBRANCH   7  24
BRANCH  12  26
HETATM   26  N   UNL     1     -11.371  11.598  65.609  1.00  0.00    -0.230 NA 
HETATM   27  O   UNL     1     -12.455  12.501  65.525  1.00  0.00    -0.646 OA 
HETATM   28  H   UNL     1     -12.785  12.555  64.635  1.00  0.00     0.000 HD 
HETATM   29  H   UNL     1     -10.993  11.074  64.820  1.00  0.00     0.000 HD 
ENDBRANCH  12  26
TORSDOF 5
ENDMDL
MODEL       12
REMARK 921   NORMALIZED FREE ENERGY PREDICTED BY IDOCK:   -5.53 KCAL/MOL
REMARK 922        TOTAL FREE ENERGY PREDICTED BY IDOCK:   -7.57 KCAL/MOL
REMARK 923 INTER-LIGAND FREE ENERGY PREDICTED BY IDOCK:   -7.10 KCAL/MOL
REMARK 924 INTRA-LIGAND FREE ENERGY PREDICTED BY IDOCK:   -0.47 KCAL/MOL
REMARK 927      BINDING AFFINITY PREDICTED BY RF-SCORE:    0.00 PKD
ROOT
HETATM    1  C   UNL     1      -9.733   9.835  69.962  1.00  0.00    -0.292 C  
HETATM    2  C   UNL     1     -11.093  10.037  70.284  1.00  0.00    -0.381 C  
HETATM    3  C   UNL     1     -10.840   9.198  69.080  1.00  0.00    -0.131 C  
HETATM    4  C   UNL     1      -8.903   8.550  68.801  1.00  0.00    -0.139 C  
HETATM    5  C   UNL     1      -9.336  10.868  68.476  1.00  0.00    -0.181 C  
HETATM    6  C   UNL     1      -9.817  12.366  68.546  1.00  0.00    -0.156 C  
HETATM    7  C   UNL     1      -9.919   7.951  69.499  1.00  0.00    -0.189 C  
HETATM    8  C   UNL     1      -9.861  13.185  67.196  1.00  0.00    -0.235 C  
HETATM    9  C   UNL     1     -10.607   7.502  67.786  1.00  0.00    -0.274 C  
HETATM   10  C   UNL     1     -10.008  12.375  65.909  1.00  0.00    -0.271 C  
HETATM   11  C   UNL     1     -10.916  12.569  64.929  1.00  0.00    -0.335 C  
HETATM   12  C   UNL     1     -11.045  11.602  63.783  1.00  0.00    -0.420 C  
HETATM   13  C   UNL     1      -9.989  10.530  63.593  1.00  0.00    -0.299 C  
HETATM   14  C   UNL     1      -8.840  10.559  64.567  1.00  0.00    -0.214 C  
HETATM   15  C   UNL     1     -10.155   8.681  66.615  1.00  0.00    -0.364 C  
HETATM   16  C   UNL     1      -9.858  10.263  66.985  1.00  0.00    -0.238 C  
HETATM   17  C   UNL     1      -9.136  11.139  65.934  1.00  0.00    -0.218 C  
ENDROOT
BRANCH   4  18
HETATM   18  O   UNL     1      -8.399   7.380  68.039  1.00  0.00    -0.122 OA 
BRANCH  18  19
HETATM   19  C   UNL     1      -7.176   7.378  67.455  1.00  0.00    -0.093 C  
HETATM   20  O   UNL     1      -6.696   8.301  66.812  1.00  0.00    -0.062 OA 
HETATM   21  C   UNL     1      -6.552   6.005  67.558  1.00  0.00    -0.056 C  
ENDBRANCH  18  19
ENDBRANCH   4  18
BRANCH   4  22
HETATM   22  C   UNL     1      -7.715   8.689  69.805  1.00  0.00    -0.088 C  
HETATM   23  C   UNL     1      -6.796   8.707  70.581  1.00  0.00    -0.045 C  
ENDBRANCH   4  22
BRANCH   7  24
HETATM   24  C   UNL     1     -10.118   6.848  70.507  1.00  0.00    -0.201 C  
HETATM   25  C   UNL     1     -11.526   6.562  70.980  1.00  0.00    -0.392 C  
ENDBRANCH   7  24
BRANCH  12  26
HETATM   26  N   UNL     1     -12.075  11.671  62.979  1.00  0.00    -0.927 NA 
HETATM   27  O   UNL     1     -13.221  12.139  63.661  1.00  0.00    -0.770 OA 
HETATM   28  H   UNL     1     -13.968  12.189  63.077  1.00  0.00     0.000 HD 
HETATM   29  H   UNL     1     -12.054  11.419  61.990  1.00  0.00     0.000 HD 
ENDBRANCH  12  26
TORSDOF 5
ENDMDL
MODEL       13
REMARK 921   NORMALIZED FREE ENERGY PREDICTED BY IDOCK:   -5.51 KCAL/MOL
REMARK 922        TOTAL FREE ENERGY PREDICTED BY IDOCK:   -7.54 KCAL/MOL
REMARK 923 INTER-LIGAND FREE ENERGY PREDICTED BY IDOCK:   -7.12 KCAL/MOL
REMARK 924 INTRA-LIGAND FREE ENERGY PREDICTED BY IDOCK:   -0.42 KCAL/MOL
REMARK 927      BINDING AFFINITY PREDICTED BY RF-SCORE:    0.00 PKD
ROOT
HETATM    1  C   UNL     1      -9.531   9.801  69.676  1.00  0.00    -0.237 C  
HETATM    2  C   UNL     1     -10.835  10.055  70.155  1.00  0.00    -0.365 C  
HETATM    3  C   UNL     1     -10.763   9.347  68.847  1.00  0.00    -0.203 C  
HETATM    4  C   UNL     1      -8.917   8.607  68.302  1.00  0.00    -0.142 C  
HETATM    5  C   UNL     1      -9.195  10.971  68.278  1.00  0.00    -0.165 C  
HETATM    6  C   UNL     1      -9.548  12.480  68.560  1.00  0.00    -0.114 C  
HETATM    7  C   UNL     1      -9.907   8.001  69.031  1.00  0.00    -0.178 C  
HETATM    8  C   UNL     1      -9.654  13.452  67.320  1.00  0.00    -0.234 C  
HETATM    9  C   UNL     1     -10.786   7.802  67.358  1.00  0.00    -0.300 C  
HETATM   10  C   UNL     1      -9.985  12.809  65.974  1.00  0.00    -0.277 C  
HETATM   11  C   UNL     1     -10.963  13.177  65.119  1.00  0.00    -0.317 C  
HETATM   12  C   UNL     1     -11.274  12.361  63.893  1.00  0.00    -0.422 C  
HETATM   13  C   UNL     1     -10.327  11.250  63.480  1.00  0.00    -0.463 C  
HETATM   14  C   UNL     1      -9.094  11.087  64.329  1.00  0.00    -0.116 C  
HETATM   15  C   UNL     1     -10.354   9.077  66.283  1.00  0.00    -0.130 C  
HETATM   16  C   UNL     1      -9.900  10.581  66.791  1.00  0.00    -0.237 C  
HETATM   17  C   UNL     1      -9.214  11.523  65.774  1.00  0.00    -0.210 C  
ENDROOT
BRANCH   4  18
HETATM   18  O   UNL     1      -8.581   7.503  67.369  1.00  0.00    -0.118 OA 
BRANCH  18  19
HETATM   19  C   UNL     1      -7.461   7.525  66.607  1.00  0.00    -0.092 C  
HETATM   20  O   UNL     1      -7.098   8.460  65.906  1.00  0.00    -0.070 OA 
HETATM   21  C   UNL     1      -6.805   6.163  66.603  1.00  0.00    -0.062 C  
ENDBRANCH  18  19
ENDBRANCH   4  18
BRANCH   4  22
HETATM   22  C   UNL     1      -7.633   8.548  69.189  1.00  0.00    -0.089 C  
HETATM   23  C   UNL     1      -6.608   8.449  69.810  1.00  0.00    -0.039 C  
ENDBRANCH   4  22
BRANCH   7  24
HETATM   24  C   UNL     1     -10.097   6.804  69.927  1.00  0.00    -0.195 C  
HETATM   25  C   UNL     1     -11.495   6.494  70.413  1.00  0.00    -0.465 C  
ENDBRANCH   7  24
BRANCH  12  26
HETATM   26  N   UNL     1     -12.366  12.592  63.210  1.00  0.00    -0.772 NA 
HETATM   27  O   UNL     1     -12.523  13.974  62.958  1.00  0.00    -1.101 OA 
HETATM   28  H   UNL     1     -13.316  14.142  62.463  1.00  0.00     0.000 HD 
HETATM   29  H   UNL     1     -13.018  11.871  62.901  1.00  0.00     0.000 HD 
ENDBRANCH  12  26
TORSDOF 5
ENDMDL
MODEL       14
REMARK 921   NORMALIZED FREE ENERGY PREDICTED BY IDOCK:   -5.47 KCAL/MOL
REMARK 922        TOTAL FREE ENERGY PREDICTED BY IDOCK:   -7.48 KCAL/MOL
REMARK 923 INTER-LIGAND FREE ENERGY PREDICTED BY IDOCK:   -7.05 KCAL/MOL
REMARK 924 INTRA-LIGAND FREE ENERGY PREDICTED BY IDOCK:   -0.43 KCAL/MOL
REMARK 927      BINDING AFFINITY PREDICTED BY RF-SCORE:    0.00 PKD
ROOT
HETATM    1  C   UNL     1      -8.696   7.666  69.108  1.00  0.00    -0.139 C  
HETATM    2  C   UNL     1      -7.578   8.521  68.997  1.00  0.00    -0.094 C  
HETATM    3  C   UNL     1      -8.342   8.631  70.271  1.00  0.00    -0.129 C  
HETATM    4  C   UNL     1      -9.724   7.147  70.645  1.00  0.00    -0.175 C  
HETATM    5  C   UNL     1     -10.225   8.692  68.905  1.00  0.00    -0.221 C  
HETATM    6  C   UNL     1     -10.222   9.674  67.673  1.00  0.00    -0.267 C  
HETATM    7  C   UNL     1      -8.393   7.188  70.972  1.00  0.00    -0.124 C  
HETATM    8  C   UNL     1     -11.296  10.832  67.655  1.00  0.00    -0.328 C  
HETATM    9  C   UNL     1      -8.935   8.412  72.321  1.00  0.00    -0.303 C  
HETATM   10  C   UNL     1     -11.842  11.279  69.011  1.00  0.00    -0.421 C  
HETATM   11  C   UNL     1     -11.904  12.542  69.483  1.00  0.00    -0.375 C  
HETATM   12  C   UNL     1     -12.329  12.825  70.899  1.00  0.00    -0.265 C  
HETATM   13  C   UNL     1     -12.926  11.707  71.734  1.00  0.00    -0.483 C  
HETATM   14  C   UNL     1     -13.092  10.383  71.036  1.00  0.00    -0.450 C  
HETATM   15  C   UNL     1     -10.331   9.292  71.828  1.00  0.00    -0.204 C  
HETATM   16  C   UNL     1     -10.696   9.606  70.248  1.00  0.00    -0.335 C  
HETATM   17  C   UNL     1     -12.124  10.094  69.908  1.00  0.00    -0.102 C  
ENDROOT
BRANCH   4  18
HETATM   18  O   UNL     1     -10.287   6.686  71.938  1.00  0.00    -0.198 OA 
BRANCH  18  19
HETATM   19  C   UNL     1     -11.560   6.235  72.046  1.00  0.00    -0.322 C  
HETATM   20  O   UNL     1     -12.533   6.716  71.482  1.00  0.00    -0.344 OA 
HETATM   21  C   UNL     1     -11.643   5.155  73.101  1.00  0.00    -0.281 C  
ENDBRANCH  18  19
ENDBRANCH   4  18
BRANCH   4  22
HETATM   22  C   UNL     1      -9.927   5.830  69.832  1.00  0.00    -0.254 C  
HETATM   23  C   UNL     1     -10.045   4.771  69.274  1.00  0.00    -0.217 C  
ENDBRANCH   4  22
BRANCH   7  24
HETATM   24  C   UNL     1      -7.303   6.258  71.442  1.00  0.00    -0.085 C  
HETATM   25  C   UNL     1      -5.969   6.861  71.821  1.00  0.00    -0.037 C  
ENDBRANCH   7  24
BRANCH  12  26
HETATM   26  N   UNL     1     -12.157  14.018  71.410  1.00  0.00    -0.398 NA 
HETATM   27  O   UNL     1     -11.118  14.708  70.746  1.00  0.00    -0.501 OA 
HETATM   28  H   UNL     1     -10.994  15.574  71.117  1.00  0.00     0.000 HD 
HETATM   29  H   UNL     1     -12.701  14.398  72.185  1.00  0.00     0.000 HD 
ENDBRANCH  12  26
TORSDOF 5
ENDMDL
MODEL       15
REMARK 921   NORMALIZED FREE ENERGY PREDICTED BY IDOCK:   -5.40 KCAL/MOL
REMARK 922        TOTAL FREE ENERGY PREDICTED BY IDOCK:   -7.40 KCAL/MOL
REMARK 923 INTER-LIGAND FREE ENERGY PREDICTED BY IDOCK:   -7.10 KCAL/MOL
REMARK 924 INTRA-LIGAND FREE ENERGY PREDICTED BY IDOCK:   -0.30 KCAL/MOL
REMARK 927      BINDING AFFINITY PREDICTED BY RF-SCORE:    0.00 PKD
ROOT
HETATM    1  C   UNL     1      -8.735  11.612  66.930  1.00  0.00    -0.185 C  
HETATM    2  C   UNL     1      -8.802  10.500  66.063  1.00  0.00    -0.179 C  
HETATM    3  C   UNL     1     -10.114  11.012  66.545  1.00  0.00    -0.270 C  
HETATM    4  C   UNL     1     -10.097  12.851  67.477  1.00  0.00    -0.214 C  
HETATM    5  C   UNL     1      -9.114  11.025  68.647  1.00  0.00    -0.174 C  
HETATM    6  C   UNL     1      -8.331   9.739  69.109  1.00  0.00    -0.137 C  
HETATM    7  C   UNL     1     -10.246  12.561  66.146  1.00  0.00    -0.269 C  
HETATM    8  C   UNL     1      -8.871   8.969  70.378  1.00  0.00    -0.228 C  
HETATM    9  C   UNL     1     -12.003  12.026  66.630  1.00  0.00    -0.082 C  
HETATM   10  C   UNL     1     -10.354   9.143  70.704  1.00  0.00    -0.306 C  
HETATM   11  C   UNL     1     -11.256   8.163  70.925  1.00  0.00    -0.286 C  
HETATM   12  C   UNL     1     -12.719   8.473  71.089  1.00  0.00    -0.110 C  
HETATM   13  C   UNL     1     -13.161   9.915  71.249  1.00  0.00    -0.487 C  
HETATM   14  C   UNL     1     -12.058  10.940  71.282  1.00  0.00    -0.322 C  
HETATM   15  C   UNL     1     -12.043  11.443  68.250  1.00  0.00    -0.079 C  
HETATM   16  C   UNL     1     -10.745  10.751  69.000  1.00  0.00    -0.265 C  
HETATM   17  C   UNL     1     -10.789  10.583  70.537  1.00  0.00    -0.066 C  
ENDROOT
BRANCH   4  18
HETATM   18  O   UNL     1     -11.196  13.835  67.644  1.00  0.00    -0.275 OA 
BRANCH  18  19
HETATM   19  C   UNL     1     -11.277  14.642  68.730  1.00  0.00    -0.267 C  
HETATM   20  O   UNL     1     -11.343  14.264  69.891  1.00  0.00    -0.253 OA 
HETATM   21  C   UNL     1     -11.450  16.080  68.298  1.00  0.00    -0.291 C  
ENDBRANCH  18  19
ENDBRANCH   4  18
BRANCH   4  22
HETATM   22  C   UNL     1      -8.895  13.843  67.571  1.00  0.00    -0.196 C  
HETATM   23  C   UNL     1      -8.027  14.673  67.629  1.00  0.00    -0.193 C  
ENDBRANCH   4  22
BRANCH   7  24
HETATM   24  C   UNL     1     -10.204  13.263  64.812  1.00  0.00    -0.323 C  
HETATM   25  C   UNL     1     -10.836  12.572  63.625  1.00  0.00    -0.486 C  
ENDBRANCH   7  24
BRANCH  12  26
HETATM   26  N   UNL     1     -13.601   7.506  71.064  1.00  0.00    -0.624 NA 
HETATM   27  O   UNL     1     -13.696   6.874  72.325  1.00  0.00    -0.533 OA 
HETATM   28  H   UNL     1     -14.337   6.173  72.306  1.00  0.00     0.000 HD 
HETATM   29  H   UNL     1     -14.148   7.244  70.243  1.00  0.00     0.000 HD 
ENDBRANCH  12  26
TORSDOF 5
ENDMDL
MODEL       16
REMARK 921   NORMALIZED FREE ENERGY PREDICTED BY IDOCK:   -5.37 KCAL/MOL
REMARK 922        TOTAL FREE ENERGY PREDICTED BY IDOCK:   -7.36 KCAL/MOL
REMARK 923 INTER-LIGAND FREE ENERGY PREDICTED BY IDOCK:   -7.06 KCAL/MOL
REMARK 924 INTRA-LIGAND FREE ENERGY PREDICTED BY IDOCK:   -0.30 KCAL/MOL
REMARK 927      BINDING AFFINITY PREDICTED BY RF-SCORE:    0.00 PKD
ROOT
HETATM    1  C   UNL     1     -10.928  14.349  65.810  1.00  0.00    -0.314 C  
HETATM    2  C   UNL     1     -12.305  14.104  65.618  1.00  0.00    -0.473 C  
HETATM    3  C   UNL     1     -11.761  13.685  66.940  1.00  0.00    -0.423 C  
HETATM    4  C   UNL     1      -9.876  14.373  67.417  1.00  0.00    -0.224 C  
HETATM    5  C   UNL     1     -10.037  12.727  65.704  1.00  0.00    -0.281 C  
HETATM    6  C   UNL     1     -10.415  11.828  64.468  1.00  0.00    -0.352 C  
HETATM    7  C   UNL     1     -11.093  14.958  67.653  1.00  0.00    -0.315 C  
HETATM    8  C   UNL     1      -9.999  10.305  64.515  1.00  0.00    -0.359 C  
HETATM    9  C   UNL     1     -11.265  13.657  69.027  1.00  0.00    -0.316 C  
HETATM   10  C   UNL     1      -9.809   9.691  65.901  1.00  0.00    -0.358 C  
HETATM   11  C   UNL     1     -10.367   8.553  66.368  1.00  0.00    -0.081 C  
HETATM   12  C   UNL     1     -10.212   8.142  67.806  1.00  0.00    -0.228 C  
HETATM   13  C   UNL     1      -9.221   8.878  68.688  1.00  0.00    -0.137 C  
HETATM   14  C   UNL     1      -8.417   9.958  68.012  1.00  0.00    -0.117 C  
HETATM   15  C   UNL     1     -10.406  12.221  68.623  1.00  0.00    -0.204 C  
HETATM   16  C   UNL     1     -10.128  11.734  67.069  1.00  0.00    -0.232 C  
HETATM   17  C   UNL     1      -9.069  10.634  66.824  1.00  0.00    -0.167 C  
ENDROOT
BRANCH   4  18
HETATM   18  O   UNL     1      -9.247  14.554  68.749  1.00  0.00    -0.192 OA 
BRANCH  18  19
HETATM   19  C   UNL     1      -7.913  14.408  68.938  1.00  0.00    -0.109 C  
HETATM   20  O   UNL     1      -7.258  13.422  68.629  1.00  0.00    -0.101 OA 
HETATM   21  C   UNL     1      -7.371  15.564  69.745  1.00  0.00    -0.096 C  
ENDBRANCH  18  19
ENDBRANCH   4  18
BRANCH   4  22
HETATM   22  C   UNL     1      -9.037  15.427  66.629  1.00  0.00    -0.310 C  
HETATM   23  C   UNL     1      -8.347  16.257  66.098  1.00  0.00    -0.260 C  
ENDBRANCH   4  22
BRANCH   7  24
HETATM   24  C   UNL     1     -11.657  16.298  68.054  1.00  0.00    -0.012 C  
HETATM   25  C   UNL     1     -10.763  17.244  68.824  1.00  0.00    -0.247 C  
ENDBRANCH   7  24
BRANCH  12  26
HETATM   26  N   UNL     1     -10.947   7.176  68.296  1.00  0.00    -0.457 NA 
HETATM   27  O   UNL     1     -11.571   6.440  67.263  1.00  0.00    -0.695 OA 
HETATM   28  H   UNL     1     -12.105   5.740  67.618  1.00  0.00     0.000 HD 
HETATM   29  H   UNL     1     -11.057   6.981  69.292  1.00  0.00     0.000 HD 
ENDBRANCH  12  26
TORSDOF 5
ENDMDL
MODEL       17
REMARK 921   NORMALIZED FREE ENERGY PREDICTED BY IDOCK:   -5.35 KCAL/MOL
REMARK 922        TOTAL FREE ENERGY PREDICTED BY IDOCK:   -7.33 KCAL/MOL
REMARK 923 INTER-LIGAND FREE ENERGY PREDICTED BY IDOCK:   -7.09 KCAL/MOL
REMARK 924 INTRA-LIGAND FREE ENERGY PREDICTED BY IDOCK:   -0.25 KCAL/MOL
REMARK 927      BINDING AFFINITY PREDICTED BY RF-SCORE:    0.00 PKD
ROOT
HETATM    1  C   UNL     1      -9.574   9.788  65.513  1.00  0.00    -0.348 C  
HETATM    2  C   UNL     1      -8.720  10.456  64.609  1.00  0.00    -0.198 C  
HETATM    3  C   UNL     1      -8.568  10.847  66.038  1.00  0.00    -0.179 C  
HETATM    4  C   UNL     1      -9.494   9.636  67.426  1.00  0.00    -0.142 C  
HETATM    5  C   UNL     1     -10.891  10.979  66.044  1.00  0.00    -0.189 C  
HETATM    6  C   UNL     1     -11.597  11.770  64.879  1.00  0.00    -0.226 C  
HETATM    7  C   UNL     1      -8.231   9.537  66.902  1.00  0.00    -0.113 C  
HETATM    8  C   UNL     1     -12.435  13.052  65.265  1.00  0.00    -0.555 C  
HETATM    9  C   UNL     1      -7.823  11.000  68.044  1.00  0.00    -0.112 C  
HETATM   10  C   UNL     1     -12.049  13.754  66.567  1.00  0.00    -0.483 C  
HETATM   11  C   UNL     1     -11.781  15.067  66.730  1.00  0.00    -0.161 C  
HETATM   12  C   UNL     1     -11.267  15.600  68.040  1.00  0.00    -0.339 C  
HETATM   13  C   UNL     1     -11.278  14.703  69.264  1.00  0.00    -0.306 C  
HETATM   14  C   UNL     1     -11.866  13.331  69.067  1.00  0.00    -0.365 C  
HETATM   15  C   UNL     1      -9.211  11.988  68.296  1.00  0.00    -0.192 C  
HETATM   16  C   UNL     1     -10.439  12.127  67.201  1.00  0.00    -0.241 C  
HETATM   17  C   UNL     1     -11.772  12.756  67.669  1.00  0.00    -0.422 C  
ENDROOT
BRANCH   4  18
HETATM   18  O   UNL     1      -9.185   9.442  68.865  1.00  0.00    -0.136 OA 
BRANCH  18  19
HETATM   19  C   UNL     1     -10.159   9.363  69.803  1.00  0.00    -0.211 C  
HETATM   20  O   UNL     1     -11.305   9.770  69.671  1.00  0.00    -0.212 OA 
HETATM   21  C   UNL     1      -9.587   8.856  71.107  1.00  0.00    -0.342 C  
ENDBRANCH  18  19
ENDBRANCH   4  18
BRANCH   4  22
HETATM   22  C   UNL     1     -10.180   8.260  67.158  1.00  0.00    -0.365 C  
HETATM   23  C   UNL     1     -10.786   7.237  66.978  1.00  0.00    -0.406 C  
ENDBRANCH   4  22
BRANCH   7  24
HETATM   24  C   UNL     1      -7.104   8.539  66.819  1.00  0.00    -0.074 C  
HETATM   25  C   UNL     1      -5.881   8.914  66.012  1.00  0.00    -0.051 C  
ENDBRANCH   7  24
BRANCH  12  26
HETATM   26  N   UNL     1     -10.790  16.817  68.112  1.00  0.00    -0.360 NA 
HETATM   27  O   UNL     1     -10.803  17.288  69.444  1.00  0.00    -0.358 OA 
HETATM   28  H   UNL     1     -10.457  18.171  69.496  1.00  0.00     0.000 HD 
HETATM   29  H   UNL     1     -10.453  17.354  67.312  1.00  0.00     0.000 HD 
ENDBRANCH  12  26
TORSDOF 5
ENDMDL
MODEL       18
REMARK 921   NORMALIZED FREE ENERGY PREDICTED BY IDOCK:   -5.34 KCAL/MOL
REMARK 922        TOTAL FREE ENERGY PREDICTED BY IDOCK:   -7.33 KCAL/MOL
REMARK 923 INTER-LIGAND FREE ENERGY PREDICTED BY IDOCK:   -7.04 KCAL/MOL
REMARK 924 INTRA-LIGAND FREE ENERGY PREDICTED BY IDOCK:   -0.29 KCAL/MOL
REMARK 927      BINDING AFFINITY PREDICTED BY RF-SCORE:    0.00 PKD
ROOT
HETATM    1  C   UNL     1      -8.725   6.585  67.165  1.00  0.00    -0.111 C  
HETATM    2  C   UNL     1      -9.805   5.999  66.469  1.00  0.00    -0.186 C  
HETATM    3  C   UNL     1     -10.048   7.376  66.982  1.00  0.00    -0.328 C  
HETATM    4  C   UNL     1      -8.395   8.415  67.645  1.00  0.00    -0.130 C  
HETATM    5  C   UNL     1      -9.137   6.583  68.972  1.00  0.00    -0.132 C  
HETATM    6  C   UNL     1      -9.669   5.214  69.542  1.00  0.00    -0.262 C  
HETATM    7  C   UNL     1      -8.928   8.358  66.384  1.00  0.00    -0.207 C  
HETATM    8  C   UNL     1     -10.392   5.236  70.946  1.00  0.00    -0.303 C  
HETATM    9  C   UNL     1     -10.271   9.508  67.081  1.00  0.00    -0.305 C  
HETATM   10  C   UNL     1     -11.030   6.560  71.365  1.00  0.00    -0.303 C  
HETATM   11  C   UNL     1     -12.296   6.749  71.794  1.00  0.00    -0.400 C  
HETATM   12  C   UNL     1     -12.840   8.132  72.033  1.00  0.00    -0.318 C  
HETATM   13  C   UNL     1     -11.890   9.315  72.028  1.00  0.00    -0.370 C  
HETATM   14  C   UNL     1     -10.434   8.988  71.827  1.00  0.00    -0.418 C  
HETATM   15  C   UNL     1     -10.505   9.228  68.764  1.00  0.00    -0.233 C  
HETATM   16  C   UNL     1     -10.218   7.774  69.492  1.00  0.00    -0.207 C  
HETATM   17  C   UNL     1     -10.132   7.732  71.036  1.00  0.00    -0.199 C  
ENDROOT
BRANCH   4  18
HETATM   18  O   UNL     1      -8.186   9.879  67.764  1.00  0.00    -0.113 OA 
BRANCH  18  19
HETATM   19  C   UNL     1      -7.439  10.419  68.758  1.00  0.00    -0.093 C  
HETATM   20  O   UNL     1      -7.541  10.150  69.947  1.00  0.00    -0.152 OA 
HETATM   21  C   UNL     1      -6.574  11.533  68.215  1.00  0.00    -0.061 C  
ENDBRANCH  18  19
ENDBRANCH   4  18
BRANCH   4  22
HETATM   22  C   UNL     1      -6.900   7.988  67.501  1.00  0.00    -0.070 C  
HETATM   23  C   UNL     1      -5.734   7.738  67.350  1.00  0.00    -0.037 C  
ENDBRANCH   4  22
BRANCH   7  24
HETATM   24  C   UNL     1      -8.549   8.707  64.967  1.00  0.00    -0.185 C  
HETATM   25  C   UNL     1      -7.658   9.909  64.745  1.00  0.00    -0.139 C  
ENDBRANCH   7  24
BRANCH  12  26
HETATM   26  N   UNL     1     -14.123   8.310  72.215  1.00  0.00    -0.588 NA 
HETATM   27  O   UNL     1     -14.375   8.958  73.446  1.00  0.00    -1.192 OA 
HETATM   28  H   UNL     1     -15.307   9.088  73.578  1.00  0.00     0.000 HD 
HETATM   29  H   UNL     1     -14.846   8.020  71.557  1.00  0.00     0.000 HD 
ENDBRANCH  12  26
TORSDOF 5
ENDMDL
MODEL       19
REMARK 921   NORMALIZED FREE ENERGY PREDICTED BY IDOCK:   -5.25 KCAL/MOL
REMARK 922        TOTAL FREE ENERGY PREDICTED BY IDOCK:   -7.21 KCAL/MOL
REMARK 923 INTER-LIGAND FREE ENERGY PREDICTED BY IDOCK:   -6.79 KCAL/MOL
REMARK 924 INTRA-LIGAND FREE ENERGY PREDICTED BY IDOCK:   -0.42 KCAL/MOL
REMARK 927      BINDING AFFINITY PREDICTED BY RF-SCORE:    0.00 PKD
ROOT
HETATM    1  C   UNL     1      -7.476   6.684  67.979  1.00  0.00    -0.098 C  
HETATM    2  C   UNL     1      -7.680   5.360  68.427  1.00  0.00    -0.081 C  
HETATM    3  C   UNL     1      -8.915   6.109  68.062  1.00  0.00    -0.113 C  
HETATM    4  C   UNL     1      -8.649   7.879  67.039  1.00  0.00    -0.128 C  
HETATM    5  C   UNL     1      -8.006   7.835  69.331  1.00  0.00    -0.124 C  
HETATM    6  C   UNL     1      -7.450   7.495  70.765  1.00  0.00    -0.076 C  
HETATM    7  C   UNL     1      -8.790   6.609  66.542  1.00  0.00    -0.144 C  
HETATM    8  C   UNL     1      -8.151   8.180  72.004  1.00  0.00    -0.178 C  
HETATM    9  C   UNL     1     -10.626   6.821  66.981  1.00  0.00    -0.405 C  
HETATM   10  C   UNL     1      -9.600   8.624  71.810  1.00  0.00    -0.360 C  
HETATM   11  C   UNL     1     -10.651   8.332  72.607  1.00  0.00    -0.378 C  
HETATM   12  C   UNL     1     -12.054   8.711  72.217  1.00  0.00    -0.373 C  
HETATM   13  C   UNL     1     -12.272   9.642  71.039  1.00  0.00    -0.409 C  
HETATM   14  C   UNL     1     -11.026  10.162  70.372  1.00  0.00    -0.386 C  
HETATM   15  C   UNL     1     -10.818   7.876  68.329  1.00  0.00     0.019 C  
HETATM   16  C   UNL     1      -9.672   8.070  69.502  1.00  0.00    -0.170 C  
HETATM   17  C   UNL     1      -9.800   9.277  70.460  1.00  0.00    -0.310 C  
ENDROOT
BRANCH   4  18
HETATM   18  O   UNL     1      -9.588   8.603  66.147  1.00  0.00    -0.239 OA 
BRANCH  18  19
HETATM   19  C   UNL     1      -9.548   9.951  66.006  1.00  0.00    -0.225 C  
HETATM   20  O   UNL     1      -9.528  10.758  66.924  1.00  0.00    -0.165 OA 
HETATM   21  C   UNL     1      -9.709  10.328  64.551  1.00  0.00    -0.395 C  
ENDBRANCH  18  19
ENDBRANCH   4  18
BRANCH   4  22
HETATM   22  C   UNL     1      -7.312   8.427  66.448  1.00  0.00    -0.083 C  
HETATM   23  C   UNL     1      -6.271   8.895  66.069  1.00  0.00    -0.056 C  
ENDBRANCH   4  22
BRANCH   7  24
HETATM   24  C   UNL     1      -8.589   5.859  65.249  1.00  0.00    -0.119 C  
HETATM   25  C   UNL     1      -9.029   4.414  65.191  1.00  0.00    -0.143 C  
ENDBRANCH   7  24
BRANCH  12  26
HETATM   26  N   UNL     1     -13.073   8.218  72.872  1.00  0.00    -0.542 NA 
HETATM   27  O   UNL     1     -14.038   9.217  73.135  1.00  0.00    -1.104 OA 
HETATM   28  H   UNL     1     -14.778   8.858  73.610  1.00  0.00     0.000 HD 
HETATM   29  H   UNL     1     -13.160   7.242  73.156  1.00  0.00     0.000 HD 
ENDBRANCH  12  26
TORSDOF 5
ENDMDL
MODEL       20
REMARK 921   NORMALIZED FREE ENERGY PREDICTED BY IDOCK:   -5.18 KCAL/MOL
REMARK 922        TOTAL FREE ENERGY PREDICTED BY IDOCK:   -7.11 KCAL/MOL
REMARK 923 INTER-LIGAND FREE ENERGY PREDICTED BY IDOCK:   -6.64 KCAL/MOL
REMARK 924 INTRA-LIGAND FREE ENERGY PREDICTED BY IDOCK:   -0.47 KCAL/MOL
REMARK 927      BINDING AFFINITY PREDICTED BY RF-SCORE:    0.00 PKD
ROOT
HETATM    1  C   UNL     1     -10.624  10.046  70.008  1.00  0.00    -0.344 C  
HETATM    2  C   UNL     1     -11.997   9.719  70.071  1.00  0.00    -0.006 C  
HETATM    3  C   UNL     1     -11.383   9.636  68.717  1.00  0.00     0.089 C  
HETATM    4  C   UNL     1      -9.324   9.712  68.634  1.00  0.00    -0.143 C  
HETATM    5  C   UNL     1     -10.467  11.716  69.220  1.00  0.00    -0.025 C  
HETATM    6  C   UNL     1     -11.418  12.829  69.802  1.00  0.00    -0.199 C  
HETATM    7  C   UNL     1     -10.141   8.620  68.770  1.00  0.00    -0.210 C  
HETATM    8  C   UNL     1     -11.618  14.142  68.947  1.00  0.00    -0.345 C  
HETATM    9  C   UNL     1     -10.498   8.865  66.921  1.00  0.00    -0.304 C  
HETATM   10  C   UNL     1     -11.383  14.020  67.441  1.00  0.00    -0.350 C  
HETATM   11  C   UNL     1     -12.220  14.410  66.456  1.00  0.00    -0.358 C  
HETATM   12  C   UNL     1     -11.927  14.094  65.015  1.00  0.00    -0.408 C  
HETATM   13  C   UNL     1     -10.565  13.545  64.635  1.00  0.00    -0.441 C  
HETATM   14  C   UNL     1      -9.575  13.407  65.762  1.00  0.00    -0.068 C  
HETATM   15  C   UNL     1     -10.363  10.526  66.484  1.00  0.00    -0.294 C  
HETATM   16  C   UNL     1     -10.635  11.768  67.539  1.00  0.00    -0.247 C  
HETATM   17  C   UNL     1     -10.158  13.184  67.141  1.00  0.00    -0.242 C  
ENDROOT
BRANCH   4  18
HETATM   18  O   UNL     1      -8.402   9.206  67.587  1.00  0.00    -0.115 OA 
BRANCH  18  19
HETATM   19  C   UNL     1      -7.217   9.808  67.324  1.00  0.00    -0.086 C  
HETATM   20  O   UNL     1      -7.058  11.003  67.120  1.00  0.00    -0.091 OA 
HETATM   21  C   UNL     1      -6.133   8.769  67.144  1.00  0.00    -0.055 C  
ENDBRANCH  18  19
ENDBRANCH   4  18
BRANCH   4  22
HETATM   22  C   UNL     1      -8.336   9.663  69.842  1.00  0.00    -0.195 C  
HETATM   23  C   UNL     1      -7.574   9.537  70.764  1.00  0.00    -0.099 C  
ENDBRANCH   4  22
BRANCH   7  24
HETATM   24  C   UNL     1     -10.049   7.164  69.151  1.00  0.00    -0.183 C  
HETATM   25  C   UNL     1     -11.337   6.401  69.363  1.00  0.00    -0.443 C  
ENDBRANCH   7  24
BRANCH  12  26
HETATM   26  N   UNL     1     -12.852  14.266  64.104  1.00  0.00    -0.472 NA 
HETATM   27  O   UNL     1     -12.407  13.818  62.840  1.00  0.00    -1.008 OA 
HETATM   28  H   UNL     1     -13.078  13.942  62.179  1.00  0.00     0.000 HD 
HETATM   29  H   UNL     1     -13.772  14.670  64.284  1.00  0.00     0.000 HD 
ENDBRANCH  12  26
TORSDOF 5
ENDMDL
MODEL       21
REMARK 921   NORMALIZED FREE ENERGY PREDICTED BY IDOCK:   -5.17 KCAL/MOL
REMARK 922        TOTAL FREE ENERGY PREDICTED BY IDOCK:   -7.10 KCAL/MOL
REMARK 923 INTER-LIGAND FREE ENERGY PREDICTED BY IDOCK:   -6.88 KCAL/MOL
REMARK 924 INTRA-LIGAND FREE ENERGY PREDICTED BY IDOCK:   -0.22 KCAL/MOL
REMARK 927      BINDING AFFINITY PREDICTED BY RF-SCORE:    0.00 PKD
ROOT
HETATM    1  C   UNL     1      -9.712   9.084  68.266  1.00  0.00    -0.169 C  
HETATM    2  C   UNL     1     -10.910   8.424  67.914  1.00  0.00    -0.037 C  
HETATM    3  C   UNL     1     -10.210   9.115  66.796  1.00  0.00    -0.331 C  
HETATM    4  C   UNL     1      -8.282   9.745  67.167  1.00  0.00    -0.121 C  
HETATM    5  C   UNL     1     -10.043  10.908  68.270  1.00  0.00    -0.189 C  
HETATM    6  C   UNL     1     -11.337  11.358  69.047  1.00  0.00    -0.345 C  
HETATM    7  C   UNL     1      -8.716   8.539  66.682  1.00  0.00    -0.139 C  
HETATM    8  C   UNL     1     -11.885  12.814  68.775  1.00  0.00    -0.346 C  
HETATM    9  C   UNL     1      -9.005   9.483  65.059  1.00  0.00    -0.258 C  
HETATM   10  C   UNL     1     -11.521  13.442  67.430  1.00  0.00    -0.368 C  
HETATM   11  C   UNL     1     -12.369  14.001  66.541  1.00  0.00    -0.442 C  
HETATM   12  C   UNL     1     -11.893  14.449  65.186  1.00  0.00    -0.386 C  
HETATM   13  C   UNL     1     -10.404  14.498  64.899  1.00  0.00    -0.401 C  
HETATM   14  C   UNL     1      -9.501  14.130  66.048  1.00  0.00    -0.189 C  
HETATM   15  C   UNL     1      -9.377  11.136  65.369  1.00  0.00    -0.243 C  
HETATM   16  C   UNL     1     -10.103  11.660  66.757  1.00  0.00    -0.242 C  
HETATM   17  C   UNL     1     -10.076  13.174  67.071  1.00  0.00    -0.241 C  
ENDROOT
BRANCH   4  18
HETATM   18  O   UNL     1      -7.178  10.016  66.213  1.00  0.00    -0.098 OA 
BRANCH  18  19
HETATM   19  C   UNL     1      -6.269  10.998  66.429  1.00  0.00    -0.136 C  
HETATM   20  O   UNL     1      -6.402  11.927  67.214  1.00  0.00    -0.112 OA 
HETATM   21  C   UNL     1      -5.135  10.887  65.436  1.00  0.00    -0.128 C  
ENDBRANCH  18  19
ENDBRANCH   4  18
BRANCH   4  22
HETATM   22  C   UNL     1      -7.416   9.418  68.424  1.00  0.00    -0.078 C  
HETATM   23  C   UNL     1      -6.710   9.101  69.344  1.00  0.00    -0.048 C  
ENDBRANCH   4  22
BRANCH   7  24
HETATM   24  C   UNL     1      -8.190   7.144  66.452  1.00  0.00    -0.120 C  
HETATM   25  C   UNL     1      -9.171   6.078  66.019  1.00  0.00    -0.129 C  
ENDBRANCH   7  24
BRANCH  12  26
HETATM   26  N   UNL     1     -12.759  14.765  64.257  1.00  0.00    -0.666 NA 
HETATM   27  O   UNL     1     -12.311  15.874  63.503  1.00  0.00    -0.919 OA 
HETATM   28  H   UNL     1     -12.940  16.103  62.829  1.00  0.00     0.000 HD 
HETATM   29  H   UNL     1     -13.641  14.276  64.098  1.00  0.00     0.000 HD 
ENDBRANCH  12  26
TORSDOF 5
ENDMDL
MODEL       22
REMARK 921   NORMALIZED FREE ENERGY PREDICTED BY IDOCK:   -5.12 KCAL/MOL
REMARK 922        TOTAL FREE ENERGY PREDICTED BY IDOCK:   -7.04 KCAL/MOL
REMARK 923 INTER-LIGAND FREE ENERGY PREDICTED BY IDOCK:   -6.72 KCAL/MOL
REMARK 924 INTRA-LIGAND FREE ENERGY PREDICTED BY IDOCK:   -0.32 KCAL/MOL
REMARK 927      BINDING AFFINITY PREDICTED BY RF-SCORE:    0.00 PKD
ROOT
HETATM    1  C   UNL     1     -11.419  14.407  65.876  1.00  0.00    -0.341 C  
HETATM    2  C   UNL     1     -12.714  13.849  65.799  1.00  0.00    -0.503 C  
HETATM    3  C   UNL     1     -11.837  13.281  66.860  1.00  0.00    -0.446 C  
HETATM    4  C   UNL     1     -10.103  14.319  67.273  1.00  0.00    -0.252 C  
HETATM    5  C   UNL     1     -10.220  13.172  65.190  1.00  0.00    -0.299 C  
HETATM    6  C   UNL     1     -10.621  12.539  63.804  1.00  0.00    -0.471 C  
HETATM    7  C   UNL     1     -11.350  14.470  67.823  1.00  0.00    -0.335 C  
HETATM    8  C   UNL     1      -9.866  11.228  63.352  1.00  0.00    -0.416 C  
HETATM    9  C   UNL     1     -10.943  12.873  68.768  1.00  0.00    -0.292 C  
HETATM   10  C   UNL     1      -9.269  10.365  64.463  1.00  0.00    -0.287 C  
HETATM   11  C   UNL     1      -9.448   9.039  64.645  1.00  0.00     0.388 C  
HETATM   12  C   UNL     1      -8.920   8.342  65.870  1.00  0.00    -0.178 C  
HETATM   13  C   UNL     1      -7.969   9.080  66.793  1.00  0.00    -0.107 C  
HETATM   14  C   UNL     1      -7.585  10.472  66.365  1.00  0.00    -0.132 C  
HETATM   15  C   UNL     1      -9.876  11.875  67.857  1.00  0.00    -0.190 C  
HETATM   16  C   UNL     1      -9.809  11.885  66.206  1.00  0.00    -0.246 C  
HETATM   17  C   UNL     1      -8.596  11.215  65.518  1.00  0.00    -0.045 C  
ENDROOT
BRANCH   4  18
HETATM   18  O   UNL     1      -9.281  14.330  68.508  1.00  0.00    -0.199 OA 
BRANCH  18  19
HETATM   19  C   UNL     1      -7.945  14.557  68.478  1.00  0.00    -0.142 C  
HETATM   20  O   UNL     1      -7.135  13.932  67.808  1.00  0.00    -0.139 OA 
HETATM   21  C   UNL     1      -7.567  15.581  69.523  1.00  0.00    -0.200 C  
ENDBRANCH  18  19
ENDBRANCH   4  18
BRANCH   4  22
HETATM   22  C   UNL     1      -9.701  15.725  66.725  1.00  0.00    -0.251 C  
HETATM   23  C   UNL     1      -9.373  16.832  66.388  1.00  0.00    -0.305 C  
ENDBRANCH   4  22
BRANCH   7  24
HETATM   24  C   UNL     1     -12.114  15.460  68.665  1.00  0.00    -0.126 C  
HETATM   25  C   UNL     1     -11.430  16.031  69.887  1.00  0.00    -0.327 C  
ENDBRANCH   7  24
BRANCH  12  26
HETATM   26  N   UNL     1      -9.303   7.122  66.147  1.00  0.00    -0.360 NA 
HETATM   27  O   UNL     1     -10.668   7.090  66.512  1.00  0.00    -0.515 OA 
HETATM   28  H   UNL     1     -10.946   6.204  66.713  1.00  0.00     0.000 HD 
HETATM   29  H   UNL     1      -8.696   6.302  66.105  1.00  0.00     0.000 HD 
ENDBRANCH  12  26
TORSDOF 5
ENDMDL
MODEL       23
REMARK 921   NORMALIZED FREE ENERGY PREDICTED BY IDOCK:   -5.10 KCAL/MOL
REMARK 922        TOTAL FREE ENERGY PREDICTED BY IDOCK:   -7.02 KCAL/MOL
REMARK 923 INTER-LIGAND FREE ENERGY PREDICTED BY IDOCK:   -6.59 KCAL/MOL
REMARK 924 INTRA-LIGAND FREE ENERGY PREDICTED BY IDOCK:   -0.43 KCAL/MOL
REMARK 927      BINDING AFFINITY PREDICTED BY RF-SCORE:    0.00 PKD
ROOT
HETATM    1  C   UNL     1      -7.749   9.635  67.998  1.00  0.00    -0.086 C  
HETATM    2  C   UNL     1      -7.761   8.263  67.664  1.00  0.00    -0.099 C  
HETATM    3  C   UNL     1      -9.036   8.992  67.415  1.00  0.00    -0.135 C  
HETATM    4  C   UNL     1      -8.952  11.050  67.507  1.00  0.00    -0.137 C  
HETATM    5  C   UNL     1      -8.730   9.856  69.554  1.00  0.00    -0.200 C  
HETATM    6  C   UNL     1      -8.382   8.855  70.720  1.00  0.00    -0.205 C  
HETATM    7  C   UNL     1      -8.745  10.227  66.431  1.00  0.00    -0.144 C  
HETATM    8  C   UNL     1      -9.414   8.727  71.909  1.00  0.00    -0.362 C  
HETATM    9  C   UNL     1     -10.635  10.031  66.430  1.00  0.00    -0.138 C  
HETATM   10  C   UNL     1     -10.865   9.091  71.597  1.00  0.00    -0.437 C  
HETATM   11  C   UNL     1     -11.960   8.342  71.845  1.00  0.00    -0.383 C  
HETATM   12  C   UNL     1     -13.319   8.759  71.350  1.00  0.00    -0.248 C  
HETATM   13  C   UNL     1     -13.506  10.150  70.775  1.00  0.00    -0.063 C  
HETATM   14  C   UNL     1     -12.290  11.039  70.797  1.00  0.00    -0.496 C  
HETATM   15  C   UNL     1     -11.270  10.198  68.023  1.00  0.00    -0.247 C  
HETATM   16  C   UNL     1     -10.413   9.833  69.386  1.00  0.00    -0.241 C  
HETATM   17  C   UNL     1     -10.948  10.340  70.746  1.00  0.00    -0.213 C  
ENDROOT
BRANCH   4  18
HETATM   18  O   UNL     1      -9.842  12.060  66.883  1.00  0.00    -0.200 OA 
BRANCH  18  19
HETATM   19  C   UNL     1      -9.993  13.302  67.404  1.00  0.00    -0.233 C  
HETATM   20  O   UNL     1     -10.310  13.553  68.558  1.00  0.00    -0.240 OA 
HETATM   21  C   UNL     1      -9.885  14.342  66.312  1.00  0.00    -0.321 C  
ENDBRANCH  18  19
ENDBRANCH   4  18
BRANCH   4  22
HETATM   22  C   UNL     1      -7.668  11.930  67.629  1.00  0.00    -0.141 C  
HETATM   23  C   UNL     1      -6.631  12.533  67.727  1.00  0.00    -0.121 C  
ENDBRANCH   4  22
BRANCH   7  24
HETATM   24  C   UNL     1      -8.172  10.290  65.038  1.00  0.00    -0.154 C  
HETATM   25  C   UNL     1      -8.070   9.002  64.252  1.00  0.00    -0.151 C  
ENDBRANCH   7  24
BRANCH  12  26
HETATM   26  N   UNL     1     -14.319   7.915  71.389  1.00  0.00    -0.617 NA 
HETATM   27  O   UNL     1     -14.078   6.887  72.329  1.00  0.00    -0.574 OA 
HETATM   28  H   UNL     1     -14.804   6.276  72.358  1.00  0.00     0.000 HD 
HETATM   29  H   UNL     1     -15.161   7.990  70.818  1.00  0.00     0.000 HD 
ENDBRANCH  12  26
TORSDOF 5
ENDMDL
MODEL       24
REMARK 921   NORMALIZED FREE ENERGY PREDICTED BY IDOCK:   -5.08 KCAL/MOL
REMARK 922        TOTAL FREE ENERGY PREDICTED BY IDOCK:   -6.99 KCAL/MOL
REMARK 923 INTER-LIGAND FREE ENERGY PREDICTED BY IDOCK:   -7.84 KCAL/MOL
REMARK 924 INTRA-LIGAND FREE ENERGY PREDICTED BY IDOCK:    0.85 KCAL/MOL
REMARK 927      BINDING AFFINITY PREDICTED BY RF-SCORE:    0.00 PKD
ROOT
HETATM    1  C   UNL     1      -9.346  17.753  68.115  1.00  0.00    -0.281 C  
HETATM    2  C   UNL     1      -8.291  17.580  69.037  1.00  0.00    -0.048 C  
HETATM    3  C   UNL     1      -8.469  16.474  68.056  1.00  0.00    -0.186 C  
HETATM    4  C   UNL     1      -9.718  16.853  66.460  1.00  0.00    -0.281 C  
HETATM    5  C   UNL     1     -10.727  16.617  68.603  1.00  0.00    -0.349 C  
HETATM    6  C   UNL     1     -11.124  16.653  70.127  1.00  0.00    -0.077 C  
HETATM    7  C   UNL     1      -8.370  17.075  66.571  1.00  0.00    -0.313 C  
HETATM    8  C   UNL     1     -12.003  15.464  70.683  1.00  0.00    -0.396 C  
HETATM    9  C   UNL     1      -8.211  15.195  66.353  1.00  0.00     0.200 C  
HETATM   10  C   UNL     1     -11.918  14.139  69.927  1.00  0.00    -0.398 C  
HETATM   11  C   UNL     1     -11.669  12.921  70.452  1.00  0.00    -0.109 C  
HETATM   12  C   UNL     1     -11.465  11.719  69.570  1.00  0.00    -0.295 C  
HETATM   13  C   UNL     1     -11.780  11.821  68.090  1.00  0.00    -0.377 C  
HETATM   14  C   UNL     1     -12.333  13.142  67.625  1.00  0.00     0.047 C  
HETATM   15  C   UNL     1      -9.600  14.386  66.972  1.00  0.00    -0.251 C  
HETATM   16  C   UNL     1     -10.534  14.988  68.193  1.00  0.00    -0.245 C  
HETATM   17  C   UNL     1     -11.927  14.358  68.430  1.00  0.00    -0.328 C  
ENDROOT
BRANCH   4  18
HETATM   18  O   UNL     1      -9.758  16.215  65.120  1.00  0.00    -0.346 OA 
BRANCH  18  19
HETATM   19  C   UNL     1     -10.925  15.975  64.475  1.00  0.00    -0.159 C  
HETATM   20  O   UNL     1     -11.658  16.829  63.995  1.00  0.00    -1.195 OA 
HETATM   21  C   UNL     1     -11.288  14.512  64.581  1.00  0.00    -0.372 C  
ENDBRANCH  18  19
ENDBRANCH   4  18
BRANCH   4  22
HETATM   22  C   UNL     1     -10.350  18.227  66.071  1.00  0.00    -0.377 C  
HETATM   23  C   UNL     1     -10.858  19.296  65.858  1.00  0.00    -0.364 C  
ENDBRANCH   4  22
BRANCH   7  24
HETATM   24  C   UNL     1      -7.275  17.832  65.863  1.00  0.00    -0.260 C  
HETATM   25  C   UNL     1      -5.851  17.620  66.326  1.00  0.00    -0.252 C  
ENDBRANCH   7  24
BRANCH  12  26
HETATM   26  N   UNL     1     -10.993  10.607  70.075  1.00  0.00    -0.393 NA 
HETATM   27  O   UNL     1     -11.787   9.501  69.694  1.00  0.00    -0.433 OA 
HETATM   28  H   UNL     1     -11.445   8.694  70.060  1.00  0.00     0.000 HD 
HETATM   29  H   UNL     1     -10.163  10.546  70.665  1.00  0.00     0.000 HD 
ENDBRANCH  12  26
TORSDOF 5
ENDMDL
MODEL       25
REMARK 921   NORMALIZED FREE ENERGY PREDICTED BY IDOCK:   -5.07 KCAL/MOL
REMARK 922        TOTAL FREE ENERGY PREDICTED BY IDOCK:   -6.97 KCAL/MOL
REMARK 923 INTER-LIGAND FREE ENERGY PREDICTED BY IDOCK:   -6.58 KCAL/MOL
REMARK 924 INTRA-LIGAND FREE ENERGY PREDICTED BY IDOCK:   -0.39 KCAL/MOL
REMARK 927      BINDING AFFINITY PREDICTED BY RF-SCORE:    0.00 PKD
ROOT
HETATM    1  C   UNL     1     -12.148  12.980  66.869  1.00  0.00    -0.349 C  
HETATM    2  C   UNL     1     -13.035  13.787  66.122  1.00  0.00     0.013 C  
HETATM    3  C   UNL     1     -11.589  13.978  65.819  1.00  0.00    -0.339 C  
HETATM    4  C   UNL     1     -10.296  12.564  66.580  1.00  0.00    -0.227 C  
HETATM    5  C   UNL     1     -11.317  14.055  68.129  1.00  0.00    -0.320 C  
HETATM    6  C   UNL     1     -12.277  14.986  68.962  1.00  0.00    -0.160 C  
HETATM    7  C   UNL     1     -10.960  12.567  65.381  1.00  0.00    -0.329 C  
HETATM    8  C   UNL     1     -11.626  16.182  69.762  1.00  0.00    -0.244 C  
HETATM    9  C   UNL     1      -9.672  13.864  64.862  1.00  0.00     0.185 C  
HETATM   10  C   UNL     1     -10.287  16.703  69.242  1.00  0.00    -0.318 C  
HETATM   11  C   UNL     1      -9.968  17.986  68.967  1.00  0.00    -0.292 C  
HETATM   12  C   UNL     1      -8.658  18.342  68.318  1.00  0.00    -0.285 C  
HETATM   13  C   UNL     1      -7.580  17.282  68.189  1.00  0.00    -0.211 C  
HETATM   14  C   UNL     1      -7.905  15.938  68.786  1.00  0.00    -0.185 C  
HETATM   15  C   UNL     1      -9.136  14.775  66.221  1.00  0.00    -0.231 C  
HETATM   16  C   UNL     1     -10.065  15.040  67.562  1.00  0.00    -0.228 C  
HETATM   17  C   UNL     1      -9.372  15.567  68.841  1.00  0.00    -0.222 C  
ENDROOT
BRANCH   4  18
HETATM   18  O   UNL     1      -8.941  12.177  66.115  1.00  0.00    -0.160 OA 
BRANCH  18  19
HETATM   19  C   UNL     1      -7.961  11.820  66.981  1.00  0.00    -0.164 C  
HETATM   20  O   UNL     1      -7.623  12.454  67.970  1.00  0.00    -0.107 OA 
HETATM   21  C   UNL     1      -7.219  10.610  66.459  1.00  0.00    -0.134 C  
ENDBRANCH  18  19
ENDBRANCH   4  18
BRANCH   4  22
HETATM   22  C   UNL     1     -10.682  11.223  67.282  1.00  0.00    -0.295 C  
HETATM   23  C   UNL     1     -10.899  10.193  67.863  1.00  0.00    -0.336 C  
ENDBRANCH   4  22
BRANCH   7  24
HETATM   24  C   UNL     1     -11.303  11.616  64.262  1.00  0.00    -0.361 C  
HETATM   25  C   UNL     1     -12.460  11.973  63.356  1.00  0.00    -0.625 C  
ENDBRANCH   7  24
BRANCH  12  26
HETATM   26  N   UNL     1      -8.466  19.547  67.844  1.00  0.00    -0.309 NA 
HETATM   27  O   UNL     1      -9.626  20.026  67.193  1.00  0.00    -0.351 OA 
HETATM   28  H   UNL     1      -9.486  20.901  66.850  1.00  0.00     0.000 HD 
HETATM   29  H   UNL     1      -7.595  20.070  67.932  1.00  0.00     0.000 HD 
ENDBRANCH  12  26
TORSDOF 5
ENDMDL
MODEL       26
REMARK 921   NORMALIZED FREE ENERGY PREDICTED BY IDOCK:   -5.06 KCAL/MOL
REMARK 922        TOTAL FREE ENERGY PREDICTED BY IDOCK:   -6.96 KCAL/MOL
REMARK 923 INTER-LIGAND FREE ENERGY PREDICTED BY IDOCK:   -6.97 KCAL/MOL
REMARK 924 INTRA-LIGAND FREE ENERGY PREDICTED BY IDOCK:    0.01 KCAL/MOL
REMARK 927      BINDING AFFINITY PREDICTED BY RF-SCORE:    0.00 PKD
ROOT
HETATM    1  C   UNL     1      -8.675  11.933  66.561  1.00  0.00    -0.158 C  
HETATM    2  C   UNL     1      -7.935  11.245  67.548  1.00  0.00    -0.124 C  
HETATM    3  C   UNL     1      -9.401  11.334  67.796  1.00  0.00    -0.163 C  
HETATM    4  C   UNL     1     -10.564  11.968  66.216  1.00  0.00    -0.252 C  
HETATM    5  C   UNL     1      -9.157  13.584  67.253  1.00  0.00    -0.225 C  
HETATM    6  C   UNL     1      -7.994  14.395  67.939  1.00  0.00    -0.150 C  
HETATM    7  C   UNL     1     -10.179  10.694  66.546  1.00  0.00    -0.288 C  
HETATM    8  C   UNL     1      -8.395  15.605  68.871  1.00  0.00    -0.210 C  
HETATM    9  C   UNL     1     -11.484  10.835  67.920  1.00  0.00    -0.306 C  
HETATM   10  C   UNL     1      -9.788  15.552  69.498  1.00  0.00    -0.284 C  
HETATM   11  C   UNL     1     -10.096  15.701  70.804  1.00  0.00     0.618 C  
HETATM   12  C   UNL     1     -11.497  15.478  71.305  1.00  0.00    -0.404 C  
HETATM   13  C   UNL     1     -12.628  15.321  70.306  1.00  0.00    -0.388 C  
HETATM   14  C   UNL     1     -12.246  15.457  68.855  1.00  0.00    -0.118 C  
HETATM   15  C   UNL     1     -11.664  12.469  68.430  1.00  0.00    -0.375 C  
HETATM   16  C   UNL     1     -10.453  13.589  68.339  1.00  0.00    -0.252 C  
HETATM   17  C   UNL     1     -10.823  15.083  68.499  1.00  0.00    -0.250 C  
ENDROOT
BRANCH   4  18
HETATM   18  O   UNL     1     -12.006  11.733  65.952  1.00  0.00    -0.405 OA 
BRANCH  18  19
HETATM   19  C   UNL     1     -12.697  12.467  65.046  1.00  0.00    -0.219 C  
HETATM   20  O   UNL     1     -13.207  12.033  64.023  1.00  0.00    -0.681 OA 
HETATM   21  C   UNL     1     -12.604  13.937  65.386  1.00  0.00    -0.538 C  
ENDBRANCH  18  19
ENDBRANCH   4  18
BRANCH   4  22
HETATM   22  C   UNL     1     -10.101  12.189  64.741  1.00  0.00    -0.276 C  
HETATM   23  C   UNL     1      -9.675  12.307  63.623  1.00  0.00    -0.047 C  
ENDBRANCH   4  22
BRANCH   7  24
HETATM   24  C   UNL     1     -10.135   9.318  65.930  1.00  0.00    -0.188 C  
HETATM   25  C   UNL     1     -10.331   8.127  66.841  1.00  0.00    -0.401 C  
ENDBRANCH   7  24
BRANCH  12  26
HETATM   26  N   UNL     1     -11.728  15.391  72.590  1.00  0.00    -0.459 NA 
HETATM   27  O   UNL     1     -12.861  14.587  72.848  1.00  0.00    -0.430 OA 
HETATM   28  H   UNL     1     -13.030  14.524  73.780  1.00  0.00     0.000 HD 
HETATM   29  H   UNL     1     -11.166  15.845  73.311  1.00  0.00     0.000 HD 
ENDBRANCH  12  26
TORSDOF 5
ENDMDL
MODEL       27
REMARK 921   NORMALIZED FREE ENERGY PREDICTED BY IDOCK:   -5.00 KCAL/MOL
REMARK 922        TOTAL FREE ENERGY PREDICTED BY IDOCK:   -6.88 KCAL/MOL
REMARK 923 INTER-LIGAND FREE ENERGY PREDICTED BY IDOCK:   -6.65 KCAL/MOL
REMARK 924 INTRA-LIGAND FREE ENERGY PREDICTED BY IDOCK:   -0.23 KCAL/MOL
REMARK 927      BINDING AFFINITY PREDICTED BY RF-SCORE:    0.00 PKD
ROOT
HETATM    1  C   UNL     1      -8.576   4.975  69.204  1.00  0.00    -0.098 C  
HETATM    2  C   UNL     1      -9.477   3.964  69.606  1.00  0.00    -0.263 C  
HETATM    3  C   UNL     1     -10.088   5.111  68.879  1.00  0.00    -0.237 C  
HETATM    4  C   UNL     1      -8.786   6.400  67.933  1.00  0.00    -0.115 C  
HETATM    5  C   UNL     1      -8.823   6.438  70.313  1.00  0.00    -0.151 C  
HETATM    6  C   UNL     1      -8.863   6.118  71.855  1.00  0.00    -0.137 C  
HETATM    7  C   UNL     1      -9.374   5.260  67.449  1.00  0.00    -0.122 C  
HETATM    8  C   UNL     1      -9.444   7.227  72.819  1.00  0.00    -0.190 C  
HETATM    9  C   UNL     1     -10.945   6.323  67.329  1.00  0.00    -0.455 C  
HETATM   10  C   UNL     1     -10.422   8.226  72.201  1.00  0.00    -0.371 C  
HETATM   11  C   UNL     1     -11.647   8.553  72.664  1.00  0.00    -0.284 C  
HETATM   12  C   UNL     1     -12.567   9.443  71.874  1.00  0.00    -0.401 C  
HETATM   13  C   UNL     1     -12.029  10.178  70.660  1.00  0.00    -0.423 C  
HETATM   14  C   UNL     1     -10.563   9.986  70.372  1.00  0.00    -0.343 C  
HETATM   15  C   UNL     1     -10.948   7.552  68.536  1.00  0.00     0.062 C  
HETATM   16  C   UNL     1     -10.172   7.404  69.986  1.00  0.00    -0.211 C  
HETATM   17  C   UNL     1      -9.956   8.679  70.835  1.00  0.00    -0.257 C  
ENDROOT
BRANCH   4  18
HETATM   18  O   UNL     1      -9.027   7.313  66.788  1.00  0.00    -0.126 OA 
BRANCH  18  19
HETATM   19  C   UNL     1      -8.371   8.492  66.661  1.00  0.00    -0.112 C  
HETATM   20  O   UNL     1      -8.232   9.324  67.547  1.00  0.00    -0.113 OA 
HETATM   21  C   UNL     1      -7.982   8.720  65.218  1.00  0.00    -0.118 C  
ENDBRANCH  18  19
ENDBRANCH   4  18
BRANCH   4  22
HETATM   22  C   UNL     1      -7.248   6.205  67.743  1.00  0.00    -0.083 C  
HETATM   23  C   UNL     1      -6.053   6.136  67.631  1.00  0.00    -0.018 C  
ENDBRANCH   4  22
BRANCH   7  24
HETATM   24  C   UNL     1      -9.234   4.306  66.290  1.00  0.00    -0.146 C  
HETATM   25  C   UNL     1      -9.076   2.834  66.597  1.00  0.00    -0.153 C  
ENDBRANCH   7  24
BRANCH  12  26
HETATM   26  N   UNL     1     -13.825   9.557  72.216  1.00  0.00    -0.528 NA 
HETATM   27  O   UNL     1     -14.080   8.888  73.435  1.00  0.00    -1.256 OA 
HETATM   28  H   UNL     1     -14.993   8.971  73.684  1.00  0.00     0.000 HD 
HETATM   29  H   UNL     1     -14.528  10.061  71.676  1.00  0.00     0.000 HD 
ENDBRANCH  12  26
TORSDOF 5
ENDMDL
MODEL       28
REMARK 921   NORMALIZED FREE ENERGY PREDICTED BY IDOCK:   -4.99 KCAL/MOL
REMARK 922        TOTAL FREE ENERGY PREDICTED BY IDOCK:   -6.88 KCAL/MOL
REMARK 923 INTER-LIGAND FREE ENERGY PREDICTED BY IDOCK:   -6.57 KCAL/MOL
REMARK 924 INTRA-LIGAND FREE ENERGY PREDICTED BY IDOCK:   -0.31 KCAL/MOL
REMARK 927      BINDING AFFINITY PREDICTED BY RF-SCORE:    0.00 PKD
ROOT
HETATM    1  C   UNL     1      -7.630   9.576  68.009  1.00  0.00    -0.086 C  
HETATM    2  C   UNL     1      -7.246   8.236  67.779  1.00  0.00    -0.088 C  
HETATM    3  C   UNL     1      -8.705   8.511  67.663  1.00  0.00    -0.136 C  
HETATM    4  C   UNL     1      -9.265  10.495  67.595  1.00  0.00    -0.145 C  
HETATM    5  C   UNL     1      -8.449   9.661  69.670  1.00  0.00    -0.181 C  
HETATM    6  C   UNL     1      -7.673   8.951  70.843  1.00  0.00    -0.139 C  
HETATM    7  C   UNL     1      -8.932   9.657  66.562  1.00  0.00    -0.171 C  
HETATM    8  C   UNL     1      -8.471   8.650  72.172  1.00  0.00    -0.171 C  
HETATM    9  C   UNL     1     -10.651   8.898  66.844  1.00  0.00    -0.254 C  
HETATM   10  C   UNL     1      -9.988   8.520  72.044  1.00  0.00    -0.383 C  
HETATM   11  C   UNL     1     -10.755   7.506  72.499  1.00  0.00    -0.335 C  
HETATM   12  C   UNL     1     -12.222   7.432  72.174  1.00  0.00    -0.230 C  
HETATM   13  C   UNL     1     -12.903   8.628  71.533  1.00  0.00    -0.351 C  
HETATM   14  C   UNL     1     -12.036   9.840  71.318  1.00  0.00    -0.471 C  
HETATM   15  C   UNL     1     -11.122   9.043  68.494  1.00  0.00     0.160 C  
HETATM   16  C   UNL     1     -10.045   9.111  69.745  1.00  0.00    -0.211 C  
HETATM   17  C   UNL     1     -10.556   9.580  71.127  1.00  0.00    -0.388 C  
ENDROOT
BRANCH   4  18
HETATM   18  O   UNL     1     -10.493  11.110  67.033  1.00  0.00    -0.214 OA 
BRANCH  18  19
HETATM   19  C   UNL     1     -11.004  12.266  67.523  1.00  0.00    -0.254 C  
HETATM   20  O   UNL     1     -11.238  12.494  68.701  1.00  0.00    -0.241 OA 
HETATM   21  C   UNL     1     -11.412  13.177  66.388  1.00  0.00    -0.374 C  
ENDBRANCH  18  19
ENDBRANCH   4  18
BRANCH   4  22
HETATM   22  C   UNL     1      -8.319  11.731  67.469  1.00  0.00    -0.154 C  
HETATM   23  C   UNL     1      -7.599  12.675  67.283  1.00  0.00    -0.121 C  
ENDBRANCH   4  22
BRANCH   7  24
HETATM   24  C   UNL     1      -8.569   9.734  65.100  1.00  0.00    -0.173 C  
HETATM   25  C   UNL     1      -9.434  10.585  64.197  1.00  0.00    -0.342 C  
ENDBRANCH   7  24
BRANCH  12  26
HETATM   26  N   UNL     1     -12.895   6.336  72.416  1.00  0.00    -0.493 NA 
HETATM   27  O   UNL     1     -14.286   6.584  72.418  1.00  0.00    -0.621 OA 
HETATM   28  H   UNL     1     -14.774   5.788  72.593  1.00  0.00     0.000 HD 
HETATM   29  H   UNL     1     -12.471   5.423  72.581  1.00  0.00     0.000 HD 
ENDBRANCH  12  26
TORSDOF 5
ENDMDL
MODEL       29
REMARK 921   NORMALIZED FREE ENERGY PREDICTED BY IDOCK:   -4.94 KCAL/MOL
REMARK 922        TOTAL FREE ENERGY PREDICTED BY IDOCK:   -6.81 KCAL/MOL
REMARK 923 INTER-LIGAND FREE ENERGY PREDICTED BY IDOCK:   -6.37 KCAL/MOL
REMARK 924 INTRA-LIGAND FREE ENERGY PREDICTED BY IDOCK:   -0.44 KCAL/MOL
REMARK 927      BINDING AFFINITY PREDICTED BY RF-SCORE:    0.00 PKD
ROOT
HETATM    1  C   UNL     1      -9.602  11.363  67.660  1.00  0.00    -0.176 C  
HETATM    2  C   UNL     1      -9.009  12.273  68.562  1.00  0.00    -0.070 C  
HETATM    3  C   UNL     1      -8.583  10.855  68.715  1.00  0.00    -0.159 C  
HETATM    4  C   UNL     1      -9.104   9.569  67.189  1.00  0.00    -0.134 C  
HETATM    5  C   UNL     1     -10.855  10.365  68.591  1.00  0.00    -0.270 C  
HETATM    6  C   UNL     1     -11.847  11.196  69.490  1.00  0.00    -0.423 C  
HETATM    7  C   UNL     1      -7.979  10.340  67.319  1.00  0.00    -0.107 C  
HETATM    8  C   UNL     1     -12.671  10.414  70.588  1.00  0.00    -0.417 C  
HETATM    9  C   UNL     1      -7.440   9.043  68.598  1.00  0.00    -0.084 C  
HETATM   10  C   UNL     1     -12.065   9.104  71.093  1.00  0.00    -0.365 C  
HETATM   11  C   UNL     1     -11.861   8.749  72.379  1.00  0.00    -0.356 C  
HETATM   12  C   UNL     1     -11.118   7.489  72.731  1.00  0.00    -0.366 C  
HETATM   13  C   UNL     1     -10.804   6.481  71.640  1.00  0.00    -0.281 C  
HETATM   14  C   UNL     1     -11.323   6.817  70.267  1.00  0.00    -0.404 C  
HETATM   15  C   UNL     1      -8.808   8.338  69.372  1.00  0.00    -0.146 C  
HETATM   16  C   UNL     1     -10.248   9.123  69.564  1.00  0.00    -0.208 C  
HETATM   17  C   UNL     1     -11.491   8.289  69.955  1.00  0.00     0.092 C  
ENDROOT
BRANCH   4  18
HETATM   18  O   UNL     1      -8.482   8.284  66.784  1.00  0.00    -0.117 OA 
BRANCH  18  19
HETATM   19  C   UNL     1      -9.214   7.259  66.283  1.00  0.00    -0.130 C  
HETATM   20  O   UNL     1     -10.320   6.918  66.679  1.00  0.00    -0.212 OA 
HETATM   21  C   UNL     1      -8.400   6.481  65.275  1.00  0.00    -0.121 C  
ENDBRANCH  18  19
ENDBRANCH   4  18
BRANCH   4  22
HETATM   22  C   UNL     1      -9.734   9.954  65.814  1.00  0.00    -0.332 C  
HETATM   23  C   UNL     1     -10.144  10.297  64.736  1.00  0.00    -0.336 C  
ENDBRANCH   4  22
BRANCH   7  24
HETATM   24  C   UNL     1      -6.828  10.834  66.479  1.00  0.00    -0.130 C  
HETATM   25  C   UNL     1      -5.882  11.843  67.091  1.00  0.00    -0.144 C  
ENDBRANCH   7  24
BRANCH  12  26
HETATM   26  N   UNL     1     -10.722   7.281  73.961  1.00  0.00    -0.572 NA 
HETATM   27  O   UNL     1      -9.356   7.607  74.116  1.00  0.00    -0.401 OA 
HETATM   28  H   UNL     1      -9.069   7.457  75.009  1.00  0.00     0.000 HD 
HETATM   29  H   UNL     1     -11.321   6.930  74.709  1.00  0.00     0.000 HD 
ENDBRANCH  12  26
TORSDOF 5
ENDMDL
MODEL       30
REMARK 921   NORMALIZED FREE ENERGY PREDICTED BY IDOCK:   -4.93 KCAL/MOL
REMARK 922        TOTAL FREE ENERGY PREDICTED BY IDOCK:   -6.79 KCAL/MOL
REMARK 923 INTER-LIGAND FREE ENERGY PREDICTED BY IDOCK:   -6.59 KCAL/MOL
REMARK 924 INTRA-LIGAND FREE ENERGY PREDICTED BY IDOCK:   -0.20 KCAL/MOL
REMARK 927      BINDING AFFINITY PREDICTED BY RF-SCORE:    0.00 PKD
ROOT
HETATM    1  C   UNL     1     -10.760  11.634  68.751  1.00  0.00    -0.254 C  
HETATM    2  C   UNL     1     -12.111  11.673  68.340  1.00  0.00    -0.105 C  
HETATM    3  C   UNL     1     -11.122  12.124  67.322  1.00  0.00    -0.341 C  
HETATM    4  C   UNL     1      -9.140  11.716  67.722  1.00  0.00    -0.175 C  
HETATM    5  C   UNL     1     -10.204  13.375  69.057  1.00  0.00     0.050 C  
HETATM    6  C   UNL     1     -11.173  14.249  69.941  1.00  0.00    -0.194 C  
HETATM    7  C   UNL     1     -10.064  10.944  67.067  1.00  0.00    -0.244 C  
HETATM    8  C   UNL     1     -10.968  15.815  69.924  1.00  0.00    -0.335 C  
HETATM    9  C   UNL     1      -9.808  12.156  65.626  1.00  0.00    -0.256 C  
HETATM   10  C   UNL     1     -10.295  16.403  68.684  1.00  0.00    -0.273 C  
HETATM   11  C   UNL     1     -10.745  17.425  67.925  1.00  0.00    -0.351 C  
HETATM   12  C   UNL     1     -10.056  17.806  66.643  1.00  0.00    -0.350 C  
HETATM   13  C   UNL     1      -8.704  17.199  66.317  1.00  0.00    -0.268 C  
HETATM   14  C   UNL     1      -8.128  16.278  67.360  1.00  0.00    -0.178 C  
HETATM   15  C   UNL     1      -9.382  13.720  66.208  1.00  0.00    -0.166 C  
HETATM   16  C   UNL     1      -9.841  14.296  67.686  1.00  0.00    -0.224 C  
HETATM   17  C   UNL     1      -9.126  15.553  68.237  1.00  0.00    -0.186 C  
ENDROOT
BRANCH   4  18
HETATM   18  O   UNL     1      -7.996  11.587  66.786  1.00  0.00    -0.156 OA 
BRANCH  18  19
HETATM   19  C   UNL     1      -6.752  12.015  67.112  1.00  0.00    -0.136 C  
HETATM   20  O   UNL     1      -6.496  13.016  67.766  1.00  0.00    -0.115 OA 
HETATM   21  C   UNL     1      -5.711  11.178  66.404  1.00  0.00    -0.146 C  
ENDBRANCH  18  19
ENDBRANCH   4  18
BRANCH   4  22
HETATM   22  C   UNL     1      -8.582  10.830  68.880  1.00  0.00    -0.155 C  
HETATM   23  C   UNL     1      -8.078  10.135  69.722  1.00  0.00    -0.167 C  
ENDBRANCH   4  22
BRANCH   7  24
HETATM   24  C   UNL     1     -10.238   9.521  66.599  1.00  0.00    -0.310 C  
HETATM   25  C   UNL     1     -10.483   8.455  67.643  1.00  0.00    -0.307 C  
ENDBRANCH   7  24
BRANCH  12  26
HETATM   26  N   UNL     1     -10.634  18.631  65.807  1.00  0.00    -0.580 NA 
HETATM   27  O   UNL     1     -11.173  17.935  64.701  1.00  0.00    -0.664 OA 
HETATM   28  H   UNL     1     -11.592  18.534  64.094  1.00  0.00     0.000 HD 
HETATM   29  H   UNL     1     -10.687  19.641  65.936  1.00  0.00     0.000 HD 
ENDBRANCH  12  26
TORSDOF 5
ENDMDL
MODEL       31
REMARK 921   NORMALIZED FREE ENERGY PREDICTED BY IDOCK:   -4.88 KCAL/MOL
REMARK 922        TOTAL FREE ENERGY PREDICTED BY IDOCK:   -6.73 KCAL/MOL
REMARK 923 INTER-LIGAND FREE ENERGY PREDICTED BY IDOCK:   -6.65 KCAL/MOL
REMARK 924 INTRA-LIGAND FREE ENERGY PREDICTED BY IDOCK:   -0.08 KCAL/MOL
REMARK 927      BINDING AFFINITY PREDICTED BY RF-SCORE:    0.00 PKD
ROOT
HETATM    1  C   UNL     1      -8.046  10.480  67.538  1.00  0.00    -0.107 C  
HETATM    2  C   UNL     1      -8.114   9.979  68.856  1.00  0.00    -0.111 C  
HETATM    3  C   UNL     1      -9.394  10.503  68.306  1.00  0.00    -0.156 C  
HETATM    4  C   UNL     1      -9.441  10.871  66.277  1.00  0.00    -0.194 C  
HETATM    5  C   UNL     1      -8.124  12.329  67.622  1.00  0.00    -0.165 C  
HETATM    6  C   UNL     1      -7.157  13.000  68.669  1.00  0.00    -0.103 C  
HETATM    7  C   UNL     1      -9.739   9.715  66.950  1.00  0.00    -0.240 C  
HETATM    8  C   UNL     1      -7.436  14.502  69.067  1.00  0.00    -0.131 C  
HETATM    9  C   UNL     1     -11.349  10.604  67.426  1.00  0.00    -0.185 C  
HETATM   10  C   UNL     1      -8.871  15.000  68.895  1.00  0.00    -0.201 C  
HETATM   11  C   UNL     1      -9.628  15.627  69.821  1.00  0.00    -0.192 C  
HETATM   12  C   UNL     1     -11.080  15.930  69.566  1.00  0.00    -0.315 C  
HETATM   13  C   UNL     1     -11.642  15.751  68.168  1.00  0.00    -0.259 C  
HETATM   14  C   UNL     1     -10.657  15.320  67.113  1.00  0.00    -0.302 C  
HETATM   15  C   UNL     1     -11.107  12.307  67.514  1.00  0.00    -0.326 C  
HETATM   16  C   UNL     1      -9.654  13.001  67.879  1.00  0.00    -0.215 C  
HETATM   17  C   UNL     1      -9.471  14.511  67.595  1.00  0.00    -0.209 C  
ENDROOT
BRANCH   4  18
HETATM   18  O   UNL     1     -10.602  10.932  65.356  1.00  0.00    -0.246 OA 
BRANCH  18  19
HETATM   19  C   UNL     1     -10.502  11.454  64.109  1.00  0.00    -0.363 C  
HETATM   20  O   UNL     1     -10.346  10.810  63.081  1.00  0.00    -0.255 OA 
HETATM   21  C   UNL     1     -10.435  12.963  64.180  1.00  0.00    -0.429 C  
ENDBRANCH  18  19
ENDBRANCH   4  18
BRANCH   4  22
HETATM   22  C   UNL     1      -8.346  10.491  65.231  1.00  0.00    -0.155 C  
HETATM   23  C   UNL     1      -7.441  10.224  64.486  1.00  0.00    -0.088 C  
ENDBRANCH   4  22
BRANCH   7  24
HETATM   24  C   UNL     1      -9.952   8.249  66.665  1.00  0.00    -0.348 C  
HETATM   25  C   UNL     1      -9.786   7.272  67.807  1.00  0.00    -0.167 C  
ENDBRANCH   7  24
BRANCH  12  26
HETATM   26  N   UNL     1     -11.852  16.316  70.549  1.00  0.00    -0.454 NA 
HETATM   27  O   UNL     1     -13.180  15.872  70.354  1.00  0.00    -0.733 OA 
HETATM   28  H   UNL     1     -13.741  16.153  71.067  1.00  0.00     0.000 HD 
HETATM   29  H   UNL     1     -11.539  16.866  71.349  1.00  0.00     0.000 HD 
ENDBRANCH  12  26
TORSDOF 5
ENDMDL
MODEL       32
REMARK 921   NORMALIZED FREE ENERGY PREDICTED BY IDOCK:   -4.86 KCAL/MOL
REMARK 922        TOTAL FREE ENERGY PREDICTED BY IDOCK:   -6.71 KCAL/MOL
REMARK 923 INTER-LIGAND FREE ENERGY PREDICTED BY IDOCK:   -6.31 KCAL/MOL
REMARK 924 INTRA-LIGAND FREE ENERGY PREDICTED BY IDOCK:   -0.40 KCAL/MOL
REMARK 927      BINDING AFFINITY PREDICTED BY RF-SCORE:    0.00 PKD
ROOT
HETATM    1  C   UNL     1      -8.404   7.465  68.095  1.00  0.00    -0.124 C  
HETATM    2  C   UNL     1      -7.191   8.158  67.891  1.00  0.00    -0.091 C  
HETATM    3  C   UNL     1      -7.909   8.487  69.153  1.00  0.00    -0.100 C  
HETATM    4  C   UNL     1      -9.457   7.231  69.685  1.00  0.00    -0.155 C  
HETATM    5  C   UNL     1      -9.799   8.650  67.804  1.00  0.00    -0.218 C  
HETATM    6  C   UNL     1      -9.699   9.499  66.480  1.00  0.00    -0.284 C  
HETATM    7  C   UNL     1      -8.125   7.137  69.995  1.00  0.00    -0.127 C  
HETATM    8  C   UNL     1     -10.622  10.774  66.357  1.00  0.00    -0.266 C  
HETATM    9  C   UNL     1      -8.482   8.545  71.220  1.00  0.00    -0.203 C  
HETATM   10  C   UNL     1     -11.080  11.416  67.666  1.00  0.00    -0.325 C  
HETATM   11  C   UNL     1     -10.976  12.718  68.011  1.00  0.00    -0.266 C  
HETATM   12  C   UNL     1     -11.333  13.188  69.394  1.00  0.00    -0.213 C  
HETATM   13  C   UNL     1     -12.046  12.241  70.341  1.00  0.00    -0.385 C  
HETATM   14  C   UNL     1     -12.389  10.886  69.780  1.00  0.00    -0.326 C  
HETATM   15  C   UNL     1      -9.768   9.540  70.653  1.00  0.00    -0.311 C  
HETATM   16  C   UNL     1     -10.124   9.742  69.053  1.00  0.00    -0.195 C  
HETATM   17  C   UNL     1     -11.488  10.369  68.679  1.00  0.00    -0.238 C  
ENDROOT
BRANCH   4  18
HETATM   18  O   UNL     1     -10.045   6.973  71.022  1.00  0.00    -0.195 OA 
BRANCH  18  19
HETATM   19  C   UNL     1     -11.357   6.671  71.182  1.00  0.00    -0.306 C  
HETATM   20  O   UNL     1     -12.284   7.201  70.585  1.00  0.00    -0.291 OA 
HETATM   21  C   UNL     1     -11.533   5.706  72.332  1.00  0.00    -0.309 C  
ENDBRANCH  18  19
ENDBRANCH   4  18
BRANCH   4  22
HETATM   22  C   UNL     1      -9.838   5.877  69.008  1.00  0.00    -0.193 C  
HETATM   23  C   UNL     1     -10.090   4.863  68.414  1.00  0.00    -0.148 C  
ENDBRANCH   4  22
BRANCH   7  24
HETATM   24  C   UNL     1      -7.149   6.128  70.546  1.00  0.00    -0.071 C  
HETATM   25  C   UNL     1      -5.671   6.413  70.395  1.00  0.00    -0.019 C  
ENDBRANCH   7  24
BRANCH  12  26
HETATM   26  N   UNL     1     -11.004  14.394  69.783  1.00  0.00    -0.429 NA 
HETATM   27  O   UNL     1     -11.378  14.612  71.128  1.00  0.00    -0.517 OA 
HETATM   28  H   UNL     1     -11.140  15.487  71.411  1.00  0.00     0.000 HD 
HETATM   29  H   UNL     1     -10.540  15.085  69.193  1.00  0.00     0.000 HD 
ENDBRANCH  12  26
TORSDOF 5
ENDMDL
MODEL       33
REMARK 921   NORMALIZED FREE ENERGY PREDICTED BY IDOCK:   -4.83 KCAL/MOL
REMARK 922        TOTAL FREE ENERGY PREDICTED BY IDOCK:   -6.66 KCAL/MOL
REMARK 923 INTER-LIGAND FREE ENERGY PREDICTED BY IDOCK:   -6.41 KCAL/MOL
REMARK 924 INTRA-LIGAND FREE ENERGY PREDICTED BY IDOCK:   -0.25 KCAL/MOL
REMARK 927      BINDING AFFINITY PREDICTED BY RF-SCORE:    0.00 PKD
ROOT
HETATM    1  C   UNL     1     -11.010   7.801  71.472  1.00  0.00    -0.267 C  
HETATM    2  C   UNL     1     -12.125   7.151  70.899  1.00  0.00    -0.368 C  
HETATM    3  C   UNL     1     -10.980   7.387  69.977  1.00  0.00    -0.264 C  
HETATM    4  C   UNL     1      -9.202   7.963  70.847  1.00  0.00    -0.152 C  
HETATM    5  C   UNL     1     -10.980   9.546  70.847  1.00  0.00    -0.407 C  
HETATM    6  C   UNL     1     -12.352  10.317  70.930  1.00  0.00    -0.471 C  
HETATM    7  C   UNL     1      -9.666   6.699  70.591  1.00  0.00    -0.183 C  
HETATM    8  C   UNL     1     -12.500  11.640  70.081  1.00  0.00    -0.209 C  
HETATM    9  C   UNL     1      -9.223   7.082  68.784  1.00  0.00    -0.132 C  
HETATM   10  C   UNL     1     -11.602  11.768  68.850  1.00  0.00    -0.370 C  
HETATM   11  C   UNL     1     -11.990  12.067  67.592  1.00  0.00    -0.149 C  
HETATM   12  C   UNL     1     -11.019  12.014  66.444  1.00  0.00    -0.296 C  
HETATM   13  C   UNL     1      -9.537  11.859  66.730  1.00  0.00    -0.214 C  
HETATM   14  C   UNL     1      -9.149  11.821  68.185  1.00  0.00    -0.185 C  
HETATM   15  C   UNL     1      -9.364   8.768  68.461  1.00  0.00    -0.142 C  
HETATM   16  C   UNL     1     -10.397   9.766  69.276  1.00  0.00    -0.230 C  
HETATM   17  C   UNL     1     -10.196  11.294  69.144  1.00  0.00    -0.123 C  
ENDROOT
BRANCH   4  18
HETATM   18  O   UNL     1      -7.814   7.829  70.337  1.00  0.00    -0.087 OA 
BRANCH  18  19
HETATM   19  C   UNL     1      -6.877   8.784  70.549  1.00  0.00    -0.046 C  
HETATM   20  O   UNL     1      -7.065   9.990  70.471  1.00  0.00    -0.224 OA 
HETATM   21  C   UNL     1      -5.516   8.150  70.724  1.00  0.00    -0.029 C  
ENDBRANCH  18  19
ENDBRANCH   4  18
BRANCH   4  22
HETATM   22  C   UNL     1      -8.875   8.002  72.373  1.00  0.00    -0.232 C  
HETATM   23  C   UNL     1      -8.547   8.071  73.528  1.00  0.00    -0.318 C  
ENDBRANCH   4  22
BRANCH   7  24
HETATM   24  C   UNL     1      -9.362   5.272  70.970  1.00  0.00    -0.193 C  
HETATM   25  C   UNL     1      -7.920   4.900  71.237  1.00  0.00    -0.101 C  
ENDBRANCH   7  24
BRANCH  12  26
HETATM   26  N   UNL     1     -11.455  12.071  65.212  1.00  0.00    -0.328 NA 
HETATM   27  O   UNL     1     -12.793  12.526  65.169  1.00  0.00    -0.685 OA 
HETATM   28  H   UNL     1     -13.109  12.569  64.275  1.00  0.00     0.000 HD 
HETATM   29  H   UNL     1     -10.904  11.821  64.391  1.00  0.00     0.000 HD 
ENDBRANCH  12  26
TORSDOF 5
ENDMDL
MODEL       34
REMARK 921   NORMALIZED FREE ENERGY PREDICTED BY IDOCK:   -4.80 KCAL/MOL
REMARK 922        TOTAL FREE ENERGY PREDICTED BY IDOCK:   -6.63 KCAL/MOL
REMARK 923 INTER-LIGAND FREE ENERGY PREDICTED BY IDOCK:   -6.42 KCAL/MOL
REMARK 924 INTRA-LIGAND FREE ENERGY PREDICTED BY IDOCK:   -0.20 KCAL/MOL
REMARK 927      BINDING AFFINITY PREDICTED BY RF-SCORE:    0.00 PKD
ROOT
HETATM    1  C   UNL     1      -7.697   9.489  68.061  1.00  0.00    -0.087 C  
HETATM    2  C   UNL     1      -7.034   8.263  67.829  1.00  0.00    -0.078 C  
HETATM    3  C   UNL     1      -8.521   8.189  67.858  1.00  0.00    -0.132 C  
HETATM    4  C   UNL     1      -9.533   9.984  67.795  1.00  0.00    -0.140 C  
HETATM    5  C   UNL     1      -8.350   9.467  69.795  1.00  0.00    -0.170 C  
HETATM    6  C   UNL     1      -7.321   9.015  70.899  1.00  0.00    -0.119 C  
HETATM    7  C   UNL     1      -9.114   9.195  66.756  1.00  0.00    -0.176 C  
HETATM    8  C   UNL     1      -7.896   8.607  72.313  1.00  0.00    -0.062 C  
HETATM    9  C   UNL     1     -10.572   8.076  67.238  1.00  0.00    -0.360 C  
HETATM   10  C   UNL     1      -9.345   8.124  72.348  1.00  0.00    -0.308 C  
HETATM   11  C   UNL     1      -9.807   6.986  72.908  1.00  0.00    -0.204 C  
HETATM   12  C   UNL     1     -11.240   6.560  72.740  1.00  0.00    -0.224 C  
HETATM   13  C   UNL     1     -12.240   7.533  72.142  1.00  0.00    -0.283 C  
HETATM   14  C   UNL     1     -11.705   8.900  71.805  1.00  0.00    -0.432 C  
HETATM   15  C   UNL     1     -10.904   8.192  68.923  1.00  0.00     0.004 C  
HETATM   16  C   UNL     1      -9.759   8.569  70.052  1.00  0.00    -0.172 C  
HETATM   17  C   UNL     1     -10.231   8.977  71.467  1.00  0.00    -0.414 C  
ENDROOT
BRANCH   4  18
HETATM   18  O   UNL     1     -10.919  10.271  67.349  1.00  0.00    -0.293 OA 
BRANCH  18  19
HETATM   19  C   UNL     1     -11.558  11.418  67.687  1.00  0.00    -0.238 C  
HETATM   20  O   UNL     1     -11.920  12.284  66.903  1.00  0.00    -0.578 OA 
HETATM   21  C   UNL     1     -11.609  11.563  69.190  1.00  0.00    -0.382 C  
ENDBRANCH  18  19
ENDBRANCH   4  18
BRANCH   4  22
HETATM   22  C   UNL     1      -8.920  11.397  67.538  1.00  0.00    -0.150 C  
HETATM   23  C   UNL     1      -8.391  12.469  67.408  1.00  0.00    -0.182 C  
ENDBRANCH   4  22
BRANCH   7  24
HETATM   24  C   UNL     1      -8.920   9.279  65.263  1.00  0.00    -0.260 C  
HETATM   25  C   UNL     1      -8.209   8.137  64.573  1.00  0.00    -0.118 C  
ENDBRANCH   7  24
BRANCH  12  26
HETATM   26  N   UNL     1     -11.611   5.352  73.081  1.00  0.00    -0.531 NA 
HETATM   27  O   UNL     1     -11.007   4.961  74.297  1.00  0.00    -0.333 OA 
HETATM   28  H   UNL     1     -11.275   4.084  74.544  1.00  0.00     0.000 HD 
HETATM   29  H   UNL     1     -12.250   4.769  72.540  1.00  0.00     0.000 HD 
ENDBRANCH  12  26
TORSDOF 5
ENDMDL
MODEL       35
REMARK 921   NORMALIZED FREE ENERGY PREDICTED BY IDOCK:   -4.69 KCAL/MOL
REMARK 922        TOTAL FREE ENERGY PREDICTED BY IDOCK:   -6.48 KCAL/MOL
REMARK 923 INTER-LIGAND FREE ENERGY PREDICTED BY IDOCK:   -6.33 KCAL/MOL
REMARK 924 INTRA-LIGAND FREE ENERGY PREDICTED BY IDOCK:   -0.15 KCAL/MOL
REMARK 927      BINDING AFFINITY PREDICTED BY RF-SCORE:    0.00 PKD
ROOT
HETATM    1  C   UNL     1      -8.893  12.408  67.559  1.00  0.00    -0.181 C  
HETATM    2  C   UNL     1      -8.706  12.176  68.940  1.00  0.00     0.236 C  
HETATM    3  C   UNL     1      -9.607  13.312  68.600  1.00  0.00    -0.053 C  
HETATM    4  C   UNL     1     -10.223  13.443  66.637  1.00  0.00    -0.274 C  
HETATM    5  C   UNL     1      -7.939  13.928  67.098  1.00  0.00    -0.072 C  
HETATM    6  C   UNL     1      -6.451  13.974  67.614  1.00  0.00    -0.156 C  
HETATM    7  C   UNL     1     -10.804  12.769  67.679  1.00  0.00    -0.252 C  
HETATM    8  C   UNL     1      -5.712  15.370  67.597  1.00  0.00    -0.097 C  
HETATM    9  C   UNL     1     -11.368  14.489  68.257  1.00  0.00    -0.319 C  
HETATM   10  C   UNL     1      -6.598  16.613  67.653  1.00  0.00    -0.171 C  
HETATM   11  C   UNL     1      -6.483  17.653  68.506  1.00  0.00    -0.196 C  
HETATM   12  C   UNL     1      -7.517  18.745  68.548  1.00  0.00    -0.300 C  
HETATM   13  C   UNL     1      -8.573  18.812  67.460  1.00  0.00    -0.292 C  
HETATM   14  C   UNL     1      -8.460  17.778  66.371  1.00  0.00    -0.270 C  
HETATM   15  C   UNL     1     -10.248  15.700  67.762  1.00  0.00    -0.252 C  
HETATM   16  C   UNL     1      -8.640  15.408  67.520  1.00  0.00    -0.187 C  
HETATM   17  C   UNL     1      -7.809  16.466  66.758  1.00  0.00    -0.301 C  
ENDROOT
BRANCH   4  18
HETATM   18  O   UNL     1     -11.422  14.105  66.066  1.00  0.00    -0.327 OA 
BRANCH  18  19
HETATM   19  C   UNL     1     -11.401  14.701  64.849  1.00  0.00    -0.403 C  
HETATM   20  O   UNL     1     -10.803  15.732  64.575  1.00  0.00    -0.467 OA 
HETATM   21  C   UNL     1     -12.364  14.008  63.912  1.00  0.00    -0.280 C  
ENDBRANCH  18  19
ENDBRANCH   4  18
BRANCH   4  22
HETATM   22  C   UNL     1      -9.998  12.383  65.512  1.00  0.00    -0.260 C  
HETATM   23  C   UNL     1      -9.866  11.508  64.698  1.00  0.00    -0.283 C  
ENDBRANCH   4  22
BRANCH   7  24
HETATM   24  C   UNL     1     -11.853  11.711  67.913  1.00  0.00    -0.273 C  
HETATM   25  C   UNL     1     -11.895  11.040  69.268  1.00  0.00    -0.411 C  
ENDBRANCH   7  24
BRANCH  12  26
HETATM   26  N   UNL     1      -7.520  19.609  69.531  1.00  0.00    -0.183 NA 
HETATM   27  O   UNL     1      -6.330  20.371  69.539  1.00  0.00    -0.311 OA 
HETATM   28  H   UNL     1      -6.332  20.999  70.252  1.00  0.00     0.000 HD 
HETATM   29  H   UNL     1      -8.280  19.718  70.203  1.00  0.00     0.000 HD 
ENDBRANCH  12  26
TORSDOF 5
ENDMDL
MODEL       36
REMARK 921   NORMALIZED FREE ENERGY PREDICTED BY IDOCK:   -4.68 KCAL/MOL
REMARK 922        TOTAL FREE ENERGY PREDICTED BY IDOCK:   -6.47 KCAL/MOL
REMARK 923 INTER-LIGAND FREE ENERGY PREDICTED BY IDOCK:   -6.27 KCAL/MOL
REMARK 924 INTRA-LIGAND FREE ENERGY PREDICTED BY IDOCK:   -0.19 KCAL/MOL
REMARK 927      BINDING AFFINITY PREDICTED BY RF-SCORE:    0.00 PKD
ROOT
HETATM    1  C   UNL     1     -10.544   7.596  70.403  1.00  0.00    -0.233 C  
HETATM    2  C   UNL     1     -11.926   7.315  70.480  1.00  0.00    -0.200 C  
HETATM    3  C   UNL     1     -11.360   7.367  69.103  1.00  0.00     0.251 C  
HETATM    4  C   UNL     1      -9.304   7.377  68.953  1.00  0.00    -0.145 C  
HETATM    5  C   UNL     1     -10.346   9.340  69.807  1.00  0.00    -0.232 C  
HETATM    6  C   UNL     1     -11.232  10.412  70.547  1.00  0.00    -0.395 C  
HETATM    7  C   UNL     1     -10.160   6.307  68.994  1.00  0.00    -0.206 C  
HETATM    8  C   UNL     1     -11.406  11.822  69.856  1.00  0.00    -0.201 C  
HETATM    9  C   UNL     1     -10.567   6.778  67.198  1.00  0.00    -0.401 C  
HETATM   10  C   UNL     1     -11.225  11.866  68.339  1.00  0.00    -0.312 C  
HETATM   11  C   UNL     1     -12.077  12.399  67.437  1.00  0.00    -0.075 C  
HETATM   12  C   UNL     1     -11.845  12.241  65.958  1.00  0.00    -0.341 C  
HETATM   13  C   UNL     1     -10.519  11.691  65.468  1.00  0.00    -0.321 C  
HETATM   14  C   UNL     1      -9.499  11.387  66.534  1.00  0.00    -0.218 C  
HETATM   15  C   UNL     1     -10.379   8.472  66.951  1.00  0.00    -0.367 C  
HETATM   16  C   UNL     1     -10.566   9.592  68.150  1.00  0.00    -0.273 C  
HETATM   17  C   UNL     1     -10.045  11.027  67.900  1.00  0.00    -0.199 C  
ENDROOT
BRANCH   4  18
HETATM   18  O   UNL     1      -8.438   6.963  67.821  1.00  0.00    -0.122 OA 
BRANCH  18  19
HETATM   19  C   UNL     1      -7.260   7.578  67.558  1.00  0.00    -0.090 C  
HETATM   20  O   UNL     1      -7.075   8.787  67.564  1.00  0.00    -0.077 OA 
HETATM   21  C   UNL     1      -6.240   6.570  67.081  1.00  0.00    -0.036 C  
ENDBRANCH  18  19
ENDBRANCH   4  18
BRANCH   4  22
HETATM   22  C   UNL     1      -8.280   7.153  70.110  1.00  0.00    -0.135 C  
HETATM   23  C   UNL     1      -7.554   7.007  71.058  1.00  0.00    -0.086 C  
ENDBRANCH   4  22
BRANCH   7  24
HETATM   24  C   UNL     1     -10.114   4.814  69.202  1.00  0.00    -0.196 C  
HETATM   25  C   UNL     1      -9.921   4.299  70.610  1.00  0.00    -0.218 C  
ENDBRANCH   7  24
BRANCH  12  26
HETATM   26  N   UNL     1     -12.791  12.551  65.108  1.00  0.00    -0.672 NA 
HETATM   27  O   UNL     1     -13.183  13.901  65.256  1.00  0.00    -0.774 OA 
HETATM   28  H   UNL     1     -13.870  14.125  64.640  1.00  0.00     0.000 HD 
HETATM   29  H   UNL     1     -13.193  11.903  64.430  1.00  0.00     0.000 HD 
ENDBRANCH  12  26
TORSDOF 5
ENDMDL
MODEL       37
REMARK 921   NORMALIZED FREE ENERGY PREDICTED BY IDOCK:   -4.64 KCAL/MOL
REMARK 922        TOTAL FREE ENERGY PREDICTED BY IDOCK:   -6.42 KCAL/MOL
REMARK 923 INTER-LIGAND FREE ENERGY PREDICTED BY IDOCK:   -6.09 KCAL/MOL
REMARK 924 INTRA-LIGAND FREE ENERGY PREDICTED BY IDOCK:   -0.33 KCAL/MOL
REMARK 927      BINDING AFFINITY PREDICTED BY RF-SCORE:    0.00 PKD
ROOT
HETATM    1  C   UNL     1      -8.287   9.280  65.967  1.00  0.00    -0.117 C  
HETATM    2  C   UNL     1      -7.351  10.300  65.688  1.00  0.00    -0.149 C  
HETATM    3  C   UNL     1      -7.700  10.130  67.125  1.00  0.00    -0.092 C  
HETATM    4  C   UNL     1      -8.740   8.421  67.624  1.00  0.00    -0.137 C  
HETATM    5  C   UNL     1      -9.905  10.084  66.381  1.00  0.00    -0.283 C  
HETATM    6  C   UNL     1     -10.378  11.205  65.381  1.00  0.00    -0.331 C  
HETATM    7  C   UNL     1      -7.385   8.618  67.562  1.00  0.00    -0.089 C  
HETATM    8  C   UNL     1     -11.521  12.182  65.863  1.00  0.00    -0.418 C  
HETATM    9  C   UNL     1      -7.616   9.563  69.193  1.00  0.00    -0.075 C  
HETATM   10  C   UNL     1     -11.673  12.365  67.373  1.00  0.00    -0.417 C  
HETATM   11  C   UNL     1     -11.721  13.534  68.047  1.00  0.00    -0.394 C  
HETATM   12  C   UNL     1     -11.723  13.566  69.552  1.00  0.00    -0.322 C  
HETATM   13  C   UNL     1     -11.918  12.274  70.323  1.00  0.00    -0.373 C  
HETATM   14  C   UNL     1     -12.149  11.040  69.490  1.00  0.00    -0.400 C  
HETATM   15  C   UNL     1      -9.180  10.281  69.271  1.00  0.00    -0.215 C  
HETATM   16  C   UNL     1     -10.038  10.737  67.935  1.00  0.00    -0.197 C  
HETATM   17  C   UNL     1     -11.544  11.046  68.102  1.00  0.00    -0.345 C  
ENDROOT
BRANCH   4  18
HETATM   18  O   UNL     1      -8.832   7.719  68.928  1.00  0.00    -0.135 OA 
BRANCH  18  19
HETATM   19  C   UNL     1      -9.926   6.999  69.279  1.00  0.00    -0.162 C  
HETATM   20  O   UNL     1     -11.077   7.415  69.281  1.00  0.00    -0.127 OA 
HETATM   21  C   UNL     1      -9.511   5.658  69.839  1.00  0.00    -0.197 C  
ENDBRANCH  18  19
ENDBRANCH   4  18
BRANCH   4  22
HETATM   22  C   UNL     1      -9.042   7.203  66.694  1.00  0.00    -0.175 C  
HETATM   23  C   UNL     1      -9.230   6.214  66.036  1.00  0.00    -0.116 C  
ENDBRANCH   4  22
BRANCH   7  24
HETATM   24  C   UNL     1      -6.113   7.808  67.540  1.00  0.00    -0.049 C  
HETATM   25  C   UNL     1      -6.102   6.482  68.266  1.00  0.00    -0.028 C  
ENDBRANCH   7  24
BRANCH  12  26
HETATM   26  N   UNL     1     -11.530  14.695  70.184  1.00  0.00    -0.303 NA 
HETATM   27  O   UNL     1     -11.747  14.541  71.573  1.00  0.00    -0.449 OA 
HETATM   28  H   UNL     1     -11.606  15.361  72.032  1.00  0.00     0.000 HD 
HETATM   29  H   UNL     1     -11.260  15.570  69.735  1.00  0.00     0.000 HD 
ENDBRANCH  12  26
TORSDOF 5
ENDMDL
MODEL       38
REMARK 921   NORMALIZED FREE ENERGY PREDICTED BY IDOCK:   -4.61 KCAL/MOL
REMARK 922        TOTAL FREE ENERGY PREDICTED BY IDOCK:   -6.37 KCAL/MOL
REMARK 923 INTER-LIGAND FREE ENERGY PREDICTED BY IDOCK:   -6.03 KCAL/MOL
REMARK 924 INTRA-LIGAND FREE ENERGY PREDICTED BY IDOCK:   -0.34 KCAL/MOL
REMARK 927      BINDING AFFINITY PREDICTED BY RF-SCORE:    0.00 PKD
ROOT
HETATM    1  C   UNL     1      -8.065   7.475  70.491  1.00  0.00    -0.106 C  
HETATM    2  C   UNL     1      -7.116   8.507  70.659  1.00  0.00    -0.047 C  
HETATM    3  C   UNL     1      -8.182   8.446  71.696  1.00  0.00    -0.195 C  
HETATM    4  C   UNL     1      -9.343   6.742  71.723  1.00  0.00    -0.147 C  
HETATM    5  C   UNL     1      -9.645   8.240  69.897  1.00  0.00    -0.171 C  
HETATM    6  C   UNL     1      -9.498   9.249  68.696  1.00  0.00    -0.148 C  
HETATM    7  C   UNL     1      -8.164   6.993  72.376  1.00  0.00    -0.111 C  
HETATM    8  C   UNL     1     -10.713  10.213  68.396  1.00  0.00    -0.266 C  
HETATM    9  C   UNL     1      -9.225   8.064  73.532  1.00  0.00    -0.312 C  
HETATM   10  C   UNL     1     -11.649  10.518  69.565  1.00  0.00    -0.332 C  
HETATM   11  C   UNL     1     -12.040  11.737  69.993  1.00  0.00    -0.387 C  
HETATM   12  C   UNL     1     -12.848  11.898  71.252  1.00  0.00    -0.290 C  
HETATM   13  C   UNL     1     -13.438  10.670  71.920  1.00  0.00    -0.341 C  
HETATM   14  C   UNL     1     -13.198   9.360  71.216  1.00  0.00    -0.364 C  
HETATM   15  C   UNL     1     -10.580   8.716  72.692  1.00  0.00    -0.089 C  
HETATM   16  C   UNL     1     -10.585   9.018  71.068  1.00  0.00    -0.341 C  
HETATM   17  C   UNL     1     -11.943   9.273  70.374  1.00  0.00    -0.028 C  
ENDROOT
BRANCH   4  18
HETATM   18  O   UNL     1     -10.127   6.152  72.836  1.00  0.00    -0.175 OA 
BRANCH  18  19
HETATM   19  C   UNL     1     -11.245   5.419  72.616  1.00  0.00    -0.275 C  
HETATM   20  O   UNL     1     -12.241   5.806  72.021  1.00  0.00    -0.068 OA 
HETATM   21  C   UNL     1     -11.163   4.106  73.362  1.00  0.00    -0.339 C  
ENDBRANCH  18  19
ENDBRANCH   4  18
BRANCH   4  22
HETATM   22  C   UNL     1      -9.110   5.437  70.898  1.00  0.00    -0.164 C  
HETATM   23  C   UNL     1      -8.965   4.475  70.192  1.00  0.00    -0.141 C  
ENDBRANCH   4  22
BRANCH   7  24
HETATM   24  C   UNL     1      -7.086   6.241  73.115  1.00  0.00    -0.083 C  
HETATM   25  C   UNL     1      -5.702   6.849  73.165  1.00  0.00    -0.046 C  
ENDBRANCH   7  24
BRANCH  12  26
HETATM   26  N   UNL     1     -13.014  13.085  71.778  1.00  0.00    -0.349 NA 
HETATM   27  O   UNL     1     -14.152  13.113  72.616  1.00  0.00    -0.718 OA 
HETATM   28  H   UNL     1     -14.273  13.975  72.998  1.00  0.00     0.000 HD 
HETATM   29  H   UNL     1     -12.404  13.884  71.606  1.00  0.00     0.000 HD 
ENDBRANCH  12  26
TORSDOF 5
ENDMDL
MODEL       39
REMARK 921   NORMALIZED FREE ENERGY PREDICTED BY IDOCK:   -4.54 KCAL/MOL
REMARK 922        TOTAL FREE ENERGY PREDICTED BY IDOCK:   -6.29 KCAL/MOL
REMARK 923 INTER-LIGAND FREE ENERGY PREDICTED BY IDOCK:   -5.84 KCAL/MOL
REMARK 924 INTRA-LIGAND FREE ENERGY PREDICTED BY IDOCK:   -0.44 KCAL/MOL
REMARK 927      BINDING AFFINITY PREDICTED BY RF-SCORE:    0.00 PKD
ROOT
HETATM    1  C   UNL     1      -9.986   9.333  71.065  1.00  0.00    -0.364 C  
HETATM    2  C   UNL     1     -10.802  10.172  70.274  1.00  0.00    -0.370 C  
HETATM    3  C   UNL     1     -10.963   8.711  70.031  1.00  0.00    -0.208 C  
HETATM    4  C   UNL     1     -10.104   7.448  71.416  1.00  0.00    -0.186 C  
HETATM    5  C   UNL     1      -8.637   8.662  69.987  1.00  0.00    -0.132 C  
HETATM    6  C   UNL     1      -7.885   9.728  69.103  1.00  0.00    -0.095 C  
HETATM    7  C   UNL     1     -11.360   7.996  71.412  1.00  0.00    -0.292 C  
HETATM    8  C   UNL     1      -7.009   9.196  67.901  1.00  0.00    -0.077 C  
HETATM    9  C   UNL     1     -11.735   6.709  70.065  1.00  0.00    -0.378 C  
HETATM   10  C   UNL     1      -7.391   7.832  67.327  1.00  0.00    -0.092 C  
HETATM   11  C   UNL     1      -7.616   7.533  66.030  1.00  0.00    -0.088 C  
HETATM   12  C   UNL     1      -8.132   6.180  65.620  1.00  0.00    -0.128 C  
HETATM   13  C   UNL     1      -8.173   5.059  66.642  1.00  0.00    -0.108 C  
HETATM   14  C   UNL     1      -7.630   5.394  68.006  1.00  0.00    -0.081 C  
HETATM   15  C   UNL     1     -10.317   6.336  69.162  1.00  0.00    -0.262 C  
HETATM   16  C   UNL     1      -9.067   7.395  68.952  1.00  0.00    -0.136 C  
HETATM   17  C   UNL     1      -7.721   6.846  68.426  1.00  0.00    -0.116 C  
ENDROOT
BRANCH   4  18
HETATM   18  O   UNL     1     -10.443   6.043  71.750  1.00  0.00    -0.209 OA 
BRANCH  18  19
HETATM   19  C   UNL     1      -9.514   5.172  72.214  1.00  0.00    -0.138 C  
HETATM   20  O   UNL     1      -8.448   4.916  71.671  1.00  0.00    -0.117 OA 
HETATM   21  C   UNL     1     -10.053   4.424  73.412  1.00  0.00    -0.200 C  
ENDBRANCH  18  19
ENDBRANCH   4  18
BRANCH   4  22
HETATM   22  C   UNL     1      -9.462   7.853  72.781  1.00  0.00    -0.304 C  
HETATM   23  C   UNL     1      -8.894   8.120  73.806  1.00  0.00    -0.265 C  
ENDBRANCH   4  22
BRANCH   7  24
HETATM   24  C   UNL     1     -12.521   8.199  72.354  1.00  0.00    -0.309 C  
HETATM   25  C   UNL     1     -13.594   9.186  71.955  1.00  0.00    -0.493 C  
ENDBRANCH   7  24
BRANCH  12  26
HETATM   26  N   UNL     1      -8.567   5.985  64.401  1.00  0.00    -0.344 NA 
HETATM   27  O   UNL     1      -9.453   4.885  64.350  1.00  0.00    -0.350 OA 
HETATM   28  H   UNL     1      -9.769   4.743  63.465  1.00  0.00     0.000 HD 
HETATM   29  H   UNL     1      -8.301   6.551  63.595  1.00  0.00     0.000 HD 
ENDBRANCH  12  26
TORSDOF 5
ENDMDL
MODEL       40
REMARK 921   NORMALIZED FREE ENERGY PREDICTED BY IDOCK:   -4.49 KCAL/MOL
REMARK 922        TOTAL FREE ENERGY PREDICTED BY IDOCK:   -6.22 KCAL/MOL
REMARK 923 INTER-LIGAND FREE ENERGY PREDICTED BY IDOCK:   -6.09 KCAL/MOL
REMARK 924 INTRA-LIGAND FREE ENERGY PREDICTED BY IDOCK:   -0.13 KCAL/MOL
REMARK 927      BINDING AFFINITY PREDICTED BY RF-SCORE:    0.00 PKD
ROOT
HETATM    1  C   UNL     1      -7.084  10.244  67.179  1.00  0.00    -0.089 C  
HETATM    2  C   UNL     1      -7.161   9.774  68.508  1.00  0.00    -0.068 C  
HETATM    3  C   UNL     1      -8.466   9.911  67.803  1.00  0.00    -0.118 C  
HETATM    4  C   UNL     1      -8.383  10.207  65.764  1.00  0.00    -0.145 C  
HETATM    5  C   UNL     1      -7.672  12.002  67.157  1.00  0.00    -0.161 C  
HETATM    6  C   UNL     1      -7.048  12.937  68.261  1.00  0.00    -0.102 C  
HETATM    7  C   UNL     1      -8.428   9.028  66.463  1.00  0.00    -0.124 C  
HETATM    8  C   UNL     1      -7.768  14.312  68.549  1.00  0.00    -0.137 C  
HETATM    9  C   UNL     1     -10.262   9.448  66.726  1.00  0.00    -0.320 C  
HETATM   10  C   UNL     1      -9.256  14.390  68.206  1.00  0.00    -0.201 C  
HETATM   11  C   UNL     1     -10.253  14.804  69.016  1.00  0.00    -0.237 C  
HETATM   12  C   UNL     1     -11.694  14.689  68.598  1.00  0.00    -0.329 C  
HETATM   13  C   UNL     1     -12.026  14.330  67.162  1.00  0.00    -0.449 C  
HETATM   14  C   UNL     1     -10.849  14.164  66.237  1.00  0.00    -0.300 C  
HETATM   15  C   UNL     1     -10.505  11.153  66.747  1.00  0.00    -0.297 C  
HETATM   16  C   UNL     1      -9.346  12.230  67.222  1.00  0.00    -0.185 C  
HETATM   17  C   UNL     1      -9.550  13.725  66.879  1.00  0.00    -0.263 C  
ENDROOT
BRANCH   4  18
HETATM   18  O   UNL     1      -9.406   9.923  64.727  1.00  0.00    -0.244 OA 
BRANCH  18  19
HETATM   19  C   UNL     1      -9.595  10.742  63.664  1.00  0.00    -0.305 C  
HETATM   20  O   UNL     1     -10.054  11.874  63.715  1.00  0.00    -0.343 OA 
HETATM   21  C   UNL     1      -9.323   9.997  62.377  1.00  0.00    -0.286 C  
ENDBRANCH  18  19
ENDBRANCH   4  18
BRANCH   4  22
HETATM   22  C   UNL     1      -7.115  10.120  64.856  1.00  0.00    -0.131 C  
HETATM   23  C   UNL     1      -6.109   9.989  64.211  1.00  0.00    -0.131 C  
ENDBRANCH   4  22
BRANCH   7  24
HETATM   24  C   UNL     1      -8.201   7.555  66.235  1.00  0.00    -0.125 C  
HETATM   25  C   UNL     1      -8.410   6.615  67.401  1.00  0.00    -0.121 C  
ENDBRANCH   7  24
BRANCH  12  26
HETATM   26  N   UNL     1     -12.648  14.869  69.476  1.00  0.00    -0.584 NA 
HETATM   27  O   UNL     1     -12.279  14.352  70.739  1.00  0.00    -0.298 OA 
HETATM   28  H   UNL     1     -12.971  14.483  71.376  1.00  0.00     0.000 HD 
HETATM   29  H   UNL     1     -13.540  15.321  69.276  1.00  0.00     0.000 HD 
ENDBRANCH  12  26
TORSDOF 5
ENDMDL
MODEL       41
REMARK 921   NORMALIZED FREE ENERGY PREDICTED BY IDOCK:   -4.48 KCAL/MOL
REMARK 922        TOTAL FREE ENERGY PREDICTED BY IDOCK:   -6.21 KCAL/MOL
REMARK 923 INTER-LIGAND FREE ENERGY PREDICTED BY IDOCK:   -5.93 KCAL/MOL
REMARK 924 INTRA-LIGAND FREE ENERGY PREDICTED BY IDOCK:   -0.28 KCAL/MOL
REMARK 927      BINDING AFFINITY PREDICTED BY RF-SCORE:    0.00 PKD
ROOT
HETATM    1  C   UNL     1      -9.061  13.442  67.427  1.00  0.00    -0.216 C  
HETATM    2  C   UNL     1      -8.881  12.850  66.158  1.00  0.00     0.266 C  
HETATM    3  C   UNL     1     -10.191  12.574  66.811  1.00  0.00    -0.243 C  
HETATM    4  C   UNL     1     -10.657  13.723  68.459  1.00  0.00    -0.253 C  
HETATM    5  C   UNL     1      -8.924  12.109  68.707  1.00  0.00     0.110 C  
HETATM    6  C   UNL     1      -7.680  11.154  68.558  1.00  0.00    -0.129 C  
HETATM    7  C   UNL     1     -10.914  13.970  67.135  1.00  0.00    -0.303 C  
HETATM    8  C   UNL     1      -7.703   9.792  69.356  1.00  0.00    -0.109 C  
HETATM    9  C   UNL     1     -12.272  12.656  67.327  1.00  0.00     0.026 C  
HETATM   10  C   UNL     1      -9.079   9.234  69.719  1.00  0.00    -0.186 C  
HETATM   11  C   UNL     1      -9.536   7.987  69.482  1.00  0.00    -0.164 C  
HETATM   12  C   UNL     1     -10.968   7.616  69.759  1.00  0.00    -0.170 C  
HETATM   13  C   UNL     1     -11.848   8.576  70.537  1.00  0.00    -0.022 C  
HETATM   14  C   UNL     1     -11.177   9.834  71.023  1.00  0.00    -0.451 C  
HETATM   15  C   UNL     1     -11.840  11.496  68.524  1.00  0.00    -0.365 C  
HETATM   16  C   UNL     1     -10.277  11.113  68.896  1.00  0.00    -0.209 C  
HETATM   17  C   UNL     1     -10.005  10.329  70.202  1.00  0.00    -0.050 C  
ENDROOT
BRANCH   4  18
HETATM   18  O   UNL     1     -11.984  14.049  69.038  1.00  0.00    -0.332 OA 
BRANCH  18  19
HETATM   19  C   UNL     1     -12.172  14.171  70.374  1.00  0.00    -0.356 C  
HETATM   20  O   UNL     1     -12.037  13.273  71.194  1.00  0.00    -0.221 OA 
HETATM   21  C   UNL     1     -12.745  15.531  70.698  1.00  0.00    -0.487 C  
ENDBRANCH  18  19
ENDBRANCH   4  18
BRANCH   4  22
HETATM   22  C   UNL     1      -9.873  14.967  68.985  1.00  0.00    -0.220 C  
HETATM   23  C   UNL     1      -9.256  15.948  69.305  1.00  0.00    -0.254 C  
ENDBRANCH   4  22
BRANCH   7  24
HETATM   24  C   UNL     1     -11.339  15.113  66.248  1.00  0.00    -0.219 C  
HETATM   25  C   UNL     1     -11.302  14.902  64.751  1.00  0.00    -0.400 C  
ENDBRANCH   7  24
BRANCH  12  26
HETATM   26  N   UNL     1     -11.453   6.487  69.307  1.00  0.00    -0.636 NA 
HETATM   27  O   UNL     1     -11.120   6.302  67.946  1.00  0.00    -0.338 OA 
HETATM   28  H   UNL     1     -11.472   5.484  67.617  1.00  0.00     0.000 HD 
HETATM   29  H   UNL     1     -11.999   5.829  69.863  1.00  0.00     0.000 HD 
ENDBRANCH  12  26
TORSDOF 5
ENDMDL
MODEL       42
REMARK 921   NORMALIZED FREE ENERGY PREDICTED BY IDOCK:   -4.42 KCAL/MOL
REMARK 922        TOTAL FREE ENERGY PREDICTED BY IDOCK:   -6.14 KCAL/MOL
REMARK 923 INTER-LIGAND FREE ENERGY PREDICTED BY IDOCK:   -6.12 KCAL/MOL
REMARK 924 INTRA-LIGAND FREE ENERGY PREDICTED BY IDOCK:   -0.02 KCAL/MOL
REMARK 927      BINDING AFFINITY PREDICTED BY RF-SCORE:    0.00 PKD
ROOT
HETATM    1  C   UNL     1      -8.841  11.310  65.838  1.00  0.00    -0.174 C  
HETATM    2  C   UNL     1      -9.731  11.384  64.745  1.00  0.00    -0.280 C  
HETATM    3  C   UNL     1     -10.209  10.581  65.903  1.00  0.00    -0.311 C  
HETATM    4  C   UNL     1      -9.139  10.767  67.656  1.00  0.00    -0.147 C  
HETATM    5  C   UNL     1      -8.092   9.615  65.855  1.00  0.00    -0.112 C  
HETATM    6  C   UNL     1      -7.535   9.108  64.471  1.00  0.00    -0.101 C  
HETATM    7  C   UNL     1     -10.206  11.506  67.215  1.00  0.00    -0.229 C  
HETATM    8  C   UNL     1      -7.243   7.564  64.320  1.00  0.00    -0.079 C  
HETATM    9  C   UNL     1     -11.242   9.986  67.688  1.00  0.00    -0.099 C  
HETATM   10  C   UNL     1      -8.026   6.626  65.239  1.00  0.00    -0.123 C  
HETATM   11  C   UNL     1      -8.741   5.542  64.872  1.00  0.00    -0.067 C  
HETATM   12  C   UNL     1      -9.587   4.793  65.865  1.00  0.00    -0.180 C  
HETATM   13  C   UNL     1      -9.451   5.107  67.344  1.00  0.00    -0.144 C  
HETATM   14  C   UNL     1      -8.413   6.137  67.704  1.00  0.00    -0.108 C  
HETATM   15  C   UNL     1     -10.319   8.540  67.528  1.00  0.00    -0.334 C  
HETATM   16  C   UNL     1      -9.066   8.374  66.465  1.00  0.00    -0.217 C  
HETATM   17  C   UNL     1      -8.105   7.176  66.646  1.00  0.00    -0.109 C  
ENDROOT
BRANCH   4  18
HETATM   18  O   UNL     1      -9.568  10.517  69.055  1.00  0.00    -0.187 OA 
BRANCH  18  19
HETATM   19  C   UNL     1      -8.828   9.771  69.909  1.00  0.00    -0.225 C  
HETATM   20  O   UNL     1      -7.674   9.411  69.719  1.00  0.00    -0.087 OA 
HETATM   21  C   UNL     1      -9.683   9.293  71.061  1.00  0.00    -0.341 C  
ENDBRANCH  18  19
ENDBRANCH   4  18
BRANCH   4  22
HETATM   22  C   UNL     1      -7.998  11.791  67.952  1.00  0.00    -0.141 C  
HETATM   23  C   UNL     1      -7.183  12.639  68.199  1.00  0.00    -0.109 C  
ENDBRANCH   4  22
BRANCH   7  24
HETATM   24  C   UNL     1     -10.906  12.803  67.533  1.00  0.00    -0.263 C  
HETATM   25  C   UNL     1     -12.152  13.149  66.748  1.00  0.00    -0.389 C  
ENDBRANCH   7  24
BRANCH  12  26
HETATM   26  N   UNL     1     -10.451   3.902  65.452  1.00  0.00    -0.466 NA 
HETATM   27  O   UNL     1     -11.653   4.517  65.033  1.00  0.00    -1.101 OA 
HETATM   28  H   UNL     1     -12.280   3.870  64.733  1.00  0.00     0.000 HD 
HETATM   29  H   UNL     1     -10.281   2.896  65.434  1.00  0.00     0.000 HD 
ENDBRANCH  12  26
TORSDOF 5
ENDMDL
MODEL       43
REMARK 921   NORMALIZED FREE ENERGY PREDICTED BY IDOCK:   -4.39 KCAL/MOL
REMARK 922        TOTAL FREE ENERGY PREDICTED BY IDOCK:   -6.09 KCAL/MOL
REMARK 923 INTER-LIGAND FREE ENERGY PREDICTED BY IDOCK:   -5.81 KCAL/MOL
REMARK 924 INTRA-LIGAND FREE ENERGY PREDICTED BY IDOCK:   -0.28 KCAL/MOL
REMARK 927      BINDING AFFINITY PREDICTED BY RF-SCORE:    0.00 PKD
ROOT
HETATM    1  C   UNL     1     -10.928  11.116  68.051  1.00  0.00    -0.307 C  
HETATM    2  C   UNL     1     -11.639  11.253  66.839  1.00  0.00     0.003 C  
HETATM    3  C   UNL     1     -10.177  11.520  66.754  1.00  0.00    -0.254 C  
HETATM    4  C   UNL     1      -9.043  10.954  68.381  1.00  0.00    -0.164 C  
HETATM    5  C   UNL     1     -10.503  12.813  68.662  1.00  0.00    -0.230 C  
HETATM    6  C   UNL     1     -11.692  13.847  68.668  1.00  0.00    -0.396 C  
HETATM    7  C   UNL     1      -9.381  10.225  67.270  1.00  0.00    -0.169 C  
HETATM    8  C   UNL     1     -11.330  15.379  68.802  1.00  0.00    -0.328 C  
HETATM    9  C   UNL     1      -8.077  11.284  66.383  1.00  0.00    -0.138 C  
HETATM   10  C   UNL     1      -9.933  15.794  68.341  1.00  0.00    -0.217 C  
HETATM   11  C   UNL     1      -9.626  16.790  67.483  1.00  0.00    -0.240 C  
HETATM   12  C   UNL     1      -8.216  16.995  67.000  1.00  0.00    -0.204 C  
HETATM   13  C   UNL     1      -7.084  16.234  67.664  1.00  0.00    -0.164 C  
HETATM   14  C   UNL     1      -7.476  15.349  68.819  1.00  0.00    -0.136 C  
HETATM   15  C   UNL     1      -7.953  12.841  67.109  1.00  0.00    -0.112 C  
HETATM   16  C   UNL     1      -9.203  13.578  67.897  1.00  0.00    -0.211 C  
HETATM   17  C   UNL     1      -8.887  14.800  68.792  1.00  0.00    -0.179 C  
ENDROOT
BRANCH   4  18
HETATM   18  O   UNL     1      -7.595  10.637  68.458  1.00  0.00    -0.087 OA 
BRANCH  18  19
HETATM   19  C   UNL     1      -6.877  10.839  69.589  1.00  0.00    -0.133 C  
HETATM   20  O   UNL     1      -6.736  11.913  70.157  1.00  0.00    -0.007 OA 
HETATM   21  C   UNL     1      -6.124   9.581  69.959  1.00  0.00    -0.046 C  
ENDBRANCH  18  19
ENDBRANCH   4  18
BRANCH   4  22
HETATM   22  C   UNL     1      -9.520  10.115  69.608  1.00  0.00    -0.226 C  
HETATM   23  C   UNL     1      -9.867   9.395  70.507  1.00  0.00    -0.331 C  
ENDBRANCH   4  22
BRANCH   7  24
HETATM   24  C   UNL     1      -9.378   8.792  66.800  1.00  0.00    -0.229 C  
HETATM   25  C   UNL     1     -10.597   7.946  67.091  1.00  0.00    -0.383 C  
ENDBRANCH   7  24
BRANCH  12  26
HETATM   26  N   UNL     1      -7.976  17.801  65.997  1.00  0.00    -0.520 NA 
HETATM   27  O   UNL     1      -9.045  18.706  65.808  1.00  0.00    -0.402 OA 
HETATM   28  H   UNL     1      -8.871  19.291  65.080  1.00  0.00     0.000 HD 
HETATM   29  H   UNL     1      -7.130  17.780  65.428  1.00  0.00     0.000 HD 
ENDBRANCH  12  26
TORSDOF 5
ENDMDL
MODEL       44
REMARK 921   NORMALIZED FREE ENERGY PREDICTED BY IDOCK:   -4.38 KCAL/MOL
REMARK 922        TOTAL FREE ENERGY PREDICTED BY IDOCK:   -6.08 KCAL/MOL
REMARK 923 INTER-LIGAND FREE ENERGY PREDICTED BY IDOCK:   -5.77 KCAL/MOL
REMARK 924 INTRA-LIGAND FREE ENERGY PREDICTED BY IDOCK:   -0.32 KCAL/MOL
REMARK 927      BINDING AFFINITY PREDICTED BY RF-SCORE:    0.00 PKD
ROOT
HETATM    1  C   UNL     1      -8.139   6.940  68.444  1.00  0.00    -0.120 C  
HETATM    2  C   UNL     1      -6.849   7.225  67.947  1.00  0.00    -0.070 C  
HETATM    3  C   UNL     1      -7.387   8.209  68.927  1.00  0.00    -0.090 C  
HETATM    4  C   UNL     1      -9.072   7.640  69.970  1.00  0.00    -0.151 C  
HETATM    5  C   UNL     1      -9.332   8.117  67.652  1.00  0.00    -0.160 C  
HETATM    6  C   UNL     1      -9.206   8.257  66.088  1.00  0.00    -0.250 C  
HETATM    7  C   UNL     1      -7.754   7.439  70.287  1.00  0.00    -0.093 C  
HETATM    8  C   UNL     1      -9.904   9.497  65.404  1.00  0.00    -0.248 C  
HETATM    9  C   UNL     1      -7.757   9.283  70.747  1.00  0.00    -0.164 C  
HETATM   10  C   UNL     1     -10.129  10.726  66.284  1.00  0.00    -0.285 C  
HETATM   11  C   UNL     1      -9.775  11.999  66.006  1.00  0.00    -0.256 C  
HETATM   12  C   UNL     1      -9.924  13.091  67.029  1.00  0.00    -0.242 C  
HETATM   13  C   UNL     1     -10.702  12.817  68.302  1.00  0.00    -0.257 C  
HETATM   14  C   UNL     1     -11.319  11.447  68.412  1.00  0.00    -0.346 C  
HETATM   15  C   UNL     1      -8.900  10.151  69.794  1.00  0.00    -0.152 C  
HETATM   16  C   UNL     1      -9.355   9.689  68.276  1.00  0.00    -0.138 C  
HETATM   17  C   UNL     1     -10.619  10.335  67.661  1.00  0.00    -0.312 C  
ENDROOT
BRANCH   4  18
HETATM   18  O   UNL     1      -9.577   8.118  71.281  1.00  0.00    -0.152 OA 
BRANCH  18  19
HETATM   19  C   UNL     1     -10.869   7.954  71.655  1.00  0.00    -0.232 C  
HETATM   20  O   UNL     1     -11.836   8.458  71.101  1.00  0.00    -0.285 OA 
HETATM   21  C   UNL     1     -10.942   7.199  72.962  1.00  0.00    -0.357 C  
ENDBRANCH  18  19
ENDBRANCH   4  18
BRANCH   4  22
HETATM   22  C   UNL     1      -9.737   6.227  69.977  1.00  0.00    -0.193 C  
HETATM   23  C   UNL     1     -10.287   5.160  69.904  1.00  0.00    -0.347 C  
ENDBRANCH   4  22
BRANCH   7  24
HETATM   24  C   UNL     1      -6.920   6.611  71.232  1.00  0.00    -0.074 C  
HETATM   25  C   UNL     1      -5.415   6.743  71.153  1.00  0.00    -0.027 C  
ENDBRANCH   7  24
BRANCH  12  26
HETATM   26  N   UNL     1      -9.362  14.257  66.832  1.00  0.00    -0.246 NA 
HETATM   27  O   UNL     1      -9.425  14.625  65.469  1.00  0.00    -0.517 OA 
HETATM   28  H   UNL     1      -9.017  15.471  65.326  1.00  0.00     0.000 HD 
HETATM   29  H   UNL     1      -8.935  14.824  67.565  1.00  0.00     0.000 HD 
ENDBRANCH  12  26
TORSDOF 5
ENDMDL
MODEL       45
REMARK 921   NORMALIZED FREE ENERGY PREDICTED BY IDOCK:   -4.35 KCAL/MOL
REMARK 922        TOTAL FREE ENERGY PREDICTED BY IDOCK:   -6.04 KCAL/MOL
REMARK 923 INTER-LIGAND FREE ENERGY PREDICTED BY IDOCK:   -5.85 KCAL/MOL
REMARK 924 INTRA-LIGAND FREE ENERGY PREDICTED BY IDOCK:   -0.19 KCAL/MOL
REMARK 927      BINDING AFFINITY PREDICTED BY RF-SCORE:    0.00 PKD
ROOT
HETATM    1  C   UNL     1      -8.257  12.190  67.232  1.00  0.00    -0.180 C  
HETATM    2  C   UNL     1      -7.851  11.304  66.210  1.00  0.00    -0.069 C  
HETATM    3  C   UNL     1      -9.273  11.178  66.636  1.00  0.00    -0.188 C  
HETATM    4  C   UNL     1     -10.014  12.692  67.824  1.00  0.00    -0.218 C  
HETATM    5  C   UNL     1      -8.421  11.219  68.802  1.00  0.00    -0.112 C  
HETATM    6  C   UNL     1      -7.205  10.277  69.143  1.00  0.00    -0.083 C  
HETATM    7  C   UNL     1      -9.997  12.599  66.456  1.00  0.00    -0.256 C  
HETATM    8  C   UNL     1      -7.431   9.154  70.231  1.00  0.00    -0.099 C  
HETATM    9  C   UNL     1     -11.411  11.351  66.690  1.00  0.00    -0.230 C  
HETATM   10  C   UNL     1      -8.870   8.682  70.438  1.00  0.00    -0.170 C  
HETATM   11  C   UNL     1      -9.314   7.407  70.430  1.00  0.00    -0.161 C  
HETATM   12  C   UNL     1     -10.783   7.093  70.499  1.00  0.00    -0.238 C  
HETATM   13  C   UNL     1     -11.766   8.202  70.825  1.00  0.00    -0.211 C  
HETATM   14  C   UNL     1     -11.162   9.553  71.109  1.00  0.00    -0.446 C  
HETATM   15  C   UNL     1     -11.262  10.531  68.198  1.00  0.00    -0.357 C  
HETATM   16  C   UNL     1      -9.817  10.278  68.957  1.00  0.00    -0.215 C  
HETATM   17  C   UNL     1      -9.835   9.847  70.442  1.00  0.00    -0.185 C  
ENDROOT
BRANCH   4  18
HETATM   18  O   UNL     1     -11.418  13.129  68.028  1.00  0.00    -0.272 OA 
BRANCH  18  19
HETATM   19  C   UNL     1     -11.852  13.611  69.218  1.00  0.00    -0.346 C  
HETATM   20  O   UNL     1     -11.859  12.992  70.273  1.00  0.00    -0.305 OA 
HETATM   21  C   UNL     1     -12.494  14.967  69.029  1.00  0.00     0.057 C  
ENDBRANCH  18  19
ENDBRANCH   4  18
BRANCH   4  22
HETATM   22  C   UNL     1      -9.308  14.040  68.172  1.00  0.00    -0.201 C  
HETATM   23  C   UNL     1      -8.763  15.096  68.353  1.00  0.00    -0.169 C  
ENDBRANCH   4  22
BRANCH   7  24
HETATM   24  C   UNL     1     -10.200  13.479  65.249  1.00  0.00    -0.323 C  
HETATM   25  C   UNL     1     -11.150  14.649  65.374  1.00  0.00    -0.349 C  
ENDBRANCH   7  24
BRANCH  12  26
HETATM   26  N   UNL     1     -11.208   5.880  70.251  1.00  0.00    -0.309 NA 
HETATM   27  O   UNL     1     -10.383   4.918  70.875  1.00  0.00    -0.217 OA 
HETATM   28  H   UNL     1     -10.691   4.037  70.695  1.00  0.00     0.000 HD 
HETATM   29  H   UNL     1     -12.026   5.659  69.682  1.00  0.00     0.000 HD 
ENDBRANCH  12  26
TORSDOF 5
ENDMDL
MODEL       46
REMARK 921   NORMALIZED FREE ENERGY PREDICTED BY IDOCK:   -4.28 KCAL/MOL
REMARK 922        TOTAL FREE ENERGY PREDICTED BY IDOCK:   -5.95 KCAL/MOL
REMARK 923 INTER-LIGAND FREE ENERGY PREDICTED BY IDOCK:   -6.03 KCAL/MOL
REMARK 924 INTRA-LIGAND FREE ENERGY PREDICTED BY IDOCK:    0.08 KCAL/MOL
REMARK 927      BINDING AFFINITY PREDICTED BY RF-SCORE:    0.00 PKD
ROOT
HETATM    1  C   UNL     1     -10.067  12.464  65.281  1.00  0.00    -0.285 C  
HETATM    2  C   UNL     1     -10.851  11.530  64.569  1.00  0.00    -0.390 C  
HETATM    3  C   UNL     1     -11.118  11.604  66.032  1.00  0.00    -0.325 C  
HETATM    4  C   UNL     1     -10.297  13.207  67.037  1.00  0.00    -0.249 C  
HETATM    5  C   UNL     1      -8.803  11.526  66.258  1.00  0.00    -0.186 C  
HETATM    6  C   UNL     1      -8.012  10.423  65.458  1.00  0.00    -0.153 C  
HETATM    7  C   UNL     1     -11.514  13.112  66.413  1.00  0.00    -0.374 C  
HETATM    8  C   UNL     1      -7.215   9.343  66.290  1.00  0.00    -0.092 C  
HETATM    9  C   UNL     1     -12.019  12.074  67.922  1.00  0.00    -0.204 C  
HETATM   10  C   UNL     1      -7.707   9.077  67.713  1.00  0.00    -0.097 C  
HETATM   11  C   UNL     1      -7.995   7.877  68.259  1.00  0.00    -0.122 C  
HETATM   12  C   UNL     1      -8.614   7.771  69.627  1.00  0.00    -0.135 C  
HETATM   13  C   UNL     1      -8.694   9.007  70.504  1.00  0.00    -0.238 C  
HETATM   14  C   UNL     1      -8.084  10.259  69.932  1.00  0.00    -0.071 C  
HETATM   15  C   UNL     1     -10.661  11.242  68.577  1.00  0.00    -0.235 C  
HETATM   16  C   UNL     1      -9.352  10.790  67.678  1.00  0.00    -0.156 C  
HETATM   17  C   UNL     1      -8.064  10.365  68.422  1.00  0.00    -0.112 C  
ENDROOT
BRANCH   4  18
HETATM   18  O   UNL     1     -10.718  13.836  68.314  1.00  0.00    -0.239 OA 
BRANCH  18  19
HETATM   19  C   UNL     1      -9.967  14.783  68.927  1.00  0.00    -0.233 C  
HETATM   20  O   UNL     1      -8.808  14.643  69.290  1.00  0.00    -0.090 OA 
HETATM   21  C   UNL     1     -10.818  15.987  69.261  1.00  0.00    -0.300 C  
ENDBRANCH  18  19
ENDBRANCH   4  18
BRANCH   4  22
HETATM   22  C   UNL     1      -9.584  14.443  66.404  1.00  0.00    -0.320 C  
HETATM   23  C   UNL     1      -9.080  15.447  65.973  1.00  0.00    -0.284 C  
ENDBRANCH   4  22
BRANCH   7  24
HETATM   24  C   UNL     1     -12.625  14.012  65.934  1.00  0.00    -0.484 C  
HETATM   25  C   UNL     1     -12.477  14.665  64.578  1.00  0.00    -0.312 C  
ENDBRANCH   7  24
BRANCH  12  26
HETATM   26  N   UNL     1      -9.102   6.629  70.040  1.00  0.00    -0.151 NA 
HETATM   27  O   UNL     1     -10.516   6.653  70.037  1.00  0.00    -0.196 OA 
HETATM   28  H   UNL     1     -10.870   5.824  70.337  1.00  0.00     0.000 HD 
HETATM   29  H   UNL     1      -8.538   5.829  70.327  1.00  0.00     0.000 HD 
ENDBRANCH  12  26
TORSDOF 5
ENDMDL
MODEL       47
REMARK 921   NORMALIZED FREE ENERGY PREDICTED BY IDOCK:   -4.12 KCAL/MOL
REMARK 922        TOTAL FREE ENERGY PREDICTED BY IDOCK:   -5.75 KCAL/MOL
REMARK 923 INTER-LIGAND FREE ENERGY PREDICTED BY IDOCK:   -5.71 KCAL/MOL
REMARK 924 INTRA-LIGAND FREE ENERGY PREDICTED BY IDOCK:   -0.04 KCAL/MOL
REMARK 927      BINDING AFFINITY PREDICTED BY RF-SCORE:    0.00 PKD
ROOT
HETATM    1  C   UNL     1      -7.541   6.227  70.560  1.00  0.00    -0.096 C  
HETATM    2  C   UNL     1      -6.345   6.901  70.891  1.00  0.00    -0.040 C  
HETATM    3  C   UNL     1      -7.585   7.722  70.975  1.00  0.00    -0.082 C  
HETATM    4  C   UNL     1      -9.373   6.698  70.894  1.00  0.00    -0.157 C  
HETATM    5  C   UNL     1      -8.090   6.817  68.892  1.00  0.00    -0.120 C  
HETATM    6  C   UNL     1      -6.974   6.834  67.780  1.00  0.00    -0.083 C  
HETATM    7  C   UNL     1      -8.609   7.013  71.988  1.00  0.00    -0.123 C  
HETATM    8  C   UNL     1      -7.258   7.669  66.470  1.00  0.00    -0.082 C  
HETATM    9  C   UNL     1      -9.290   8.771  71.748  1.00  0.00    -0.350 C  
HETATM   10  C   UNL     1      -8.257   8.819  66.595  1.00  0.00    -0.107 C  
HETATM   11  C   UNL     1      -8.071  10.099  66.209  1.00  0.00    -0.124 C  
HETATM   12  C   UNL     1      -9.085  11.164  66.527  1.00  0.00    -0.182 C  
HETATM   13  C   UNL     1     -10.442  10.760  67.073  1.00  0.00    -0.297 C  
HETATM   14  C   UNL     1     -10.682   9.279  67.206  1.00  0.00    -0.244 C  
HETATM   15  C   UNL     1      -9.633   9.075  70.088  1.00  0.00    -0.217 C  
HETATM   16  C   UNL     1      -8.841   8.331  68.844  1.00  0.00    -0.140 C  
HETATM   17  C   UNL     1      -9.455   8.419  67.427  1.00  0.00    -0.185 C  
ENDROOT
BRANCH   4  18
HETATM   18  O   UNL     1     -10.711   7.095  71.399  1.00  0.00    -0.224 OA 
BRANCH  18  19
HETATM   19  C   UNL     1     -11.845   6.840  70.702  1.00  0.00    -0.387 C  
HETATM   20  O   UNL     1     -11.894   6.507  69.526  1.00  0.00    -0.266 OA 
HETATM   21  C   UNL     1     -13.058   7.193  71.532  1.00  0.00    -0.427 C  
ENDBRANCH  18  19
ENDBRANCH   4  18
BRANCH   4  22
HETATM   22  C   UNL     1      -9.568   5.150  70.936  1.00  0.00    -0.235 C  
HETATM   23  C   UNL     1      -9.712   3.962  71.058  1.00  0.00    -0.252 C  
ENDBRANCH   4  22
BRANCH   7  24
HETATM   24  C   UNL     1      -8.487   6.636  73.442  1.00  0.00    -0.129 C  
HETATM   25  C   UNL     1      -9.754   6.560  74.265  1.00  0.00    -0.309 C  
ENDBRANCH   7  24
BRANCH  12  26
HETATM   26  N   UNL     1      -8.785  12.427  66.361  1.00  0.00    -0.410 NA 
HETATM   27  O   UNL     1      -9.691  13.050  65.472  1.00  0.00    -0.445 OA 
HETATM   28  H   UNL     1      -9.473  13.966  65.351  1.00  0.00     0.000 HD 
HETATM   29  H   UNL     1      -8.001  12.899  66.812  1.00  0.00     0.000 HD 
ENDBRANCH  12  26
TORSDOF 5
ENDMDL
MODEL       48
REMARK 921   NORMALIZED FREE ENERGY PREDICTED BY IDOCK:   -4.12 KCAL/MOL
REMARK 922        TOTAL FREE ENERGY PREDICTED BY IDOCK:   -5.74 KCAL/MOL
REMARK 923 INTER-LIGAND FREE ENERGY PREDICTED BY IDOCK:   -5.76 KCAL/MOL
REMARK 924 INTRA-LIGAND FREE ENERGY PREDICTED BY IDOCK:    0.01 KCAL/MOL
REMARK 927      BINDING AFFINITY PREDICTED BY RF-SCORE:    0.00 PKD
ROOT
HETATM    1  C   UNL     1     -10.887  16.085  67.720  1.00  0.00    -0.324 C  
HETATM    2  C   UNL     1     -11.403  15.939  66.414  1.00  0.00     0.222 C  
HETATM    3  C   UNL     1      -9.945  15.672  66.557  1.00  0.00    -0.287 C  
HETATM    4  C   UNL     1      -9.230  15.483  68.482  1.00  0.00    -0.197 C  
HETATM    5  C   UNL     1      -9.903  17.655  67.776  1.00  0.00    -0.292 C  
HETATM    6  C   UNL     1     -10.615  18.921  67.166  1.00  0.00    -0.531 C  
HETATM    7  C   UNL     1      -9.733  14.517  67.650  1.00  0.00    -0.215 C  
HETATM    8  C   UNL     1      -9.717  20.176  66.831  1.00  0.00    -0.582 C  
HETATM    9  C   UNL     1      -8.065  14.657  66.752  1.00  0.00     0.088 C  
HETATM   10  C   UNL     1      -8.236  19.906  66.565  1.00  0.00    -0.364 C  
HETATM   11  C   UNL     1      -7.516  20.319  65.501  1.00  0.00    -0.129 C  
HETATM   12  C   UNL     1      -6.100  19.855  65.291  1.00  0.00    -0.224 C  
HETATM   13  C   UNL     1      -5.388  19.111  66.406  1.00  0.00    -0.165 C  
HETATM   14  C   UNL     1      -6.167  18.940  67.683  1.00  0.00    -0.206 C  
HETATM   15  C   UNL     1      -7.421  16.247  66.897  1.00  0.00    -0.271 C  
HETATM   16  C   UNL     1      -8.358  17.593  67.090  1.00  0.00    -0.233 C  
HETATM   17  C   UNL     1      -7.675  18.903  67.548  1.00  0.00    -0.251 C  
ENDROOT
BRANCH   4  18
HETATM   18  O   UNL     1      -8.016  14.785  68.973  1.00  0.00    -0.150 OA 
BRANCH  18  19
HETATM   19  C   UNL     1      -7.186  15.345  69.886  1.00  0.00    -0.061 C  
HETATM   20  O   UNL     1      -6.892  16.531  69.942  1.00  0.00    -0.078 OA 
HETATM   21  C   UNL     1      -6.531  14.272  70.725  1.00  0.00     0.078 C  
ENDBRANCH  18  19
ENDBRANCH   4  18
BRANCH   4  22
HETATM   22  C   UNL     1     -10.075  15.408  69.792  1.00  0.00    -0.266 C  
HETATM   23  C   UNL     1     -10.788  15.303  70.755  1.00  0.00    -0.255 C  
ENDBRANCH   4  22
BRANCH   7  24
HETATM   24  C   UNL     1     -10.232  13.095  67.722  1.00  0.00    -0.231 C  
HETATM   25  C   UNL     1     -11.184  12.622  66.646  1.00  0.00    -0.346 C  
ENDBRANCH   7  24
BRANCH  12  26
HETATM   26  N   UNL     1      -5.502  20.068  64.146  1.00  0.00    -0.194 NA 
HETATM   27  O   UNL     1      -5.630  18.949  63.293  1.00  0.00    -0.294 OA 
HETATM   28  H   UNL     1      -5.196  19.103  62.462  1.00  0.00     0.000 HD 
HETATM   29  H   UNL     1      -5.009  20.927  63.903  1.00  0.00     0.000 HD 
ENDBRANCH  12  26
TORSDOF 5
ENDMDL
MODEL       49
REMARK 921   NORMALIZED FREE ENERGY PREDICTED BY IDOCK:   -4.10 KCAL/MOL
REMARK 922        TOTAL FREE ENERGY PREDICTED BY IDOCK:   -5.72 KCAL/MOL
REMARK 923 INTER-LIGAND FREE ENERGY PREDICTED BY IDOCK:   -5.28 KCAL/MOL
REMARK 924 INTRA-LIGAND FREE ENERGY PREDICTED BY IDOCK:   -0.44 KCAL/MOL
REMARK 927      BINDING AFFINITY PREDICTED BY RF-SCORE:    0.00 PKD
ROOT
HETATM    1  C   UNL     1     -12.091  13.399  67.110  1.00  0.00    -0.367 C  
HETATM    2  C   UNL     1     -12.585  14.234  66.084  1.00  0.00    -0.280 C  
HETATM    3  C   UNL     1     -11.139  13.894  65.989  1.00  0.00    -0.289 C  
HETATM    4  C   UNL     1     -10.467  12.379  67.216  1.00  0.00    -0.222 C  
HETATM    5  C   UNL     1     -11.064  14.438  68.251  1.00  0.00    -0.275 C  
HETATM    6  C   UNL     1     -11.728  15.790  68.715  1.00  0.00    -0.387 C  
HETATM    7  C   UNL     1     -10.982  12.297  65.948  1.00  0.00    -0.338 C  
HETATM    8  C   UNL     1     -10.788  16.885  69.357  1.00  0.00    -0.186 C  
HETATM    9  C   UNL     1      -9.293  12.972  65.400  1.00  0.00     0.353 C  
HETATM   10  C   UNL     1      -9.310  16.830  68.969  1.00  0.00    -0.212 C  
HETATM   11  C   UNL     1      -8.557  17.848  68.501  1.00  0.00    -0.298 C  
HETATM   12  C   UNL     1      -7.151  17.619  68.016  1.00  0.00    -0.200 C  
HETATM   13  C   UNL     1      -6.483  16.282  68.279  1.00  0.00    -0.130 C  
HETATM   14  C   UNL     1      -7.292  15.287  69.069  1.00  0.00    -0.157 C  
HETATM   15  C   UNL     1      -8.607  13.975  66.620  1.00  0.00     0.020 C  
HETATM   16  C   UNL     1      -9.509  14.825  67.712  1.00  0.00    -0.204 C  
HETATM   17  C   UNL     1      -8.797  15.407  68.956  1.00  0.00    -0.231 C  
ENDROOT
BRANCH   4  18
HETATM   18  O   UNL     1      -9.284  11.496  67.065  1.00  0.00    -0.170 OA 
BRANCH  18  19
HETATM   19  C   UNL     1      -8.645  10.964  68.135  1.00  0.00    -0.133 C  
HETATM   20  O   UNL     1      -8.147  11.602  69.052  1.00  0.00    -0.056 OA 
HETATM   21  C   UNL     1      -8.478   9.473  67.954  1.00  0.00    -0.119 C  
ENDBRANCH  18  19
ENDBRANCH   4  18
BRANCH   4  22
HETATM   22  C   UNL     1     -11.341  11.431  68.097  1.00  0.00    -0.374 C  
HETATM   23  C   UNL     1     -12.011  10.764  68.840  1.00  0.00    -0.210 C  
ENDBRANCH   4  22
BRANCH   7  24
HETATM   24  C   UNL     1     -11.522  11.257  65.000  1.00  0.00     0.091 C  
HETATM   25  C   UNL     1     -12.082  11.725  63.675  1.00  0.00    -0.486 C  
ENDBRANCH   7  24
BRANCH  12  26
HETATM   26  N   UNL     1      -6.525  18.556  67.351  1.00  0.00    -0.193 NA 
HETATM   27  O   UNL     1      -7.284  18.978  66.235  1.00  0.00    -0.226 OA 
HETATM   28  H   UNL     1      -6.829  19.658  65.752  1.00  0.00     0.000 HD 
HETATM   29  H   UNL     1      -5.611  18.931  67.604  1.00  0.00     0.000 HD 
ENDBRANCH  12  26
TORSDOF 5
ENDMDL
MODEL       50
REMARK 921   NORMALIZED FREE ENERGY PREDICTED BY IDOCK:   -3.99 KCAL/MOL
REMARK 922        TOTAL FREE ENERGY PREDICTED BY IDOCK:   -5.58 KCAL/MOL
REMARK 923 INTER-LIGAND FREE ENERGY PREDICTED BY IDOCK:   -5.11 KCAL/MOL
REMARK 924 INTRA-LIGAND FREE ENERGY PREDICTED BY IDOCK:   -0.48 KCAL/MOL
REMARK 927      BINDING AFFINITY PREDICTED BY RF-SCORE:    0.00 PKD
ROOT
HETATM    1  C   UNL     1     -10.351   6.660  67.376  1.00  0.00    -0.279 C  
HETATM    2  C   UNL     1     -10.660   8.033  67.261  1.00  0.00    -0.360 C  
HETATM    3  C   UNL     1      -9.325   7.726  67.845  1.00  0.00    -0.148 C  
HETATM    4  C   UNL     1      -8.670   5.779  67.670  1.00  0.00    -0.107 C  
HETATM    5  C   UNL     1     -10.475   6.192  69.165  1.00  0.00    -0.310 C  
HETATM    6  C   UNL     1     -11.783   6.673  69.900  1.00  0.00    -0.333 C  
HETATM    7  C   UNL     1      -8.496   6.828  66.805  1.00  0.00    -0.117 C  
HETATM    8  C   UNL     1     -11.785   6.654  71.480  1.00  0.00    -0.369 C  
HETATM    9  C   UNL     1      -7.210   7.436  68.065  1.00  0.00    -0.090 C  
HETATM   10  C   UNL     1     -10.423   6.743  72.167  1.00  0.00    -0.231 C  
HETATM   11  C   UNL     1     -10.061   7.604  73.141  1.00  0.00    -0.382 C  
HETATM   12  C   UNL     1      -8.639   7.681  73.625  1.00  0.00    -0.213 C  
HETATM   13  C   UNL     1      -7.647   6.619  73.191  1.00  0.00    -0.088 C  
HETATM   14  C   UNL     1      -8.201   5.517  72.326  1.00  0.00    -0.111 C  
HETATM   15  C   UNL     1      -7.624   6.928  69.658  1.00  0.00    -0.101 C  
HETATM   16  C   UNL     1      -9.175   6.646  70.148  1.00  0.00    -0.155 C  
HETATM   17  C   UNL     1      -9.398   5.875  71.470  1.00  0.00    -0.160 C  
ENDROOT
BRANCH   4  18
HETATM   18  O   UNL     1      -7.286   5.243  67.696  1.00  0.00    -0.074 OA 
BRANCH  18  19
HETATM   19  C   UNL     1      -7.000   4.022  68.209  1.00  0.00    -0.048 C  
HETATM   20  O   UNL     1      -7.430   3.578  69.265  1.00  0.00    -0.051 OA 
HETATM   21  C   UNL     1      -5.932   3.344  67.380  1.00  0.00    -0.024 C  
ENDBRANCH  18  19
ENDBRANCH   4  18
BRANCH   4  22
HETATM   22  C   UNL     1      -9.335   4.639  66.836  1.00  0.00    -0.150 C  
HETATM   23  C   UNL     1      -9.768   3.718  66.196  1.00  0.00    -0.136 C  
ENDBRANCH   4  22
BRANCH   7  24
HETATM   24  C   UNL     1      -8.068   7.075  65.380  1.00  0.00    -0.133 C  
HETATM   25  C   UNL     1      -8.231   8.471  64.822  1.00  0.00    -0.164 C  
ENDBRANCH   7  24
BRANCH  12  26
HETATM   26  N   UNL     1      -8.258   8.673  74.390  1.00  0.00    -0.414 NA 
HETATM   27  O   UNL     1      -6.971   9.127  74.027  1.00  0.00    -0.358 OA 
HETATM   28  H   UNL     1      -6.694   9.847  74.582  1.00  0.00     0.000 HD 
HETATM   29  H   UNL     1      -8.817   9.065  75.149  1.00  0.00     0.000 HD 
ENDBRANCH  12  26
TORSDOF 5
ENDMDL
MODEL       51
REMARK 921   NORMALIZED FREE ENERGY PREDICTED BY IDOCK:   -3.99 KCAL/MOL
REMARK 922        TOTAL FREE ENERGY PREDICTED BY IDOCK:   -5.58 KCAL/MOL
REMARK 923 INTER-LIGAND FREE ENERGY PREDICTED BY IDOCK:   -5.34 KCAL/MOL
REMARK 924 INTRA-LIGAND FREE ENERGY PREDICTED BY IDOCK:   -0.23 KCAL/MOL
REMARK 927      BINDING AFFINITY PREDICTED BY RF-SCORE:    0.00 PKD
ROOT
HETATM    1  C   UNL     1      -6.609  10.332  68.820  1.00  0.00    -0.052 C  
HETATM    2  C   UNL     1      -6.253  10.838  70.090  1.00  0.00    -0.136 C  
HETATM    3  C   UNL     1      -7.704  10.564  69.895  1.00  0.00    -0.017 C  
HETATM    4  C   UNL     1      -8.218   9.467  68.227  1.00  0.00    -0.118 C  
HETATM    5  C   UNL     1      -7.444  11.690  67.875  1.00  0.00    -0.105 C  
HETATM    6  C   UNL     1      -6.699  13.078  67.885  1.00  0.00    -0.129 C  
HETATM    7  C   UNL     1      -7.892   9.025  69.483  1.00  0.00    -0.094 C  
HETATM    8  C   UNL     1      -7.518  14.353  67.442  1.00  0.00    -0.183 C  
HETATM    9  C   UNL     1      -9.631   9.622  69.962  1.00  0.00    -0.281 C  
HETATM   10  C   UNL     1      -9.037  14.279  67.599  1.00  0.00    -0.192 C  
HETATM   11  C   UNL     1      -9.832  15.176  68.220  1.00  0.00    -0.223 C  
HETATM   12  C   UNL     1     -11.297  14.904  68.432  1.00  0.00    -0.303 C  
HETATM   13  C   UNL     1     -11.942  13.723  67.732  1.00  0.00    -0.391 C  
HETATM   14  C   UNL     1     -11.045  12.930  66.819  1.00  0.00    -0.315 C  
HETATM   15  C   UNL     1     -10.118  10.948  68.977  1.00  0.00    -0.212 C  
HETATM   16  C   UNL     1      -9.054  12.005  68.285  1.00  0.00    -0.190 C  
HETATM   17  C   UNL     1      -9.570  12.933  67.160  1.00  0.00    -0.225 C  
ENDROOT
BRANCH   4  18
HETATM   18  O   UNL     1      -9.425   8.641  67.975  1.00  0.00    -0.139 OA 
BRANCH  18  19
HETATM   19  C   UNL     1      -9.754   8.213  66.732  1.00  0.00    -0.235 C  
HETATM   20  O   UNL     1      -9.750   7.048  66.359  1.00  0.00    -0.156 OA 
HETATM   21  C   UNL     1      -9.963   9.394  65.812  1.00  0.00    -0.278 C  
ENDBRANCH  18  19
ENDBRANCH   4  18
BRANCH   4  22
HETATM   22  C   UNL     1      -7.243   8.739  67.248  1.00  0.00    -0.080 C  
HETATM   23  C   UNL     1      -6.430   8.240  66.516  1.00  0.00    -0.055 C  
ENDBRANCH   4  22
BRANCH   7  24
HETATM   24  C   UNL     1      -7.511   7.743  70.179  1.00  0.00    -0.083 C  
HETATM   25  C   UNL     1      -7.103   7.818  71.634  1.00  0.00    -0.064 C  
ENDBRANCH   7  24
BRANCH  12  26
HETATM   26  N   UNL     1     -11.996  15.665  69.235  1.00  0.00    -0.489 NA 
HETATM   27  O   UNL     1     -13.001  14.918  69.892  1.00  0.00    -0.600 OA 
HETATM   28  H   UNL     1     -13.508  15.470  70.475  1.00  0.00     0.000 HD 
HETATM   29  H   UNL     1     -11.838  16.664  69.369  1.00  0.00     0.000 HD 
ENDBRANCH  12  26
TORSDOF 5
ENDMDL
MODEL       52
REMARK 921   NORMALIZED FREE ENERGY PREDICTED BY IDOCK:   -3.97 KCAL/MOL
REMARK 922        TOTAL FREE ENERGY PREDICTED BY IDOCK:   -5.55 KCAL/MOL
REMARK 923 INTER-LIGAND FREE ENERGY PREDICTED BY IDOCK:   -5.44 KCAL/MOL
REMARK 924 INTRA-LIGAND FREE ENERGY PREDICTED BY IDOCK:   -0.11 KCAL/MOL
REMARK 927      BINDING AFFINITY PREDICTED BY RF-SCORE:    0.00 PKD
ROOT
HETATM    1  C   UNL     1      -8.510  15.518  67.709  1.00  0.00    -0.159 C  
HETATM    2  C   UNL     1      -7.892  16.034  66.549  1.00  0.00    -0.226 C  
HETATM    3  C   UNL     1      -9.175  15.312  66.322  1.00  0.00    -0.350 C  
HETATM    4  C   UNL     1     -10.303  14.895  67.997  1.00  0.00    -0.244 C  
HETATM    5  C   UNL     1      -8.275  13.680  67.716  1.00  0.00    -0.179 C  
HETATM    6  C   UNL     1      -6.806  13.185  67.434  1.00  0.00    -0.113 C  
HETATM    7  C   UNL     1     -10.325  16.009  67.200  1.00  0.00    -0.295 C  
HETATM    8  C   UNL     1      -6.607  11.667  67.047  1.00  0.00    -0.144 C  
HETATM    9  C   UNL     1     -11.251  14.902  65.964  1.00  0.00    -0.327 C  
HETATM   10  C   UNL     1      -7.807  10.958  66.419  1.00  0.00    -0.154 C  
HETATM   11  C   UNL     1      -7.819  10.247  65.272  1.00  0.00    -0.145 C  
HETATM   12  C   UNL     1      -9.105   9.725  64.692  1.00  0.00    -0.245 C  
HETATM   13  C   UNL     1     -10.374   9.786  65.521  1.00  0.00     0.044 C  
HETATM   14  C   UNL     1     -10.221  10.335  66.916  1.00  0.00    -0.286 C  
HETATM   15  C   UNL     1     -10.773  13.256  66.137  1.00  0.00    -0.287 C  
HETATM   16  C   UNL     1      -9.288  12.794  66.692  1.00  0.00    -0.242 C  
HETATM   17  C   UNL     1      -9.093  11.322  67.127  1.00  0.00    -0.160 C  
ENDROOT
BRANCH   4  18
HETATM   18  O   UNL     1     -11.761  14.641  68.115  1.00  0.00    -0.317 OA 
BRANCH  18  19
HETATM   19  C   UNL     1     -12.297  14.032  69.200  1.00  0.00    -0.134 C  
HETATM   20  O   UNL     1     -12.908  14.594  70.098  1.00  0.00    -0.282 OA 
HETATM   21  C   UNL     1     -11.886  12.578  69.239  1.00  0.00    -0.360 C  
ENDBRANCH  18  19
ENDBRANCH   4  18
BRANCH   4  22
HETATM   22  C   UNL     1     -10.049  15.409  69.449  1.00  0.00    -0.269 C  
HETATM   23  C   UNL     1      -9.790  15.744  70.575  1.00  0.00     0.658 C  
ENDBRANCH   4  22
BRANCH   7  24
HETATM   24  C   UNL     1     -10.858  17.419  67.221  1.00  0.00    -0.126 C  
HETATM   25  C   UNL     1     -10.267  18.418  66.252  1.00  0.00    -0.427 C  
ENDBRANCH   7  24
BRANCH  12  26
HETATM   26  N   UNL     1      -9.131   9.251  63.472  1.00  0.00    -0.414 NA 
HETATM   27  O   UNL     1      -9.250  10.293  62.525  1.00  0.00    -0.253 OA 
HETATM   28  H   UNL     1      -9.268   9.949  61.640  1.00  0.00     0.000 HD 
HETATM   29  H   UNL     1      -9.073   8.260  63.236  1.00  0.00     0.000 HD 
ENDBRANCH  12  26
TORSDOF 5
ENDMDL
MODEL       53
REMARK 921   NORMALIZED FREE ENERGY PREDICTED BY IDOCK:   -3.87 KCAL/MOL
REMARK 922        TOTAL FREE ENERGY PREDICTED BY IDOCK:   -5.42 KCAL/MOL
REMARK 923 INTER-LIGAND FREE ENERGY PREDICTED BY IDOCK:   -5.14 KCAL/MOL
REMARK 924 INTRA-LIGAND FREE ENERGY PREDICTED BY IDOCK:   -0.28 KCAL/MOL
REMARK 927      BINDING AFFINITY PREDICTED BY RF-SCORE:    0.00 PKD
ROOT
HETATM    1  C   UNL     1      -9.610   8.861  68.219  1.00  0.00    -0.159 C  
HETATM    2  C   UNL     1     -10.753   9.223  67.472  1.00  0.00    -0.272 C  
HETATM    3  C   UNL     1     -10.812   7.883  68.120  1.00  0.00     0.002 C  
HETATM    4  C   UNL     1      -9.361   7.478  69.528  1.00  0.00    -0.153 C  
HETATM    5  C   UNL     1      -8.673   7.588  67.252  1.00  0.00    -0.121 C  
HETATM    6  C   UNL     1      -8.428   7.937  65.735  1.00  0.00    -0.152 C  
HETATM    7  C   UNL     1     -10.591   8.060  69.700  1.00  0.00    -0.223 C  
HETATM    8  C   UNL     1      -7.990   6.762  64.775  1.00  0.00    -0.120 C  
HETATM    9  C   UNL     1     -11.268   6.297  69.491  1.00  0.00    -0.500 C  
HETATM   10  C   UNL     1      -8.386   5.348  65.200  1.00  0.00    -0.144 C  
HETATM   11  C   UNL     1      -9.027   4.426  64.451  1.00  0.00    -0.151 C  
HETATM   12  C   UNL     1      -9.487   3.122  65.044  1.00  0.00    -0.132 C  
HETATM   13  C   UNL     1      -9.018   2.731  66.433  1.00  0.00    -0.153 C  
HETATM   14  C   UNL     1      -8.062   3.687  67.097  1.00  0.00    -0.091 C  
HETATM   15  C   UNL     1     -10.241   5.361  68.474  1.00  0.00    -0.237 C  
HETATM   16  C   UNL     1      -9.291   6.015  67.291  1.00  0.00    -0.115 C  
HETATM   17  C   UNL     1      -8.171   5.139  66.683  1.00  0.00    -0.108 C  
ENDROOT
BRANCH   4  18
HETATM   18  O   UNL     1      -9.382   6.510  70.653  1.00  0.00    -0.161 OA 
BRANCH  18  19
HETATM   19  C   UNL     1      -8.245   5.973  71.158  1.00  0.00    -0.123 C  
HETATM   20  O   UNL     1      -7.292   5.581  70.498  1.00  0.00    -0.070 OA 
HETATM   21  C   UNL     1      -8.385   5.763  72.648  1.00  0.00    -0.116 C  
ENDBRANCH  18  19
ENDBRANCH   4  18
BRANCH   4  22
HETATM   22  C   UNL     1      -8.323   8.483  70.119  1.00  0.00    -0.123 C  
HETATM   23  C   UNL     1      -7.564   9.248  70.653  1.00  0.00    -0.161 C  
ENDBRANCH   4  22
BRANCH   7  24
HETATM   24  C   UNL     1     -11.346   8.848  70.740  1.00  0.00    -0.325 C  
HETATM   25  C   UNL     1     -11.097   8.524  72.196  1.00  0.00    -0.436 C  
ENDBRANCH   7  24
BRANCH  12  26
HETATM   26  N   UNL     1     -10.308   2.350  64.378  1.00  0.00    -0.358 NA 
HETATM   27  O   UNL     1     -11.214   3.118  63.611  1.00  0.00    -0.434 OA 
HETATM   28  H   UNL     1     -11.809   2.557  63.127  1.00  0.00     0.000 HD 
HETATM   29  H   UNL     1     -10.295   1.331  64.408  1.00  0.00     0.000 HD 
ENDBRANCH  12  26
TORSDOF 5
ENDMDL
MODEL       54
REMARK 921   NORMALIZED FREE ENERGY PREDICTED BY IDOCK:   -3.86 KCAL/MOL
REMARK 922        TOTAL FREE ENERGY PREDICTED BY IDOCK:   -5.40 KCAL/MOL
REMARK 923 INTER-LIGAND FREE ENERGY PREDICTED BY IDOCK:   -4.97 KCAL/MOL
REMARK 924 INTRA-LIGAND FREE ENERGY PREDICTED BY IDOCK:   -0.43 KCAL/MOL
REMARK 927      BINDING AFFINITY PREDICTED BY RF-SCORE:    0.00 PKD
ROOT
HETATM    1  C   UNL     1     -10.531   7.277  72.191  1.00  0.00    -0.233 C  
HETATM    2  C   UNL     1     -11.739   6.648  71.820  1.00  0.00    -0.363 C  
HETATM    3  C   UNL     1     -10.499   5.992  71.322  1.00  0.00    -0.283 C  
HETATM    4  C   UNL     1      -8.723   6.629  72.154  1.00  0.00    -0.130 C  
HETATM    5  C   UNL     1      -9.849   8.138  70.698  1.00  0.00    -0.196 C  
HETATM    6  C   UNL     1     -10.878   9.027  69.902  1.00  0.00    -0.228 C  
HETATM    7  C   UNL     1      -9.563   5.630  72.575  1.00  0.00    -0.167 C  
HETATM    8  C   UNL     1     -10.485   9.469  68.438  1.00  0.00    -0.261 C  
HETATM    9  C   UNL     1      -8.844   4.641  71.121  1.00  0.00    -0.149 C  
HETATM   10  C   UNL     1      -9.483   8.580  67.701  1.00  0.00    -0.173 C  
HETATM   11  C   UNL     1      -9.623   8.054  66.465  1.00  0.00    -0.295 C  
HETATM   12  C   UNL     1      -8.622   7.072  65.919  1.00  0.00    -0.145 C  
HETATM   13  C   UNL     1      -7.316   6.852  66.659  1.00  0.00    -0.077 C  
HETATM   14  C   UNL     1      -7.106   7.698  67.887  1.00  0.00    -0.085 C  
HETATM   15  C   UNL     1      -8.371   5.690  69.839  1.00  0.00    -0.117 C  
HETATM   16  C   UNL     1      -9.077   7.156  69.558  1.00  0.00    -0.146 C  
HETATM   17  C   UNL     1      -8.357   8.147  68.613  1.00  0.00    -0.126 C  
ENDROOT
BRANCH   4  18
HETATM   18  O   UNL     1      -7.422   5.922  72.257  1.00  0.00    -0.096 OA 
BRANCH  18  19
HETATM   19  C   UNL     1      -6.245   6.592  72.316  1.00  0.00    -0.045 C  
HETATM   20  O   UNL     1      -5.856   7.413  71.498  1.00  0.00    -0.036 OA 
HETATM   21  C   UNL     1      -5.396   6.055  73.446  1.00  0.00    -0.035 C  
ENDBRANCH  18  19
ENDBRANCH   4  18
BRANCH   4  22
HETATM   22  C   UNL     1      -8.552   7.589  73.373  1.00  0.00    -0.212 C  
HETATM   23  C   UNL     1      -8.332   8.322  74.301  1.00  0.00    -0.190 C  
ENDBRANCH   4  22
BRANCH   7  24
HETATM   24  C   UNL     1      -9.800   4.774  73.794  1.00  0.00    -0.170 C  
HETATM   25  C   UNL     1     -11.013   3.871  73.803  1.00  0.00    -0.321 C  
ENDBRANCH   7  24
BRANCH  12  26
HETATM   26  N   UNL     1      -8.892   6.395  64.831  1.00  0.00    -0.345 NA 
HETATM   27  O   UNL     1      -8.421   7.073  63.684  1.00  0.00    -0.349 OA 
HETATM   28  H   UNL     1      -8.616   6.582  62.894  1.00  0.00     0.000 HD 
HETATM   29  H   UNL     1      -9.378   5.499  64.814  1.00  0.00     0.000 HD 
ENDBRANCH  12  26
TORSDOF 5
ENDMDL
MODEL       55
REMARK 921   NORMALIZED FREE ENERGY PREDICTED BY IDOCK:   -3.74 KCAL/MOL
REMARK 922        TOTAL FREE ENERGY PREDICTED BY IDOCK:   -5.25 KCAL/MOL
REMARK 923 INTER-LIGAND FREE ENERGY PREDICTED BY IDOCK:   -4.95 KCAL/MOL
REMARK 924 INTRA-LIGAND FREE ENERGY PREDICTED BY IDOCK:   -0.30 KCAL/MOL
REMARK 927      BINDING AFFINITY PREDICTED BY RF-SCORE:    0.00 PKD
ROOT
HETATM    1  C   UNL     1      -7.191   8.206  67.401  1.00  0.00    -0.088 C  
HETATM    2  C   UNL     1      -6.196   8.687  68.280  1.00  0.00    -0.054 C  
HETATM    3  C   UNL     1      -6.869   7.428  68.705  1.00  0.00    -0.072 C  
HETATM    4  C   UNL     1      -8.029   6.481  67.288  1.00  0.00    -0.113 C  
HETATM    5  C   UNL     1      -8.844   8.537  68.171  1.00  0.00    -0.142 C  
HETATM    6  C   UNL     1      -9.053   9.998  68.722  1.00  0.00    -0.148 C  
HETATM    7  C   UNL     1      -6.693   6.328  67.550  1.00  0.00    -0.061 C  
HETATM    8  C   UNL     1     -10.257  10.241  69.715  1.00  0.00    -0.262 C  
HETATM    9  C   UNL     1      -7.273   5.354  69.074  1.00  0.00    -0.062 C  
HETATM   10  C   UNL     1     -10.747   9.029  70.505  1.00  0.00    -0.285 C  
HETATM   11  C   UNL     1     -10.926   8.950  71.841  1.00  0.00    -0.439 C  
HETATM   12  C   UNL     1     -11.273   7.645  72.505  1.00  0.00    -0.346 C  
HETATM   13  C   UNL     1     -11.665   6.456  71.649  1.00  0.00    -0.367 C  
HETATM   14  C   UNL     1     -11.723   6.706  70.165  1.00  0.00    -0.412 C  
HETATM   15  C   UNL     1      -8.798   5.931  69.628  1.00  0.00    -0.131 C  
HETATM   16  C   UNL     1      -9.317   7.483  69.406  1.00  0.00    -0.152 C  
HETATM   17  C   UNL     1     -10.816   7.795  69.633  1.00  0.00    -0.185 C  
ENDROOT
BRANCH   4  18
HETATM   18  O   UNL     1      -8.433   5.056  67.198  1.00  0.00    -0.107 OA 
BRANCH  18  19
HETATM   19  C   UNL     1      -9.592   4.675  66.608  1.00  0.00    -0.182 C  
HETATM   20  O   UNL     1     -10.687   5.183  66.805  1.00  0.00    -0.256 OA 
HETATM   21  C   UNL     1      -9.377   3.416  65.800  1.00  0.00    -0.144 C  
ENDBRANCH  18  19
ENDBRANCH   4  18
BRANCH   4  22
HETATM   22  C   UNL     1      -8.133   6.839  65.772  1.00  0.00    -0.123 C  
HETATM   23  C   UNL     1      -8.174   7.192  64.623  1.00  0.00    -0.027 C  
ENDBRANCH   4  22
BRANCH   7  24
HETATM   24  C   UNL     1      -5.466   5.725  66.913  1.00  0.00    -0.012 C  
HETATM   25  C   UNL     1      -5.642   4.486  66.064  1.00  0.00    -0.017 C  
ENDBRANCH   7  24
BRANCH  12  26
HETATM   26  N   UNL     1     -11.208   7.534  73.808  1.00  0.00    -0.351 NA 
HETATM   27  O   UNL     1      -9.873   7.346  74.234  1.00  0.00    -0.416 OA 
HETATM   28  H   UNL     1      -9.826   7.265  75.179  1.00  0.00     0.000 HD 
HETATM   29  H   UNL     1     -12.013   7.576  74.432  1.00  0.00     0.000 HD 
ENDBRANCH  12  26
TORSDOF 5
ENDMDL
MODEL       56
REMARK 921   NORMALIZED FREE ENERGY PREDICTED BY IDOCK:   -3.66 KCAL/MOL
REMARK 922        TOTAL FREE ENERGY PREDICTED BY IDOCK:   -5.15 KCAL/MOL
REMARK 923 INTER-LIGAND FREE ENERGY PREDICTED BY IDOCK:   -5.69 KCAL/MOL
REMARK 924 INTRA-LIGAND FREE ENERGY PREDICTED BY IDOCK:    0.54 KCAL/MOL
REMARK 927      BINDING AFFINITY PREDICTED BY RF-SCORE:    0.00 PKD
ROOT
HETATM    1  C   UNL     1     -11.149  13.363  68.103  1.00  0.00    -0.284 C  
HETATM    2  C   UNL     1     -10.459  13.768  69.266  1.00  0.00     0.040 C  
HETATM    3  C   UNL     1      -9.620  13.124  68.218  1.00  0.00    -0.218 C  
HETATM    4  C   UNL     1     -10.490  12.880  66.365  1.00  0.00    -0.267 C  
HETATM    5  C   UNL     1     -11.301  11.517  68.139  1.00  0.00    -0.367 C  
HETATM    6  C   UNL     1     -11.816  10.908  69.498  1.00  0.00    -0.404 C  
HETATM    7  C   UNL     1      -9.777  13.946  66.849  1.00  0.00    -0.268 C  
HETATM    8  C   UNL     1     -11.607   9.360  69.734  1.00  0.00     0.094 C  
HETATM    9  C   UNL     1      -8.258  12.835  66.586  1.00  0.00     0.166 C  
HETATM   10  C   UNL     1     -10.465   8.699  68.962  1.00  0.00    -0.216 C  
HETATM   11  C   UNL     1      -9.483   7.926  69.472  1.00  0.00    -0.160 C  
HETATM   12  C   UNL     1      -8.335   7.461  68.619  1.00  0.00    -0.129 C  
HETATM   13  C   UNL     1      -8.399   7.655  67.116  1.00  0.00    -0.121 C  
HETATM   14  C   UNL     1      -9.668   8.271  66.586  1.00  0.00    -0.321 C  
HETATM   15  C   UNL     1      -8.674  11.174  66.763  1.00  0.00    -0.157 C  
HETATM   16  C   UNL     1      -9.917  10.644  67.714  1.00  0.00    -0.192 C  
HETATM   17  C   UNL     1     -10.411   9.190  67.532  1.00  0.00    -0.335 C  
ENDROOT
BRANCH   4  18
HETATM   18  O   UNL     1      -9.849  12.733  65.034  1.00  0.00    -0.180 OA 
BRANCH  18  19
HETATM   19  C   UNL     1     -10.503  12.185  63.981  1.00  0.00    -0.386 C  
HETATM   20  O   UNL     1     -11.143  12.806  63.144  1.00  0.00    -0.258 OA 
HETATM   21  C   UNL     1     -10.479  10.677  64.078  1.00  0.00    -0.150 C  
ENDBRANCH  18  19
ENDBRANCH   4  18
BRANCH   4  22
HETATM   22  C   UNL     1     -11.860  13.458  65.890  1.00  0.00    -0.414 C  
HETATM   23  C   UNL     1     -12.951  13.871  65.599  1.00  0.00    -0.361 C  
ENDBRANCH   4  22
BRANCH   7  24
HETATM   24  C   UNL     1      -9.503  15.388  66.504  1.00  0.00    -0.298 C  
HETATM   25  C   UNL     1     -10.343  16.032  65.423  1.00  0.00    -0.386 C  
ENDBRANCH   7  24
BRANCH  12  26
HETATM   26  N   UNL     1      -7.280   6.921  69.175  1.00  0.00    -0.088 NA 
HETATM   27  O   UNL     1      -6.122   7.157  68.400  1.00  0.00    -0.031 OA 
HETATM   28  H   UNL     1      -5.357   6.764  68.804  1.00  0.00     0.000 HD 
HETATM   29  H   UNL     1      -7.293   6.398  70.051  1.00  0.00     0.000 HD 
ENDBRANCH  12  26
TORSDOF 5
ENDMDL
MODEL       57
REMARK 921   NORMALIZED FREE ENERGY PREDICTED BY IDOCK:   -3.66 KCAL/MOL
REMARK 922        TOTAL FREE ENERGY PREDICTED BY IDOCK:   -5.15 KCAL/MOL
REMARK 923 INTER-LIGAND FREE ENERGY PREDICTED BY IDOCK:   -4.90 KCAL/MOL
REMARK 924 INTRA-LIGAND FREE ENERGY PREDICTED BY IDOCK:   -0.25 KCAL/MOL
REMARK 927      BINDING AFFINITY PREDICTED BY RF-SCORE:    0.00 PKD
ROOT
HETATM    1  C   UNL     1      -9.423  11.457  65.260  1.00  0.00    -0.233 C  
HETATM    2  C   UNL     1     -10.581  11.449  64.452  1.00  0.00    -0.403 C  
HETATM    3  C   UNL     1     -10.473  10.326  65.423  1.00  0.00    -0.125 C  
HETATM    4  C   UNL     1      -9.025  10.506  66.880  1.00  0.00    -0.140 C  
HETATM    5  C   UNL     1      -8.287  10.127  64.649  1.00  0.00    -0.167 C  
HETATM    6  C   UNL     1      -8.047  10.107  63.092  1.00  0.00    -0.158 C  
HETATM    7  C   UNL     1     -10.328  10.930  66.903  1.00  0.00    -0.285 C  
HETATM    8  C   UNL     1      -7.419   8.801  62.464  1.00  0.00    -0.102 C  
HETATM    9  C   UNL     1     -10.746   9.094  67.160  1.00  0.00    -0.213 C  
HETATM   10  C   UNL     1      -7.626   7.501  63.242  1.00  0.00    -0.118 C  
HETATM   11  C   UNL     1      -8.108   6.336  62.759  1.00  0.00    -0.078 C  
HETATM   12  C   UNL     1      -8.400   5.176  63.672  1.00  0.00    -0.129 C  
HETATM   13  C   UNL     1      -7.924   5.224  65.111  1.00  0.00    -0.108 C  
HETATM   14  C   UNL     1      -7.133   6.445  65.501  1.00  0.00    -0.065 C  
HETATM   15  C   UNL     1      -9.566   8.086  66.413  1.00  0.00    -0.267 C  
HETATM   16  C   UNL     1      -8.681   8.545  65.096  1.00  0.00    -0.156 C  
HETATM   17  C   UNL     1      -7.431   7.712  64.727  1.00  0.00    -0.094 C  
ENDROOT
BRANCH   4  18
HETATM   18  O   UNL     1      -8.945   9.865  68.216  1.00  0.00    -0.119 OA 
BRANCH  18  19
HETATM   19  C   UNL     1      -7.760   9.533  68.783  1.00  0.00    -0.080 C  
HETATM   20  O   UNL     1      -6.788   9.092  68.185  1.00  0.00    -0.067 OA 
HETATM   21  C   UNL     1      -7.859   9.618  70.289  1.00  0.00    -0.193 C  
ENDBRANCH  18  19
ENDBRANCH   4  18
BRANCH   4  22
HETATM   22  C   UNL     1      -8.156  11.766  67.186  1.00  0.00    -0.169 C  
HETATM   23  C   UNL     1      -7.563  12.784  67.430  1.00  0.00    -0.152 C  
ENDBRANCH   4  22
BRANCH   7  24
HETATM   24  C   UNL     1     -11.218  11.842  67.710  1.00  0.00    -0.331 C  
HETATM   25  C   UNL     1     -11.571  13.190  67.123  1.00  0.00    -0.410 C  
ENDBRANCH   7  24
BRANCH  12  26
HETATM   26  N   UNL     1      -9.083   4.150  63.231  1.00  0.00    -0.125 NA 
HETATM   27  O   UNL     1     -10.446   4.259  63.589  1.00  0.00    -0.414 OA 
HETATM   28  H   UNL     1     -10.942   3.514  63.269  1.00  0.00     0.000 HD 
HETATM   29  H   UNL     1      -8.685   3.375  62.701  1.00  0.00     0.000 HD 
ENDBRANCH  12  26
TORSDOF 5
ENDMDL
MODEL       58
REMARK 921   NORMALIZED FREE ENERGY PREDICTED BY IDOCK:   -3.63 KCAL/MOL
REMARK 922        TOTAL FREE ENERGY PREDICTED BY IDOCK:   -5.11 KCAL/MOL
REMARK 923 INTER-LIGAND FREE ENERGY PREDICTED BY IDOCK:   -4.97 KCAL/MOL
REMARK 924 INTRA-LIGAND FREE ENERGY PREDICTED BY IDOCK:   -0.14 KCAL/MOL
REMARK 927      BINDING AFFINITY PREDICTED BY RF-SCORE:    0.00 PKD
ROOT
HETATM    1  C   UNL     1      -8.119  11.178  69.383  1.00  0.00     0.139 C  
HETATM    2  C   UNL     1      -6.856  10.720  69.817  1.00  0.00    -0.151 C  
HETATM    3  C   UNL     1      -7.289  10.225  68.481  1.00  0.00    -0.082 C  
HETATM    4  C   UNL     1      -8.918  11.165  67.636  1.00  0.00    -0.140 C  
HETATM    5  C   UNL     1      -9.319   9.774  69.525  1.00  0.00    -0.226 C  
HETATM    6  C   UNL     1      -9.297   9.002  70.899  1.00  0.00    -0.326 C  
HETATM    7  C   UNL     1      -7.589  11.485  67.533  1.00  0.00    -0.121 C  
HETATM    8  C   UNL     1      -9.996   7.587  70.956  1.00  0.00    -0.189 C  
HETATM    9  C   UNL     1      -7.493   9.995  66.358  1.00  0.00    -0.104 C  
HETATM   10  C   UNL     1     -10.114   6.829  69.633  1.00  0.00    -0.197 C  
HETATM   11  C   UNL     1      -9.734   5.557  69.392  1.00  0.00    -0.216 C  
HETATM   12  C   UNL     1      -9.772   4.983  68.001  1.00  0.00    -0.151 C  
HETATM   13  C   UNL     1     -10.469   5.755  66.897  1.00  0.00    -0.348 C  
HETATM   14  C   UNL     1     -11.127   7.045  67.311  1.00  0.00    -0.302 C  
HETATM   15  C   UNL     1      -8.666   8.806  66.777  1.00  0.00    -0.134 C  
HETATM   16  C   UNL     1      -9.242   8.599  68.311  1.00  0.00    -0.140 C  
HETATM   17  C   UNL     1     -10.522   7.752  68.505  1.00  0.00    -0.202 C  
ENDROOT
BRANCH   4  18
HETATM   18  O   UNL     1      -9.312  11.269  66.209  1.00  0.00    -0.194 OA 
BRANCH  18  19
HETATM   19  C   UNL     1     -10.556  11.655  65.836  1.00  0.00    -0.271 C  
HETATM   20  O   UNL     1     -11.601  11.143  66.214  1.00  0.00    -0.171 OA 
HETATM   21  C   UNL     1     -10.473  12.698  64.745  1.00  0.00    -0.343 C  
ENDBRANCH  18  19
ENDBRANCH   4  18
BRANCH   4  22
HETATM   22  C   UNL     1      -9.631  12.452  68.158  1.00  0.00    -0.218 C  
HETATM   23  C   UNL     1     -10.249  13.392  68.585  1.00  0.00    -0.187 C  
ENDBRANCH   4  22
BRANCH   7  24
HETATM   24  C   UNL     1      -6.722  12.633  67.080  1.00  0.00    -0.025 C  
HETATM   25  C   UNL     1      -5.366  12.798  67.730  1.00  0.00    -0.115 C  
ENDBRANCH   7  24
BRANCH  12  26
HETATM   26  N   UNL     1      -9.183   3.842  67.746  1.00  0.00    -0.152 NA 
HETATM   27  O   UNL     1      -9.829   3.165  66.686  1.00  0.00    -0.406 OA 
HETATM   28  H   UNL     1      -9.401   2.337  66.500  1.00  0.00     0.000 HD 
HETATM   29  H   UNL     1      -8.366   3.489  68.245  1.00  0.00     0.000 HD 
ENDBRANCH  12  26
TORSDOF 5
ENDMDL
MODEL       59
REMARK 921   NORMALIZED FREE ENERGY PREDICTED BY IDOCK:   -3.62 KCAL/MOL
REMARK 922        TOTAL FREE ENERGY PREDICTED BY IDOCK:   -5.10 KCAL/MOL
REMARK 923 INTER-LIGAND FREE ENERGY PREDICTED BY IDOCK:   -4.67 KCAL/MOL
REMARK 924 INTRA-LIGAND FREE ENERGY PREDICTED BY IDOCK:   -0.43 KCAL/MOL
REMARK 927      BINDING AFFINITY PREDICTED BY RF-SCORE:    0.00 PKD
ROOT
HETATM    1  C   UNL     1     -10.598  10.215  67.647  1.00  0.00    -0.316 C  
HETATM    2  C   UNL     1     -11.424  11.081  68.397  1.00  0.00    -0.378 C  
HETATM    3  C   UNL     1      -9.966  11.182  68.683  1.00  0.00    -0.210 C  
HETATM    4  C   UNL     1      -8.700  10.242  67.354  1.00  0.00    -0.128 C  
HETATM    5  C   UNL     1     -10.022   8.857  68.768  1.00  0.00    -0.195 C  
HETATM    6  C   UNL     1     -11.147   8.169  69.630  1.00  0.00    -0.015 C  
HETATM    7  C   UNL     1      -9.190  11.522  67.319  1.00  0.00    -0.168 C  
HETATM    8  C   UNL     1     -10.693   7.292  70.862  1.00  0.00    -0.251 C  
HETATM    9  C   UNL     1      -7.931  11.864  68.700  1.00  0.00    -0.101 C  
HETATM   10  C   UNL     1      -9.332   7.624  71.473  1.00  0.00    -0.157 C  
HETATM   11  C   UNL     1      -9.063   7.859  72.775  1.00  0.00    -0.272 C  
HETATM   12  C   UNL     1      -7.702   8.322  73.220  1.00  0.00    -0.126 C  
HETATM   13  C   UNL     1      -6.549   8.295  72.234  1.00  0.00    -0.083 C  
HETATM   14  C   UNL     1      -6.865   7.742  70.869  1.00  0.00    -0.042 C  
HETATM   15  C   UNL     1      -7.650  10.447  69.639  1.00  0.00    -0.158 C  
HETATM   16  C   UNL     1      -8.770   9.250  69.835  1.00  0.00    -0.189 C  
HETATM   17  C   UNL     1      -8.298   7.890  70.402  1.00  0.00    -0.121 C  
ENDROOT
BRANCH   4  18
HETATM   18  O   UNL     1      -7.271  10.513  67.059  1.00  0.00    -0.092 OA 
BRANCH  18  19
HETATM   19  C   UNL     1      -6.417   9.529  66.685  1.00  0.00    -0.067 C  
HETATM   20  O   UNL     1      -6.322   8.433  67.218  1.00  0.00    -0.055 OA 
HETATM   21  C   UNL     1      -5.471  10.037  65.621  1.00  0.00    -0.058 C  
ENDBRANCH  18  19
ENDBRANCH   4  18
BRANCH   4  22
HETATM   22  C   UNL     1      -9.090   9.594  65.988  1.00  0.00    -0.212 C  
HETATM   23  C   UNL     1      -9.476   9.106  64.959  1.00  0.00    -0.024 C  
ENDBRANCH   4  22
BRANCH   7  24
HETATM   24  C   UNL     1      -9.312  12.673  66.353  1.00  0.00    -0.198 C  
HETATM   25  C   UNL     1      -9.999  13.933  66.831  1.00  0.00    -0.264 C  
ENDBRANCH   7  24
BRANCH  12  26
HETATM   26  N   UNL     1      -7.526   8.770  74.437  1.00  0.00    -0.428 NA 
HETATM   27  O   UNL     1      -6.290   9.446  74.553  1.00  0.00    -0.357 OA 
HETATM   28  H   UNL     1      -6.162   9.771  75.437  1.00  0.00     0.000 HD 
HETATM   29  H   UNL     1      -8.192   8.648  75.200  1.00  0.00     0.000 HD 
ENDBRANCH  12  26
TORSDOF 5
ENDMDL
MODEL       60
REMARK 921   NORMALIZED FREE ENERGY PREDICTED BY IDOCK:   -3.59 KCAL/MOL
REMARK 922        TOTAL FREE ENERGY PREDICTED BY IDOCK:   -5.06 KCAL/MOL
REMARK 923 INTER-LIGAND FREE ENERGY PREDICTED BY IDOCK:   -4.74 KCAL/MOL
REMARK 924 INTRA-LIGAND FREE ENERGY PREDICTED BY IDOCK:   -0.32 KCAL/MOL
REMARK 927      BINDING AFFINITY PREDICTED BY RF-SCORE:    0.00 PKD
ROOT
HETATM    1  C   UNL     1     -10.465   6.966  67.014  1.00  0.00    -0.374 C  
HETATM    2  C   UNL     1     -10.302   8.358  67.191  1.00  0.00    -0.381 C  
HETATM    3  C   UNL     1      -9.185   7.514  67.700  1.00  0.00    -0.135 C  
HETATM    4  C   UNL     1      -9.187   5.536  67.118  1.00  0.00    -0.111 C  
HETATM    5  C   UNL     1     -10.863   6.221  68.664  1.00  0.00    -0.401 C  
HETATM    6  C   UNL     1     -11.993   6.953  69.482  1.00  0.00     0.265 C  
HETATM    7  C   UNL     1      -8.620   6.618  66.495  1.00  0.00    -0.124 C  
HETATM    8  C   UNL     1     -12.115   6.621  71.021  1.00  0.00    -0.384 C  
HETATM    9  C   UNL     1      -7.301   6.500  67.857  1.00  0.00    -0.093 C  
HETATM   10  C   UNL     1     -10.851   6.114  71.714  1.00  0.00    -0.303 C  
HETATM   11  C   UNL     1     -10.301   6.594  72.849  1.00  0.00    -0.236 C  
HETATM   12  C   UNL     1      -8.969   6.095  73.341  1.00  0.00    -0.125 C  
HETATM   13  C   UNL     1      -8.347   4.873  72.694  1.00  0.00    -0.116 C  
HETATM   14  C   UNL     1      -9.165   4.213  71.614  1.00  0.00    -0.186 C  
HETATM   15  C   UNL     1      -7.971   5.853  69.306  1.00  0.00    -0.099 C  
HETATM   16  C   UNL     1      -9.561   6.011  69.722  1.00  0.00    -0.180 C  
HETATM   17  C   UNL     1     -10.116   5.111  70.852  1.00  0.00    -0.302 C  
ENDROOT
BRANCH   4  18
HETATM   18  O   UNL     1      -8.058   4.577  67.032  1.00  0.00    -0.101 OA 
BRANCH  18  19
HETATM   19  C   UNL     1      -8.243   3.240  67.151  1.00  0.00    -0.083 C  
HETATM   20  O   UNL     1      -8.757   2.678  68.108  1.00  0.00    -0.083 OA 
HETATM   21  C   UNL     1      -7.566   2.516  66.010  1.00  0.00    -0.068 C  
ENDBRANCH  18  19
ENDBRANCH   4  18
BRANCH   4  22
HETATM   22  C   UNL     1     -10.124   4.872  66.060  1.00  0.00    -0.264 C  
HETATM   23  C   UNL     1     -10.784   4.297  65.235  1.00  0.00    -0.118 C  
ENDBRANCH   4  22
BRANCH   7  24
HETATM   24  C   UNL     1      -8.034   6.987  65.155  1.00  0.00    -0.128 C  
HETATM   25  C   UNL     1      -7.093   8.169  65.093  1.00  0.00    -0.067 C  
ENDBRANCH   7  24
BRANCH  12  26
HETATM   26  N   UNL     1      -8.343   6.731  74.299  1.00  0.00    -0.134 NA 
HETATM   27  O   UNL     1      -8.886   8.022  74.489  1.00  0.00    -0.409 OA 
HETATM   28  H   UNL     1      -8.432   8.483  75.184  1.00  0.00     0.000 HD 
HETATM   29  H   UNL     1      -7.567   6.346  74.838  1.00  0.00     0.000 HD 
ENDBRANCH  12  26
TORSDOF 5
ENDMDL
MODEL       61
REMARK 921   NORMALIZED FREE ENERGY PREDICTED BY IDOCK:   -3.59 KCAL/MOL
REMARK 922        TOTAL FREE ENERGY PREDICTED BY IDOCK:   -5.06 KCAL/MOL
REMARK 923 INTER-LIGAND FREE ENERGY PREDICTED BY IDOCK:   -4.71 KCAL/MOL
REMARK 924 INTRA-LIGAND FREE ENERGY PREDICTED BY IDOCK:   -0.35 KCAL/MOL
REMARK 927      BINDING AFFINITY PREDICTED BY RF-SCORE:    0.00 PKD
ROOT
HETATM    1  C   UNL     1      -8.774   9.982  68.587  1.00  0.00    -0.127 C  
HETATM    2  C   UNL     1      -8.007  10.644  69.570  1.00  0.00    -0.079 C  
HETATM    3  C   UNL     1      -7.680   9.206  69.368  1.00  0.00    -0.080 C  
HETATM    4  C   UNL     1      -8.481   8.307  67.694  1.00  0.00    -0.130 C  
HETATM    5  C   UNL     1      -9.982   8.874  69.452  1.00  0.00    -0.192 C  
HETATM    6  C   UNL     1     -10.790   9.543  70.628  1.00  0.00    -0.371 C  
HETATM    7  C   UNL     1      -7.290   8.972  67.829  1.00  0.00    -0.084 C  
HETATM    8  C   UNL     1     -11.535   8.588  71.641  1.00  0.00    -0.365 C  
HETATM    9  C   UNL     1      -6.707   7.404  68.728  1.00  0.00    -0.053 C  
HETATM   10  C   UNL     1     -10.980   7.170  71.779  1.00  0.00    -0.258 C  
HETATM   11  C   UNL     1     -10.652   6.536  72.924  1.00  0.00    -0.267 C  
HETATM   12  C   UNL     1      -9.975   5.193  72.905  1.00  0.00    -0.159 C  
HETATM   13  C   UNL     1      -9.876   4.429  71.599  1.00  0.00    -0.255 C  
HETATM   14  C   UNL     1     -10.528   5.078  70.406  1.00  0.00    -0.237 C  
HETATM   15  C   UNL     1      -8.024   6.622  69.515  1.00  0.00    -0.117 C  
HETATM   16  C   UNL     1      -9.364   7.422  70.057  1.00  0.00    -0.151 C  
HETATM   17  C   UNL     1     -10.613   6.590  70.431  1.00  0.00    -0.282 C  
ENDROOT
BRANCH   4  18
HETATM   18  O   UNL     1      -8.016   7.108  66.953  1.00  0.00    -0.111 OA 
BRANCH  18  19
HETATM   19  C   UNL     1      -8.884   6.240  66.378  1.00  0.00    -0.143 C  
HETATM   20  O   UNL     1      -9.906   5.812  66.895  1.00  0.00    -0.136 OA 
HETATM   21  C   UNL     1      -8.323   5.734  65.068  1.00  0.00    -0.138 C  
ENDBRANCH  18  19
ENDBRANCH   4  18
BRANCH   4  22
HETATM   22  C   UNL     1      -9.238   9.012  66.525  1.00  0.00    -0.226 C  
HETATM   23  C   UNL     1      -9.742   9.577  65.591  1.00  0.00    -0.361 C  
ENDBRANCH   4  22
BRANCH   7  24
HETATM   24  C   UNL     1      -6.213   9.574  66.961  1.00  0.00    -0.065 C  
HETATM   25  C   UNL     1      -5.349  10.663  67.555  1.00  0.00    -0.040 C  
ENDBRANCH   7  24
BRANCH  12  26
HETATM   26  N   UNL     1      -9.453   4.705  74.002  1.00  0.00    -0.116 NA 
HETATM   27  O   UNL     1     -10.280   3.699  74.553  1.00  0.00    -0.162 OA 
HETATM   28  H   UNL     1      -9.901   3.345  75.348  1.00  0.00     0.000 HD 
HETATM   29  H   UNL     1      -8.567   5.010  74.406  1.00  0.00     0.000 HD 
ENDBRANCH  12  26
TORSDOF 5
ENDMDL
MODEL       62
REMARK 921   NORMALIZED FREE ENERGY PREDICTED BY IDOCK:   -3.57 KCAL/MOL
REMARK 922        TOTAL FREE ENERGY PREDICTED BY IDOCK:   -5.03 KCAL/MOL
REMARK 923 INTER-LIGAND FREE ENERGY PREDICTED BY IDOCK:   -4.76 KCAL/MOL
REMARK 924 INTRA-LIGAND FREE ENERGY PREDICTED BY IDOCK:   -0.27 KCAL/MOL
REMARK 927      BINDING AFFINITY PREDICTED BY RF-SCORE:    0.00 PKD
ROOT
HETATM    1  C   UNL     1     -10.737   7.204  70.647  1.00  0.00    -0.255 C  
HETATM    2  C   UNL     1     -12.043   6.860  70.237  1.00  0.00    -0.182 C  
HETATM    3  C   UNL     1     -11.076   5.729  70.302  1.00  0.00    -0.300 C  
HETATM    4  C   UNL     1      -9.290   6.101  71.264  1.00  0.00    -0.159 C  
HETATM    5  C   UNL     1      -9.635   7.155  69.158  1.00  0.00    -0.154 C  
HETATM    6  C   UNL     1     -10.184   7.906  67.887  1.00  0.00    -0.263 C  
HETATM    7  C   UNL     1     -10.473   5.646  71.788  1.00  0.00    -0.284 C  
HETATM    8  C   UNL     1      -9.503   7.589  66.497  1.00  0.00    -0.237 C  
HETATM    9  C   UNL     1     -10.005   3.995  70.973  1.00  0.00    -0.176 C  
HETATM   10  C   UNL     1      -8.815   6.230  66.367  1.00  0.00    -0.147 C  
HETATM   11  C   UNL     1      -9.001   5.318  65.390  1.00  0.00    -0.147 C  
HETATM   12  C   UNL     1      -8.367   3.955  65.465  1.00  0.00    -0.105 C  
HETATM   13  C   UNL     1      -7.315   3.682  66.524  1.00  0.00    -0.072 C  
HETATM   14  C   UNL     1      -6.948   4.849  67.403  1.00  0.00    -0.061 C  
HETATM   15  C   UNL     1      -9.053   4.255  69.562  1.00  0.00    -0.183 C  
HETATM   16  C   UNL     1      -9.150   5.621  68.638  1.00  0.00    -0.124 C  
HETATM   17  C   UNL     1      -8.024   5.893  67.612  1.00  0.00    -0.102 C  
ENDROOT
BRANCH   4  18
HETATM   18  O   UNL     1      -8.349   5.151  71.908  1.00  0.00    -0.117 OA 
BRANCH  18  19
HETATM   19  C   UNL     1      -7.019   5.397  71.979  1.00  0.00    -0.079 C  
HETATM   20  O   UNL     1      -6.301   5.693  71.033  1.00  0.00    -0.032 OA 
HETATM   21  C   UNL     1      -6.503   5.085  73.365  1.00  0.00    -0.065 C  
ENDBRANCH  18  19
ENDBRANCH   4  18
BRANCH   4  22
HETATM   22  C   UNL     1      -8.917   7.375  72.087  1.00  0.00    -0.154 C  
HETATM   23  C   UNL     1      -8.561   8.367  72.665  1.00  0.00    -0.241 C  
ENDBRANCH   4  22
BRANCH   7  24
HETATM   24  C   UNL     1     -11.131   5.460  73.132  1.00  0.00    -0.363 C  
HETATM   25  C   UNL     1     -10.389   4.663  74.181  1.00  0.00    -0.300 C  
ENDBRANCH   7  24
BRANCH  12  26
HETATM   26  N   UNL     1      -8.743   3.010  64.642  1.00  0.00    -0.100 NA 
HETATM   27  O   UNL     1     -10.144   2.828  64.687  1.00  0.00    -0.355 OA 
HETATM   28  H   UNL     1     -10.418   2.141  64.090  1.00  0.00     0.000 HD 
HETATM   29  H   UNL     1      -8.110   2.475  64.048  1.00  0.00     0.000 HD 
ENDBRANCH  12  26
TORSDOF 5
ENDMDL
MODEL       63
REMARK 921   NORMALIZED FREE ENERGY PREDICTED BY IDOCK:   -3.52 KCAL/MOL
REMARK 922        TOTAL FREE ENERGY PREDICTED BY IDOCK:   -4.98 KCAL/MOL
REMARK 923 INTER-LIGAND FREE ENERGY PREDICTED BY IDOCK:   -4.51 KCAL/MOL
REMARK 924 INTRA-LIGAND FREE ENERGY PREDICTED BY IDOCK:   -0.46 KCAL/MOL
REMARK 927      BINDING AFFINITY PREDICTED BY RF-SCORE:    0.00 PKD
ROOT
HETATM    1  C   UNL     1      -6.555   9.255  68.530  1.00  0.00    -0.054 C  
HETATM    2  C   UNL     1      -5.701  10.085  69.290  1.00  0.00    -0.037 C  
HETATM    3  C   UNL     1      -6.981   9.710  69.952  1.00  0.00    -0.081 C  
HETATM    4  C   UNL     1      -8.068   8.200  69.063  1.00  0.00    -0.115 C  
HETATM    5  C   UNL     1      -7.969  10.289  67.926  1.00  0.00    -0.102 C  
HETATM    6  C   UNL     1      -7.569  11.663  67.266  1.00  0.00    -0.147 C  
HETATM    7  C   UNL     1      -7.085   8.109  70.014  1.00  0.00    -0.048 C  
HETATM    8  C   UNL     1      -8.703  12.746  67.084  1.00  0.00    -0.202 C  
HETATM    9  C   UNL     1      -8.419   8.737  71.213  1.00  0.00    -0.238 C  
HETATM   10  C   UNL     1      -9.898  12.652  68.032  1.00  0.00    -0.218 C  
HETATM   11  C   UNL     1     -10.413  13.644  68.789  1.00  0.00    -0.214 C  
HETATM   12  C   UNL     1     -11.500  13.375  69.793  1.00  0.00    -0.166 C  
HETATM   13  C   UNL     1     -12.198  12.028  69.790  1.00  0.00    -0.226 C  
HETATM   14  C   UNL     1     -11.762  11.064  68.717  1.00  0.00    -0.383 C  
HETATM   15  C   UNL     1      -9.553   9.744  70.397  1.00  0.00    -0.223 C  
HETATM   16  C   UNL     1      -9.180  10.631  69.055  1.00  0.00    -0.177 C  
HETATM   17  C   UNL     1     -10.341  11.217  68.217  1.00  0.00    -0.200 C  
ENDROOT
BRANCH   4  18
HETATM   18  O   UNL     1      -9.077   7.288  69.657  1.00  0.00    -0.141 OA 
BRANCH  18  19
HETATM   19  C   UNL     1     -10.096   6.772  68.927  1.00  0.00    -0.164 C  
HETATM   20  O   UNL     1     -10.855   7.416  68.216  1.00  0.00    -0.138 OA 
HETATM   21  C   UNL     1     -10.276   5.306  69.247  1.00  0.00    -0.301 C  
ENDBRANCH  18  19
ENDBRANCH   4  18
BRANCH   4  22
HETATM   22  C   UNL     1      -7.611   7.287  67.882  1.00  0.00    -0.111 C  
HETATM   23  C   UNL     1      -7.332   6.609  66.929  1.00  0.00    -0.082 C  
ENDBRANCH   4  22
BRANCH   7  24
HETATM   24  C   UNL     1      -6.193   7.067  70.639  1.00  0.00    -0.032 C  
HETATM   25  C   UNL     1      -5.136   7.529  71.616  1.00  0.00    -0.027 C  
ENDBRANCH   7  24
BRANCH  12  26
HETATM   26  N   UNL     1     -11.819  14.287  70.677  1.00  0.00    -0.407 NA 
HETATM   27  O   UNL     1     -11.248  15.536  70.343  1.00  0.00    -0.279 OA 
HETATM   28  H   UNL     1     -11.479  16.198  70.984  1.00  0.00     0.000 HD 
HETATM   29  H   UNL     1     -12.400  14.118  71.497  1.00  0.00     0.000 HD 
ENDBRANCH  12  26
TORSDOF 5
ENDMDL
MODEL       64
REMARK 921   NORMALIZED FREE ENERGY PREDICTED BY IDOCK:   -3.51 KCAL/MOL
REMARK 922        TOTAL FREE ENERGY PREDICTED BY IDOCK:   -4.95 KCAL/MOL
REMARK 923 INTER-LIGAND FREE ENERGY PREDICTED BY IDOCK:   -4.61 KCAL/MOL
REMARK 924 INTRA-LIGAND FREE ENERGY PREDICTED BY IDOCK:   -0.34 KCAL/MOL
REMARK 927      BINDING AFFINITY PREDICTED BY RF-SCORE:    0.00 PKD
ROOT
HETATM    1  C   UNL     1      -7.051   9.410  67.894  1.00  0.00    -0.081 C  
HETATM    2  C   UNL     1      -7.567   9.403  69.208  1.00  0.00    -0.081 C  
HETATM    3  C   UNL     1      -8.579   9.267  68.125  1.00  0.00    -0.125 C  
HETATM    4  C   UNL     1      -7.855   8.875  66.234  1.00  0.00    -0.102 C  
HETATM    5  C   UNL     1      -7.460  11.046  67.126  1.00  0.00    -0.117 C  
HETATM    6  C   UNL     1      -7.128  12.309  68.009  1.00  0.00    -0.099 C  
HETATM    7  C   UNL     1      -8.206   7.993  67.222  1.00  0.00    -0.122 C  
HETATM    8  C   UNL     1      -7.788  13.683  67.598  1.00  0.00    -0.178 C  
HETATM    9  C   UNL     1      -9.993   8.429  66.745  1.00  0.00    -0.354 C  
HETATM   10  C   UNL     1      -9.089  13.606  66.799  1.00  0.00    -0.230 C  
HETATM   11  C   UNL     1     -10.249  14.238  67.076  1.00  0.00    -0.260 C  
HETATM   12  C   UNL     1     -11.499  13.955  66.287  1.00  0.00    -0.339 C  
HETATM   13  C   UNL     1     -11.405  13.134  65.015  1.00  0.00    -0.325 C  
HETATM   14  C   UNL     1     -10.019  12.703  64.612  1.00  0.00    -0.168 C  
HETATM   15  C   UNL     1     -10.092  10.038  66.142  1.00  0.00    -0.317 C  
HETATM   16  C   UNL     1      -9.049  11.241  66.584  1.00  0.00    -0.187 C  
HETATM   17  C   UNL     1      -9.018  12.533  65.735  1.00  0.00     0.341 C  
ENDROOT
BRANCH   4  18
HETATM   18  O   UNL     1      -8.532   8.239  65.077  1.00  0.00    -0.166 OA 
BRANCH  18  19
HETATM   19  C   UNL     1      -8.087   8.402  63.807  1.00  0.00    -0.142 C  
HETATM   20  O   UNL     1      -8.028   9.467  63.208  1.00  0.00    -0.128 OA 
HETATM   21  C   UNL     1      -7.834   7.056  63.167  1.00  0.00    -0.110 C  
ENDBRANCH  18  19
ENDBRANCH   4  18
BRANCH   4  22
HETATM   22  C   UNL     1      -6.382   8.526  65.849  1.00  0.00    -0.053 C  
HETATM   23  C   UNL     1      -5.240   8.219  65.633  1.00  0.00    -0.031 C  
ENDBRANCH   4  22
BRANCH   7  24
HETATM   24  C   UNL     1      -8.040   6.533  67.562  1.00  0.00    -0.121 C  
HETATM   25  C   UNL     1      -8.583   6.046  68.887  1.00  0.00    -0.116 C  
ENDBRANCH   7  24
BRANCH  12  26
HETATM   26  N   UNL     1     -12.657  14.390  66.714  1.00  0.00    -0.448 NA 
HETATM   27  O   UNL     1     -13.601  14.430  65.663  1.00  0.00    -0.558 OA 
HETATM   28  H   UNL     1     -14.442  14.746  65.973  1.00  0.00     0.000 HD 
HETATM   29  H   UNL     1     -12.853  14.664  67.677  1.00  0.00     0.000 HD 
ENDBRANCH  12  26
TORSDOF 5
ENDMDL
MODEL       65
REMARK 921   NORMALIZED FREE ENERGY PREDICTED BY IDOCK:   -3.43 KCAL/MOL
REMARK 922        TOTAL FREE ENERGY PREDICTED BY IDOCK:   -4.85 KCAL/MOL
REMARK 923 INTER-LIGAND FREE ENERGY PREDICTED BY IDOCK:   -4.57 KCAL/MOL
REMARK 924 INTRA-LIGAND FREE ENERGY PREDICTED BY IDOCK:   -0.29 KCAL/MOL
REMARK 927      BINDING AFFINITY PREDICTED BY RF-SCORE:    0.00 PKD
ROOT
HETATM    1  C   UNL     1      -6.958   6.353  68.907  1.00  0.00    -0.076 C  
HETATM    2  C   UNL     1      -5.697   6.947  68.681  1.00  0.00    -0.018 C  
HETATM    3  C   UNL     1      -6.737   7.853  69.242  1.00  0.00    -0.044 C  
HETATM    4  C   UNL     1      -8.451   6.955  69.956  1.00  0.00    -0.140 C  
HETATM    5  C   UNL     1      -8.121   6.960  67.598  1.00  0.00    -0.113 C  
HETATM    6  C   UNL     1      -7.575   6.886  66.122  1.00  0.00    -0.092 C  
HETATM    7  C   UNL     1      -7.282   7.229  70.617  1.00  0.00    -0.066 C  
HETATM    8  C   UNL     1      -8.333   7.722  65.018  1.00  0.00    -0.094 C  
HETATM    9  C   UNL     1      -7.897   9.027  70.614  1.00  0.00    -0.147 C  
HETATM   10  C   UNL     1      -9.119   8.941  65.503  1.00  0.00    -0.248 C  
HETATM   11  C   UNL     1      -9.038  10.200  65.024  1.00  0.00    -0.245 C  
HETATM   12  C   UNL     1      -9.762  11.337  65.694  1.00  0.00    -0.230 C  
HETATM   13  C   UNL     1     -10.785  11.034  66.772  1.00  0.00    -0.319 C  
HETATM   14  C   UNL     1     -11.033   9.575  67.052  1.00  0.00     0.014 C  
HETATM   15  C   UNL     1      -8.887   9.334  69.238  1.00  0.00    -0.146 C  
HETATM   16  C   UNL     1      -8.734   8.522  67.808  1.00  0.00    -0.137 C  
HETATM   17  C   UNL     1      -9.879   8.635  66.775  1.00  0.00    -0.322 C  
ENDROOT
BRANCH   4  18
HETATM   18  O   UNL     1      -9.428   7.449  70.957  1.00  0.00    -0.158 OA 
BRANCH  18  19
HETATM   19  C   UNL     1     -10.720   7.040  70.960  1.00  0.00    -0.233 C  
HETATM   20  O   UNL     1     -11.466   7.041  69.991  1.00  0.00    -0.269 OA 
HETATM   21  C   UNL     1     -11.170   6.743  72.373  1.00  0.00    -0.300 C  
ENDBRANCH  18  19
ENDBRANCH   4  18
BRANCH   4  22
HETATM   22  C   UNL     1      -8.699   5.424  70.138  1.00  0.00    -0.134 C  
HETATM   23  C   UNL     1      -8.807   4.239  70.310  1.00  0.00    -0.133 C  
ENDBRANCH   4  22
BRANCH   7  24
HETATM   24  C   UNL     1      -6.583   6.862  71.902  1.00  0.00    -0.053 C  
HETATM   25  C   UNL     1      -7.426   6.692  73.146  1.00  0.00    -0.088 C  
ENDBRANCH   7  24
BRANCH  12  26
HETATM   26  N   UNL     1      -9.487  12.574  65.367  1.00  0.00    -0.453 NA 
HETATM   27  O   UNL     1     -10.648  13.254  64.936  1.00  0.00    -0.325 OA 
HETATM   28  H   UNL     1     -10.449  14.152  64.698  1.00  0.00     0.000 HD 
HETATM   29  H   UNL     1      -8.557  12.992  65.416  1.00  0.00     0.000 HD 
ENDBRANCH  12  26
TORSDOF 5
ENDMDL
MODEL       66
REMARK 921   NORMALIZED FREE ENERGY PREDICTED BY IDOCK:   -3.38 KCAL/MOL
REMARK 922        TOTAL FREE ENERGY PREDICTED BY IDOCK:   -4.79 KCAL/MOL
REMARK 923 INTER-LIGAND FREE ENERGY PREDICTED BY IDOCK:   -4.70 KCAL/MOL
REMARK 924 INTRA-LIGAND FREE ENERGY PREDICTED BY IDOCK:   -0.09 KCAL/MOL
REMARK 927      BINDING AFFINITY PREDICTED BY RF-SCORE:    0.00 PKD
ROOT
HETATM    1  C   UNL     1      -9.480   9.642  65.171  1.00  0.00    -0.332 C  
HETATM    2  C   UNL     1      -9.293  10.020  63.823  1.00  0.00    -0.307 C  
HETATM    3  C   UNL     1      -8.175  10.365  64.744  1.00  0.00    -0.141 C  
HETATM    4  C   UNL     1      -8.219   9.494  66.612  1.00  0.00    -0.116 C  
HETATM    5  C   UNL     1      -9.844  11.172  66.151  1.00  0.00    -0.265 C  
HETATM    6  C   UNL     1     -10.942  12.122  65.538  1.00  0.00    -0.343 C  
HETATM    7  C   UNL     1      -7.654   9.024  65.455  1.00  0.00    -0.090 C  
HETATM    8  C   UNL     1     -11.028  13.597  66.095  1.00  0.00    -0.285 C  
HETATM    9  C   UNL     1      -6.301  10.315  65.788  1.00  0.00    -0.111 C  
HETATM   10  C   UNL     1      -9.752  14.170  66.713  1.00  0.00    -0.283 C  
HETATM   11  C   UNL     1      -9.166  15.349  66.414  1.00  0.00    -0.339 C  
HETATM   12  C   UNL     1      -7.828  15.722  66.993  1.00  0.00    -0.236 C  
HETATM   13  C   UNL     1      -7.241  14.882  68.112  1.00  0.00    -0.124 C  
HETATM   14  C   UNL     1      -8.096  13.740  68.594  1.00  0.00    -0.084 C  
HETATM   15  C   UNL     1      -6.941  11.669  66.639  1.00  0.00    -0.026 C  
HETATM   16  C   UNL     1      -8.517  12.150  66.529  1.00  0.00    -0.026 C  
HETATM   17  C   UNL     1      -9.055  13.147  67.583  1.00  0.00    -0.201 C  
ENDROOT
BRANCH   4  18
HETATM   18  O   UNL     1      -7.107   9.234  67.559  1.00  0.00    -0.078 OA 
BRANCH  18  19
HETATM   19  C   UNL     1      -7.301   9.195  68.900  1.00  0.00    -0.074 C  
HETATM   20  O   UNL     1      -7.914  10.029  69.552  1.00  0.00    -0.127 OA 
HETATM   21  C   UNL     1      -6.503   8.065  69.509  1.00  0.00    -0.034 C  
ENDBRANCH  18  19
ENDBRANCH   4  18
BRANCH   4  22
HETATM   22  C   UNL     1      -9.194   8.376  67.101  1.00  0.00    -0.174 C  
HETATM   23  C   UNL     1      -9.900   7.459  67.424  1.00  0.00    -0.219 C  
ENDBRANCH   4  22
BRANCH   7  24
HETATM   24  C   UNL     1      -7.099   7.738  64.896  1.00  0.00    -0.060 C  
HETATM   25  C   UNL     1      -5.647   7.413  65.169  1.00  0.00    -0.033 C  
ENDBRANCH   7  24
BRANCH  12  26
HETATM   26  N   UNL     1      -7.168  16.747  66.515  1.00  0.00    -0.253 NA 
HETATM   27  O   UNL     1      -5.774  16.540  66.610  1.00  0.00    -0.338 OA 
HETATM   28  H   UNL     1      -5.295  17.283  66.263  1.00  0.00     0.000 HD 
HETATM   29  H   UNL     1      -7.603  17.583  66.125  1.00  0.00     0.000 HD 
ENDBRANCH  12  26
TORSDOF 5
ENDMDL
MODEL       67
REMARK 921   NORMALIZED FREE ENERGY PREDICTED BY IDOCK:   -3.26 KCAL/MOL
REMARK 922        TOTAL FREE ENERGY PREDICTED BY IDOCK:   -4.63 KCAL/MOL
REMARK 923 INTER-LIGAND FREE ENERGY PREDICTED BY IDOCK:   -4.20 KCAL/MOL
REMARK 924 INTRA-LIGAND FREE ENERGY PREDICTED BY IDOCK:   -0.44 KCAL/MOL
REMARK 927      BINDING AFFINITY PREDICTED BY RF-SCORE:    0.00 PKD
ROOT
HETATM    1  C   UNL     1     -10.338   9.816  66.534  1.00  0.00    -0.262 C  
HETATM    2  C   UNL     1     -11.158  10.261  67.594  1.00  0.00    -0.319 C  
HETATM    3  C   UNL     1      -9.711  10.132  67.918  1.00  0.00    -0.166 C  
HETATM    4  C   UNL     1      -8.430   9.875  66.323  1.00  0.00    -0.128 C  
HETATM    5  C   UNL     1      -9.864   8.057  66.875  1.00  0.00    -0.318 C  
HETATM    6  C   UNL     1     -11.051   7.104  67.281  1.00  0.00    -0.229 C  
HETATM    7  C   UNL     1      -8.866  11.040  66.899  1.00  0.00    -0.150 C  
HETATM    8  C   UNL     1     -10.684   5.720  67.949  1.00  0.00    -0.295 C  
HETATM    9  C   UNL     1      -7.653  10.608  68.295  1.00  0.00    -0.097 C  
HETATM   10  C   UNL     1      -9.337   5.643  68.667  1.00  0.00    -0.142 C  
HETATM   11  C   UNL     1      -9.114   5.211  69.926  1.00  0.00    -0.162 C  
HETATM   12  C   UNL     1      -7.755   5.329  70.561  1.00  0.00    -0.079 C  
HETATM   13  C   UNL     1      -6.564   5.713  69.704  1.00  0.00    -0.050 C  
HETATM   14  C   UNL     1      -6.845   5.900  68.236  1.00  0.00    -0.067 C  
HETATM   15  C   UNL     1      -7.468   8.902  68.443  1.00  0.00    -0.086 C  
HETATM   16  C   UNL     1      -8.643   7.821  68.021  1.00  0.00    -0.123 C  
HETATM   17  C   UNL     1      -8.250   6.332  67.873  1.00  0.00    -0.114 C  
ENDROOT
BRANCH   4  18
HETATM   18  O   UNL     1      -6.980  10.174  66.219  1.00  0.00    -0.097 OA 
BRANCH  18  19
HETATM   19  C   UNL     1      -6.170   9.506  65.362  1.00  0.00    -0.067 C  
HETATM   20  O   UNL     1      -6.010   8.293  65.337  1.00  0.00    -0.044 OA 
HETATM   21  C   UNL     1      -5.351  10.483  64.549  1.00  0.00    -0.146 C  
ENDBRANCH  18  19
ENDBRANCH   4  18
BRANCH   4  22
HETATM   22  C   UNL     1      -8.789   9.983  64.807  1.00  0.00    -0.222 C  
HETATM   23  C   UNL     1      -9.061   9.976  63.636  1.00  0.00    -0.301 C  
ENDBRANCH   4  22
BRANCH   7  24
HETATM   24  C   UNL     1      -8.901  12.518  66.602  1.00  0.00    -0.142 C  
HETATM   25  C   UNL     1      -9.772  13.397  67.472  1.00  0.00    -0.224 C  
ENDBRANCH   7  24
BRANCH  12  26
HETATM   26  N   UNL     1      -7.611   5.129  71.847  1.00  0.00    -0.094 NA 
HETATM   27  O   UNL     1      -7.033   6.256  72.473  1.00  0.00    -0.072 OA 
HETATM   28  H   UNL     1      -6.929   6.111  73.406  1.00  0.00     0.000 HD 
HETATM   29  H   UNL     1      -7.880   4.273  72.333  1.00  0.00     0.000 HD 
ENDBRANCH  12  26
TORSDOF 5
ENDMDL
MODEL       68
REMARK 921   NORMALIZED FREE ENERGY PREDICTED BY IDOCK:   -3.12 KCAL/MOL
REMARK 922        TOTAL FREE ENERGY PREDICTED BY IDOCK:   -4.45 KCAL/MOL
REMARK 923 INTER-LIGAND FREE ENERGY PREDICTED BY IDOCK:   -4.26 KCAL/MOL
REMARK 924 INTRA-LIGAND FREE ENERGY PREDICTED BY IDOCK:   -0.19 KCAL/MOL
REMARK 927      BINDING AFFINITY PREDICTED BY RF-SCORE:    0.00 PKD
ROOT
HETATM    1  C   UNL     1      -6.766   7.534  67.728  1.00  0.00    -0.066 C  
HETATM    2  C   UNL     1      -6.891   6.128  67.679  1.00  0.00    -0.060 C  
HETATM    3  C   UNL     1      -8.173   6.884  67.648  1.00  0.00    -0.117 C  
HETATM    4  C   UNL     1      -8.037   8.914  67.319  1.00  0.00    -0.104 C  
HETATM    5  C   UNL     1      -7.273   8.096  69.419  1.00  0.00    -0.067 C  
HETATM    6  C   UNL     1      -6.629   7.300  70.617  1.00  0.00    -0.047 C  
HETATM    7  C   UNL     1      -8.150   7.899  66.405  1.00  0.00    -0.108 C  
HETATM    8  C   UNL     1      -7.292   7.458  72.042  1.00  0.00    -0.072 C  
HETATM    9  C   UNL     1      -9.968   7.832  66.952  1.00  0.00    -0.331 C  
HETATM   10  C   UNL     1      -8.768   7.856  72.069  1.00  0.00    -0.180 C  
HETATM   11  C   UNL     1      -9.761   7.238  72.743  1.00  0.00    -0.203 C  
HETATM   12  C   UNL     1     -11.198   7.648  72.563  1.00  0.00    -0.346 C  
HETATM   13  C   UNL     1     -11.517   8.923  71.804  1.00  0.00    -0.423 C  
HETATM   14  C   UNL     1     -10.331   9.718  71.326  1.00  0.00     0.033 C  
HETATM   15  C   UNL     1     -10.133   8.326  68.594  1.00  0.00    -0.212 C  
HETATM   16  C   UNL     1      -8.936   8.156  69.719  1.00  0.00    -0.144 C  
HETATM   17  C   UNL     1      -9.066   8.933  71.050  1.00  0.00    -0.303 C  
ENDROOT
BRANCH   4  18
HETATM   18  O   UNL     1      -9.052   9.853  66.777  1.00  0.00    -0.140 OA 
BRANCH  18  19
HETATM   19  C   UNL     1      -9.171  11.122  67.236  1.00  0.00    -0.160 C  
HETATM   20  O   UNL     1      -8.948  11.485  68.383  1.00  0.00    -0.167 OA 
HETATM   21  C   UNL     1      -9.790  12.004  66.176  1.00  0.00    -0.255 C  
ENDBRANCH  18  19
ENDBRANCH   4  18
BRANCH   4  22
HETATM   22  C   UNL     1      -6.758   9.714  66.918  1.00  0.00    -0.075 C  
HETATM   23  C   UNL     1      -5.745  10.323  66.694  1.00  0.00    -0.056 C  
ENDBRANCH   4  22
BRANCH   7  24
HETATM   24  C   UNL     1      -7.985   7.672  64.923  1.00  0.00    -0.135 C  
HETATM   25  C   UNL     1      -8.208   8.845  63.996  1.00  0.00    -0.168 C  
ENDBRANCH   7  24
BRANCH  12  26
HETATM   26  N   UNL     1     -12.160   6.895  73.032  1.00  0.00    -0.112 NA 
HETATM   27  O   UNL     1     -12.527   5.901  72.096  1.00  0.00    -0.246 OA 
HETATM   28  H   UNL     1     -13.225   5.355  72.436  1.00  0.00     0.000 HD 
HETATM   29  H   UNL     1     -12.588   7.010  73.950  1.00  0.00     0.000 HD 
ENDBRANCH  12  26
TORSDOF 5
ENDMDL
MODEL       69
REMARK 921   NORMALIZED FREE ENERGY PREDICTED BY IDOCK:   -3.10 KCAL/MOL
REMARK 922        TOTAL FREE ENERGY PREDICTED BY IDOCK:   -4.42 KCAL/MOL
REMARK 923 INTER-LIGAND FREE ENERGY PREDICTED BY IDOCK:   -4.31 KCAL/MOL
REMARK 924 INTRA-LIGAND FREE ENERGY PREDICTED BY IDOCK:   -0.12 KCAL/MOL
REMARK 927      BINDING AFFINITY PREDICTED BY RF-SCORE:    0.00 PKD
ROOT
HETATM    1  C   UNL     1      -9.009   8.566  70.854  1.00  0.00    -0.206 C  
HETATM    2  C   UNL     1      -7.947   8.379  71.766  1.00  0.00    -0.173 C  
HETATM    3  C   UNL     1      -7.656   7.987  70.359  1.00  0.00    -0.081 C  
HETATM    4  C   UNL     1      -9.013   8.602  68.933  1.00  0.00    -0.142 C  
HETATM    5  C   UNL     1      -9.712   6.901  70.444  1.00  0.00    -0.177 C  
HETATM    6  C   UNL     1     -10.015   5.972  71.681  1.00  0.00    -0.211 C  
HETATM    7  C   UNL     1      -7.903   9.254  69.405  1.00  0.00    -0.083 C  
HETATM    8  C   UNL     1     -10.243   4.435  71.404  1.00  0.00    -0.153 C  
HETATM    9  C   UNL     1      -6.930   8.017  68.340  1.00  0.00    -0.072 C  
HETATM   10  C   UNL     1      -9.609   3.867  70.134  1.00  0.00    -0.267 C  
HETATM   11  C   UNL     1      -8.818   2.776  70.042  1.00  0.00    -0.145 C  
HETATM   12  C   UNL     1      -8.138   2.414  68.749  1.00  0.00    -0.052 C  
HETATM   13  C   UNL     1      -8.531   3.137  67.475  1.00  0.00    -0.103 C  
HETATM   14  C   UNL     1      -9.637   4.150  67.608  1.00  0.00    -0.213 C  
HETATM   15  C   UNL     1      -7.781   6.527  68.199  1.00  0.00    -0.105 C  
HETATM   16  C   UNL     1      -8.830   5.967  69.345  1.00  0.00    -0.122 C  
HETATM   17  C   UNL     1      -9.782   4.809  68.964  1.00  0.00    -0.248 C  
ENDROOT
BRANCH   4  18
HETATM   18  O   UNL     1      -8.823   8.805  67.476  1.00  0.00    -0.133 OA 
BRANCH  18  19
HETATM   19  C   UNL     1      -9.865   8.797  66.609  1.00  0.00    -0.265 C  
HETATM   20  O   UNL     1     -10.229   9.746  65.929  1.00  0.00    -0.259 OA 
HETATM   21  C   UNL     1     -10.631   7.499  66.727  1.00  0.00    -0.269 C  
ENDBRANCH  18  19
ENDBRANCH   4  18
BRANCH   4  22
HETATM   22  C   UNL     1     -10.209   9.583  69.141  1.00  0.00    -0.209 C  
HETATM   23  C   UNL     1     -11.176  10.292  69.240  1.00  0.00    -0.281 C  
ENDBRANCH   4  22
BRANCH   7  24
HETATM   24  C   UNL     1      -7.295  10.634  69.386  1.00  0.00    -0.133 C  
HETATM   25  C   UNL     1      -6.069  10.881  70.238  1.00  0.00    -0.142 C  
ENDBRANCH   7  24
BRANCH  12  26
HETATM   26  N   UNL     1      -7.197   1.505  68.735  1.00  0.00    -0.039 NA 
HETATM   27  O   UNL     1      -6.040   1.984  68.079  1.00  0.00    -0.023 OA 
HETATM   28  H   UNL     1      -5.357   1.323  68.068  1.00  0.00     0.000 HD 
HETATM   29  H   UNL     1      -7.286   0.574  69.143  1.00  0.00     0.000 HD 
ENDBRANCH  12  26
TORSDOF 5
ENDMDL
MODEL       70
REMARK 921   NORMALIZED FREE ENERGY PREDICTED BY IDOCK:   -3.06 KCAL/MOL
REMARK 922        TOTAL FREE ENERGY PREDICTED BY IDOCK:   -4.38 KCAL/MOL
REMARK 923 INTER-LIGAND FREE ENERGY PREDICTED BY IDOCK:   -4.05 KCAL/MOL
REMARK 924 INTRA-LIGAND FREE ENERGY PREDICTED BY IDOCK:   -0.33 KCAL/MOL
REMARK 927      BINDING AFFINITY PREDICTED BY RF-SCORE:    0.00 PKD
ROOT
HETATM    1  C   UNL     1      -8.631   8.232  70.351  1.00  0.00    -0.134 C  
HETATM    2  C   UNL     1      -9.745   9.098  70.384  1.00  0.00    -0.266 C  
HETATM    3  C   UNL     1      -9.838   7.976  69.409  1.00  0.00    -0.181 C  
HETATM    4  C   UNL     1      -8.437   6.475  69.599  1.00  0.00    -0.131 C  
HETATM    5  C   UNL     1      -7.675   8.585  68.803  1.00  0.00    -0.102 C  
HETATM    6  C   UNL     1      -7.379  10.107  68.524  1.00  0.00    -0.081 C  
HETATM    7  C   UNL     1      -9.666   6.588  70.197  1.00  0.00    -0.180 C  
HETATM    8  C   UNL     1      -6.922  10.510  67.067  1.00  0.00    -0.089 C  
HETATM    9  C   UNL     1     -10.353   6.106  68.492  1.00  0.00    -0.248 C  
HETATM   10  C   UNL     1      -7.344   9.574  65.935  1.00  0.00    -0.097 C  
HETATM   11  C   UNL     1      -7.970   9.919  64.790  1.00  0.00    -0.143 C  
HETATM   12  C   UNL     1      -8.461   8.874  63.825  1.00  0.00    -0.137 C  
HETATM   13  C   UNL     1      -8.041   7.429  64.016  1.00  0.00    -0.031 C  
HETATM   14  C   UNL     1      -7.097   7.165  65.161  1.00  0.00    -0.060 C  
HETATM   15  C   UNL     1      -9.303   6.635  67.234  1.00  0.00    -0.144 C  
HETATM   16  C   UNL     1      -8.310   7.948  67.371  1.00  0.00    -0.123 C  
HETATM   17  C   UNL     1      -7.179   8.123  66.330  1.00  0.00    -0.079 C  
ENDROOT
BRANCH   4  18
HETATM   18  O   UNL     1      -8.503   5.061  69.154  1.00  0.00    -0.085 OA 
BRANCH  18  19
HETATM   19  C   UNL     1      -7.393   4.367  68.803  1.00  0.00    -0.056 C  
HETATM   20  O   UNL     1      -6.528   4.758  68.032  1.00  0.00    -0.039 OA 
HETATM   21  C   UNL     1      -7.457   2.964  69.362  1.00  0.00    -0.044 C  
ENDBRANCH  18  19
ENDBRANCH   4  18
BRANCH   4  22
HETATM   22  C   UNL     1      -7.408   6.295  70.760  1.00  0.00    -0.076 C  
HETATM   23  C   UNL     1      -6.684   6.166  71.711  1.00  0.00    -0.063 C  
ENDBRANCH   4  22
BRANCH   7  24
HETATM   24  C   UNL     1     -10.446   5.970  71.329  1.00  0.00    -0.283 C  
HETATM   25  C   UNL     1     -10.248   4.497  71.608  1.00  0.00    -0.214 C  
ENDBRANCH   7  24
BRANCH  12  26
HETATM   26  N   UNL     1      -9.267   9.208  62.850  1.00  0.00    -0.495 NA 
HETATM   27  O   UNL     1     -10.089  10.296  63.222  1.00  0.00    -0.465 OA 
HETATM   28  H   UNL     1     -10.674  10.538  62.514  1.00  0.00     0.000 HD 
HETATM   29  H   UNL     1      -9.299   8.744  61.941  1.00  0.00     0.000 HD 
ENDBRANCH  12  26
TORSDOF 5
ENDMDL
MODEL       71
REMARK 921   NORMALIZED FREE ENERGY PREDICTED BY IDOCK:   -3.05 KCAL/MOL
REMARK 922        TOTAL FREE ENERGY PREDICTED BY IDOCK:   -4.36 KCAL/MOL
REMARK 923 INTER-LIGAND FREE ENERGY PREDICTED BY IDOCK:   -4.57 KCAL/MOL
REMARK 924 INTRA-LIGAND FREE ENERGY PREDICTED BY IDOCK:    0.21 KCAL/MOL
REMARK 927      BINDING AFFINITY PREDICTED BY RF-SCORE:    0.00 PKD
ROOT
HETATM    1  C   UNL     1     -10.205  13.981  66.672  1.00  0.00    -0.275 C  
HETATM    2  C   UNL     1      -9.114  13.815  65.791  1.00  0.00     0.468 C  
HETATM    3  C   UNL     1      -8.805  14.524  67.064  1.00  0.00    -0.256 C  
HETATM    4  C   UNL     1     -10.246  14.441  68.537  1.00  0.00    -0.243 C  
HETATM    5  C   UNL     1     -10.725  15.759  66.613  1.00  0.00    -0.287 C  
HETATM    6  C   UNL     1     -10.901  16.364  65.169  1.00  0.00    -0.289 C  
HETATM    7  C   UNL     1      -9.208  13.578  68.297  1.00  0.00    -0.195 C  
HETATM    8  C   UNL     1     -10.960  17.937  65.036  1.00  0.00     0.886 C  
HETATM    9  C   UNL     1      -8.121  14.939  69.055  1.00  0.00    -0.165 C  
HETATM   10  C   UNL     1     -10.287  18.743  66.146  1.00  0.00    -0.494 C  
HETATM   11  C   UNL     1      -9.381  19.732  65.994  1.00  0.00    -0.367 C  
HETATM   12  C   UNL     1      -8.686  20.342  67.181  1.00  0.00    -0.339 C  
HETATM   13  C   UNL     1      -9.179  20.017  68.579  1.00  0.00    -0.172 C  
HETATM   14  C   UNL     1     -10.390  19.124  68.658  1.00  0.00    -0.311 C  
HETATM   15  C   UNL     1      -8.801  16.496  68.774  1.00  0.00    -0.255 C  
HETATM   16  C   UNL     1      -9.762  16.848  67.478  1.00  0.00    -0.249 C  
HETATM   17  C   UNL     1     -10.585  18.158  67.509  1.00  0.00    -0.419 C  
ENDROOT
BRANCH   4  18
HETATM   18  O   UNL     1     -10.105  14.602  70.005  1.00  0.00     0.138 OA 
BRANCH  18  19
HETATM   19  C   UNL     1     -11.170  14.851  70.805  1.00  0.00    -0.176 C  
HETATM   20  O   UNL     1     -11.891  14.002  71.310  1.00  0.00    -0.233 OA 
HETATM   21  C   UNL     1     -11.455  16.335  70.846  1.00  0.00    -0.336 C  
ENDBRANCH  18  19
ENDBRANCH   4  18
BRANCH   4  22
HETATM   22  C   UNL     1     -11.541  13.569  68.531  1.00  0.00    -0.368 C  
HETATM   23  C   UNL     1     -12.533  12.896  68.438  1.00  0.00     0.486 C  
ENDBRANCH   4  22
BRANCH   7  24
HETATM   24  C   UNL     1      -8.759  12.194  68.693  1.00  0.00     0.005 C  
HETATM   25  C   UNL     1      -7.301  11.839  68.504  1.00  0.00    -0.103 C  
ENDBRANCH   7  24
BRANCH  12  26
HETATM   26  N   UNL     1      -7.649  21.122  67.006  1.00  0.00    -0.719 NA 
HETATM   27  O   UNL     1      -6.637  20.837  67.951  1.00  0.00    -0.304 OA 
HETATM   28  H   UNL     1      -5.885  21.403  67.824  1.00  0.00     0.000 HD 
HETATM   29  H   UNL     1      -7.581  21.839  66.284  1.00  0.00     0.000 HD 
ENDBRANCH  12  26
TORSDOF 5
ENDMDL
MODEL       72
REMARK 921   NORMALIZED FREE ENERGY PREDICTED BY IDOCK:   -2.99 KCAL/MOL
REMARK 922        TOTAL FREE ENERGY PREDICTED BY IDOCK:   -4.28 KCAL/MOL
REMARK 923 INTER-LIGAND FREE ENERGY PREDICTED BY IDOCK:   -4.12 KCAL/MOL
REMARK 924 INTRA-LIGAND FREE ENERGY PREDICTED BY IDOCK:   -0.17 KCAL/MOL
REMARK 927      BINDING AFFINITY PREDICTED BY RF-SCORE:    0.00 PKD
ROOT
HETATM    1  C   UNL     1      -9.911  10.470  67.730  1.00  0.00    -0.198 C  
HETATM    2  C   UNL     1      -9.378  10.526  69.036  1.00  0.00    -0.205 C  
HETATM    3  C   UNL     1      -8.410  10.153  67.967  1.00  0.00    -0.117 C  
HETATM    4  C   UNL     1      -9.032  10.442  66.022  1.00  0.00    -0.159 C  
HETATM    5  C   UNL     1     -10.070   8.687  67.251  1.00  0.00    -0.310 C  
HETATM    6  C   UNL     1     -10.758   7.758  68.321  1.00  0.00    -0.093 C  
HETATM    7  C   UNL     1      -8.386  11.315  66.859  1.00  0.00    -0.155 C  
HETATM    8  C   UNL     1     -10.583   6.197  68.157  1.00  0.00    -0.328 C  
HETATM    9  C   UNL     1      -6.848  10.259  66.500  1.00  0.00    -0.101 C  
HETATM   10  C   UNL     1      -9.352   5.724  67.385  1.00  0.00    -0.112 C  
HETATM   11  C   UNL     1      -8.445   4.808  67.788  1.00  0.00    -0.103 C  
HETATM   12  C   UNL     1      -7.197   4.545  66.991  1.00  0.00    -0.073 C  
HETATM   13  C   UNL     1      -7.064   5.134  65.599  1.00  0.00    -0.067 C  
HETATM   14  C   UNL     1      -8.253   5.913  65.100  1.00  0.00    -0.141 C  
HETATM   15  C   UNL     1      -7.287   8.627  66.172  1.00  0.00    -0.085 C  
HETATM   16  C   UNL     1      -8.643   7.909  66.783  1.00  0.00    -0.133 C  
HETATM   17  C   UNL     1      -9.111   6.575  66.157  1.00  0.00    -0.146 C  
ENDROOT
BRANCH   4  18
HETATM   18  O   UNL     1      -8.225  10.631  64.792  1.00  0.00    -0.139 OA 
BRANCH  18  19
HETATM   19  C   UNL     1      -8.601  10.108  63.600  1.00  0.00    -0.197 C  
HETATM   20  O   UNL     1      -8.849   8.928  63.390  1.00  0.00    -0.106 OA 
HETATM   21  C   UNL     1      -8.505  11.157  62.516  1.00  0.00    -0.235 C  
ENDBRANCH  18  19
ENDBRANCH   4  18
BRANCH   4  22
HETATM   22  C   UNL     1     -10.328  11.175  65.553  1.00  0.00    -0.326 C  
HETATM   23  C   UNL     1     -11.284  11.817  65.206  1.00  0.00    -0.315 C  
ENDBRANCH   4  22
BRANCH   7  24
HETATM   24  C   UNL     1      -8.068  12.786  66.951  1.00  0.00     0.006 C  
HETATM   25  C   UNL     1      -9.047  13.681  67.677  1.00  0.00    -0.207 C  
ENDBRANCH   7  24
BRANCH  12  26
HETATM   26  N   UNL     1      -6.224   3.838  67.509  1.00  0.00    -0.035 NA 
HETATM   27  O   UNL     1      -6.731   2.748  68.253  1.00  0.00    -0.039 OA 
HETATM   28  H   UNL     1      -6.025   2.235  68.629  1.00  0.00     0.000 HD 
HETATM   29  H   UNL     1      -5.232   4.047  67.392  1.00  0.00     0.000 HD 
ENDBRANCH  12  26
TORSDOF 5
ENDMDL
MODEL       73
REMARK 921   NORMALIZED FREE ENERGY PREDICTED BY IDOCK:   -2.98 KCAL/MOL
REMARK 922        TOTAL FREE ENERGY PREDICTED BY IDOCK:   -4.27 KCAL/MOL
REMARK 923 INTER-LIGAND FREE ENERGY PREDICTED BY IDOCK:   -4.66 KCAL/MOL
REMARK 924 INTRA-LIGAND FREE ENERGY PREDICTED BY IDOCK:    0.38 KCAL/MOL
REMARK 927      BINDING AFFINITY PREDICTED BY RF-SCORE:    0.00 PKD
ROOT
HETATM    1  C   UNL     1      -8.171  17.377  67.252  1.00  0.00    -0.221 C  
HETATM    2  C   UNL     1      -7.482  17.681  66.057  1.00  0.00    -0.282 C  
HETATM    3  C   UNL     1      -8.510  16.609  65.947  1.00  0.00    -0.024 C  
HETATM    4  C   UNL     1      -9.803  16.406  67.539  1.00  0.00    -0.239 C  
HETATM    5  C   UNL     1      -7.540  15.753  67.882  1.00  0.00    -0.144 C  
HETATM    6  C   UNL     1      -5.972  15.610  67.930  1.00  0.00    -0.163 C  
HETATM    7  C   UNL     1      -9.926  17.194  66.424  1.00  0.00    -0.315 C  
HETATM    8  C   UNL     1      -5.373  14.157  68.082  1.00  0.00    -0.120 C  
HETATM    9  C   UNL     1     -10.340  15.571  65.528  1.00  0.00    -0.419 C  
HETATM   10  C   UNL     1      -6.250  13.002  67.599  1.00  0.00    -0.158 C  
HETATM   11  C   UNL     1      -5.893  12.014  66.751  1.00  0.00     0.016 C  
HETATM   12  C   UNL     1      -6.904  11.022  66.242  1.00  0.00    -0.096 C  
HETATM   13  C   UNL     1      -8.284  10.977  66.870  1.00  0.00    -0.140 C  
HETATM   14  C   UNL     1      -8.515  11.925  68.017  1.00  0.00    -0.162 C  
HETATM   15  C   UNL     1      -9.550  14.237  66.276  1.00  0.00    -0.310 C  
HETATM   16  C   UNL     1      -8.126  14.371  67.103  1.00  0.00    -0.171 C  
HETATM   17  C   UNL     1      -7.692  13.196  68.011  1.00  0.00    -0.146 C  
ENDROOT
BRANCH   4  18
HETATM   18  O   UNL     1     -11.165  15.816  67.581  1.00  0.00    -0.318 OA 
BRANCH  18  19
HETATM   19  C   UNL     1     -11.759  15.465  68.747  1.00  0.00    -0.351 C  
HETATM   20  O   UNL     1     -12.737  16.012  69.236  1.00  0.00     0.161 OA 
HETATM   21  C   UNL     1     -10.939  14.410  69.453  1.00  0.00    -0.261 C  
ENDBRANCH  18  19
ENDBRANCH   4  18
BRANCH   4  22
HETATM   22  C   UNL     1      -9.940  17.367  68.762  1.00  0.00    -0.329 C  
HETATM   23  C   UNL     1     -10.134  18.093  69.702  1.00  0.00     0.388 C  
ENDBRANCH   4  22
BRANCH   7  24
HETATM   24  C   UNL     1     -10.754  18.353  65.930  1.00  0.00    -0.209 C  
HETATM   25  C   UNL     1     -10.991  19.511  66.874  1.00  0.00    -0.422 C  
ENDBRANCH   7  24
BRANCH  12  26
HETATM   26  N   UNL     1      -6.600  10.226  65.248  1.00  0.00    -0.120 NA 
HETATM   27  O   UNL     1      -5.265  10.427  64.828  1.00  0.00    -0.101 OA 
HETATM   28  H   UNL     1      -5.044   9.850  64.107  1.00  0.00     0.000 HD 
HETATM   29  H   UNL     1      -7.241   9.551  64.831  1.00  0.00     0.000 HD 
ENDBRANCH  12  26
TORSDOF 5
ENDMDL
MODEL       74
REMARK 921   NORMALIZED FREE ENERGY PREDICTED BY IDOCK:   -2.93 KCAL/MOL
REMARK 922        TOTAL FREE ENERGY PREDICTED BY IDOCK:   -4.21 KCAL/MOL
REMARK 923 INTER-LIGAND FREE ENERGY PREDICTED BY IDOCK:   -3.97 KCAL/MOL
REMARK 924 INTRA-LIGAND FREE ENERGY PREDICTED BY IDOCK:   -0.24 KCAL/MOL
REMARK 927      BINDING AFFINITY PREDICTED BY RF-SCORE:    0.00 PKD
ROOT
HETATM    1  C   UNL     1     -10.614   9.562  69.025  1.00  0.00    -0.238 C  
HETATM    2  C   UNL     1     -10.974  10.358  70.134  1.00  0.00    -0.365 C  
HETATM    3  C   UNL     1      -9.571   9.858  70.136  1.00  0.00    -0.237 C  
HETATM    4  C   UNL     1      -8.885   9.038  68.372  1.00  0.00    -0.134 C  
HETATM    5  C   UNL     1     -10.513   7.800  69.591  1.00  0.00    -0.229 C  
HETATM    6  C   UNL     1     -11.739   7.292  70.441  1.00  0.00    -0.219 C  
HETATM    7  C   UNL     1      -8.845  10.343  68.789  1.00  0.00    -0.157 C  
HETATM    8  C   UNL     1     -11.555   5.960  71.268  1.00  0.00    -0.080 C  
HETATM    9  C   UNL     1      -7.438   9.762  69.926  1.00  0.00    -0.142 C  
HETATM   10  C   UNL     1     -10.124   5.589  71.658  1.00  0.00    -0.249 C  
HETATM   11  C   UNL     1      -9.675   5.275  72.892  1.00  0.00    -0.164 C  
HETATM   12  C   UNL     1      -8.209   5.075  73.161  1.00  0.00    -0.108 C  
HETATM   13  C   UNL     1      -7.244   4.984  71.993  1.00  0.00    -0.083 C  
HETATM   14  C   UNL     1      -7.864   5.055  70.622  1.00  0.00    -0.078 C  
HETATM   15  C   UNL     1      -7.646   8.109  70.364  1.00  0.00    -0.076 C  
HETATM   16  C   UNL     1      -9.121   7.370  70.448  1.00  0.00    -0.157 C  
HETATM   17  C   UNL     1      -9.163   5.825  70.513  1.00  0.00    -0.168 C  
ENDROOT
BRANCH   4  18
HETATM   18  O   UNL     1      -7.493   8.888  67.880  1.00  0.00    -0.090 OA 
BRANCH  18  19
HETATM   19  C   UNL     1      -7.147   7.924  66.993  1.00  0.00    -0.078 C  
HETATM   20  O   UNL     1      -7.266   6.720  67.172  1.00  0.00    -0.080 OA 
HETATM   21  C   UNL     1      -6.425   8.536  65.813  1.00  0.00    -0.053 C  
ENDBRANCH  18  19
ENDBRANCH   4  18
BRANCH   4  22
HETATM   22  C   UNL     1      -9.610   9.049  66.990  1.00  0.00    -0.231 C  
HETATM   23  C   UNL     1     -10.151   8.971  65.919  1.00  0.00    -0.041 C  
ENDBRANCH   4  22
BRANCH   7  24
HETATM   24  C   UNL     1      -8.595  11.717  68.220  1.00  0.00    -0.162 C  
HETATM   25  C   UNL     1      -9.794  12.574  67.880  1.00  0.00    -0.207 C  
ENDBRANCH   7  24
BRANCH  12  26
HETATM   26  N   UNL     1      -7.769   5.009  74.392  1.00  0.00    -0.089 NA 
HETATM   27  O   UNL     1      -6.444   4.519  74.431  1.00  0.00    -0.053 OA 
HETATM   28  H   UNL     1      -6.126   4.471  75.325  1.00  0.00     0.000 HD 
HETATM   29  H   UNL     1      -8.312   5.276  75.214  1.00  0.00     0.000 HD 
ENDBRANCH  12  26
TORSDOF 5
ENDMDL
MODEL       75
REMARK 921   NORMALIZED FREE ENERGY PREDICTED BY IDOCK:   -2.93 KCAL/MOL
REMARK 922        TOTAL FREE ENERGY PREDICTED BY IDOCK:   -4.20 KCAL/MOL
REMARK 923 INTER-LIGAND FREE ENERGY PREDICTED BY IDOCK:   -4.17 KCAL/MOL
REMARK 924 INTRA-LIGAND FREE ENERGY PREDICTED BY IDOCK:   -0.03 KCAL/MOL
REMARK 927      BINDING AFFINITY PREDICTED BY RF-SCORE:    0.00 PKD
ROOT
HETATM    1  C   UNL     1      -7.423   6.045  69.465  1.00  0.00    -0.088 C  
HETATM    2  C   UNL     1      -6.017   5.933  69.527  1.00  0.00    -0.024 C  
HETATM    3  C   UNL     1      -6.588   7.154  70.159  1.00  0.00    -0.047 C  
HETATM    4  C   UNL     1      -8.630   7.173  70.444  1.00  0.00    -0.142 C  
HETATM    5  C   UNL     1      -7.840   7.340  68.205  1.00  0.00    -0.122 C  
HETATM    6  C   UNL     1      -7.092   7.205  66.825  1.00  0.00    -0.078 C  
HETATM    7  C   UNL     1      -7.647   6.713  71.281  1.00  0.00    -0.093 C  
HETATM    8  C   UNL     1      -7.098   8.457  65.863  1.00  0.00    -0.072 C  
HETATM    9  C   UNL     1      -7.307   8.551  71.621  1.00  0.00    -0.118 C  
HETATM   10  C   UNL     1      -7.286   9.824  66.521  1.00  0.00    -0.095 C  
HETATM   11  C   UNL     1      -6.510  10.916  66.358  1.00  0.00    -0.130 C  
HETATM   12  C   UNL     1      -6.724  12.156  67.184  1.00  0.00    -0.123 C  
HETATM   13  C   UNL     1      -7.972  12.273  68.038  1.00  0.00    -0.150 C  
HETATM   14  C   UNL     1      -8.943  11.125  67.944  1.00  0.00    -0.143 C  
HETATM   15  C   UNL     1      -7.705   9.512  70.248  1.00  0.00    -0.170 C  
HETATM   16  C   UNL     1      -7.656   8.947  68.697  1.00  0.00    -0.096 C  
HETATM   17  C   UNL     1      -8.353   9.776  67.593  1.00  0.00    -0.114 C  
ENDROOT
BRANCH   4  18
HETATM   18  O   UNL     1      -9.441   7.952  71.413  1.00  0.00    -0.146 OA 
BRANCH  18  19
HETATM   19  C   UNL     1     -10.683   8.402  71.111  1.00  0.00    -0.230 C  
HETATM   20  O   UNL     1     -11.095   8.642  69.985  1.00  0.00    -0.237 OA 
HETATM   21  C   UNL     1     -11.439   8.735  72.377  1.00  0.00    -0.301 C  
ENDBRANCH  18  19
ENDBRANCH   4  18
BRANCH   4  22
HETATM   22  C   UNL     1      -9.616   5.980  70.239  1.00  0.00    -0.194 C  
HETATM   23  C   UNL     1     -10.311   5.006  70.115  1.00  0.00    -0.306 C  
ENDBRANCH   4  22
BRANCH   7  24
HETATM   24  C   UNL     1      -7.506   5.863  72.519  1.00  0.00    -0.096 C  
HETATM   25  C   UNL     1      -7.712   4.371  72.383  1.00  0.00    -0.084 C  
ENDBRANCH   7  24
BRANCH  12  26
HETATM   26  N   UNL     1      -5.826  13.108  67.184  1.00  0.00    -0.428 NA 
HETATM   27  O   UNL     1      -6.439  14.381  67.216  1.00  0.00    -0.347 OA 
HETATM   28  H   UNL     1      -5.787  15.072  67.216  1.00  0.00     0.000 HD 
HETATM   29  H   UNL     1      -4.818  12.952  67.164  1.00  0.00     0.000 HD 
ENDBRANCH  12  26
TORSDOF 5
ENDMDL
MODEL       76
REMARK 921   NORMALIZED FREE ENERGY PREDICTED BY IDOCK:   -2.92 KCAL/MOL
REMARK 922        TOTAL FREE ENERGY PREDICTED BY IDOCK:   -4.19 KCAL/MOL
REMARK 923 INTER-LIGAND FREE ENERGY PREDICTED BY IDOCK:   -3.77 KCAL/MOL
REMARK 924 INTRA-LIGAND FREE ENERGY PREDICTED BY IDOCK:   -0.42 KCAL/MOL
REMARK 927      BINDING AFFINITY PREDICTED BY RF-SCORE:    0.00 PKD
ROOT
HETATM    1  C   UNL     1      -8.697   8.317  70.150  1.00  0.00    -0.133 C  
HETATM    2  C   UNL     1     -10.058   8.626  69.934  1.00  0.00    -0.197 C  
HETATM    3  C   UNL     1      -9.755   7.181  70.129  1.00  0.00    -0.171 C  
HETATM    4  C   UNL     1      -7.873   6.723  70.836  1.00  0.00    -0.098 C  
HETATM    5  C   UNL     1      -8.032   7.539  68.605  1.00  0.00    -0.123 C  
HETATM    6  C   UNL     1      -8.366   8.302  67.268  1.00  0.00    -0.124 C  
HETATM    7  C   UNL     1      -9.017   6.990  71.541  1.00  0.00    -0.139 C  
HETATM    8  C   UNL     1      -8.174   7.518  65.910  1.00  0.00    -0.134 C  
HETATM    9  C   UNL     1      -9.547   5.241  71.022  1.00  0.00    -0.227 C  
HETATM   10  C   UNL     1      -8.255   5.994  65.983  1.00  0.00    -0.125 C  
HETATM   11  C   UNL     1      -9.021   5.185  65.221  1.00  0.00    -0.144 C  
HETATM   12  C   UNL     1      -9.115   3.710  65.500  1.00  0.00    -0.148 C  
HETATM   13  C   UNL     1      -8.156   3.078  66.492  1.00  0.00    -0.085 C  
HETATM   14  C   UNL     1      -7.129   4.002  67.093  1.00  0.00    -0.064 C  
HETATM   15  C   UNL     1      -8.849   4.813  69.507  1.00  0.00    -0.120 C  
HETATM   16  C   UNL     1      -8.439   5.918  68.350  1.00  0.00    -0.111 C  
HETATM   17  C   UNL     1      -7.519   5.462  67.193  1.00  0.00    -0.084 C  
ENDROOT
BRANCH   4  18
HETATM   18  O   UNL     1      -7.406   5.517  71.563  1.00  0.00    -0.081 OA 
BRANCH  18  19
HETATM   19  C   UNL     1      -6.124   5.084  71.485  1.00  0.00    -0.025 C  
HETATM   20  O   UNL     1      -5.461   5.013  70.459  1.00  0.00    -0.007 OA 
HETATM   21  C   UNL     1      -5.677   4.534  72.820  1.00  0.00    -0.008 C  
ENDBRANCH  18  19
ENDBRANCH   4  18
BRANCH   4  22
HETATM   22  C   UNL     1      -6.799   7.728  71.360  1.00  0.00    -0.049 C  
HETATM   23  C   UNL     1      -5.964   8.532  71.679  1.00  0.00    -0.048 C  
ENDBRANCH   4  22
BRANCH   7  24
HETATM   24  C   UNL     1      -9.439   7.326  72.950  1.00  0.00    -0.200 C  
HETATM   25  C   UNL     1     -10.883   7.705  73.188  1.00  0.00    -0.440 C  
ENDBRANCH   7  24
BRANCH  12  26
HETATM   26  N   UNL     1     -10.035   2.987  64.913  1.00  0.00    -0.369 NA 
HETATM   27  O   UNL     1      -9.905   1.623  65.259  1.00  0.00    -0.319 OA 
HETATM   28  H   UNL     1     -10.573   1.099  64.832  1.00  0.00     0.000 HD 
HETATM   29  H   UNL     1     -10.750   3.359  64.288  1.00  0.00     0.000 HD 
ENDBRANCH  12  26
TORSDOF 5
ENDMDL
MODEL       77
REMARK 921   NORMALIZED FREE ENERGY PREDICTED BY IDOCK:   -2.80 KCAL/MOL
REMARK 922        TOTAL FREE ENERGY PREDICTED BY IDOCK:   -4.05 KCAL/MOL
REMARK 923 INTER-LIGAND FREE ENERGY PREDICTED BY IDOCK:   -3.93 KCAL/MOL
REMARK 924 INTRA-LIGAND FREE ENERGY PREDICTED BY IDOCK:   -0.12 KCAL/MOL
REMARK 927      BINDING AFFINITY PREDICTED BY RF-SCORE:    0.00 PKD
ROOT
HETATM    1  C   UNL     1      -7.399   7.674  69.486  1.00  0.00    -0.086 C  
HETATM    2  C   UNL     1      -6.131   7.080  69.669  1.00  0.00    -0.030 C  
HETATM    3  C   UNL     1      -6.592   7.177  68.257  1.00  0.00    -0.049 C  
HETATM    4  C   UNL     1      -8.231   8.378  67.905  1.00  0.00    -0.127 C  
HETATM    5  C   UNL     1      -8.605   6.332  69.063  1.00  0.00    -0.123 C  
HETATM    6  C   UNL     1      -8.562   5.065  69.998  1.00  0.00    -0.111 C  
HETATM    7  C   UNL     1      -6.903   8.715  67.916  1.00  0.00    -0.067 C  
HETATM    8  C   UNL     1      -9.268   3.750  69.482  1.00  0.00    -0.226 C  
HETATM    9  C   UNL     1      -6.839   7.840  66.231  1.00  0.00    -0.062 C  
HETATM   10  C   UNL     1      -9.417   3.602  67.968  1.00  0.00    -0.218 C  
HETATM   11  C   UNL     1      -9.050   2.542  67.218  1.00  0.00    -0.187 C  
HETATM   12  C   UNL     1      -9.118   2.590  65.715  1.00  0.00    -0.101 C  
HETATM   13  C   UNL     1      -9.831   3.746  65.040  1.00  0.00    -0.175 C  
HETATM   14  C   UNL     1     -10.473   4.750  65.961  1.00  0.00    -0.332 C  
HETATM   15  C   UNL     1      -8.012   6.581  66.148  1.00  0.00    -0.110 C  
HETATM   16  C   UNL     1      -8.559   5.760  67.473  1.00  0.00    -0.105 C  
HETATM   17  C   UNL     1      -9.840   4.905  67.327  1.00  0.00    -0.214 C  
ENDROOT
BRANCH   4  18
HETATM   18  O   UNL     1      -8.653   9.058  66.655  1.00  0.00    -0.123 OA 
BRANCH  18  19
HETATM   19  C   UNL     1      -9.956   9.306  66.378  1.00  0.00    -0.286 C  
HETATM   20  O   UNL     1     -10.902   8.628  66.754  1.00  0.00    -0.145 OA 
HETATM   21  C   UNL     1     -10.072  10.443  65.388  1.00  0.00    -0.354 C  
ENDBRANCH  18  19
ENDBRANCH   4  18
BRANCH   4  22
HETATM   22  C   UNL     1      -8.926   9.336  68.924  1.00  0.00    -0.136 C  
HETATM   23  C   UNL     1      -9.539  10.033  69.688  1.00  0.00    -0.251 C  
ENDBRANCH   4  22
BRANCH   7  24
HETATM   24  C   UNL     1      -6.037   9.949  67.957  1.00  0.00    -0.053 C  
HETATM   25  C   UNL     1      -6.654  11.264  67.535  1.00  0.00    -0.073 C  
ENDBRANCH   7  24
BRANCH  12  26
HETATM   26  N   UNL     1      -8.541   1.656  65.002  1.00  0.00    -0.095 NA 
HETATM   27  O   UNL     1      -8.870   1.789  63.633  1.00  0.00    -0.086 OA 
HETATM   28  H   UNL     1      -8.451   1.112  63.115  1.00  0.00     0.000 HD 
HETATM   29  H   UNL     1      -7.935   0.929  65.382  1.00  0.00     0.000 HD 
ENDBRANCH  12  26
TORSDOF 5
ENDMDL
MODEL       78
REMARK 921   NORMALIZED FREE ENERGY PREDICTED BY IDOCK:   -2.71 KCAL/MOL
REMARK 922        TOTAL FREE ENERGY PREDICTED BY IDOCK:   -3.93 KCAL/MOL
REMARK 923 INTER-LIGAND FREE ENERGY PREDICTED BY IDOCK:   -3.79 KCAL/MOL
REMARK 924 INTRA-LIGAND FREE ENERGY PREDICTED BY IDOCK:   -0.14 KCAL/MOL
REMARK 927      BINDING AFFINITY PREDICTED BY RF-SCORE:    0.00 PKD
ROOT
HETATM    1  C   UNL     1      -8.010  10.529  69.282  1.00  0.00    -0.156 C  
HETATM    2  C   UNL     1      -7.130  10.382  70.376  1.00  0.00     0.049 C  
HETATM    3  C   UNL     1      -7.034   9.323  69.333  1.00  0.00    -0.049 C  
HETATM    4  C   UNL     1      -7.998   9.699  67.550  1.00  0.00    -0.106 C  
HETATM    5  C   UNL     1      -9.357   9.268  69.455  1.00  0.00    -0.177 C  
HETATM    6  C   UNL     1     -10.028   9.187  70.879  1.00  0.00    -0.357 C  
HETATM    7  C   UNL     1      -6.716  10.014  67.920  1.00  0.00    -0.067 C  
HETATM    8  C   UNL     1     -10.892   7.907  71.210  1.00  0.00    -0.263 C  
HETATM    9  C   UNL     1      -6.364   8.165  67.655  1.00  0.00    -0.053 C  
HETATM   10  C   UNL     1     -10.560   6.637  70.427  1.00  0.00    -0.266 C  
HETATM   11  C   UNL     1     -10.311   5.412  70.938  1.00  0.00    -0.312 C  
HETATM   12  C   UNL     1      -9.850   4.281  70.059  1.00  0.00    -0.205 C  
HETATM   13  C   UNL     1      -9.896   4.444  68.552  1.00  0.00    -0.140 C  
HETATM   14  C   UNL     1     -10.464   5.745  68.048  1.00  0.00    -0.286 C  
HETATM   15  C   UNL     1      -7.770   7.222  67.970  1.00  0.00    -0.117 C  
HETATM   16  C   UNL     1      -8.959   7.684  69.020  1.00  0.00    -0.137 C  
HETATM   17  C   UNL     1     -10.314   6.940  68.966  1.00  0.00    -0.203 C  
ENDROOT
BRANCH   4  18
HETATM   18  O   UNL     1      -7.739   9.138  66.200  1.00  0.00    -0.094 OA 
BRANCH  18  19
HETATM   19  C   UNL     1      -8.667   9.186  65.214  1.00  0.00    -0.188 C  
HETATM   20  O   UNL     1      -9.773   8.666  65.255  1.00  0.00     0.208 OA 
HETATM   21  C   UNL     1      -8.080   9.828  63.977  1.00  0.00    -0.150 C  
ENDBRANCH  18  19
ENDBRANCH   4  18
BRANCH   4  22
HETATM   22  C   UNL     1      -8.660  11.042  67.108  1.00  0.00    -0.136 C  
HETATM   23  C   UNL     1      -9.121  12.118  66.830  1.00  0.00    -0.203 C  
ENDBRANCH   4  22
BRANCH   7  24
HETATM   24  C   UNL     1      -5.576  10.889  67.461  1.00  0.00    -0.044 C  
HETATM   25  C   UNL     1      -5.642  12.365  67.780  1.00  0.00    -0.099 C  
ENDBRANCH   7  24
BRANCH  12  26
HETATM   26  N   UNL     1      -9.388   3.180  70.595  1.00  0.00    -0.143 NA 
HETATM   27  O   UNL     1      -9.250   2.163  69.623  1.00  0.00    -0.099 OA 
HETATM   28  H   UNL     1      -8.915   1.364  70.012  1.00  0.00     0.000 HD 
HETATM   29  H   UNL     1      -9.157   3.070  71.583  1.00  0.00     0.000 HD 
ENDBRANCH  12  26
TORSDOF 5
ENDMDL
MODEL       79
REMARK 921   NORMALIZED FREE ENERGY PREDICTED BY IDOCK:   -2.67 KCAL/MOL
REMARK 922        TOTAL FREE ENERGY PREDICTED BY IDOCK:   -3.87 KCAL/MOL
REMARK 923 INTER-LIGAND FREE ENERGY PREDICTED BY IDOCK:   -3.58 KCAL/MOL
REMARK 924 INTRA-LIGAND FREE ENERGY PREDICTED BY IDOCK:   -0.29 KCAL/MOL
REMARK 927      BINDING AFFINITY PREDICTED BY RF-SCORE:    0.00 PKD
ROOT
HETATM    1  C   UNL     1      -8.447   6.743  65.535  1.00  0.00    -0.124 C  
HETATM    2  C   UNL     1      -7.937   7.945  66.073  1.00  0.00    -0.103 C  
HETATM    3  C   UNL     1      -7.312   6.698  66.594  1.00  0.00    -0.078 C  
HETATM    4  C   UNL     1      -7.732   4.960  65.565  1.00  0.00    -0.086 C  
HETATM    5  C   UNL     1      -9.499   5.935  66.829  1.00  0.00    -0.154 C  
HETATM    6  C   UNL     1     -10.546   6.877  67.534  1.00  0.00    -0.351 C  
HETATM    7  C   UNL     1      -6.719   5.860  65.360  1.00  0.00    -0.047 C  
HETATM    8  C   UNL     1     -11.193   6.373  68.883  1.00  0.00    -0.385 C  
HETATM    9  C   UNL     1      -5.938   5.080  66.906  1.00  0.00    -0.026 C  
HETATM   10  C   UNL     1     -10.387   5.356  69.690  1.00  0.00    -0.361 C  
HETATM   11  C   UNL     1     -10.067   5.431  71.000  1.00  0.00    -0.281 C  
HETATM   12  C   UNL     1      -9.139   4.430  71.634  1.00  0.00    -0.130 C  
HETATM   13  C   UNL     1      -8.749   3.184  70.861  1.00  0.00    -0.127 C  
HETATM   14  C   UNL     1      -9.383   3.028  69.503  1.00  0.00    -0.213 C  
HETATM   15  C   UNL     1      -7.152   4.488  67.975  1.00  0.00    -0.064 C  
HETATM   16  C   UNL     1      -8.674   5.123  68.062  1.00  0.00    -0.102 C  
HETATM   17  C   UNL     1      -9.768   4.308  68.792  1.00  0.00    -0.184 C  
ENDROOT
BRANCH   4  18
HETATM   18  O   UNL     1      -6.962   3.694  65.497  1.00  0.00    -0.058 OA 
BRANCH  18  19
HETATM   19  C   UNL     1      -7.566   2.496  65.306  1.00  0.00    -0.076 C  
HETATM   20  O   UNL     1      -8.508   2.066  65.958  1.00  0.00    -0.091 OA 
HETATM   21  C   UNL     1      -6.804   1.684  64.285  1.00  0.00    -0.031 C  
ENDBRANCH  18  19
ENDBRANCH   4  18
BRANCH   4  22
HETATM   22  C   UNL     1      -8.482   4.838  64.201  1.00  0.00    -0.135 C  
HETATM   23  C   UNL     1      -9.085   4.661  63.175  1.00  0.00    -0.090 C  
ENDBRANCH   4  22
BRANCH   7  24
HETATM   24  C   UNL     1      -5.694   6.206  64.309  1.00  0.00    -0.022 C  
HETATM   25  C   UNL     1      -6.083   7.200  63.238  1.00  0.00    -0.045 C  
ENDBRANCH   7  24
BRANCH  12  26
HETATM   26  N   UNL     1      -8.654   4.650  72.829  1.00  0.00    -0.113 NA 
HETATM   27  O   UNL     1      -9.407   3.973  73.814  1.00  0.00    -0.100 OA 
HETATM   28  H   UNL     1      -9.055   4.132  74.682  1.00  0.00     0.000 HD 
HETATM   29  H   UNL     1      -7.840   5.233  73.024  1.00  0.00     0.000 HD 
ENDBRANCH  12  26
TORSDOF 5
ENDMDL
MODEL       80
REMARK 921   NORMALIZED FREE ENERGY PREDICTED BY IDOCK:   -2.60 KCAL/MOL
REMARK 922        TOTAL FREE ENERGY PREDICTED BY IDOCK:   -3.78 KCAL/MOL
REMARK 923 INTER-LIGAND FREE ENERGY PREDICTED BY IDOCK:   -3.67 KCAL/MOL
REMARK 924 INTRA-LIGAND FREE ENERGY PREDICTED BY IDOCK:   -0.12 KCAL/MOL
REMARK 927      BINDING AFFINITY PREDICTED BY RF-SCORE:    0.00 PKD
ROOT
HETATM    1  C   UNL     1     -10.235   5.068  69.871  1.00  0.00    -0.340 C  
HETATM    2  C   UNL     1      -9.245   4.106  70.167  1.00  0.00    -0.210 C  
HETATM    3  C   UNL     1      -8.738   5.480  69.900  1.00  0.00    -0.127 C  
HETATM    4  C   UNL     1     -10.146   6.987  69.858  1.00  0.00    -0.193 C  
HETATM    5  C   UNL     1     -10.157   5.432  68.056  1.00  0.00    -0.224 C  
HETATM    6  C   UNL     1     -10.114   4.169  67.115  1.00  0.00     0.021 C  
HETATM    7  C   UNL     1      -9.437   6.499  70.925  1.00  0.00    -0.179 C  
HETATM    8  C   UNL     1      -9.665   4.387  65.616  1.00  0.00    -0.211 C  
HETATM    9  C   UNL     1      -7.979   7.467  70.184  1.00  0.00    -0.111 C  
HETATM   10  C   UNL     1      -8.782   5.602  65.337  1.00  0.00    -0.139 C  
HETATM   11  C   UNL     1      -7.605   5.614  64.675  1.00  0.00    -0.085 C  
HETATM   12  C   UNL     1      -6.765   6.859  64.601  1.00  0.00    -0.043 C  
HETATM   13  C   UNL     1      -7.351   8.180  65.063  1.00  0.00    -0.082 C  
HETATM   14  C   UNL     1      -8.784   8.138  65.524  1.00  0.00    -0.152 C  
HETATM   15  C   UNL     1      -8.122   7.577  68.472  1.00  0.00    -0.125 C  
HETATM   16  C   UNL     1      -8.906   6.452  67.551  1.00  0.00    -0.111 C  
HETATM   17  C   UNL     1      -9.266   6.820  66.092  1.00  0.00    -0.120 C  
ENDROOT
BRANCH   4  18
HETATM   18  O   UNL     1      -9.977   8.443  70.088  1.00  0.00    -0.183 OA 
BRANCH  18  19
HETATM   19  C   UNL     1     -10.883   9.349  69.645  1.00  0.00    -0.228 C  
HETATM   20  O   UNL     1     -11.632  10.006  70.353  1.00  0.00    -0.267 OA 
HETATM   21  C   UNL     1     -10.963   9.310  68.136  1.00  0.00    -0.060 C  
ENDBRANCH  18  19
ENDBRANCH   4  18
BRANCH   4  22
HETATM   22  C   UNL     1     -11.652   6.872  70.254  1.00  0.00    -0.362 C  
HETATM   23  C   UNL     1     -12.789   6.811  70.641  1.00  0.00     0.192 C  
ENDBRANCH   4  22
BRANCH   7  24
HETATM   24  C   UNL     1      -9.459   6.554  72.432  1.00  0.00    -0.147 C  
HETATM   25  C   UNL     1      -8.438   5.733  73.187  1.00  0.00    -0.117 C  
ENDBRANCH   7  24
BRANCH  12  26
HETATM   26  N   UNL     1      -5.531   6.795  64.168  1.00  0.00    -0.027 NA 
HETATM   27  O   UNL     1      -5.414   7.371  62.883  1.00  0.00    -0.040 OA 
HETATM   28  H   UNL     1      -4.519   7.324  62.569  1.00  0.00     0.000 HD 
HETATM   29  H   UNL     1      -4.757   6.383  64.689  1.00  0.00     0.000 HD 
ENDBRANCH  12  26
TORSDOF 5
ENDMDL
MODEL       81
REMARK 921   NORMALIZED FREE ENERGY PREDICTED BY IDOCK:   -2.56 KCAL/MOL
REMARK 922        TOTAL FREE ENERGY PREDICTED BY IDOCK:   -3.73 KCAL/MOL
REMARK 923 INTER-LIGAND FREE ENERGY PREDICTED BY IDOCK:   -3.77 KCAL/MOL
REMARK 924 INTRA-LIGAND FREE ENERGY PREDICTED BY IDOCK:    0.05 KCAL/MOL
REMARK 927      BINDING AFFINITY PREDICTED BY RF-SCORE:    0.00 PKD
ROOT
HETATM    1  C   UNL     1     -10.255   5.227  67.589  1.00  0.00    -0.223 C  
HETATM    2  C   UNL     1     -10.995   6.268  66.986  1.00  0.00    -0.442 C  
HETATM    3  C   UNL     1      -9.514   6.412  66.913  1.00  0.00    -0.166 C  
HETATM    4  C   UNL     1      -8.402   4.750  67.415  1.00  0.00    -0.105 C  
HETATM    5  C   UNL     1      -9.547   5.871  69.176  1.00  0.00    -0.166 C  
HETATM    6  C   UNL     1     -10.563   6.630  70.110  1.00  0.00    -0.264 C  
HETATM    7  C   UNL     1      -8.901   5.116  66.192  1.00  0.00    -0.132 C  
HETATM    8  C   UNL     1      -9.967   7.523  71.268  1.00  0.00    -0.196 C  
HETATM    9  C   UNL     1      -7.495   6.394  66.188  1.00  0.00    -0.082 C  
HETATM   10  C   UNL     1      -8.548   8.051  71.063  1.00  0.00    -0.142 C  
HETATM   11  C   UNL     1      -8.135   9.331  71.177  1.00  0.00    -0.046 C  
HETATM   12  C   UNL     1      -6.735   9.735  70.801  1.00  0.00    -0.077 C  
HETATM   13  C   UNL     1      -5.701   8.660  70.521  1.00  0.00    -0.027 C  
HETATM   14  C   UNL     1      -6.166   7.239  70.698  1.00  0.00    -0.035 C  
HETATM   15  C   UNL     1      -7.101   6.879  67.793  1.00  0.00    -0.085 C  
HETATM   16  C   UNL     1      -8.185   6.863  69.039  1.00  0.00    -0.125 C  
HETATM   17  C   UNL     1      -7.643   6.986  70.483  1.00  0.00    -0.090 C  
ENDROOT
BRANCH   4  18
HETATM   18  O   UNL     1      -7.017   4.388  67.024  1.00  0.00    -0.060 OA 
BRANCH  18  19
HETATM   19  C   UNL     1      -6.218   3.642  67.825  1.00  0.00    -0.033 C  
HETATM   20  O   UNL     1      -6.019   3.846  69.014  1.00  0.00    -0.022 OA 
HETATM   21  C   UNL     1      -5.464   2.621  67.004  1.00  0.00    -0.017 C  
ENDBRANCH  18  19
ENDBRANCH   4  18
BRANCH   4  22
HETATM   22  C   UNL     1      -8.941   3.310  67.686  1.00  0.00    -0.180 C  
HETATM   23  C   UNL     1      -9.277   2.182  67.932  1.00  0.00    -0.233 C  
ENDBRANCH   4  22
BRANCH   7  24
HETATM   24  C   UNL     1      -9.138   4.516  64.829  1.00  0.00    -0.152 C  
HETATM   25  C   UNL     1      -9.258   3.012  64.726  1.00  0.00    -0.146 C  
ENDBRANCH   7  24
BRANCH  12  26
HETATM   26  N   UNL     1      -6.424  11.001  70.690  1.00  0.00    -0.477 NA 
HETATM   27  O   UNL     1      -5.992  11.303  69.378  1.00  0.00    -0.052 OA 
HETATM   28  H   UNL     1      -5.766  12.222  69.297  1.00  0.00     0.000 HD 
HETATM   29  H   UNL     1      -6.485  11.680  71.449  1.00  0.00     0.000 HD 
ENDBRANCH  12  26
TORSDOF 5
ENDMDL
MODEL       82
REMARK 921   NORMALIZED FREE ENERGY PREDICTED BY IDOCK:   -2.39 KCAL/MOL
REMARK 922        TOTAL FREE ENERGY PREDICTED BY IDOCK:   -3.51 KCAL/MOL
REMARK 923 INTER-LIGAND FREE ENERGY PREDICTED BY IDOCK:   -3.19 KCAL/MOL
REMARK 924 INTRA-LIGAND FREE ENERGY PREDICTED BY IDOCK:   -0.32 KCAL/MOL
REMARK 927      BINDING AFFINITY PREDICTED BY RF-SCORE:    0.00 PKD
ROOT
HETATM    1  C   UNL     1     -11.240  15.603  68.155  1.00  0.00    -0.345 C  
HETATM    2  C   UNL     1     -12.108  16.480  67.469  1.00  0.00     1.393 C  
HETATM    3  C   UNL     1     -10.965  15.958  66.669  1.00  0.00    -0.136 C  
HETATM    4  C   UNL     1      -9.911  14.386  67.488  1.00  0.00    -0.224 C  
HETATM    5  C   UNL     1      -9.670  16.518  68.520  1.00  0.00    -0.239 C  
HETATM    6  C   UNL     1      -9.854  17.949  69.153  1.00  0.00    -0.158 C  
HETATM    7  C   UNL     1     -11.015  14.354  66.677  1.00  0.00    -0.318 C  
HETATM    8  C   UNL     1      -8.612  18.924  69.133  1.00  0.00    -0.048 C  
HETATM    9  C   UNL     1      -9.801  14.802  65.287  1.00  0.00    -0.235 C  
HETATM   10  C   UNL     1      -7.566  18.678  68.046  1.00  0.00    -0.279 C  
HETATM   11  C   UNL     1      -7.068  19.586  67.179  1.00  0.00    -0.225 C  
HETATM   12  C   UNL     1      -6.152  19.173  66.060  1.00  0.00    -0.178 C  
HETATM   13  C   UNL     1      -5.585  17.766  66.043  1.00  0.00    -0.241 C  
HETATM   14  C   UNL     1      -5.960  16.892  67.211  1.00  0.00    -0.195 C  
HETATM   15  C   UNL     1      -8.482  15.726  65.898  1.00  0.00     0.342 C  
HETATM   16  C   UNL     1      -8.593  16.698  67.229  1.00  0.00    -0.208 C  
HETATM   17  C   UNL     1      -7.283  17.201  67.880  1.00  0.00    -0.177 C  
ENDROOT
BRANCH   4  18
HETATM   18  O   UNL     1      -9.076  13.359  66.818  1.00  0.00    -0.242 OA 
BRANCH  18  19
HETATM   19  C   UNL     1      -7.923  12.904  67.365  1.00  0.00    -0.178 C  
HETATM   20  O   UNL     1      -7.055  13.602  67.871  1.00  0.00    -0.113 OA 
HETATM   21  C   UNL     1      -7.772  11.422  67.107  1.00  0.00    -0.152 C  
ENDBRANCH  18  19
ENDBRANCH   4  18
BRANCH   4  22
HETATM   22  C   UNL     1     -10.289  13.569  68.763  1.00  0.00    -0.169 C  
HETATM   23  C   UNL     1     -10.667  12.950  69.723  1.00  0.00     0.595 C  
ENDBRANCH   4  22
BRANCH   7  24
HETATM   24  C   UNL     1     -12.073  13.378  66.225  1.00  0.00    -0.475 C  
HETATM   25  C   UNL     1     -13.030  13.818  65.140  1.00  0.00    -0.279 C  
ENDBRANCH   7  24
BRANCH  12  26
HETATM   26  N   UNL     1      -5.872  20.015  65.097  1.00  0.00    -0.189 NA 
HETATM   27  O   UNL     1      -6.983  20.837  64.804  1.00  0.00    -0.515 OA 
HETATM   28  H   UNL     1      -6.780  21.448  64.105  1.00  0.00     0.000 HD 
HETATM   29  H   UNL     1      -4.971  20.069  64.621  1.00  0.00     0.000 HD 
ENDBRANCH  12  26
TORSDOF 5
ENDMDL
MODEL       83
REMARK 921   NORMALIZED FREE ENERGY PREDICTED BY IDOCK:   -2.37 KCAL/MOL
REMARK 922        TOTAL FREE ENERGY PREDICTED BY IDOCK:   -3.48 KCAL/MOL
REMARK 923 INTER-LIGAND FREE ENERGY PREDICTED BY IDOCK:   -3.33 KCAL/MOL
REMARK 924 INTRA-LIGAND FREE ENERGY PREDICTED BY IDOCK:   -0.14 KCAL/MOL
REMARK 927      BINDING AFFINITY PREDICTED BY RF-SCORE:    0.00 PKD
ROOT
HETATM    1  C   UNL     1      -9.124   7.595  66.919  1.00  0.00    -0.171 C  
HETATM    2  C   UNL     1      -8.374   7.547  65.724  1.00  0.00    -0.144 C  
HETATM    3  C   UNL     1      -7.785   8.373  66.815  1.00  0.00    -0.091 C  
HETATM    4  C   UNL     1      -8.624   8.157  68.686  1.00  0.00    -0.127 C  
HETATM    5  C   UNL     1      -9.925   9.263  67.027  1.00  0.00    -0.286 C  
HETATM    6  C   UNL     1     -10.666   9.743  65.723  1.00  0.00     0.446 C  
HETATM    7  C   UNL     1      -7.594   7.454  68.117  1.00  0.00    -0.114 C  
HETATM    8  C   UNL     1     -11.030  11.275  65.608  1.00  0.00    -0.201 C  
HETATM    9  C   UNL     1      -6.562   9.012  68.458  1.00  0.00    -0.055 C  
HETATM   10  C   UNL     1     -10.173  12.244  66.423  1.00  0.00    -0.247 C  
HETATM   11  C   UNL     1      -9.548  13.351  65.970  1.00  0.00    -0.174 C  
HETATM   12  C   UNL     1      -8.613  14.134  66.852  1.00  0.00    -0.133 C  
HETATM   13  C   UNL     1      -8.555  13.823  68.336  1.00  0.00    -0.156 C  
HETATM   14  C   UNL     1      -9.504  12.759  68.821  1.00  0.00     0.113 C  
HETATM   15  C   UNL     1      -7.549  10.423  68.413  1.00  0.00    -0.093 C  
HETATM   16  C   UNL     1      -8.928  10.540  67.512  1.00  0.00    -0.137 C  
HETATM   17  C   UNL     1      -9.902  11.704  67.810  1.00  0.00    -0.186 C  
ENDROOT
BRANCH   4  18
HETATM   18  O   UNL     1      -8.035   8.428  70.021  1.00  0.00    -0.103 OA 
BRANCH  18  19
HETATM   19  C   UNL     1      -8.805   8.596  71.124  1.00  0.00    -0.199 C  
HETATM   20  O   UNL     1      -9.717   9.403  71.235  1.00  0.00    -0.262 OA 
HETATM   21  C   UNL     1      -8.268   7.764  72.266  1.00  0.00    -0.149 C  
ENDBRANCH  18  19
ENDBRANCH   4  18
BRANCH   4  22
HETATM   22  C   UNL     1      -9.682   7.095  69.121  1.00  0.00    -0.158 C  
HETATM   23  C   UNL     1     -10.456   6.272  69.535  1.00  0.00    -0.293 C  
ENDBRANCH   4  22
BRANCH   7  24
HETATM   24  C   UNL     1      -6.814   6.184  68.347  1.00  0.00    -0.074 C  
HETATM   25  C   UNL     1      -7.431   4.879  67.896  1.00  0.00    -0.078 C  
ENDBRANCH   7  24
BRANCH  12  26
HETATM   26  N   UNL     1      -7.839  15.054  66.334  1.00  0.00    -0.107 NA 
HETATM   27  O   UNL     1      -7.856  16.230  67.119  1.00  0.00    -0.156 OA 
HETATM   28  H   UNL     1      -7.293  16.897  66.743  1.00  0.00     0.000 HD 
HETATM   29  H   UNL     1      -7.295  14.938  65.479  1.00  0.00     0.000 HD 
ENDBRANCH  12  26
TORSDOF 5
ENDMDL
MODEL       84
REMARK 921   NORMALIZED FREE ENERGY PREDICTED BY IDOCK:   -2.35 KCAL/MOL
REMARK 922        TOTAL FREE ENERGY PREDICTED BY IDOCK:   -3.46 KCAL/MOL
REMARK 923 INTER-LIGAND FREE ENERGY PREDICTED BY IDOCK:   -3.36 KCAL/MOL
REMARK 924 INTRA-LIGAND FREE ENERGY PREDICTED BY IDOCK:   -0.09 KCAL/MOL
REMARK 927      BINDING AFFINITY PREDICTED BY RF-SCORE:    0.00 PKD
ROOT
HETATM    1  C   UNL     1      -5.614  14.888  68.458  1.00  0.00    -0.100 C  
HETATM    2  C   UNL     1      -5.158  15.735  69.493  1.00  0.00    -0.103 C  
HETATM    3  C   UNL     1      -6.609  15.404  69.533  1.00  0.00    -0.166 C  
HETATM    4  C   UNL     1      -7.238  13.875  68.300  1.00  0.00    -0.112 C  
HETATM    5  C   UNL     1      -6.588  15.917  67.263  1.00  0.00    -0.200 C  
HETATM    6  C   UNL     1      -5.898  17.258  66.808  1.00  0.00    -0.227 C  
HETATM    7  C   UNL     1      -6.777  13.808  69.589  1.00  0.00    -0.015 C  
HETATM    8  C   UNL     1      -6.804  18.349  66.113  1.00  0.00    -0.286 C  
HETATM    9  C   UNL     1      -8.483  14.500  70.059  1.00  0.00     0.886 C  
HETATM   10  C   UNL     1      -8.297  18.307  66.440  1.00  0.00    -0.267 C  
HETATM   11  C   UNL     1      -9.062  19.336  66.863  1.00  0.00    -0.358 C  
HETATM   12  C   UNL     1     -10.488  19.120  67.293  1.00  0.00    -0.456 C  
HETATM   13  C   UNL     1     -11.153  17.784  67.022  1.00  0.00     0.257 C  
HETATM   14  C   UNL     1     -10.318  16.774  66.279  1.00  0.00    -0.316 C  
HETATM   15  C   UNL     1      -9.112  15.489  68.798  1.00  0.00    -0.207 C  
HETATM   16  C   UNL     1      -8.161  16.319  67.732  1.00  0.00    -0.158 C  
HETATM   17  C   UNL     1      -8.818  16.887  66.452  1.00  0.00    -0.322 C  
ENDROOT
BRANCH   4  18
HETATM   18  O   UNL     1      -8.432  13.001  68.415  1.00  0.00    -0.164 OA 
BRANCH  18  19
HETATM   19  C   UNL     1      -9.191  12.680  67.339  1.00  0.00    -0.191 C  
HETATM   20  O   UNL     1      -9.122  13.210  66.239  1.00  0.00    -0.127 OA 
HETATM   21  C   UNL     1     -10.264  11.690  67.735  1.00  0.00    -0.202 C  
ENDBRANCH  18  19
ENDBRANCH   4  18
BRANCH   4  22
HETATM   22  C   UNL     1      -6.335  12.911  67.469  1.00  0.00    -0.161 C  
HETATM   23  C   UNL     1      -5.573  12.186  66.885  1.00  0.00    -0.009 C  
ENDBRANCH   4  22
BRANCH   7  24
HETATM   24  C   UNL     1      -6.282  12.778  70.573  1.00  0.00     0.187 C  
HETATM   25  C   UNL     1      -5.273  13.216  71.612  1.00  0.00    -0.148 C  
ENDBRANCH   7  24
BRANCH  12  26
HETATM   26  N   UNL     1     -11.136  20.070  67.919  1.00  0.00     0.079 NA 
HETATM   27  O   UNL     1     -10.574  20.310  69.194  1.00  0.00    -0.475 OA 
HETATM   28  H   UNL     1     -11.044  20.999  69.648  1.00  0.00     0.000 HD 
HETATM   29  H   UNL     1     -11.939  20.570  67.538  1.00  0.00     0.000 HD 
ENDBRANCH  12  26
TORSDOF 5
ENDMDL
MODEL       85
REMARK 921   NORMALIZED FREE ENERGY PREDICTED BY IDOCK:   -2.31 KCAL/MOL
REMARK 922        TOTAL FREE ENERGY PREDICTED BY IDOCK:   -3.40 KCAL/MOL
REMARK 923 INTER-LIGAND FREE ENERGY PREDICTED BY IDOCK:   -6.32 KCAL/MOL
REMARK 924 INTRA-LIGAND FREE ENERGY PREDICTED BY IDOCK:    2.92 KCAL/MOL
REMARK 927      BINDING AFFINITY PREDICTED BY RF-SCORE:    0.00 PKD
ROOT
HETATM    1  C   UNL     1     -10.868  16.059  66.465  1.00  0.00    -0.167 C  
HETATM    2  C   UNL     1     -10.669  16.321  65.092  1.00  0.00    -0.350 C  
HETATM    3  C   UNL     1      -9.433  16.041  65.874  1.00  0.00    -0.351 C  
HETATM    4  C   UNL     1      -9.698  15.272  67.769  1.00  0.00    -0.215 C  
HETATM    5  C   UNL     1     -10.308  17.546  67.419  1.00  0.00    -0.351 C  
HETATM    6  C   UNL     1     -10.845  18.930  66.891  1.00  0.00    -0.347 C  
HETATM    7  C   UNL     1      -9.576  14.605  66.577  1.00  0.00    -0.308 C  
HETATM    8  C   UNL     1     -10.120  20.238  67.398  1.00  0.00    -0.534 C  
HETATM    9  C   UNL     1      -7.732  15.039  66.715  1.00  0.00     0.174 C  
HETATM   10  C   UNL     1      -8.670  20.084  67.854  1.00  0.00    -0.321 C  
HETATM   11  C   UNL     1      -7.611  20.816  67.449  1.00  0.00    -0.349 C  
HETATM   12  C   UNL     1      -6.210  20.459  67.868  1.00  0.00    -0.257 C  
HETATM   13  C   UNL     1      -6.001  19.415  68.949  1.00  0.00    -0.259 C  
HETATM   14  C   UNL     1      -7.253  18.845  69.563  1.00  0.00    -0.028 C  
HETATM   15  C   UNL     1      -7.511  16.514  67.576  1.00  0.00    -0.170 C  
HETATM   16  C   UNL     1      -8.638  17.721  67.617  1.00  0.00    -0.230 C  
HETATM   17  C   UNL     1      -8.484  18.832  68.682  1.00  0.00    -0.364 C  
ENDROOT
BRANCH   4  18
HETATM   18  O   UNL     1      -8.767  14.471  68.601  1.00  0.00    -0.173 OA 
BRANCH  18  19
HETATM   19  C   UNL     1      -8.833  13.118  68.651  1.00  0.00     0.051 C  
HETATM   20  O   UNL     1      -9.843  12.465  68.873  1.00  0.00    -0.052 OA 
HETATM   21  C   UNL     1      -7.445  12.525  68.567  1.00  0.00    -0.122 C  
ENDBRANCH  18  19
ENDBRANCH   4  18
BRANCH   4  22
HETATM   22  C   UNL     1     -11.039  14.781  68.401  1.00  0.00    -0.274 C  
HETATM   23  C   UNL     1     -12.028  14.395  68.966  1.00  0.00    -0.342 C  
ENDBRANCH   4  22
BRANCH   7  24
HETATM   24  C   UNL     1      -9.803  13.226  66.011  1.00  0.00    -0.271 C  
HETATM   25  C   UNL     1     -11.046  12.994  65.181  1.00  0.00    -0.317 C  
ENDBRANCH   7  24
BRANCH  12  26
HETATM   26  N   UNL     1      -5.185  21.025  67.283  1.00  0.00    -0.202 NA 
HETATM   27  O   UNL     1      -5.358  21.059  65.881  1.00  0.00    -0.193 OA 
HETATM   28  H   UNL     1      -4.614  21.470  65.456  1.00  0.00     0.000 HD 
HETATM   29  H   UNL     1      -4.370  21.393  67.774  1.00  0.00     0.000 HD 
ENDBRANCH  12  26
TORSDOF 5
ENDMDL
MODEL       86
REMARK 921   NORMALIZED FREE ENERGY PREDICTED BY IDOCK:   -2.22 KCAL/MOL
REMARK 922        TOTAL FREE ENERGY PREDICTED BY IDOCK:   -3.29 KCAL/MOL
REMARK 923 INTER-LIGAND FREE ENERGY PREDICTED BY IDOCK:   -4.45 KCAL/MOL
REMARK 924 INTRA-LIGAND FREE ENERGY PREDICTED BY IDOCK:    1.16 KCAL/MOL
REMARK 927      BINDING AFFINITY PREDICTED BY RF-SCORE:    0.00 PKD
ROOT
HETATM    1  C   UNL     1      -9.194   6.874  69.883  1.00  0.00    -0.147 C  
HETATM    2  C   UNL     1     -10.582   7.103  70.004  1.00  0.00    -0.248 C  
HETATM    3  C   UNL     1     -10.142   6.516  68.708  1.00  0.00    -0.178 C  
HETATM    4  C   UNL     1      -8.210   5.800  68.630  1.00  0.00    -0.105 C  
HETATM    5  C   UNL     1      -8.496   8.161  68.746  1.00  0.00    -0.126 C  
HETATM    6  C   UNL     1      -8.930   9.643  69.056  1.00  0.00    -0.148 C  
HETATM    7  C   UNL     1      -9.357   5.146  68.997  1.00  0.00    -0.166 C  
HETATM    8  C   UNL     1      -8.699  10.725  67.929  1.00  0.00    -0.129 C  
HETATM    9  C   UNL     1      -9.736   5.113  67.136  1.00  0.00    -0.171 C  
HETATM   10  C   UNL     1      -8.637  10.212  66.491  1.00  0.00    -0.132 C  
HETATM   11  C   UNL     1      -9.343  10.670  65.436  1.00  0.00    -0.250 C  
HETATM   12  C   UNL     1      -9.294   9.974  64.103  1.00  0.00    -0.280 C  
HETATM   13  C   UNL     1      -8.258   8.891  63.868  1.00  0.00    -0.171 C  
HETATM   14  C   UNL     1      -7.307   8.633  65.007  1.00  0.00    -0.086 C  
HETATM   15  C   UNL     1      -9.037   6.473  66.343  1.00  0.00    -0.172 C  
HETATM   16  C   UNL     1      -8.758   7.918  67.093  1.00  0.00    -0.133 C  
HETATM   17  C   UNL     1      -7.827   8.938  66.396  1.00  0.00    -0.103 C  
ENDROOT
BRANCH   4  18
HETATM   18  O   UNL     1      -7.617   4.780  67.730  1.00  0.00    -0.081 OA 
BRANCH  18  19
HETATM   19  C   UNL     1      -6.525   5.042  66.971  1.00  0.00    -0.045 C  
HETATM   20  O   UNL     1      -6.157   4.385  66.008  1.00  0.00    -0.029 OA 
HETATM   21  C   UNL     1      -5.719   6.164  67.587  1.00  0.00    -0.012 C  
ENDBRANCH  18  19
ENDBRANCH   4  18
BRANCH   4  22
HETATM   22  C   UNL     1      -7.222   5.641  69.828  1.00  0.00    -0.069 C  
HETATM   23  C   UNL     1      -6.411   5.465  70.699  1.00  0.00    -0.035 C  
ENDBRANCH   4  22
BRANCH   7  24
HETATM   24  C   UNL     1      -9.775   3.875  69.693  1.00  0.00    -0.208 C  
HETATM   25  C   UNL     1      -9.123   2.581  69.259  1.00  0.00    -0.187 C  
ENDBRANCH   7  24
BRANCH  12  26
HETATM   26  N   UNL     1     -10.157  10.282  63.169  1.00  0.00    -0.472 NA 
HETATM   27  O   UNL     1     -11.184  11.108  63.680  1.00  0.00    -0.567 OA 
HETATM   28  H   UNL     1     -11.810  11.332  63.002  1.00  0.00     0.000 HD 
HETATM   29  H   UNL     1     -10.096   9.969  62.200  1.00  0.00     0.000 HD 
ENDBRANCH  12  26
TORSDOF 5
ENDMDL
MODEL       87
REMARK 921   NORMALIZED FREE ENERGY PREDICTED BY IDOCK:   -1.88 KCAL/MOL
REMARK 922        TOTAL FREE ENERGY PREDICTED BY IDOCK:   -2.85 KCAL/MOL
REMARK 923 INTER-LIGAND FREE ENERGY PREDICTED BY IDOCK:   -3.11 KCAL/MOL
REMARK 924 INTRA-LIGAND FREE ENERGY PREDICTED BY IDOCK:    0.27 KCAL/MOL
REMARK 927      BINDING AFFINITY PREDICTED BY RF-SCORE:    0.00 PKD
ROOT
HETATM    1  C   UNL     1      -8.613   8.528  66.402  1.00  0.00    -0.136 C  
HETATM    2  C   UNL     1      -8.681   9.632  67.280  1.00  0.00    -0.136 C  
HETATM    3  C   UNL     1      -7.666   8.601  67.630  1.00  0.00    -0.102 C  
HETATM    4  C   UNL     1      -7.254   7.188  66.185  1.00  0.00    -0.074 C  
HETATM    5  C   UNL     1      -9.379   7.071  67.253  1.00  0.00    -0.153 C  
HETATM    6  C   UNL     1     -10.779   7.339  67.922  1.00  0.00    -0.239 C  
HETATM    7  C   UNL     1      -6.668   8.411  66.387  1.00  0.00    -0.066 C  
HETATM    8  C   UNL     1     -11.303   6.282  68.973  1.00  0.00    -0.319 C  
HETATM    9  C   UNL     1      -5.799   7.566  67.850  1.00  0.00    -0.035 C  
HETATM   10  C   UNL     1     -10.243   5.440  69.683  1.00  0.00    -0.345 C  
HETATM   11  C   UNL     1     -10.111   5.258  71.014  1.00  0.00    -0.289 C  
HETATM   12  C   UNL     1      -8.930   4.523  71.587  1.00  0.00    -0.125 C  
HETATM   13  C   UNL     1      -8.000   3.768  70.655  1.00  0.00    -0.055 C  
HETATM   14  C   UNL     1      -8.381   3.779  69.198  1.00  0.00    -0.087 C  
HETATM   15  C   UNL     1      -6.777   6.306  68.500  1.00  0.00    -0.064 C  
HETATM   16  C   UNL     1      -8.426   6.300  68.418  1.00  0.00    -0.115 C  
HETATM   17  C   UNL     1      -9.171   4.979  68.720  1.00  0.00    -0.160 C  
ENDROOT
BRANCH   4  18
HETATM   18  O   UNL     1      -6.040   6.355  65.998  1.00  0.00    -0.031 OA 
BRANCH  18  19
HETATM   19  C   UNL     1      -6.115   5.043  65.668  1.00  0.00    -0.033 C  
HETATM   20  O   UNL     1      -6.406   4.135  66.434  1.00  0.00    -0.034 OA 
HETATM   21  C   UNL     1      -5.616   4.831  64.257  1.00  0.00    -0.014 C  
ENDBRANCH  18  19
ENDBRANCH   4  18
BRANCH   4  22
HETATM   22  C   UNL     1      -7.753   7.189  64.706  1.00  0.00    -0.115 C  
HETATM   23  C   UNL     1      -8.102   7.108  63.558  1.00  0.00     0.001 C  
ENDBRANCH   4  22
BRANCH   7  24
HETATM   24  C   UNL     1      -5.767   9.379  65.663  1.00  0.00    -0.053 C  
HETATM   25  C   UNL     1      -5.541  10.739  66.284  1.00  0.00    -0.104 C  
ENDBRANCH   7  24
BRANCH  12  26
HETATM   26  N   UNL     1      -8.694   4.561  72.874  1.00  0.00    -0.112 NA 
HETATM   27  O   UNL     1      -8.517   5.892  73.317  1.00  0.00    -0.119 OA 
HETATM   28  H   UNL     1      -8.346   5.920  74.251  1.00  0.00     0.000 HD 
HETATM   29  H   UNL     1      -8.643   3.740  73.477  1.00  0.00     0.000 HD 
ENDBRANCH  12  26
TORSDOF 5
ENDMDL
MODEL       88
REMARK 921   NORMALIZED FREE ENERGY PREDICTED BY IDOCK:   -1.77 KCAL/MOL
REMARK 922        TOTAL FREE ENERGY PREDICTED BY IDOCK:   -2.70 KCAL/MOL
REMARK 923 INTER-LIGAND FREE ENERGY PREDICTED BY IDOCK:   -3.88 KCAL/MOL
REMARK 924 INTRA-LIGAND FREE ENERGY PREDICTED BY IDOCK:    1.18 KCAL/MOL
REMARK 927      BINDING AFFINITY PREDICTED BY RF-SCORE:    0.00 PKD
ROOT
HETATM    1  C   UNL     1      -7.690  11.607  67.200  1.00  0.00    -0.159 C  
HETATM    2  C   UNL     1      -6.815  11.242  66.153  1.00  0.00     0.066 C  
HETATM    3  C   UNL     1      -7.921  10.282  66.424  1.00  0.00    -0.121 C  
HETATM    4  C   UNL     1      -9.436  10.949  67.654  1.00  0.00    -0.159 C  
HETATM    5  C   UNL     1      -7.319  10.527  68.659  1.00  0.00    -0.091 C  
HETATM    6  C   UNL     1      -5.795  10.404  69.040  1.00  0.00    -0.040 C  
HETATM    7  C   UNL     1      -9.322  11.053  66.292  1.00  0.00    -0.206 C  
HETATM    8  C   UNL     1      -5.373   9.225  70.003  1.00  0.00    -0.028 C  
HETATM    9  C   UNL     1      -9.772   9.207  66.281  1.00  0.00    -0.344 C  
HETATM   10  C   UNL     1      -6.288   8.001  70.026  1.00  0.00    -0.033 C  
HETATM   11  C   UNL     1      -5.920   6.712  69.868  1.00  0.00    -0.023 C  
HETATM   12  C   UNL     1      -6.946   5.616  69.764  1.00  0.00    -0.062 C  
HETATM   13  C   UNL     1      -8.397   5.923  70.083  1.00  0.00    -0.118 C  
HETATM   14  C   UNL     1      -8.686   7.330  70.537  1.00  0.00    -0.148 C  
HETATM   15  C   UNL     1      -9.231   8.435  67.722  1.00  0.00    -0.142 C  
HETATM   16  C   UNL     1      -7.929   8.951  68.597  1.00  0.00    -0.103 C  
HETATM   17  C   UNL     1      -7.746   8.403  70.032  1.00  0.00    -0.090 C  
ENDROOT
BRANCH   4  18
HETATM   18  O   UNL     1     -10.842  10.486  67.755  1.00  0.00    -0.249 OA 
BRANCH  18  19
HETATM   19  C   UNL     1     -11.796  11.222  68.375  1.00  0.00    -0.261 C  
HETATM   20  O   UNL     1     -12.469  12.097  67.849  1.00  0.00    -0.094 OA 
HETATM   21  C   UNL     1     -11.796  10.933  69.858  1.00  0.00    -0.427 C  
ENDBRANCH  18  19
ENDBRANCH   4  18
BRANCH   4  22
HETATM   22  C   UNL     1      -9.642  12.403  68.182  1.00  0.00    -0.218 C  
HETATM   23  C   UNL     1      -9.755  13.553  68.517  1.00  0.00    -0.168 C  
ENDBRANCH   4  22
BRANCH   7  24
HETATM   24  C   UNL     1      -9.952  11.807  65.148  1.00  0.00    -0.285 C  
HETATM   25  C   UNL     1     -10.177  13.293  65.315  1.00  0.00    -0.303 C  
ENDBRANCH   7  24
BRANCH  12  26
HETATM   26  N   UNL     1      -6.590   4.418  69.375  1.00  0.00    -0.039 NA 
HETATM   27  O   UNL     1      -6.462   4.359  67.969  1.00  0.00    -0.036 OA 
HETATM   28  H   UNL     1      -6.204   3.490  67.687  1.00  0.00     0.000 HD 
HETATM   29  H   UNL     1      -6.427   3.631  70.004  1.00  0.00     0.000 HD 
ENDBRANCH  12  26
TORSDOF 5
ENDMDL
MODEL       89
REMARK 921   NORMALIZED FREE ENERGY PREDICTED BY IDOCK:   -1.64 KCAL/MOL
REMARK 922        TOTAL FREE ENERGY PREDICTED BY IDOCK:   -2.54 KCAL/MOL
REMARK 923 INTER-LIGAND FREE ENERGY PREDICTED BY IDOCK:   -2.89 KCAL/MOL
REMARK 924 INTRA-LIGAND FREE ENERGY PREDICTED BY IDOCK:    0.35 KCAL/MOL
REMARK 927      BINDING AFFINITY PREDICTED BY RF-SCORE:    0.00 PKD
ROOT
HETATM    1  C   UNL     1      -7.017  17.264  66.977  1.00  0.00    -0.223 C  
HETATM    2  C   UNL     1      -6.664  17.035  65.629  1.00  0.00     0.927 C  
HETATM    3  C   UNL     1      -8.111  16.884  65.944  1.00  0.00     0.043 C  
HETATM    4  C   UNL     1      -8.732  17.586  67.781  1.00  0.00    -0.230 C  
HETATM    5  C   UNL     1      -7.383  15.624  67.760  1.00  0.00    -0.169 C  
HETATM    6  C   UNL     1      -6.310  14.500  67.505  1.00  0.00    -0.033 C  
HETATM    7  C   UNL     1      -8.650  18.253  66.586  1.00  0.00    -0.287 C  
HETATM    8  C   UNL     1      -6.729  13.006  67.804  1.00  0.00    -0.143 C  
HETATM    9  C   UNL     1     -10.213  17.277  66.124  1.00  0.00    -0.338 C  
HETATM   10  C   UNL     1      -8.223  12.691  67.745  1.00  0.00    -0.171 C  
HETATM   11  C   UNL     1      -8.815  11.699  67.047  1.00  0.00    -0.177 C  
HETATM   12  C   UNL     1     -10.314  11.593  66.961  1.00  0.00    -0.217 C  
HETATM   13  C   UNL     1     -11.173  12.461  67.861  1.00  0.00    -0.316 C  
HETATM   14  C   UNL     1     -10.429  13.345  68.828  1.00  0.00    -0.203 C  
HETATM   15  C   UNL     1     -10.248  15.757  66.932  1.00  0.00    -0.280 C  
HETATM   16  C   UNL     1      -8.889  14.944  67.401  1.00  0.00    -0.204 C  
HETATM   17  C   UNL     1      -9.041  13.779  68.406  1.00  0.00    -0.175 C  
ENDROOT
BRANCH   4  18
HETATM   18  O   UNL     1     -10.082  18.020  68.218  1.00  0.00    -0.342 OA 
BRANCH  18  19
HETATM   19  C   UNL     1     -10.404  18.147  69.528  1.00  0.00     0.387 C  
HETATM   20  O   UNL     1     -10.295  19.171  70.189  1.00  0.00     0.579 OA 
HETATM   21  C   UNL     1     -10.756  16.798  70.112  1.00  0.00     0.016 C  
ENDBRANCH  18  19
ENDBRANCH   4  18
BRANCH   4  22
HETATM   22  C   UNL     1      -7.889  18.419  68.798  1.00  0.00    -0.286 C  
HETATM   23  C   UNL     1      -7.317  19.096  69.611  1.00  0.00     0.041 C  
ENDBRANCH   4  22
BRANCH   7  24
HETATM   24  C   UNL     1      -8.677  19.667  66.063  1.00  0.00    -0.265 C  
HETATM   25  C   UNL     1      -9.451  20.701  66.850  1.00  0.00    -0.405 C  
ENDBRANCH   7  24
BRANCH  12  26
HETATM   26  N   UNL     1     -10.866  10.780  66.097  1.00  0.00    -0.119 NA 
HETATM   27  O   UNL     1      -9.936   9.820  65.639  1.00  0.00    -0.301 OA 
HETATM   28  H   UNL     1     -10.337   9.230  65.011  1.00  0.00     0.000 HD 
HETATM   29  H   UNL     1     -11.839  10.833  65.794  1.00  0.00     0.000 HD 
ENDBRANCH  12  26
TORSDOF 5
ENDMDL
MODEL       90
REMARK 921   NORMALIZED FREE ENERGY PREDICTED BY IDOCK:   -1.37 KCAL/MOL
REMARK 922        TOTAL FREE ENERGY PREDICTED BY IDOCK:   -2.20 KCAL/MOL
REMARK 923 INTER-LIGAND FREE ENERGY PREDICTED BY IDOCK:   -3.15 KCAL/MOL
REMARK 924 INTRA-LIGAND FREE ENERGY PREDICTED BY IDOCK:    0.95 KCAL/MOL
REMARK 927      BINDING AFFINITY PREDICTED BY RF-SCORE:    0.00 PKD
ROOT
HETATM    1  C   UNL     1      -6.226   5.191  68.392  1.00  0.00    -0.031 C  
HETATM    2  C   UNL     1      -5.155   5.559  69.236  1.00  0.00    -0.004 C  
HETATM    3  C   UNL     1      -6.499   6.027  69.672  1.00  0.00    -0.042 C  
HETATM    4  C   UNL     1      -8.120   5.192  68.709  1.00  0.00    -0.085 C  
HETATM    5  C   UNL     1      -6.766   6.699  67.460  1.00  0.00    -0.067 C  
HETATM    6  C   UNL     1      -5.608   7.528  66.787  1.00  0.00    -0.027 C  
HETATM    7  C   UNL     1      -7.466   4.755  69.831  1.00  0.00    -0.055 C  
HETATM    8  C   UNL     1      -5.938   8.999  66.317  1.00  0.00    -0.059 C  
HETATM    9  C   UNL     1      -8.372   6.175  70.710  1.00  0.00    -0.126 C  
HETATM   10  C   UNL     1      -7.093   9.702  67.029  1.00  0.00    -0.086 C  
HETATM   11  C   UNL     1      -7.068  10.925  67.601  1.00  0.00    -0.087 C  
HETATM   12  C   UNL     1      -8.236  11.435  68.401  1.00  0.00    -0.151 C  
HETATM   13  C   UNL     1      -9.549  10.676  68.367  1.00  0.00    -0.170 C  
HETATM   14  C   UNL     1      -9.586   9.467  67.468  1.00  0.00    -0.176 C  
HETATM   15  C   UNL     1      -8.669   7.478  69.624  1.00  0.00    -0.137 C  
HETATM   16  C   UNL     1      -7.718   7.805  68.314  1.00  0.00    -0.119 C  
HETATM   17  C   UNL     1      -8.264   8.767  67.233  1.00  0.00    -0.104 C  
ENDROOT
BRANCH   4  18
HETATM   18  O   UNL     1      -9.525   5.057  69.169  1.00  0.00    -0.117 OA 
BRANCH  18  19
HETATM   19  C   UNL     1     -10.557   5.625  68.499  1.00  0.00    -0.189 C  
HETATM   20  O   UNL     1     -10.638   5.734  67.283  1.00  0.00    -0.236 OA 
HETATM   21  C   UNL     1     -11.521   6.265  69.471  1.00  0.00    -0.387 C  
ENDBRANCH  18  19
ENDBRANCH   4  18
BRANCH   4  22
HETATM   22  C   UNL     1      -8.099   3.996  67.705  1.00  0.00    -0.090 C  
HETATM   23  C   UNL     1      -8.164   3.102  66.904  1.00  0.00    -0.088 C  
ENDBRANCH   4  22
BRANCH   7  24
HETATM   24  C   UNL     1      -7.367   3.517  70.687  1.00  0.00    -0.040 C  
HETATM   25  C   UNL     1      -6.063   2.751  70.681  1.00  0.00    -0.019 C  
ENDBRANCH   7  24
BRANCH  12  26
HETATM   26  N   UNL     1      -8.107  12.508  69.140  1.00  0.00    -0.233 NA 
HETATM   27  O   UNL     1      -6.744  12.819  69.348  1.00  0.00    -0.220 OA 
HETATM   28  H   UNL     1      -6.651  13.597  69.884  1.00  0.00     0.000 HD 
HETATM   29  H   UNL     1      -8.887  13.047  69.516  1.00  0.00     0.000 HD 
ENDBRANCH  12  26
TORSDOF 5
ENDMDL
MODEL       91
REMARK 921   NORMALIZED FREE ENERGY PREDICTED BY IDOCK:   -1.15 KCAL/MOL
REMARK 922        TOTAL FREE ENERGY PREDICTED BY IDOCK:   -1.91 KCAL/MOL
REMARK 923 INTER-LIGAND FREE ENERGY PREDICTED BY IDOCK:   -5.12 KCAL/MOL
REMARK 924 INTRA-LIGAND FREE ENERGY PREDICTED BY IDOCK:    3.21 KCAL/MOL
REMARK 927      BINDING AFFINITY PREDICTED BY RF-SCORE:    0.00 PKD
ROOT
HETATM    1  C   UNL     1     -11.233  12.211  68.005  1.00  0.00    -0.319 C  
HETATM    2  C   UNL     1     -10.821  11.922  69.324  1.00  0.00    -0.157 C  
HETATM    3  C   UNL     1      -9.743  12.382  68.405  1.00  0.00    -0.189 C  
HETATM    4  C   UNL     1     -10.350  13.188  66.607  1.00  0.00    -0.265 C  
HETATM    5  C   UNL     1     -10.638  10.844  66.904  1.00  0.00    -0.312 C  
HETATM    6  C   UNL     1     -10.934   9.385  67.419  1.00  0.00    -0.061 C  
HETATM    7  C   UNL     1     -10.146  13.816  67.808  1.00  0.00    -0.245 C  
HETATM    8  C   UNL     1     -10.137   8.196  66.751  1.00  0.00    -0.365 C  
HETATM    9  C   UNL     1      -8.299  13.618  67.409  1.00  0.00    -0.198 C  
HETATM   10  C   UNL     1      -8.789   8.546  66.120  1.00  0.00    -0.200 C  
HETATM   11  C   UNL     1      -7.607   7.933  66.343  1.00  0.00    -0.091 C  
HETATM   12  C   UNL     1      -6.327   8.476  65.767  1.00  0.00    -0.052 C  
HETATM   13  C   UNL     1      -6.389   9.581  64.729  1.00  0.00    -0.083 C  
HETATM   14  C   UNL     1      -7.769  10.017  64.315  1.00  0.00    -0.141 C  
HETATM   15  C   UNL     1      -8.027  12.217  66.445  1.00  0.00     0.263 C  
HETATM   16  C   UNL     1      -9.001  10.883  66.483  1.00  0.00    -0.178 C  
HETATM   17  C   UNL     1      -8.864   9.843  65.346  1.00  0.00    -0.196 C  
ENDROOT
BRANCH   4  18
HETATM   18  O   UNL     1      -9.638  14.130  65.707  1.00  0.00    -0.242 OA 
BRANCH  18  19
HETATM   19  C   UNL     1     -10.078  15.396  65.502  1.00  0.00    -0.373 C  
HETATM   20  O   UNL     1      -9.781  16.368  66.182  1.00  0.00    -0.290 OA 
HETATM   21  C   UNL     1     -11.131  15.413  64.417  1.00  0.00    -0.149 C  
ENDBRANCH  18  19
ENDBRANCH   4  18
BRANCH   4  22
HETATM   22  C   UNL     1     -11.811  13.535  66.182  1.00  0.00    -0.426 C  
HETATM   23  C   UNL     1     -12.947  13.717  65.829  1.00  0.00    -0.310 C  
ENDBRANCH   4  22
BRANCH   7  24
HETATM   24  C   UNL     1     -10.453  15.133  68.475  1.00  0.00    -0.233 C  
HETATM   25  C   UNL     1      -9.580  15.565  69.632  1.00  0.00    -0.264 C  
ENDBRANCH   7  24
BRANCH  12  26
HETATM   26  N   UNL     1      -5.174   8.017  66.182  1.00  0.00    -0.025 NA 
HETATM   27  O   UNL     1      -5.341   6.830  66.931  1.00  0.00    -0.015 OA 
HETATM   28  H   UNL     1      -4.504   6.497  67.232  1.00  0.00     0.000 HD 
HETATM   29  H   UNL     1      -4.274   8.458  65.991  1.00  0.00     0.000 HD 
ENDBRANCH  12  26
TORSDOF 5
ENDMDL
MODEL       92
REMARK 921   NORMALIZED FREE ENERGY PREDICTED BY IDOCK:   -1.15 KCAL/MOL
REMARK 922        TOTAL FREE ENERGY PREDICTED BY IDOCK:   -1.91 KCAL/MOL
REMARK 923 INTER-LIGAND FREE ENERGY PREDICTED BY IDOCK:   -2.82 KCAL/MOL
REMARK 924 INTRA-LIGAND FREE ENERGY PREDICTED BY IDOCK:    0.92 KCAL/MOL
REMARK 927      BINDING AFFINITY PREDICTED BY RF-SCORE:    0.00 PKD
ROOT
HETATM    1  C   UNL     1      -5.903  11.170  68.380  1.00  0.00    -0.042 C  
HETATM    2  C   UNL     1      -5.655  10.996  69.759  1.00  0.00    -0.052 C  
HETATM    3  C   UNL     1      -6.961  10.470  69.275  1.00  0.00    -0.086 C  
HETATM    4  C   UNL     1      -7.200  10.341  67.231  1.00  0.00    -0.089 C  
HETATM    5  C   UNL     1      -7.159  12.519  68.189  1.00  0.00    -0.103 C  
HETATM    6  C   UNL     1      -6.871  13.831  69.013  1.00  0.00    -0.111 C  
HETATM    7  C   UNL     1      -6.692   9.410  68.100  1.00  0.00    -0.059 C  
HETATM    8  C   UNL     1      -8.061  14.852  69.204  1.00  0.00    -0.160 C  
HETATM    9  C   UNL     1      -8.504   9.138  68.604  1.00  0.00    -0.127 C  
HETATM   10  C   UNL     1      -9.475  14.278  69.113  1.00  0.00     0.101 C  
HETATM   11  C   UNL     1     -10.473  14.437  70.008  1.00  0.00     0.311 C  
HETATM   12  C   UNL     1     -11.773  13.692  69.866  1.00  0.00    -0.276 C  
HETATM   13  C   UNL     1     -12.063  12.941  68.580  1.00  0.00    -0.171 C  
HETATM   14  C   UNL     1     -11.014  13.051  67.504  1.00  0.00    -0.282 C  
HETATM   15  C   UNL     1      -9.420  10.582  68.405  1.00  0.00    -0.158 C  
HETATM   16  C   UNL     1      -8.765  12.095  68.503  1.00  0.00    -0.079 C  
HETATM   17  C   UNL     1      -9.595  13.289  67.975  1.00  0.00    -0.220 C  
ENDROOT
BRANCH   4  18
HETATM   18  O   UNL     1      -8.110   9.475  66.440  1.00  0.00    -0.110 OA 
BRANCH  18  19
HETATM   19  C   UNL     1      -7.862   9.170  65.143  1.00  0.00    -0.106 C  
HETATM   20  O   UNL     1      -8.251   9.812  64.177  1.00  0.00    -0.137 OA 
HETATM   21  C   UNL     1      -7.182   7.824  65.045  1.00  0.00    -0.065 C  
ENDBRANCH  18  19
ENDBRANCH   4  18
BRANCH   4  22
HETATM   22  C   UNL     1      -6.101  10.560  66.144  1.00  0.00    -0.110 C  
HETATM   23  C   UNL     1      -5.276  10.649  65.273  1.00  0.00    -0.137 C  
ENDBRANCH   4  22
BRANCH   7  24
HETATM   24  C   UNL     1      -5.904   8.125  68.065  1.00  0.00    -0.042 C  
HETATM   25  C   UNL     1      -5.544   7.477  69.384  1.00  0.00    -0.023 C  
ENDBRANCH   7  24
BRANCH  12  26
HETATM   26  N   UNL     1     -12.629  13.671  70.856  1.00  0.00    -0.353 NA 
HETATM   27  O   UNL     1     -12.005  14.028  72.073  1.00  0.00    -0.136 OA 
HETATM   28  H   UNL     1     -12.627  14.012  72.791  1.00  0.00     0.000 HD 
HETATM   29  H   UNL     1     -13.616  13.430  70.761  1.00  0.00     0.000 HD 
ENDBRANCH  12  26
TORSDOF 5
ENDMDL
MODEL       93
REMARK 921   NORMALIZED FREE ENERGY PREDICTED BY IDOCK:   -1.08 KCAL/MOL
REMARK 922        TOTAL FREE ENERGY PREDICTED BY IDOCK:   -1.81 KCAL/MOL
REMARK 923 INTER-LIGAND FREE ENERGY PREDICTED BY IDOCK:   -2.07 KCAL/MOL
REMARK 924 INTRA-LIGAND FREE ENERGY PREDICTED BY IDOCK:    0.26 KCAL/MOL
REMARK 927      BINDING AFFINITY PREDICTED BY RF-SCORE:    0.00 PKD
ROOT
HETATM    1  C   UNL     1      -8.078  11.769  69.692  1.00  0.00     1.065 C  
HETATM    2  C   UNL     1      -6.691  11.842  69.951  1.00  0.00     0.081 C  
HETATM    3  C   UNL     1      -7.063  11.571  68.534  1.00  0.00    -0.087 C  
HETATM    4  C   UNL     1      -9.044  11.848  68.033  1.00  0.00    -0.189 C  
HETATM    5  C   UNL     1      -8.519   9.989  69.424  1.00  0.00    -0.176 C  
HETATM    6  C   UNL     1      -7.962   8.986  70.503  1.00  0.00    -0.150 C  
HETATM    7  C   UNL     1      -8.014  12.753  68.011  1.00  0.00    -0.160 C  
HETATM    8  C   UNL     1      -7.965   7.448  70.144  1.00  0.00    -0.112 C  
HETATM    9  C   UNL     1      -7.462  11.834  66.442  1.00  0.00     0.181 C  
HETATM   10  C   UNL     1      -7.941   7.092  68.658  1.00  0.00    -0.123 C  
HETATM   11  C   UNL     1      -7.091   6.245  68.040  1.00  0.00    -0.082 C  
HETATM   12  C   UNL     1      -7.084   6.101  66.543  1.00  0.00    -0.068 C  
HETATM   13  C   UNL     1      -8.202   6.728  65.731  1.00  0.00    -0.135 C  
HETATM   14  C   UNL     1      -9.282   7.418  66.522  1.00  0.00    -0.206 C  
HETATM   15  C   UNL     1      -7.931  10.178  66.504  1.00  0.00    -0.118 C  
HETATM   16  C   UNL     1      -8.126   9.340  67.914  1.00  0.00    -0.104 C  
HETATM   17  C   UNL     1      -8.870   7.985  67.864  1.00  0.00    -0.130 C  
ENDROOT
BRANCH   4  18
HETATM   18  O   UNL     1      -9.652  12.128  66.709  1.00  0.00    -0.201 OA 
BRANCH  18  19
HETATM   19  C   UNL     1     -10.807  11.540  66.312  1.00  0.00    -0.282 C  
HETATM   20  O   UNL     1     -11.500  10.804  67.001  1.00  0.00    -0.349 OA 
HETATM   21  C   UNL     1     -11.034  11.779  64.837  1.00  0.00    -0.358 C  
ENDBRANCH  18  19
ENDBRANCH   4  18
BRANCH   4  22
HETATM   22  C   UNL     1     -10.155  12.483  68.927  1.00  0.00     0.034 C  
HETATM   23  C   UNL     1     -11.058  12.896  69.606  1.00  0.00     0.028 C  
ENDBRANCH   4  22
BRANCH   7  24
HETATM   24  C   UNL     1      -7.805  14.243  67.910  1.00  0.00    -0.156 C  
HETATM   25  C   UNL     1      -8.957  15.091  67.420  1.00  0.00    -0.196 C  
ENDBRANCH   7  24
BRANCH  12  26
HETATM   26  N   UNL     1      -6.106   5.466  65.948  1.00  0.00    -0.032 NA 
HETATM   27  O   UNL     1      -6.605   4.510  65.035  1.00  0.00    -0.041 OA 
HETATM   28  H   UNL     1      -5.896   4.049  64.603  1.00  0.00     0.000 HD 
HETATM   29  H   UNL     1      -5.116   5.637  66.122  1.00  0.00     0.000 HD 
ENDBRANCH  12  26
TORSDOF 5
ENDMDL
MODEL       94
REMARK 921   NORMALIZED FREE ENERGY PREDICTED BY IDOCK:   -0.87 KCAL/MOL
REMARK 922        TOTAL FREE ENERGY PREDICTED BY IDOCK:   -1.55 KCAL/MOL
REMARK 923 INTER-LIGAND FREE ENERGY PREDICTED BY IDOCK:   -1.75 KCAL/MOL
REMARK 924 INTRA-LIGAND FREE ENERGY PREDICTED BY IDOCK:    0.20 KCAL/MOL
REMARK 927      BINDING AFFINITY PREDICTED BY RF-SCORE:    0.00 PKD
ROOT
HETATM    1  C   UNL     1      -9.986  14.358  70.542  1.00  0.00     1.529 C  
HETATM    2  C   UNL     1     -10.186  15.241  71.625  1.00  0.00     1.514 C  
HETATM    3  C   UNL     1     -11.008  15.519  70.414  1.00  0.00    -0.360 C  
HETATM    4  C   UNL     1     -11.048  14.045  68.972  1.00  0.00    -0.264 C  
HETATM    5  C   UNL     1      -9.015  15.255  69.242  1.00  0.00    -0.241 C  
HETATM    6  C   UNL     1      -7.739  16.019  69.759  1.00  0.00     0.230 C  
HETATM    7  C   UNL     1     -11.868  14.210  70.059  1.00  0.00    -0.388 C  
HETATM    8  C   UNL     1      -7.095  17.100  68.804  1.00  0.00    -0.229 C  
HETATM    9  C   UNL     1     -12.655  15.608  69.042  1.00  0.00     0.422 C  
HETATM   10  C   UNL     1      -8.021  17.734  67.766  1.00  0.00    -0.225 C  
HETATM   11  C   UNL     1      -8.204  19.052  67.542  1.00  0.00    -0.301 C  
HETATM   12  C   UNL     1      -9.260  19.541  66.588  1.00  0.00    -0.354 C  
HETATM   13  C   UNL     1      -9.965  18.546  65.686  1.00  0.00     0.287 C  
HETATM   14  C   UNL     1      -9.498  17.118  65.791  1.00  0.00     0.036 C  
HETATM   15  C   UNL     1     -11.502  16.320  67.979  1.00  0.00    -0.125 C  
HETATM   16  C   UNL     1      -9.880  16.350  68.287  1.00  0.00    -0.229 C  
HETATM   17  C   UNL     1      -8.919  16.699  67.126  1.00  0.00    -0.225 C  
ENDROOT
BRANCH   4  18
HETATM   18  O   UNL     1     -12.067  13.774  67.928  1.00  0.00    -0.365 OA 
BRANCH  18  19
HETATM   19  C   UNL     1     -11.761  13.120  66.781  1.00  0.00    -0.385 C  
HETATM   20  O   UNL     1     -11.902  11.920  66.591  1.00  0.00    -0.591 OA 
HETATM   21  C   UNL     1     -11.056  14.050  65.822  1.00  0.00    -0.305 C  
ENDBRANCH  18  19
ENDBRANCH   4  18
BRANCH   4  22
HETATM   22  C   UNL     1     -10.461  12.603  69.091  1.00  0.00     0.081 C  
HETATM   23  C   UNL     1      -9.930  11.526  69.157  1.00  0.00     0.050 C  
ENDBRANCH   4  22
BRANCH   7  24
HETATM   24  C   UNL     1     -12.886  13.429  70.850  1.00  0.00    -0.279 C  
HETATM   25  C   UNL     1     -13.503  14.091  72.062  1.00  0.00    -0.528 C  
ENDBRANCH   7  24
BRANCH  12  26
HETATM   26  N   UNL     1      -9.583  20.809  66.560  1.00  0.00    -0.609 NA 
HETATM   27  O   UNL     1     -10.238  21.190  67.754  1.00  0.00     0.102 OA 
HETATM   28  H   UNL     1     -10.473  22.110  67.734  1.00  0.00     0.000 HD 
HETATM   29  H   UNL     1      -9.390  21.438  65.781  1.00  0.00     0.000 HD 
ENDBRANCH  12  26
TORSDOF 5
ENDMDL
MODEL       95
REMARK 921   NORMALIZED FREE ENERGY PREDICTED BY IDOCK:   -0.44 KCAL/MOL
REMARK 922        TOTAL FREE ENERGY PREDICTED BY IDOCK:   -0.99 KCAL/MOL
REMARK 923 INTER-LIGAND FREE ENERGY PREDICTED BY IDOCK:   -2.55 KCAL/MOL
REMARK 924 INTRA-LIGAND FREE ENERGY PREDICTED BY IDOCK:    1.56 KCAL/MOL
REMARK 927      BINDING AFFINITY PREDICTED BY RF-SCORE:    0.00 PKD
ROOT
HETATM    1  C   UNL     1      -7.414   7.460  69.919  1.00  0.00    -0.085 C  
HETATM    2  C   UNL     1      -7.474   6.050  69.956  1.00  0.00    -0.083 C  
HETATM    3  C   UNL     1      -8.667   6.724  69.374  1.00  0.00    -0.136 C  
HETATM    4  C   UNL     1      -8.468   8.729  68.935  1.00  0.00    -0.131 C  
HETATM    5  C   UNL     1      -8.542   8.117  71.235  1.00  0.00    -0.162 C  
HETATM    6  C   UNL     1      -8.384   7.453  72.654  1.00  0.00    -0.131 C  
HETATM    7  C   UNL     1      -8.197   7.642  68.145  1.00  0.00    -0.124 C  
HETATM    8  C   UNL     1      -9.544   7.678  73.702  1.00  0.00    -0.333 C  
HETATM    9  C   UNL     1     -10.084   7.511  67.968  1.00  0.00    -0.221 C  
HETATM   10  C   UNL     1     -10.928   7.990  73.133  1.00  0.00    -0.180 C  
HETATM   11  C   UNL     1     -12.087   7.368  73.436  1.00  0.00     1.388 C  
HETATM   12  C   UNL     1     -13.356   7.678  72.689  1.00  0.00     0.554 C  
HETATM   13  C   UNL     1     -13.395   8.871  71.752  1.00  0.00    -0.436 C  
HETATM   14  C   UNL     1     -12.136   9.696  71.687  1.00  0.00    -0.481 C  
HETATM   15  C   UNL     1     -10.876   8.116  69.372  1.00  0.00    -0.096 C  
HETATM   16  C   UNL     1     -10.195   8.102  70.877  1.00  0.00    -0.216 C  
HETATM   17  C   UNL     1     -10.842   8.968  71.983  1.00  0.00    -0.342 C  
ENDROOT
BRANCH   4  18
HETATM   18  O   UNL     1      -9.222   9.563  67.967  1.00  0.00    -0.130 OA 
BRANCH  18  19
HETATM   19  C   UNL     1      -8.654  10.617  67.333  1.00  0.00    -0.122 C  
HETATM   20  O   UNL     1      -8.589  11.757  67.772  1.00  0.00    -0.139 OA 
HETATM   21  C   UNL     1      -8.262  10.230  65.925  1.00  0.00    -0.148 C  
ENDBRANCH  18  19
ENDBRANCH   4  18
BRANCH   4  22
HETATM   22  C   UNL     1      -7.153   9.570  68.976  1.00  0.00    -0.066 C  
HETATM   23  C   UNL     1      -6.098  10.144  69.036  1.00  0.00    -0.040 C  
ENDBRANCH   4  22
BRANCH   7  24
HETATM   24  C   UNL     1      -7.474   7.314  66.863  1.00  0.00    -0.097 C  
HETATM   25  C   UNL     1      -8.303   6.933  65.657  1.00  0.00    -0.147 C  
ENDBRANCH   7  24
BRANCH  12  26
HETATM   26  N   UNL     1     -14.404   6.907  72.827  1.00  0.00    -0.111 NA 
HETATM   27  O   UNL     1     -14.033   5.543  72.827  1.00  0.00    -0.331 OA 
HETATM   28  H   UNL     1     -14.794   4.983  72.927  1.00  0.00     0.000 HD 
HETATM   29  H   UNL     1     -15.362   7.245  72.921  1.00  0.00     0.000 HD 
ENDBRANCH  12  26
TORSDOF 5
ENDMDL
MODEL       96
REMARK 921   NORMALIZED FREE ENERGY PREDICTED BY IDOCK:   -0.29 KCAL/MOL
REMARK 922        TOTAL FREE ENERGY PREDICTED BY IDOCK:   -0.79 KCAL/MOL
REMARK 923 INTER-LIGAND FREE ENERGY PREDICTED BY IDOCK:   -2.03 KCAL/MOL
REMARK 924 INTRA-LIGAND FREE ENERGY PREDICTED BY IDOCK:    1.24 KCAL/MOL
REMARK 927      BINDING AFFINITY PREDICTED BY RF-SCORE:    0.00 PKD
ROOT
HETATM    1  C   UNL     1      -8.888  13.635  67.799  1.00  0.00    -0.190 C  
HETATM    2  C   UNL     1      -7.964  13.790  68.855  1.00  0.00     0.036 C  
HETATM    3  C   UNL     1      -8.496  12.412  68.670  1.00  0.00     0.019 C  
HETATM    4  C   UNL     1      -9.526  12.050  66.921  1.00  0.00    -0.203 C  
HETATM    5  C   UNL     1     -10.577  13.446  68.538  1.00  0.00    -0.264 C  
HETATM    6  C   UNL     1     -10.956  14.506  69.640  1.00  0.00    -0.225 C  
HETATM    7  C   UNL     1      -8.183  11.931  67.171  1.00  0.00    -0.171 C  
HETATM    8  C   UNL     1     -12.191  14.186  70.570  1.00  0.00    -0.431 C  
HETATM    9  C   UNL     1      -8.669  10.349  68.106  1.00  0.00    -0.125 C  
HETATM   10  C   UNL     1     -12.552  12.711  70.745  1.00  0.00    -0.302 C  
HETATM   11  C   UNL     1     -12.737  12.055  71.910  1.00  0.00    -0.208 C  
HETATM   12  C   UNL     1     -12.943  10.564  71.941  1.00  0.00    -0.447 C  
HETATM   13  C   UNL     1     -13.188   9.821  70.642  1.00  0.00    -0.066 C  
HETATM   14  C   UNL     1     -13.256  10.671  69.401  1.00  0.00     1.522 C  
HETATM   15  C   UNL     1     -10.256  10.486  68.760  1.00  0.00    -0.205 C  
HETATM   16  C   UNL     1     -10.944  11.927  69.183  1.00  0.00    -0.251 C  
HETATM   17  C   UNL     1     -12.470  11.965  69.432  1.00  0.00     0.125 C  
ENDROOT
BRANCH   4  18
HETATM   18  O   UNL     1      -9.765  10.767  66.214  1.00  0.00    -0.191 OA 
BRANCH  18  19
HETATM   19  C   UNL     1      -9.863  10.700  64.864  1.00  0.00    -0.302 C  
HETATM   20  O   UNL     1      -8.931  10.516  64.094  1.00  0.00    -0.195 OA 
HETATM   21  C   UNL     1     -11.264  11.058  64.425  1.00  0.00     0.115 C  
ENDBRANCH  18  19
ENDBRANCH   4  18
BRANCH   4  22
HETATM   22  C   UNL     1      -9.651  13.007  65.693  1.00  0.00    -0.025 C  
HETATM   23  C   UNL     1      -9.736  13.812  64.804  1.00  0.00     0.270 C  
ENDBRANCH   4  22
BRANCH   7  24
HETATM   24  C   UNL     1      -6.889  11.778  66.413  1.00  0.00     0.229 C  
HETATM   25  C   UNL     1      -5.598  12.064  67.147  1.00  0.00    -0.132 C  
ENDBRANCH   7  24
BRANCH  12  26
HETATM   26  N   UNL     1     -12.881   9.916  73.077  1.00  0.00     0.261 NA 
HETATM   27  O   UNL     1     -13.410   8.612  72.944  1.00  0.00    -0.672 OA 
HETATM   28  H   UNL     1     -13.365   8.142  73.768  1.00  0.00     0.000 HD 
HETATM   29  H   UNL     1     -12.503  10.301  73.942  1.00  0.00     0.000 HD 
ENDBRANCH  12  26
TORSDOF 5
ENDMDL
MODEL       97
REMARK 921   NORMALIZED FREE ENERGY PREDICTED BY IDOCK:    0.76 KCAL/MOL
REMARK 922        TOTAL FREE ENERGY PREDICTED BY IDOCK:    0.56 KCAL/MOL
REMARK 923 INTER-LIGAND FREE ENERGY PREDICTED BY IDOCK:   -2.46 KCAL/MOL
REMARK 924 INTRA-LIGAND FREE ENERGY PREDICTED BY IDOCK:    3.03 KCAL/MOL
REMARK 927      BINDING AFFINITY PREDICTED BY RF-SCORE:    0.00 PKD
ROOT
HETATM    1  C   UNL     1      -6.555   6.071  69.768  1.00  0.00    -0.047 C  
HETATM    2  C   UNL     1      -5.310   6.724  69.896  1.00  0.00    -0.015 C  
HETATM    3  C   UNL     1      -6.464   7.608  69.571  1.00  0.00    -0.032 C  
HETATM    4  C   UNL     1      -8.341   6.777  69.765  1.00  0.00    -0.132 C  
HETATM    5  C   UNL     1      -6.986   6.004  67.967  1.00  0.00    -0.076 C  
HETATM    6  C   UNL     1      -5.837   5.499  67.015  1.00  0.00    -0.018 C  
HETATM    7  C   UNL     1      -7.587   7.433  70.704  1.00  0.00    -0.086 C  
HETATM    8  C   UNL     1      -5.992   5.776  65.468  1.00  0.00    -0.028 C  
HETATM    9  C   UNL     1      -8.081   9.005  69.759  1.00  0.00    -0.109 C  
HETATM   10  C   UNL     1      -6.875   6.958  65.070  1.00  0.00    -0.051 C  
HETATM   11  C   UNL     1      -6.550   7.968  64.235  1.00  0.00    -0.061 C  
HETATM   12  C   UNL     1      -7.463   9.149  64.048  1.00  0.00    -0.110 C  
HETATM   13  C   UNL     1      -8.871   9.097  64.611  1.00  0.00    -0.183 C  
HETATM   14  C   UNL     1      -9.261   7.809  65.287  1.00  0.00     0.424 C  
HETATM   15  C   UNL     1      -8.337   8.663  68.090  1.00  0.00    -0.127 C  
HETATM   16  C   UNL     1      -7.581   7.434  67.288  1.00  0.00    -0.108 C  
HETATM   17  C   UNL     1      -8.134   7.010  65.907  1.00  0.00    -0.119 C  
ENDROOT
BRANCH   4  18
HETATM   18  O   UNL     1      -9.649   7.442  69.984  1.00  0.00    -0.168 OA 
BRANCH  18  19
HETATM   19  C   UNL     1     -10.453   7.117  71.026  1.00  0.00    -0.215 C  
HETATM   20  O   UNL     1     -10.309   6.146  71.756  1.00  0.00    -0.202 OA 
HETATM   21  C   UNL     1     -11.661   8.026  71.056  1.00  0.00    -0.303 C  
ENDBRANCH  18  19
ENDBRANCH   4  18
BRANCH   4  22
HETATM   22  C   UNL     1      -8.690   5.388  70.387  1.00  0.00    -0.136 C  
HETATM   23  C   UNL     1      -8.872   4.301  70.868  1.00  0.00    -0.142 C  
ENDBRANCH   4  22
BRANCH   7  24
HETATM   24  C   UNL     1      -7.553   7.644  72.196  1.00  0.00    -0.089 C  
HETATM   25  C   UNL     1      -6.876   6.593  73.047  1.00  0.00    -0.075 C  
ENDBRANCH   7  24
BRANCH  12  26
HETATM   26  N   UNL     1      -7.034  10.219  63.429  1.00  0.00    -0.237 NA 
HETATM   27  O   UNL     1      -7.866  11.329  63.700  1.00  0.00    -0.020 OA 
HETATM   28  H   UNL     1      -7.554  12.106  63.251  1.00  0.00     0.000 HD 
HETATM   29  H   UNL     1      -6.209  10.249  62.830  1.00  0.00     0.000 HD 
ENDBRANCH  12  26
TORSDOF 5
ENDMDL
MODEL       98
REMARK 921   NORMALIZED FREE ENERGY PREDICTED BY IDOCK:    1.60 KCAL/MOL
REMARK 922        TOTAL FREE ENERGY PREDICTED BY IDOCK:    1.65 KCAL/MOL
REMARK 923 INTER-LIGAND FREE ENERGY PREDICTED BY IDOCK:    1.35 KCAL/MOL
REMARK 924 INTRA-LIGAND FREE ENERGY PREDICTED BY IDOCK:    0.30 KCAL/MOL
REMARK 927      BINDING AFFINITY PREDICTED BY RF-SCORE:    0.00 PKD
ROOT
HETATM    1  C   UNL     1      -6.005   6.684  68.027  1.00  0.00    -0.024 C  
HETATM    2  C   UNL     1      -5.368   6.946  66.794  1.00  0.00    -0.017 C  
HETATM    3  C   UNL     1      -6.857   6.920  66.751  1.00  0.00    -0.064 C  
HETATM    4  C   UNL     1      -7.829   6.940  68.569  1.00  0.00    -0.118 C  
HETATM    5  C   UNL     1      -6.661   4.952  67.978  1.00  0.00    -0.049 C  
HETATM    6  C   UNL     1      -5.644   3.858  67.476  1.00  0.00    -0.021 C  
HETATM    7  C   UNL     1      -7.426   7.997  67.796  1.00  0.00    -0.094 C  
HETATM    8  C   UNL     1      -6.230   2.456  67.046  1.00  0.00    -0.024 C  
HETATM    9  C   UNL     1      -8.908   7.545  66.698  1.00  0.00    -0.162 C  
HETATM   10  C   UNL     1      -7.690   2.434  66.594  1.00  0.00    -0.071 C  
HETATM   11  C   UNL     1      -8.177   1.903  65.452  1.00  0.00    -0.083 C  
HETATM   12  C   UNL     1      -9.619   2.083  65.062  1.00  0.00     0.096 C  
HETATM   13  C   UNL     1     -10.596   2.657  66.071  1.00  0.00     2.857 C  
HETATM   14  C   UNL     1     -10.031   2.961  67.434  1.00  0.00     0.779 C  
HETATM   15  C   UNL     1      -9.241   5.858  66.780  1.00  0.00    -0.139 C  
HETATM   16  C   UNL     1      -8.090   4.719  67.104  1.00  0.00    -0.102 C  
HETATM   17  C   UNL     1      -8.555   3.294  67.488  1.00  0.00    -0.119 C  
ENDROOT
BRANCH   4  18
HETATM   18  O   UNL     1      -9.208   7.380  68.897  1.00  0.00    -0.143 OA 
BRANCH  18  19
HETATM   19  C   UNL     1      -9.868   6.920  69.988  1.00  0.00    -0.173 C  
HETATM   20  O   UNL     1      -9.767   5.793  70.453  1.00  0.00    -0.166 OA 
HETATM   21  C   UNL     1     -10.883   7.939  70.452  1.00  0.00    -0.244 C  
ENDBRANCH  18  19
ENDBRANCH   4  18
BRANCH   4  22
HETATM   22  C   UNL     1      -7.185   7.162  69.974  1.00  0.00    -0.078 C  
HETATM   23  C   UNL     1      -6.609   7.336  71.015  1.00  0.00    -0.044 C  
ENDBRANCH   4  22
BRANCH   7  24
HETATM   24  C   UNL     1      -7.228   9.488  67.913  1.00  0.00    -0.082 C  
HETATM   25  C   UNL     1      -7.207  10.095  69.298  1.00  0.00    -0.085 C  
ENDBRANCH   7  24
BRANCH  12  26
HETATM   26  N   UNL     1     -10.016   1.772  63.854  1.00  0.00    -0.182 NA 
HETATM   27  O   UNL     1     -10.009   2.907  63.012  1.00  0.00    -0.096 OA 
HETATM   28  H   UNL     1     -10.297   2.682  62.135  1.00  0.00     0.000 HD 
HETATM   29  H   UNL     1     -10.294   0.836  63.560  1.00  0.00     0.000 HD 
ENDBRANCH  12  26
TORSDOF 5
ENDMDL
MODEL       99
REMARK 921   NORMALIZED FREE ENERGY PREDICTED BY IDOCK:    1.69 KCAL/MOL
REMARK 922        TOTAL FREE ENERGY PREDICTED BY IDOCK:    1.76 KCAL/MOL
REMARK 923 INTER-LIGAND FREE ENERGY PREDICTED BY IDOCK:   -0.31 KCAL/MOL
REMARK 924 INTRA-LIGAND FREE ENERGY PREDICTED BY IDOCK:    2.07 KCAL/MOL
REMARK 927      BINDING AFFINITY PREDICTED BY RF-SCORE:    0.00 PKD
ROOT
HETATM    1  C   UNL     1     -10.387  14.688  67.417  1.00  0.00    -0.241 C  
HETATM    2  C   UNL     1     -11.261  14.229  68.427  1.00  0.00    -0.291 C  
HETATM    3  C   UNL     1      -9.936  13.553  68.374  1.00  0.00    -0.232 C  
HETATM    4  C   UNL     1      -8.495  14.442  67.197  1.00  0.00    -0.208 C  
HETATM    5  C   UNL     1     -10.325  13.402  66.084  1.00  0.00    -0.295 C  
HETATM    6  C   UNL     1     -11.724  12.864  65.599  1.00  0.00    -0.430 C  
HETATM    7  C   UNL     1      -8.781  14.658  68.520  1.00  0.00    -0.176 C  
HETATM    8  C   UNL     1     -11.743  11.522  64.765  1.00  0.00    -0.013 C  
HETATM    9  C   UNL     1      -7.910  12.995  68.808  1.00  0.00     0.033 C  
HETATM   10  C   UNL     1     -10.567  10.569  64.976  1.00  0.00    -0.109 C  
HETATM   11  C   UNL     1     -10.633   9.253  65.270  1.00  0.00     1.873 C  
HETATM   12  C   UNL     1      -9.394   8.465  65.598  1.00  0.00     0.005 C  
HETATM   13  C   UNL     1      -8.031   9.089  65.363  1.00  0.00    -0.111 C  
HETATM   14  C   UNL     1      -8.036  10.467  64.756  1.00  0.00    -0.046 C  
HETATM   15  C   UNL     1      -8.087  11.964  67.439  1.00  0.00    -0.165 C  
HETATM   16  C   UNL     1      -9.369  12.044  66.401  1.00  0.00    -0.232 C  
HETATM   17  C   UNL     1      -9.255  11.320  65.039  1.00  0.00    -0.147 C  
ENDROOT
BRANCH   4  18
HETATM   18  O   UNL     1      -7.017  14.337  67.274  1.00  0.00    -0.199 OA 
BRANCH  18  19
HETATM   19  C   UNL     1      -6.217  15.429  67.217  1.00  0.00     0.134 C  
HETATM   20  O   UNL     1      -6.014  16.108  66.220  1.00  0.00     0.310 OA 
HETATM   21  C   UNL     1      -5.467  15.595  68.519  1.00  0.00    -0.104 C  
ENDBRANCH  18  19
ENDBRANCH   4  18
BRANCH   4  22
HETATM   22  C   UNL     1      -8.583  15.838  66.504  1.00  0.00    -0.343 C  
HETATM   23  C   UNL     1      -8.617  16.875  65.896  1.00  0.00    -0.048 C  
ENDBRANCH   4  22
BRANCH   7  24
HETATM   24  C   UNL     1      -8.481  15.662  69.605  1.00  0.00    -0.076 C  
HETATM   25  C   UNL     1      -9.641  16.221  70.397  1.00  0.00     1.321 C  
ENDBRANCH   7  24
BRANCH  12  26
HETATM   26  N   UNL     1      -9.496   7.264  66.109  1.00  0.00    -0.387 NA 
HETATM   27  O   UNL     1      -8.389   6.464  65.746  1.00  0.00    -0.134 OA 
HETATM   28  H   UNL     1      -8.463   5.592  66.116  1.00  0.00     0.000 HD 
HETATM   29  H   UNL     1     -10.272   6.947  66.691  1.00  0.00     0.000 HD 
ENDBRANCH  12  26
TORSDOF 5
ENDMDL
MODEL      100
REMARK 921   NORMALIZED FREE ENERGY PREDICTED BY IDOCK:    1.92 KCAL/MOL
REMARK 922        TOTAL FREE ENERGY PREDICTED BY IDOCK:    2.06 KCAL/MOL
REMARK 923 INTER-LIGAND FREE ENERGY PREDICTED BY IDOCK:    1.84 KCAL/MOL
REMARK 924 INTRA-LIGAND FREE ENERGY PREDICTED BY IDOCK:    0.22 KCAL/MOL
REMARK 927      BINDING AFFINITY PREDICTED BY RF-SCORE:    0.00 PKD
ROOT
HETATM    1  C   UNL     1     -11.071  14.223  64.699  1.00  0.00    -0.371 C  
HETATM    2  C   UNL     1     -10.043  14.304  63.735  1.00  0.00     3.016 C  
HETATM    3  C   UNL     1      -9.607  13.902  65.100  1.00  0.00     0.207 C  
HETATM    4  C   UNL     1     -11.098  13.387  66.429  1.00  0.00    -0.299 C  
HETATM    5  C   UNL     1     -10.914  15.684  65.829  1.00  0.00    -0.250 C  
HETATM    6  C   UNL     1     -10.744  17.077  65.112  1.00  0.00    -0.066 C  
HETATM    7  C   UNL     1     -10.421  12.591  65.542  1.00  0.00    -0.305 C  
HETATM    8  C   UNL     1     -10.226  18.289  65.982  1.00  0.00    -0.334 C  
HETATM    9  C   UNL     1      -8.985  12.719  66.780  1.00  0.00    -0.188 C  
HETATM   10  C   UNL     1      -9.403  17.940  67.222  1.00  0.00    -0.258 C  
HETATM   11  C   UNL     1      -8.194  18.437  67.558  1.00  0.00    -0.255 C  
HETATM   12  C   UNL     1      -7.428  17.894  68.734  1.00  0.00    -0.268 C  
HETATM   13  C   UNL     1      -8.117  16.946  69.697  1.00  0.00     0.672 C  
HETATM   14  C   UNL     1      -9.569  16.662  69.413  1.00  0.00    -0.057 C  
HETATM   15  C   UNL     1      -9.039  14.216  67.629  1.00  0.00    -0.194 C  
HETATM   16  C   UNL     1      -9.701  15.594  67.003  1.00  0.00    -0.234 C  
HETATM   17  C   UNL     1     -10.001  16.766  67.966  1.00  0.00    -0.272 C  
ENDROOT
BRANCH   4  18
HETATM   18  O   UNL     1     -11.030  12.531  67.638  1.00  0.00    -0.226 OA 
BRANCH  18  19
HETATM   19  C   UNL     1     -11.992  12.560  68.592  1.00  0.00    -0.224 C  
HETATM   20  O   UNL     1     -12.726  11.627  68.888  1.00  0.00     0.071 OA 
HETATM   21  C   UNL     1     -12.154  13.965  69.127  1.00  0.00    -0.377 C  
ENDBRANCH  18  19
ENDBRANCH   4  18
BRANCH   4  22
HETATM   22  C   UNL     1     -12.614  13.199  66.107  1.00  0.00    -0.116 C  
HETATM   23  C   UNL     1     -13.761  13.059  65.772  1.00  0.00     3.210 C  
ENDBRANCH   4  22
BRANCH   7  24
HETATM   24  C   UNL     1     -10.530  11.219  64.925  1.00  0.00    -0.375 C  
HETATM   25  C   UNL     1      -9.472  10.196  65.277  1.00  0.00    -0.306 C  
ENDBRANCH   7  24
BRANCH  12  26
HETATM   26  N   UNL     1      -6.170  18.215  68.903  1.00  0.00    -0.213 NA 
HETATM   27  O   UNL     1      -5.464  18.157  67.680  1.00  0.00    -0.144 OA 
HETATM   28  H   UNL     1      -4.551  18.391  67.803  1.00  0.00     0.000 HD 
HETATM   29  H   UNL     1      -5.755  18.473  69.798  1.00  0.00     0.000 HD 
ENDBRANCH  12  26
TORSDOF 5
ENDMDL
MODEL      101
REMARK 921   NORMALIZED FREE ENERGY PREDICTED BY IDOCK:    2.49 KCAL/MOL
REMARK 922        TOTAL FREE ENERGY PREDICTED BY IDOCK:    2.80 KCAL/MOL
REMARK 923 INTER-LIGAND FREE ENERGY PREDICTED BY IDOCK:    1.23 KCAL/MOL
REMARK 924 INTRA-LIGAND FREE ENERGY PREDICTED BY IDOCK:    1.57 KCAL/MOL
REMARK 927      BINDING AFFINITY PREDICTED BY RF-SCORE:    0.00 PKD
ROOT
HETATM    1  C   UNL     1     -10.059  11.528  63.338  1.00  0.00    -0.454 C  
HETATM    2  C   UNL     1     -10.509  10.375  62.659  1.00  0.00     0.988 C  
HETATM    3  C   UNL     1     -10.492  10.275  64.144  1.00  0.00     0.454 C  
HETATM    4  C   UNL     1     -10.230  12.037  65.183  1.00  0.00    -0.276 C  
HETATM    5  C   UNL     1      -8.356  11.185  63.986  1.00  0.00     0.425 C  
HETATM    6  C   UNL     1      -7.352  10.556  62.947  1.00  0.00    -0.061 C  
HETATM    7  C   UNL     1     -11.394  11.454  64.755  1.00  0.00    -0.131 C  
HETATM    8  C   UNL     1      -6.036   9.891  63.511  1.00  0.00    -0.119 C  
HETATM    9  C   UNL     1     -11.122  10.245  66.195  1.00  0.00     0.344 C  
HETATM   10  C   UNL     1      -6.087   9.389  64.954  1.00  0.00    -0.068 C  
HETATM   11  C   UNL     1      -5.742   8.161  65.397  1.00  0.00    -0.040 C  
HETATM   12  C   UNL     1      -5.983   7.752  66.825  1.00  0.00    -0.047 C  
HETATM   13  C   UNL     1      -6.395   8.801  67.840  1.00  0.00    -0.056 C  
HETATM   14  C   UNL     1      -6.481  10.215  67.326  1.00  0.00    -0.068 C  
HETATM   15  C   UNL     1      -9.443  10.050  66.524  1.00  0.00    -0.222 C  
HETATM   16  C   UNL     1      -8.265  10.234  65.381  1.00  0.00    -0.156 C  
HETATM   17  C   UNL     1      -6.799  10.374  65.854  1.00  0.00    -0.131 C  
ENDROOT
BRANCH   4  18
HETATM   18  O   UNL     1     -10.616  12.379  66.574  1.00  0.00    -0.231 OA 
BRANCH  18  19
HETATM   19  C   UNL     1      -9.702  12.762  67.498  1.00  0.00    -0.201 C  
HETATM   20  O   UNL     1      -9.709  12.439  68.678  1.00  0.00    -0.166 OA 
HETATM   21  C   UNL     1      -8.763  13.790  66.909  1.00  0.00    -0.172 C  
ENDBRANCH  18  19
ENDBRANCH   4  18
BRANCH   4  22
HETATM   22  C   UNL     1     -10.228  13.481  64.590  1.00  0.00    -0.341 C  
HETATM   23  C   UNL     1     -10.210  14.624  64.217  1.00  0.00     1.012 C  
ENDBRANCH   4  22
BRANCH   7  24
HETATM   24  C   UNL     1     -12.848  11.809  64.567  1.00  0.00     0.421 C  
HETATM   25  C   UNL     1     -13.303  13.187  64.992  1.00  0.00     0.559 C  
ENDBRANCH   7  24
BRANCH  12  26
HETATM   26  N   UNL     1      -5.866   6.497  67.176  1.00  0.00    -0.016 NA 
HETATM   27  O   UNL     1      -5.795   5.657  66.041  1.00  0.00    -0.017 OA 
HETATM   28  H   UNL     1      -5.709   4.746  66.297  1.00  0.00     0.000 HD 
HETATM   29  H   UNL     1      -5.831   6.168  68.141  1.00  0.00     0.000 HD 
ENDBRANCH  12  26
TORSDOF 5
ENDMDL
MODEL      102
REMARK 921   NORMALIZED FREE ENERGY PREDICTED BY IDOCK:    2.83 KCAL/MOL
REMARK 922        TOTAL FREE ENERGY PREDICTED BY IDOCK:    3.24 KCAL/MOL
REMARK 923 INTER-LIGAND FREE ENERGY PREDICTED BY IDOCK:    3.16 KCAL/MOL
REMARK 924 INTRA-LIGAND FREE ENERGY PREDICTED BY IDOCK:    0.07 KCAL/MOL
REMARK 927      BINDING AFFINITY PREDICTED BY RF-SCORE:    0.00 PKD
ROOT
HETATM    1  C   UNL     1      -8.334  14.240  67.830  1.00  0.00    -0.174 C  
HETATM    2  C   UNL     1      -8.062  12.911  68.223  1.00  0.00    -0.151 C  
HETATM    3  C   UNL     1      -9.470  13.183  67.823  1.00  0.00    -0.209 C  
HETATM    4  C   UNL     1      -9.827  14.978  66.873  1.00  0.00    -0.238 C  
HETATM    5  C   UNL     1      -9.289  15.057  69.191  1.00  0.00    -0.189 C  
HETATM    6  C   UNL     1      -8.698  14.870  70.639  1.00  0.00     1.850 C  
HETATM    7  C   UNL     1      -9.483  13.768  66.329  1.00  0.00    -0.221 C  
HETATM    8  C   UNL     1      -9.640  15.197  71.864  1.00  0.00     3.930 C  
HETATM    9  C   UNL     1     -11.285  13.284  66.683  1.00  0.00    -0.332 C  
HETATM   10  C   UNL     1     -11.145  15.099  71.614  1.00  0.00    -0.193 C  
HETATM   11  C   UNL     1     -12.045  14.411  72.347  1.00  0.00    -0.096 C  
HETATM   12  C   UNL     1     -13.476  14.280  71.901  1.00  0.00    -0.401 C  
HETATM   13  C   UNL     1     -13.976  15.126  70.745  1.00  0.00    -0.097 C  
HETATM   14  C   UNL     1     -12.979  16.091  70.159  1.00  0.00     0.806 C  
HETATM   15  C   UNL     1     -11.891  14.134  68.053  1.00  0.00    -0.400 C  
HETATM   16  C   UNL     1     -10.932  14.669  69.288  1.00  0.00    -0.278 C  
HETATM   17  C   UNL     1     -11.521  15.702  70.278  1.00  0.00    -0.361 C  
ENDROOT
BRANCH   4  18
HETATM   18  O   UNL     1     -10.932  15.359  65.960  1.00  0.00    -0.325 OA 
BRANCH  18  19
HETATM   19  C   UNL     1     -11.127  16.641  65.566  1.00  0.00     0.072 C  
HETATM   20  O   UNL     1     -11.115  17.037  64.409  1.00  0.00    -1.144 OA 
HETATM   21  C   UNL     1     -11.189  17.553  66.770  1.00  0.00     0.609 C  
ENDBRANCH  18  19
ENDBRANCH   4  18
BRANCH   4  22
HETATM   22  C   UNL     1      -8.758  15.998  66.367  1.00  0.00    -0.362 C  
HETATM   23  C   UNL     1      -7.929  16.734  65.902  1.00  0.00     0.127 C  
ENDBRANCH   4  22
BRANCH   7  24
HETATM   24  C   UNL     1      -8.981  13.204  65.023  1.00  0.00     1.573 C  
HETATM   25  C   UNL     1      -8.758  11.711  64.933  1.00  0.00     0.517 C  
ENDBRANCH   7  24
BRANCH  12  26
HETATM   26  N   UNL     1     -14.271  13.422  72.489  1.00  0.00    -0.693 NA 
HETATM   27  O   UNL     1     -13.558  12.274  72.905  1.00  0.00    -0.462 OA 
HETATM   28  H   UNL     1     -14.134  11.652  73.332  1.00  0.00     0.000 HD 
HETATM   29  H   UNL     1     -15.272  13.562  72.628  1.00  0.00     0.000 HD 
ENDBRANCH  12  26
TORSDOF 5
ENDMDL
MODEL      103
REMARK 921   NORMALIZED FREE ENERGY PREDICTED BY IDOCK:    3.51 KCAL/MOL
REMARK 922        TOTAL FREE ENERGY PREDICTED BY IDOCK:    4.12 KCAL/MOL
REMARK 923 INTER-LIGAND FREE ENERGY PREDICTED BY IDOCK:    2.64 KCAL/MOL
REMARK 924 INTRA-LIGAND FREE ENERGY PREDICTED BY IDOCK:    1.48 KCAL/MOL
REMARK 927      BINDING AFFINITY PREDICTED BY RF-SCORE:    0.00 PKD
ROOT
HETATM    1  C   UNL     1      -8.516   8.688  69.748  1.00  0.00    -0.129 C  
HETATM    2  C   UNL     1      -7.199   8.371  70.145  1.00  0.00    -0.050 C  
HETATM    3  C   UNL     1      -7.313   9.176  68.897  1.00  0.00    -0.074 C  
HETATM    4  C   UNL     1      -9.164   9.994  68.497  1.00  0.00    -0.141 C  
HETATM    5  C   UNL     1      -8.944   7.633  68.285  1.00  0.00    -0.127 C  
HETATM    6  C   UNL     1      -8.615   6.100  68.439  1.00  0.00    -0.112 C  
HETATM    7  C   UNL     1      -8.126  10.522  69.220  1.00  0.00    -0.152 C  
HETATM    8  C   UNL     1      -8.590   5.221  67.127  1.00  0.00    -0.105 C  
HETATM    9  C   UNL     1      -7.321  10.827  67.527  1.00  0.00    -0.092 C  
HETATM   10  C   UNL     1      -8.305   5.956  65.817  1.00  0.00    -0.140 C  
HETATM   11  C   UNL     1      -7.377   5.633  64.892  1.00  0.00    -0.071 C  
HETATM   12  C   UNL     1      -7.102   6.531  63.717  1.00  0.00    -0.055 C  
HETATM   13  C   UNL     1      -8.039   7.690  63.431  1.00  0.00    -0.044 C  
HETATM   14  C   UNL     1      -9.228   7.814  64.348  1.00  0.00     1.427 C  
HETATM   15  C   UNL     1      -7.832   9.646  66.382  1.00  0.00    -0.101 C  
HETATM   16  C   UNL     1      -8.298   8.118  66.800  1.00  0.00    -0.115 C  
HETATM   17  C   UNL     1      -9.053   7.269  65.749  1.00  0.00     0.005 C  
ENDROOT
BRANCH   4  18
HETATM   18  O   UNL     1      -9.515  11.171  67.664  1.00  0.00    -0.163 OA 
BRANCH  18  19
HETATM   19  C   UNL     1     -10.512  11.129  66.747  1.00  0.00    -0.252 C  
HETATM   20  O   UNL     1     -10.700  11.957  65.867  1.00  0.00    -0.265 OA 
HETATM   21  C   UNL     1     -11.469  10.004  67.069  1.00  0.00     0.861 C  
ENDBRANCH  18  19
ENDBRANCH   4  18
BRANCH   4  22
HETATM   22  C   UNL     1     -10.404  10.013  69.445  1.00  0.00    -0.245 C  
HETATM   23  C   UNL     1     -11.361   9.939  70.169  1.00  0.00    -0.335 C  
ENDBRANCH   4  22
BRANCH   7  24
HETATM   24  C   UNL     1      -7.867  11.646  70.192  1.00  0.00     2.131 C  
HETATM   25  C   UNL     1      -7.743  13.048  69.640  1.00  0.00     1.043 C  
ENDBRANCH   7  24
BRANCH  12  26
HETATM   26  N   UNL     1      -6.048   6.329  62.967  1.00  0.00    -0.026 NA 
HETATM   27  O   UNL     1      -5.158   7.424  63.040  1.00  0.00    -0.032 OA 
HETATM   28  H   UNL     1      -4.392   7.277  62.496  1.00  0.00     0.000 HD 
HETATM   29  H   UNL     1      -5.890   5.492  62.406  1.00  0.00     0.000 HD 
ENDBRANCH  12  26
TORSDOF 5
ENDMDL
MODEL      104
REMARK 921   NORMALIZED FREE ENERGY PREDICTED BY IDOCK:    4.09 KCAL/MOL
REMARK 922        TOTAL FREE ENERGY PREDICTED BY IDOCK:    4.86 KCAL/MOL
REMARK 923 INTER-LIGAND FREE ENERGY PREDICTED BY IDOCK:    2.76 KCAL/MOL
REMARK 924 INTRA-LIGAND FREE ENERGY PREDICTED BY IDOCK:    2.11 KCAL/MOL
REMARK 927      BINDING AFFINITY PREDICTED BY RF-SCORE:    0.00 PKD
ROOT
HETATM    1  C   UNL     1      -8.731  15.185  66.092  1.00  0.00     0.014 C  
HETATM    2  C   UNL     1      -9.445  14.884  64.911  1.00  0.00     0.922 C  
HETATM    3  C   UNL     1     -10.179  14.631  66.182  1.00  0.00    -0.313 C  
HETATM    4  C   UNL     1      -9.346  15.418  67.896  1.00  0.00    -0.192 C  
HETATM    5  C   UNL     1      -8.218  13.587  66.876  1.00  0.00     0.046 C  
HETATM    6  C   UNL     1      -7.544  12.544  65.905  1.00  0.00     2.034 C  
HETATM    7  C   UNL     1     -10.237  15.994  67.028  1.00  0.00    -0.282 C  
HETATM    8  C   UNL     1      -7.436  11.048  66.399  1.00  0.00    -0.131 C  
HETATM    9  C   UNL     1     -11.516  14.851  67.845  1.00  0.00    -0.357 C  
HETATM   10  C   UNL     1      -8.453  10.598  67.448  1.00  0.00    -0.122 C  
HETATM   11  C   UNL     1      -9.245   9.506  67.393  1.00  0.00    -0.152 C  
HETATM   12  C   UNL     1     -10.309   9.263  68.428  1.00  0.00    -0.209 C  
HETATM   13  C   UNL     1     -10.340  10.120  69.680  1.00  0.00    -0.278 C  
HETATM   14  C   UNL     1      -9.237  11.138  69.806  1.00  0.00     0.909 C  
HETATM   15  C   UNL     1     -10.775  13.401  68.406  1.00  0.00    -0.271 C  
HETATM   16  C   UNL     1      -9.419  12.751  67.723  1.00  0.00    -0.205 C  
HETATM   17  C   UNL     1      -8.655  11.658  68.508  1.00  0.00    -0.134 C  
ENDROOT
BRANCH   4  18
HETATM   18  O   UNL     1      -9.993  15.764  69.186  1.00  0.00    -0.210 OA 
BRANCH  18  19
HETATM   19  C   UNL     1      -9.687  15.118  70.338  1.00  0.00     0.520 C  
HETATM   20  O   UNL     1      -8.572  15.045  70.834  1.00  0.00     1.548 OA 
HETATM   21  C   UNL     1     -10.887  14.348  70.839  1.00  0.00     0.710 C  
ENDBRANCH  18  19
ENDBRANCH   4  18
BRANCH   4  22
HETATM   22  C   UNL     1      -8.135  16.398  67.984  1.00  0.00    -0.159 C  
HETATM   23  C   UNL     1      -7.242  17.193  68.122  1.00  0.00    -0.193 C  
ENDBRANCH   4  22
BRANCH   7  24
HETATM   24  C   UNL     1     -10.801  17.355  66.707  1.00  0.00     0.024 C  
HETATM   25  C   UNL     1      -9.882  18.373  66.072  1.00  0.00    -0.163 C  
ENDBRANCH   7  24
BRANCH  12  26
HETATM   26  N   UNL     1     -11.216   8.339  68.233  1.00  0.00    -0.146 NA 
HETATM   27  O   UNL     1     -10.868   7.511  67.142  1.00  0.00    -0.455 OA 
HETATM   28  H   UNL     1     -11.526   6.841  67.000  1.00  0.00     0.000 HD 
HETATM   29  H   UNL     1     -12.062   8.232  68.794  1.00  0.00     0.000 HD 
ENDBRANCH  12  26
TORSDOF 5
ENDMDL
MODEL      105
REMARK 921   NORMALIZED FREE ENERGY PREDICTED BY IDOCK:    4.41 KCAL/MOL
REMARK 922        TOTAL FREE ENERGY PREDICTED BY IDOCK:    5.28 KCAL/MOL
REMARK 923 INTER-LIGAND FREE ENERGY PREDICTED BY IDOCK:    0.18 KCAL/MOL
REMARK 924 INTRA-LIGAND FREE ENERGY PREDICTED BY IDOCK:    5.10 KCAL/MOL
REMARK 927      BINDING AFFINITY PREDICTED BY RF-SCORE:    0.00 PKD
ROOT
HETATM    1  C   UNL     1      -7.535  10.930  66.523  1.00  0.00    -0.142 C  
HETATM    2  C   UNL     1      -6.169  10.861  66.171  1.00  0.00    -0.130 C  
HETATM    3  C   UNL     1      -6.935   9.595  66.006  1.00  0.00    -0.093 C  
HETATM    4  C   UNL     1      -8.988   9.740  66.123  1.00  0.00    -0.152 C  
HETATM    5  C   UNL     1      -7.756  10.046  68.136  1.00  0.00    -0.085 C  
HETATM    6  C   UNL     1      -6.729  10.433  69.266  1.00  0.00    -0.067 C  
HETATM    7  C   UNL     1      -8.177   9.862  65.025  1.00  0.00    -0.143 C  
HETATM    8  C   UNL     1      -6.610   9.468  70.510  1.00  0.00    -0.094 C  
HETATM    9  C   UNL     1      -8.030   7.970  65.131  1.00  0.00    -0.127 C  
HETATM   10  C   UNL     1      -7.017   8.011  70.288  1.00  0.00    -0.044 C  
HETATM   11  C   UNL     1      -6.293   6.912  70.589  1.00  0.00    -0.046 C  
HETATM   12  C   UNL     1      -6.752   5.540  70.178  1.00  0.00    -0.047 C  
HETATM   13  C   UNL     1      -8.157   5.358  69.635  1.00  0.00    -0.099 C  
HETATM   14  C   UNL     1      -9.014   6.596  69.599  1.00  0.00    -0.142 C  
HETATM   15  C   UNL     1      -8.190   7.433  66.759  1.00  0.00    -0.121 C  
HETATM   16  C   UNL     1      -7.781   8.356  68.066  1.00  0.00    -0.103 C  
HETATM   17  C   UNL     1      -8.280   7.914  69.461  1.00  0.00    -0.130 C  
ENDROOT
BRANCH   4  18
HETATM   18  O   UNL     1     -10.031   8.843  65.565  1.00  0.00    -0.005 OA 
BRANCH  18  19
HETATM   19  C   UNL     1     -10.582   7.843  66.296  1.00  0.00     0.801 C  
HETATM   20  O   UNL     1     -11.325   7.994  67.256  1.00  0.00     0.409 OA 
HETATM   21  C   UNL     1     -10.012   6.510  65.870  1.00  0.00     0.413 C  
ENDBRANCH  18  19
ENDBRANCH   4  18
BRANCH   4  22
HETATM   22  C   UNL     1      -9.832  11.052  66.182  1.00  0.00    -0.268 C  
HETATM   23  C   UNL     1     -10.406  12.107  66.243  1.00  0.00    -0.250 C  
ENDBRANCH   4  22
BRANCH   7  24
HETATM   24  C   UNL     1      -8.246  10.356  63.602  1.00  0.00    -0.129 C  
HETATM   25  C   UNL     1      -8.424  11.840  63.373  1.00  0.00     0.991 C  
ENDBRANCH   7  24
BRANCH  12  26
HETATM   26  N   UNL     1      -5.936   4.521  70.264  1.00  0.00    -0.017 NA 
HETATM   27  O   UNL     1      -5.216   4.550  71.480  1.00  0.00    -0.003 OA 
HETATM   28  H   UNL     1      -4.623   3.810  71.542  1.00  0.00     0.000 HD 
HETATM   29  H   UNL     1      -5.832   3.801  69.548  1.00  0.00     0.000 HD 
ENDBRANCH  12  26
TORSDOF 5
ENDMDL
MODEL      106
REMARK 921   NORMALIZED FREE ENERGY PREDICTED BY IDOCK:    4.43 KCAL/MOL
REMARK 922        TOTAL FREE ENERGY PREDICTED BY IDOCK:    5.30 KCAL/MOL
REMARK 923 INTER-LIGAND FREE ENERGY PREDICTED BY IDOCK:    3.57 KCAL/MOL
REMARK 924 INTRA-LIGAND FREE ENERGY PREDICTED BY IDOCK:    1.73 KCAL/MOL
REMARK 927      BINDING AFFINITY PREDICTED BY RF-SCORE:    0.00 PKD
ROOT
HETATM    1  C   UNL     1      -8.766  13.223  67.649  1.00  0.00    -0.195 C  
HETATM    2  C   UNL     1      -9.991  13.527  68.281  1.00  0.00    -0.237 C  
HETATM    3  C   UNL     1      -9.180  12.465  68.938  1.00  0.00     0.273 C  
HETATM    4  C   UNL     1      -7.231  12.266  68.295  1.00  0.00    -0.101 C  
HETATM    5  C   UNL     1      -8.950  11.590  66.793  1.00  0.00    -0.181 C  
HETATM    6  C   UNL     1     -10.244  11.432  65.909  1.00  0.00    -0.292 C  
HETATM    7  C   UNL     1      -7.733  13.061  69.293  1.00  0.00     0.455 C  
HETATM    8  C   UNL     1     -10.660   9.973  65.472  1.00  0.00     0.161 C  
HETATM    9  C   UNL     1      -7.858  11.446  70.287  1.00  0.00     2.164 C  
HETATM   10  C   UNL     1     -10.176   8.829  66.362  1.00  0.00    -0.256 C  
HETATM   11  C   UNL     1     -10.928   7.841  66.894  1.00  0.00     0.136 C  
HETATM   12  C   UNL     1     -10.346   6.861  67.876  1.00  0.00    -0.195 C  
HETATM   13  C   UNL     1      -8.844   6.827  68.091  1.00  0.00    -0.120 C  
HETATM   14  C   UNL     1      -8.037   7.771  67.240  1.00  0.00    -0.119 C  
HETATM   15  C   UNL     1      -8.114  10.101  69.242  1.00  0.00    -0.149 C  
HETATM   16  C   UNL     1      -8.869  10.218  67.778  1.00  0.00    -0.125 C  
HETATM   17  C   UNL     1      -8.740   9.034  66.790  1.00  0.00    -0.134 C  
ENDROOT
BRANCH   4  18
HETATM   18  O   UNL     1      -6.059  11.689  68.999  1.00  0.00    -0.050 OA 
BRANCH  18  19
HETATM   19  C   UNL     1      -5.424  10.582  68.543  1.00  0.00    -0.037 C  
HETATM   20  O   UNL     1      -5.167  10.343  67.372  1.00  0.00    -0.040 OA 
HETATM   21  C   UNL     1      -5.228   9.592  69.670  1.00  0.00    -0.034 C  
ENDBRANCH  18  19
ENDBRANCH   4  18
BRANCH   4  22
HETATM   22  C   UNL     1      -6.462  13.222  67.329  1.00  0.00     0.118 C  
HETATM   23  C   UNL     1      -5.798  13.950  66.639  1.00  0.00     2.705 C  
ENDBRANCH   4  22
BRANCH   7  24
HETATM   24  C   UNL     1      -7.307  14.230  70.144  1.00  0.00     0.461 C  
HETATM   25  C   UNL     1      -6.216  15.134  69.616  1.00  0.00    -0.135 C  
ENDBRANCH   7  24
BRANCH  12  26
HETATM   26  N   UNL     1     -11.133   6.068  68.558  1.00  0.00    -0.281 NA 
HETATM   27  O   UNL     1     -10.384   5.142  69.318  1.00  0.00    -0.226 OA 
HETATM   28  H   UNL     1     -10.956   4.566  69.812  1.00  0.00     0.000 HD 
HETATM   29  H   UNL     1     -12.153   6.113  68.542  1.00  0.00     0.000 HD 
ENDBRANCH  12  26
TORSDOF 5
ENDMDL
MODEL      107
REMARK 921   NORMALIZED FREE ENERGY PREDICTED BY IDOCK:    5.27 KCAL/MOL
REMARK 922        TOTAL FREE ENERGY PREDICTED BY IDOCK:    6.39 KCAL/MOL
REMARK 923 INTER-LIGAND FREE ENERGY PREDICTED BY IDOCK:    3.41 KCAL/MOL
REMARK 924 INTRA-LIGAND FREE ENERGY PREDICTED BY IDOCK:    2.98 KCAL/MOL
REMARK 927      BINDING AFFINITY PREDICTED BY RF-SCORE:    0.00 PKD
ROOT
HETATM    1  C   UNL     1      -9.633   6.048  68.496  1.00  0.00    -0.134 C  
HETATM    2  C   UNL     1      -9.418   5.438  67.241  1.00  0.00    -0.128 C  
HETATM    3  C   UNL     1      -8.344   6.365  67.692  1.00  0.00    -0.117 C  
HETATM    4  C   UNL     1      -8.415   6.965  69.663  1.00  0.00    -0.133 C  
HETATM    5  C   UNL     1     -10.087   7.821  68.201  1.00  0.00    -0.220 C  
HETATM    6  C   UNL     1     -11.200   8.062  67.113  1.00  0.00     0.680 C  
HETATM    7  C   UNL     1      -7.795   5.871  69.117  1.00  0.00    -0.095 C  
HETATM    8  C   UNL     1     -11.361   9.525  66.540  1.00  0.00     1.425 C  
HETATM    9  C   UNL     1      -6.504   7.120  68.498  1.00  0.00    -0.040 C  
HETATM   10  C   UNL     1     -10.129  10.427  66.614  1.00  0.00    -0.279 C  
HETATM   11  C   UNL     1      -9.579  11.131  65.602  1.00  0.00    -0.259 C  
HETATM   12  C   UNL     1      -8.276  11.863  65.780  1.00  0.00     0.590 C  
HETATM   13  C   UNL     1      -7.693  12.015  67.172  1.00  0.00    -0.161 C  
HETATM   14  C   UNL     1      -8.519  11.447  68.296  1.00  0.00    -0.154 C  
HETATM   15  C   UNL     1      -7.222   8.662  68.226  1.00  0.00    -0.086 C  
HETATM   16  C   UNL     1      -8.812   8.866  67.826  1.00  0.00    -0.136 C  
HETATM   17  C   UNL     1      -9.421  10.283  67.943  1.00  0.00    -0.154 C  
ENDROOT
BRANCH   4  18
HETATM   18  O   UNL     1      -7.323   7.461  70.539  1.00  0.00    -0.073 OA 
BRANCH  18  19
HETATM   19  C   UNL     1      -6.631   6.633  71.359  1.00  0.00    -0.053 C  
HETATM   20  O   UNL     1      -7.064   6.125  72.383  1.00  0.00    -0.081 OA 
HETATM   21  C   UNL     1      -5.184   6.561  70.926  1.00  0.00    -0.018 C  
ENDBRANCH  18  19
ENDBRANCH   4  18
BRANCH   4  22
HETATM   22  C   UNL     1      -9.360   6.413  70.777  1.00  0.00    -0.165 C  
HETATM   23  C   UNL     1     -10.137   5.951  71.569  1.00  0.00    -0.238 C  
ENDBRANCH   4  22
BRANCH   7  24
HETATM   24  C   UNL     1      -7.173   4.571  69.560  1.00  0.00    -0.051 C  
HETATM   25  C   UNL     1      -6.528   3.697  68.507  1.00  0.00    -0.037 C  
ENDBRANCH   7  24
BRANCH  12  26
HETATM   26  N   UNL     1      -7.641  12.336  64.738  1.00  0.00     3.040 NA 
HETATM   27  O   UNL     1      -8.422  12.206  63.567  1.00  0.00     0.486 OA 
HETATM   28  H   UNL     1      -7.962  12.549  62.811  1.00  0.00     0.000 HD 
HETATM   29  H   UNL     1      -6.707  12.745  64.767  1.00  0.00     0.000 HD 
ENDBRANCH  12  26
TORSDOF 5
ENDMDL
MODEL      108
REMARK 921   NORMALIZED FREE ENERGY PREDICTED BY IDOCK:    6.78 KCAL/MOL
REMARK 922        TOTAL FREE ENERGY PREDICTED BY IDOCK:    8.35 KCAL/MOL
REMARK 923 INTER-LIGAND FREE ENERGY PREDICTED BY IDOCK:    3.73 KCAL/MOL
REMARK 924 INTRA-LIGAND FREE ENERGY PREDICTED BY IDOCK:    4.62 KCAL/MOL
REMARK 927      BINDING AFFINITY PREDICTED BY RF-SCORE:    0.00 PKD
ROOT
HETATM    1  C   UNL     1     -10.282   8.883  69.337  1.00  0.00    -0.210 C  
HETATM    2  C   UNL     1      -9.593   8.298  70.422  1.00  0.00    -0.174 C  
HETATM    3  C   UNL     1      -8.858   8.302  69.127  1.00  0.00    -0.143 C  
HETATM    4  C   UNL     1      -9.641   9.481  67.628  1.00  0.00    -0.136 C  
HETATM    5  C   UNL     1     -10.853   7.520  68.219  1.00  0.00    -0.052 C  
HETATM    6  C   UNL     1     -11.579   6.318  68.935  1.00  0.00     0.136 C  
HETATM    7  C   UNL     1      -8.736   9.814  68.602  1.00  0.00    -0.122 C  
HETATM    8  C   UNL     1     -11.744   4.974  68.123  1.00  0.00     4.817 C  
HETATM    9  C   UNL     1      -7.497   8.826  67.553  1.00  0.00    -0.089 C  
HETATM   10  C   UNL     1     -10.736   4.724  67.001  1.00  0.00     0.215 C  
HETATM   11  C   UNL     1      -9.991   3.615  66.813  1.00  0.00     0.203 C  
HETATM   12  C   UNL     1      -8.927   3.561  65.750  1.00  0.00    -0.140 C  
HETATM   13  C   UNL     1      -8.850   4.671  64.718  1.00  0.00    -0.152 C  
HETATM   14  C   UNL     1      -9.909   5.738  64.821  1.00  0.00     1.265 C  
HETATM   15  C   UNL     1      -8.292   7.569  66.686  1.00  0.00    -0.127 C  
HETATM   16  C   UNL     1      -9.680   6.842  67.208  1.00  0.00    -0.175 C  
HETATM   17  C   UNL     1     -10.481   5.983  66.201  1.00  0.00     0.097 C  
ENDROOT
BRANCH   4  18
HETATM   18  O   UNL     1      -8.968  10.076  66.447  1.00  0.00    -0.141 OA 
BRANCH  18  19
HETATM   19  C   UNL     1      -9.668  10.584  65.403  1.00  0.00    -0.257 C  
HETATM   20  O   UNL     1      -9.206  10.852  64.303  1.00  0.00    -0.207 OA 
HETATM   21  C   UNL     1     -11.071  10.940  65.840  1.00  0.00     0.037 C  
ENDBRANCH  18  19
ENDBRANCH   4  18
BRANCH   4  22
HETATM   22  C   UNL     1     -10.810  10.508  67.759  1.00  0.00    -0.347 C  
HETATM   23  C   UNL     1     -11.656  11.350  67.907  1.00  0.00    -0.337 C  
ENDBRANCH   4  22
BRANCH   7  24
HETATM   24  C   UNL     1      -8.119  11.045  69.216  1.00  0.00    -0.012 C  
HETATM   25  C   UNL     1      -7.245  11.914  68.340  1.00  0.00    -0.091 C  
ENDBRANCH   7  24
BRANCH  12  26
HETATM   26  N   UNL     1      -8.061   2.580  65.736  1.00  0.00    -0.083 NA 
HETATM   27  O   UNL     1      -6.928   2.915  64.961  1.00  0.00    -0.047 OA 
HETATM   28  H   UNL     1      -6.300   2.203  64.951  1.00  0.00     0.000 HD 
HETATM   29  H   UNL     1      -8.188   1.691  66.221  1.00  0.00     0.000 HD 
ENDBRANCH  12  26
TORSDOF 5
ENDMDL
MODEL      109
REMARK 921   NORMALIZED FREE ENERGY PREDICTED BY IDOCK:    8.11 KCAL/MOL
REMARK 922        TOTAL FREE ENERGY PREDICTED BY IDOCK:   10.06 KCAL/MOL
REMARK 923 INTER-LIGAND FREE ENERGY PREDICTED BY IDOCK:    1.20 KCAL/MOL
REMARK 924 INTRA-LIGAND FREE ENERGY PREDICTED BY IDOCK:    8.87 KCAL/MOL
REMARK 927      BINDING AFFINITY PREDICTED BY RF-SCORE:    0.00 PKD
ROOT
HETATM    1  C   UNL     1      -8.843   6.373  69.100  1.00  0.00    -0.126 C  
HETATM    2  C   UNL     1      -7.695   6.574  69.898  1.00  0.00    -0.109 C  
HETATM    3  C   UNL     1      -8.311   7.811  69.343  1.00  0.00    -0.133 C  
HETATM    4  C   UNL     1     -10.188   7.612  68.514  1.00  0.00    -0.199 C  
HETATM    5  C   UNL     1      -8.364   6.644  67.330  1.00  0.00    -0.120 C  
HETATM    6  C   UNL     1      -7.056   5.903  66.862  1.00  0.00    -0.070 C  
HETATM    7  C   UNL     1      -9.844   7.885  69.813  1.00  0.00    -0.179 C  
HETATM    8  C   UNL     1      -6.384   6.381  65.515  1.00  0.00    -0.038 C  
HETATM    9  C   UNL     1      -9.442   9.625  69.165  1.00  0.00    -0.172 C  
HETATM   10  C   UNL     1      -6.665   7.820  65.084  1.00  0.00    -0.051 C  
HETATM   11  C   UNL     1      -5.755   8.756  64.741  1.00  0.00    -0.062 C  
HETATM   12  C   UNL     1      -6.162  10.181  64.480  1.00  0.00    -0.133 C  
HETATM   13  C   UNL     1      -7.635  10.524  64.363  1.00  0.00     0.065 C  
HETATM   14  C   UNL     1      -8.590   9.364  64.472  1.00  0.00    -0.219 C  
HETATM   15  C   UNL     1      -8.943   9.567  67.518  1.00  0.00    -0.133 C  
HETATM   16  C   UNL     1      -8.209   8.254  66.836  1.00  0.00    -0.103 C  
HETATM   17  C   UNL     1      -8.119   8.183  65.293  1.00  0.00    -0.136 C  
ENDROOT
BRANCH   4  18
HETATM   18  O   UNL     1     -11.245   8.635  68.315  1.00  0.00     0.235 OA 
BRANCH  18  19
HETATM   19  C   UNL     1     -11.137   9.603  67.373  1.00  0.00     0.074 C  
HETATM   20  O   UNL     1     -10.434   9.544  66.374  1.00  0.00    -0.199 OA 
HETATM   21  C   UNL     1     -11.876  10.846  67.814  1.00  0.00     0.117 C  
ENDBRANCH  18  19
ENDBRANCH   4  18
BRANCH   4  22
HETATM   22  C   UNL     1     -11.107   6.351  68.569  1.00  0.00    -0.385 C  
HETATM   23  C   UNL     1     -11.837   5.404  68.693  1.00  0.00     3.828 C  
ENDBRANCH   4  22
BRANCH   7  24
HETATM   24  C   UNL     1     -10.476   7.911  71.181  1.00  0.00    -0.230 C  
HETATM   25  C   UNL     1     -11.429   9.041  71.502  1.00  0.00    -0.407 C  
ENDBRANCH   7  24
BRANCH  12  26
HETATM   26  N   UNL     1      -5.252  11.116  64.384  1.00  0.00    -0.487 NA 
HETATM   27  O   UNL     1      -5.434  11.882  63.210  1.00  0.00     0.570 OA 
HETATM   28  H   UNL     1      -4.773  12.561  63.141  1.00  0.00     0.000 HD 
HETATM   29  H   UNL     1      -4.509  11.273  65.066  1.00  0.00     0.000 HD 
ENDBRANCH  12  26
TORSDOF 5
ENDMDL
MODEL      110
REMARK 921   NORMALIZED FREE ENERGY PREDICTED BY IDOCK:    9.59 KCAL/MOL
REMARK 922        TOTAL FREE ENERGY PREDICTED BY IDOCK:   11.97 KCAL/MOL
REMARK 923 INTER-LIGAND FREE ENERGY PREDICTED BY IDOCK:   -0.93 KCAL/MOL
REMARK 924 INTRA-LIGAND FREE ENERGY PREDICTED BY IDOCK:   12.90 KCAL/MOL
REMARK 927      BINDING AFFINITY PREDICTED BY RF-SCORE:    0.00 PKD
ROOT
HETATM    1  C   UNL     1      -7.885  12.479  66.880  1.00  0.00     0.016 C  
HETATM    2  C   UNL     1      -7.620  12.237  65.515  1.00  0.00     2.477 C  
HETATM    3  C   UNL     1      -8.928  11.725  66.011  1.00  0.00    -0.108 C  
HETATM    4  C   UNL     1      -9.531  12.391  67.866  1.00  0.00    -0.198 C  
HETATM    5  C   UNL     1      -7.696  10.877  67.794  1.00  0.00    -0.107 C  
HETATM    6  C   UNL     1      -6.381  10.069  67.476  1.00  0.00    -0.059 C  
HETATM    7  C   UNL     1      -9.761  12.947  66.635  1.00  0.00    -0.254 C  
HETATM    8  C   UNL     1      -6.332   8.551  67.907  1.00  0.00    -0.057 C  
HETATM    9  C   UNL     1     -11.026  11.546  66.423  1.00  0.00    -0.336 C  
HETATM   10  C   UNL     1      -7.676   7.837  68.049  1.00  0.00    -0.126 C  
HETATM   11  C   UNL     1      -8.033   6.663  67.486  1.00  0.00    -0.115 C  
HETATM   12  C   UNL     1      -9.443   6.146  67.588  1.00  0.00    -0.111 C  
HETATM   13  C   UNL     1     -10.416   6.824  68.535  1.00  0.00    -0.234 C  
HETATM   14  C   UNL     1      -9.856   7.958  69.352  1.00  0.00    -0.180 C  
HETATM   15  C   UNL     1     -10.551  10.151  67.314  1.00  0.00    -0.321 C  
HETATM   16  C   UNL     1      -8.978   9.784  67.660  1.00  0.00    -0.133 C  
HETATM   17  C   UNL     1      -8.696   8.714  68.741  1.00  0.00    -0.135 C  
ENDROOT
BRANCH   4  18
HETATM   18  O   UNL     1     -10.898  12.478  68.439  1.00  0.00    -0.224 OA 
BRANCH  18  19
HETATM   19  C   UNL     1     -11.998  12.139  67.724  1.00  0.00    -0.128 C  
HETATM   20  O   UNL     1     -12.512  11.030  67.699  1.00  0.00     0.506 OA 
HETATM   21  C   UNL     1     -12.404  13.280  66.820  1.00  0.00    -0.239 C  
ENDBRANCH  18  19
ENDBRANCH   4  18
BRANCH   4  22
HETATM   22  C   UNL     1      -8.859  13.509  68.725  1.00  0.00     0.104 C  
HETATM   23  C   UNL     1      -8.341  14.421  69.313  1.00  0.00     0.151 C  
ENDBRANCH   4  22
BRANCH   7  24
HETATM   24  C   UNL     1     -10.237  14.249  66.039  1.00  0.00    -0.327 C  
HETATM   25  C   UNL     1      -9.259  15.400  65.975  1.00  0.00    -0.333 C  
ENDBRANCH   7  24
BRANCH  12  26
HETATM   26  N   UNL     1      -9.829   5.140  66.845  1.00  0.00    -0.163 NA 
HETATM   27  O   UNL     1     -11.222   5.190  66.611  1.00  0.00    -0.303 OA 
HETATM   28  H   UNL     1     -11.503   4.460  66.072  1.00  0.00     0.000 HD 
HETATM   29  H   UNL     1      -9.207   4.417  66.483  1.00  0.00     0.000 HD 
ENDBRANCH  12  26
TORSDOF 5
ENDMDL
MODEL      111
REMARK 921   NORMALIZED FREE ENERGY PREDICTED BY IDOCK:    9.96 KCAL/MOL
REMARK 922        TOTAL FREE ENERGY PREDICTED BY IDOCK:   12.45 KCAL/MOL
REMARK 923 INTER-LIGAND FREE ENERGY PREDICTED BY IDOCK:    9.23 KCAL/MOL
REMARK 924 INTRA-LIGAND FREE ENERGY PREDICTED BY IDOCK:    3.21 KCAL/MOL
REMARK 927      BINDING AFFINITY PREDICTED BY RF-SCORE:    0.00 PKD
ROOT
HETATM    1  C   UNL     1      -9.431  11.043  67.249  1.00  0.00    -0.179 C  
HETATM    2  C   UNL     1      -9.334  10.323  66.038  1.00  0.00    -0.224 C  
HETATM    3  C   UNL     1      -9.743   9.523  67.226  1.00  0.00    -0.215 C  
HETATM    4  C   UNL     1     -10.280  10.586  68.910  1.00  0.00    -0.208 C  
HETATM    5  C   UNL     1      -7.977  10.588  68.305  1.00  0.00    -0.113 C  
HETATM    6  C   UNL     1      -6.578  10.630  67.583  1.00  0.00    -0.061 C  
HETATM    7  C   UNL     1     -11.064  10.176  67.863  1.00  0.00    -0.303 C  
HETATM    8  C   UNL     1      -5.368   9.899  68.287  1.00  0.00    -0.036 C  
HETATM    9  C   UNL     1     -10.934   8.455  68.656  1.00  0.00     0.153 C  
HETATM   10  C   UNL     1      -5.721   8.763  69.247  1.00  0.00    -0.035 C  
HETATM   11  C   UNL     1      -5.216   7.511  69.242  1.00  0.00    -0.015 C  
HETATM   12  C   UNL     1      -5.763   6.446  70.153  1.00  0.00    -0.018 C  
HETATM   13  C   UNL     1      -6.724   6.836  71.261  1.00  0.00    -0.057 C  
HETATM   14  C   UNL     1      -7.017   8.308  71.387  1.00  0.00    -0.065 C  
HETATM   15  C   UNL     1      -9.444   8.280  69.502  1.00  0.00    -0.162 C  
HETATM   16  C   UNL     1      -8.067   9.097  69.097  1.00  0.00    -0.105 C  
HETATM   17  C   UNL     1      -6.905   9.125  70.117  1.00  0.00    -0.053 C  
ENDROOT
BRANCH   4  18
HETATM   18  O   UNL     1     -11.146  10.181  70.045  1.00  0.00    -0.264 OA 
BRANCH  18  19
HETATM   19  C   UNL     1     -11.907  11.076  70.720  1.00  0.00    -0.278 C  
HETATM   20  O   UNL     1     -13.130  11.088  70.746  1.00  0.00    -0.236 OA 
HETATM   21  C   UNL     1     -11.038  12.168  71.300  1.00  0.00     3.671 C  
ENDBRANCH  18  19
ENDBRANCH   4  18
BRANCH   4  22
HETATM   22  C   UNL     1     -10.478  12.131  69.018  1.00  0.00    -0.072 C  
HETATM   23  C   UNL     1     -10.588  13.317  69.180  1.00  0.00    -0.011 C  
ENDBRANCH   4  22
BRANCH   7  24
HETATM   24  C   UNL     1     -12.432  10.444  67.287  1.00  0.00     4.838 C  
HETATM   25  C   UNL     1     -12.543  11.433  66.149  1.00  0.00     3.317 C  
ENDBRANCH   7  24
BRANCH  12  26
HETATM   26  N   UNL     1      -5.433   5.192  69.971  1.00  0.00    -0.010 NA 
HETATM   27  O   UNL     1      -6.094   4.653  68.844  1.00  0.00    -0.027 OA 
HETATM   28  H   UNL     1      -5.854   3.744  68.712  1.00  0.00     0.000 HD 
HETATM   29  H   UNL     1      -4.785   4.673  70.564  1.00  0.00     0.000 HD 
ENDBRANCH  12  26
TORSDOF 5
ENDMDL
MODEL      112
REMARK 921   NORMALIZED FREE ENERGY PREDICTED BY IDOCK:   10.46 KCAL/MOL
REMARK 922        TOTAL FREE ENERGY PREDICTED BY IDOCK:   13.09 KCAL/MOL
REMARK 923 INTER-LIGAND FREE ENERGY PREDICTED BY IDOCK:    6.48 KCAL/MOL
REMARK 924 INTRA-LIGAND FREE ENERGY PREDICTED BY IDOCK:    6.61 KCAL/MOL
REMARK 927      BINDING AFFINITY PREDICTED BY RF-SCORE:    0.00 PKD
ROOT
HETATM    1  C   UNL     1      -9.947   9.322  68.131  1.00  0.00    -0.206 C  
HETATM    2  C   UNL     1     -11.323   9.471  67.852  1.00  0.00     0.339 C  
HETATM    3  C   UNL     1     -10.400   9.931  66.777  1.00  0.00    -0.285 C  
HETATM    4  C   UNL     1      -8.422   9.376  66.963  1.00  0.00    -0.127 C  
HETATM    5  C   UNL     1      -9.249  11.000  68.495  1.00  0.00    -0.177 C  
HETATM    6  C   UNL     1     -10.074  11.867  69.519  1.00  0.00     0.651 C  
HETATM    7  C   UNL     1      -9.451   8.709  66.349  1.00  0.00    -0.295 C  
HETATM    8  C   UNL     1      -9.767  13.415  69.584  1.00  0.00     1.353 C  
HETATM    9  C   UNL     1      -9.243  10.001  64.971  1.00  0.00    -0.277 C  
HETATM   10  C   UNL     1      -9.169  14.046  68.327  1.00  0.00    -0.200 C  
HETATM   11  C   UNL     1      -9.614  15.144  67.681  1.00  0.00    -0.206 C  
HETATM   12  C   UNL     1      -9.018  15.571  66.367  1.00  0.00    -0.324 C  
HETATM   13  C   UNL     1      -7.745  14.907  65.877  1.00  0.00     3.262 C  
HETATM   14  C   UNL     1      -7.142  13.881  66.801  1.00  0.00     1.291 C  
HETATM   15  C   UNL     1      -8.662  11.491  65.610  1.00  0.00     0.050 C  
HETATM   16  C   UNL     1      -8.948  11.990  67.158  1.00  0.00    -0.185 C  
HETATM   17  C   UNL     1      -8.104  13.159  67.719  1.00  0.00    -0.165 C  
ENDROOT
BRANCH   4  18
HETATM   18  O   UNL     1      -7.377   9.243  65.919  1.00  0.00    -0.092 OA 
BRANCH  18  19
HETATM   19  C   UNL     1      -6.296   8.442  66.084  1.00  0.00    -0.050 C  
HETATM   20  O   UNL     1      -5.258   8.511  65.440  1.00  0.00    -0.034 OA 
HETATM   21  C   UNL     1      -6.613   7.333  67.060  1.00  0.00    -0.060 C  
ENDBRANCH  18  19
ENDBRANCH   4  18
BRANCH   4  22
HETATM   22  C   UNL     1      -7.824   8.378  68.005  1.00  0.00    -0.111 C  
HETATM   23  C   UNL     1      -7.337   7.559  68.739  1.00  0.00    -0.095 C  
ENDBRANCH   4  22
BRANCH   7  24
HETATM   24  C   UNL     1      -9.761   7.336  65.809  1.00  0.00     0.504 C  
HETATM   25  C   UNL     1     -10.448   6.350  66.728  1.00  0.00    -0.304 C  
ENDBRANCH   7  24
BRANCH  12  26
HETATM   26  N   UNL     1      -9.611  16.486  65.643  1.00  0.00    -0.516 NA 
HETATM   27  O   UNL     1      -9.353  16.289  64.267  1.00  0.00     2.737 OA 
HETATM   28  H   UNL     1      -9.783  16.953  63.742  1.00  0.00     0.000 HD 
HETATM   29  H   UNL     1     -10.184  17.241  66.021  1.00  0.00     0.000 HD 
ENDBRANCH  12  26
TORSDOF 5
ENDMDL
MODEL      113
REMARK 921   NORMALIZED FREE ENERGY PREDICTED BY IDOCK:   10.57 KCAL/MOL
REMARK 922        TOTAL FREE ENERGY PREDICTED BY IDOCK:   13.23 KCAL/MOL
REMARK 923 INTER-LIGAND FREE ENERGY PREDICTED BY IDOCK:   11.87 KCAL/MOL
REMARK 924 INTRA-LIGAND FREE ENERGY PREDICTED BY IDOCK:    1.36 KCAL/MOL
REMARK 927      BINDING AFFINITY PREDICTED BY RF-SCORE:    0.00 PKD
ROOT
HETATM    1  C   UNL     1      -8.584  14.081  68.150  1.00  0.00    -0.181 C  
HETATM    2  C   UNL     1      -9.683  14.792  68.679  1.00  0.00    -0.225 C  
HETATM    3  C   UNL     1      -8.860  14.054  69.677  1.00  0.00     1.012 C  
HETATM    4  C   UNL     1      -7.041  13.340  69.020  1.00  0.00    -0.044 C  
HETATM    5  C   UNL     1      -8.999  12.275  68.182  1.00  0.00    -0.192 C  
HETATM    6  C   UNL     1     -10.414  11.896  67.603  1.00  0.00    -0.232 C  
HETATM    7  C   UNL     1      -7.340  14.558  69.572  1.00  0.00    -0.063 C  
HETATM    8  C   UNL     1     -10.985  10.464  67.943  1.00  0.00    -0.354 C  
HETATM    9  C   UNL     1      -7.431  13.606  71.213  1.00  0.00     4.472 C  
HETATM   10  C   UNL     1     -10.457   9.802  69.215  1.00  0.00    -0.236 C  
HETATM   11  C   UNL     1     -11.190   9.270  70.217  1.00  0.00    -0.267 C  
HETATM   12  C   UNL     1     -10.541   8.782  71.483  1.00  0.00    -0.309 C  
HETATM   13  C   UNL     1      -9.030   8.660  71.546  1.00  0.00    -0.302 C  
HETATM   14  C   UNL     1      -8.291   9.001  70.278  1.00  0.00    -0.167 C  
HETATM   15  C   UNL     1      -7.924  11.977  70.951  1.00  0.00     6.873 C  
HETATM   16  C   UNL     1      -8.871  11.506  69.683  1.00  0.00     1.164 C  
HETATM   17  C   UNL     1      -8.964   9.997  69.358  1.00  0.00    -0.205 C  
ENDROOT
BRANCH   4  18
HETATM   18  O   UNL     1      -5.822  13.004  69.798  1.00  0.00    -0.104 OA 
BRANCH  18  19
HETATM   19  C   UNL     1      -5.311  11.749  69.824  1.00  0.00    -0.075 C  
HETATM   20  O   UNL     1      -5.126  11.039  68.846  1.00  0.00    -0.042 OA 
HETATM   21  C   UNL     1      -5.161  11.277  71.252  1.00  0.00    -0.061 C  
ENDBRANCH  18  19
ENDBRANCH   4  18
BRANCH   4  22
HETATM   22  C   UNL     1      -6.355  13.643  67.651  1.00  0.00    -0.149 C  
HETATM   23  C   UNL     1      -5.759  13.824  66.622  1.00  0.00     2.611 C  
ENDBRANCH   4  22
BRANCH   7  24
HETATM   24  C   UNL     1      -6.719  15.923  69.730  1.00  0.00    -0.126 C  
HETATM   25  C   UNL     1      -6.837  16.896  68.578  1.00  0.00    -0.172 C  
ENDBRANCH   7  24
BRANCH  12  26
HETATM   26  N   UNL     1     -11.275   8.494  72.528  1.00  0.00    -0.330 NA 
HETATM   27  O   UNL     1     -11.916   7.245  72.368  1.00  0.00    -0.425 OA 
HETATM   28  H   UNL     1     -12.448   7.036  73.127  1.00  0.00     0.000 HD 
HETATM   29  H   UNL     1     -11.372   9.092  73.349  1.00  0.00     0.000 HD 
ENDBRANCH  12  26
TORSDOF 5
ENDMDL
MODEL      114
REMARK 921   NORMALIZED FREE ENERGY PREDICTED BY IDOCK:   10.92 KCAL/MOL
REMARK 922        TOTAL FREE ENERGY PREDICTED BY IDOCK:   13.70 KCAL/MOL
REMARK 923 INTER-LIGAND FREE ENERGY PREDICTED BY IDOCK:   13.20 KCAL/MOL
REMARK 924 INTRA-LIGAND FREE ENERGY PREDICTED BY IDOCK:    0.49 KCAL/MOL
REMARK 927      BINDING AFFINITY PREDICTED BY RF-SCORE:    0.00 PKD
ROOT
HETATM    1  C   UNL     1      -9.107  13.832  68.784  1.00  0.00     0.027 C  
HETATM    2  C   UNL     1      -7.958  13.925  69.600  1.00  0.00     0.738 C  
HETATM    3  C   UNL     1      -8.976  14.991  69.809  1.00  0.00     0.115 C  
HETATM    4  C   UNL     1     -10.822  14.682  68.943  1.00  0.00    -0.250 C  
HETATM    5  C   UNL     1      -8.997  15.152  67.487  1.00  0.00    -0.187 C  
HETATM    6  C   UNL     1      -7.617  15.246  66.734  1.00  0.00     0.103 C  
HETATM    7  C   UNL     1     -10.378  14.304  70.183  1.00  0.00     0.688 C  
HETATM    8  C   UNL     1      -7.320  16.560  65.910  1.00  0.00     0.768 C  
HETATM    9  C   UNL     1     -10.591  16.137  70.634  1.00  0.00     0.166 C  
HETATM   10  C   UNL     1      -8.061  17.823  66.347  1.00  0.00    -0.296 C  
HETATM   11  C   UNL     1      -7.517  19.028  66.620  1.00  0.00    -0.240 C  
HETATM   12  C   UNL     1      -8.347  20.148  67.185  1.00  0.00    -0.337 C  
HETATM   13  C   UNL     1      -9.857  20.007  67.226  1.00  0.00    -0.563 C  
HETATM   14  C   UNL     1     -10.415  18.740  66.632  1.00  0.00    -0.483 C  
HETATM   15  C   UNL     1     -10.349  17.141  69.256  1.00  0.00    -0.257 C  
HETATM   16  C   UNL     1      -9.382  16.722  67.984  1.00  0.00    -0.229 C  
HETATM   17  C   UNL     1      -9.509  17.528  66.670  1.00  0.00    -0.285 C  
ENDROOT
BRANCH   4  18
HETATM   18  O   UNL     1     -12.143  15.249  69.310  1.00  0.00    -0.306 OA 
BRANCH  18  19
HETATM   19  C   UNL     1     -13.114  15.461  68.388  1.00  0.00     2.474 C  
HETATM   20  O   UNL     1     -13.022  15.217  67.193  1.00  0.00     1.491 OA 
HETATM   21  C   UNL     1     -14.271  16.208  69.012  1.00  0.00     6.817 C  
ENDBRANCH  18  19
ENDBRANCH   4  18
BRANCH   4  22
HETATM   22  C   UNL     1     -11.324  13.377  68.248  1.00  0.00    -0.330 C  
HETATM   23  C   UNL     1     -11.627  12.340  67.721  1.00  0.00    -0.416 C  
ENDBRANCH   4  22
BRANCH   7  24
HETATM   24  C   UNL     1     -10.779  13.383  71.308  1.00  0.00     4.413 C  
HETATM   25  C   UNL     1     -12.165  13.539  71.894  1.00  0.00     0.265 C  
ENDBRANCH   7  24
BRANCH  12  26
HETATM   26  N   UNL     1      -7.766  21.220  67.663  1.00  0.00    -0.365 NA 
HETATM   27  O   UNL     1      -6.360  21.122  67.560  1.00  0.00    -0.318 OA 
HETATM   28  H   UNL     1      -5.939  21.900  67.907  1.00  0.00     0.000 HD 
HETATM   29  H   UNL     1      -8.263  22.019  68.057  1.00  0.00     0.000 HD 
ENDBRANCH  12  26
TORSDOF 5
ENDMDL
MODEL      115
REMARK 921   NORMALIZED FREE ENERGY PREDICTED BY IDOCK:   11.09 KCAL/MOL
REMARK 922        TOTAL FREE ENERGY PREDICTED BY IDOCK:   13.90 KCAL/MOL
REMARK 923 INTER-LIGAND FREE ENERGY PREDICTED BY IDOCK:   12.95 KCAL/MOL
REMARK 924 INTRA-LIGAND FREE ENERGY PREDICTED BY IDOCK:    0.95 KCAL/MOL
REMARK 927      BINDING AFFINITY PREDICTED BY RF-SCORE:    0.00 PKD
ROOT
HETATM    1  C   UNL     1      -7.554  15.323  68.219  1.00  0.00    -0.112 C  
HETATM    2  C   UNL     1      -6.782  14.537  67.335  1.00  0.00    -0.021 C  
HETATM    3  C   UNL     1      -7.591  15.611  66.695  1.00  0.00     0.007 C  
HETATM    4  C   UNL     1      -8.412  17.021  67.956  1.00  0.00    -0.216 C  
HETATM    5  C   UNL     1      -9.329  14.826  68.028  1.00  0.00    -0.196 C  
HETATM    6  C   UNL     1      -9.604  13.275  68.058  1.00  0.00    -0.220 C  
HETATM    7  C   UNL     1      -7.186  17.023  67.342  1.00  0.00    -0.181 C  
HETATM    8  C   UNL     1     -11.001  12.768  67.526  1.00  0.00    -0.280 C  
HETATM    9  C   UNL     1      -8.159  17.463  65.771  1.00  0.00     0.177 C  
HETATM   10  C   UNL     1     -11.720  13.670  66.523  1.00  0.00    -0.414 C  
HETATM   11  C   UNL     1     -12.220  13.311  65.322  1.00  0.00    -0.492 C  
HETATM   12  C   UNL     1     -12.772  14.336  64.369  1.00  0.00     0.011 C  
HETATM   13  C   UNL     1     -12.995  15.757  64.852  1.00  0.00     1.539 C  
HETATM   14  C   UNL     1     -12.680  16.014  66.303  1.00  0.00     3.142 C  
HETATM   15  C   UNL     1      -9.748  16.799  65.827  1.00  0.00    -0.161 C  
HETATM   16  C   UNL     1     -10.132  15.431  66.668  1.00  0.00    -0.273 C  
HETATM   17  C   UNL     1     -11.626  15.125  66.928  1.00  0.00    -0.160 C  
ENDROOT
BRANCH   4  18
HETATM   18  O   UNL     1      -8.840  18.412  67.665  1.00  0.00    -0.259 OA 
BRANCH  18  19
HETATM   19  C   UNL     1      -9.796  19.035  68.396  1.00  0.00    -0.392 C  
HETATM   20  O   UNL     1     -10.428  18.531  69.314  1.00  0.00    -0.038 OA 
HETATM   21  C   UNL     1     -10.101  20.393  67.806  1.00  0.00    -0.444 C  
ENDBRANCH  18  19
ENDBRANCH   4  18
BRANCH   4  22
HETATM   22  C   UNL     1      -8.129  17.190  69.482  1.00  0.00     0.520 C  
HETATM   23  C   UNL     1      -7.933  17.406  70.649  1.00  0.00     4.511 C  
ENDBRANCH   4  22
BRANCH   7  24
HETATM   24  C   UNL     1      -5.868  17.751  67.426  1.00  0.00    -0.163 C  
HETATM   25  C   UNL     1      -5.453  18.606  66.250  1.00  0.00    -0.177 C  
ENDBRANCH   7  24
BRANCH  12  26
HETATM   26  N   UNL     1     -13.030  14.008  63.129  1.00  0.00     0.017 NA 
HETATM   27  O   UNL     1     -14.368  14.313  62.792  1.00  0.00     7.225 OA 
HETATM   28  H   UNL     1     -14.555  14.075  61.891  1.00  0.00     0.000 HD 
HETATM   29  H   UNL     1     -12.355  13.587  62.490  1.00  0.00     0.000 HD 
ENDBRANCH  12  26
TORSDOF 5
ENDMDL
MODEL      116
REMARK 921   NORMALIZED FREE ENERGY PREDICTED BY IDOCK:   15.32 KCAL/MOL
REMARK 922        TOTAL FREE ENERGY PREDICTED BY IDOCK:   19.38 KCAL/MOL
REMARK 923 INTER-LIGAND FREE ENERGY PREDICTED BY IDOCK:   19.28 KCAL/MOL
REMARK 924 INTRA-LIGAND FREE ENERGY PREDICTED BY IDOCK:    0.10 KCAL/MOL
REMARK 927      BINDING AFFINITY PREDICTED BY RF-SCORE:    0.00 PKD
ROOT
HETATM    1  C   UNL     1     -10.126  17.938  69.113  1.00  0.00    -0.220 C  
HETATM    2  C   UNL     1      -8.943  18.709  69.152  1.00  0.00    -0.001 C  
HETATM    3  C   UNL     1      -9.147  17.916  67.908  1.00  0.00    -0.260 C  
HETATM    4  C   UNL     1     -11.021  17.100  67.634  1.00  0.00    -0.148 C  
HETATM    5  C   UNL     1      -9.661  16.160  69.346  1.00  0.00    -0.208 C  
HETATM    6  C   UNL     1      -8.684  15.869  70.547  1.00  0.00     1.938 C  
HETATM    7  C   UNL     1     -10.553  18.331  67.252  1.00  0.00    -0.406 C  
HETATM    8  C   UNL     1      -7.950  14.470  70.573  1.00  0.00     1.595 C  
HETATM    9  C   UNL     1      -9.637  17.374  65.891  1.00  0.00    -0.052 C  
HETATM   10  C   UNL     1      -7.768  13.769  69.227  1.00  0.00     0.254 C  
HETATM   11  C   UNL     1      -6.618  13.274  68.721  1.00  0.00    -0.099 C  
HETATM   12  C   UNL     1      -6.552  12.740  67.316  1.00  0.00    -0.075 C  
HETATM   13  C   UNL     1      -7.838  12.529  66.539  1.00  0.00     0.402 C  
HETATM   14  C   UNL     1      -9.112  12.834  67.282  1.00  0.00    -0.200 C  
HETATM   15  C   UNL     1      -9.253  15.779  66.413  1.00  0.00    -0.347 C  
HETATM   16  C   UNL     1      -9.013  15.374  67.996  1.00  0.00    -0.171 C  
HETATM   17  C   UNL     1      -9.015  13.875  68.378  1.00  0.00    -0.178 C  
ENDROOT
BRANCH   4  18
HETATM   18  O   UNL     1     -11.697  16.688  66.379  1.00  0.00     0.969 OA 
BRANCH  18  19
HETATM   19  C   UNL     1     -12.466  15.575  66.311  1.00  0.00     1.397 C  
HETATM   20  O   UNL     1     -12.290  14.551  66.956  1.00  0.00    -0.299 OA 
HETATM   21  C   UNL     1     -13.477  15.707  65.194  1.00  0.00     2.482 C  
ENDBRANCH  18  19
ENDBRANCH   4  18
BRANCH   4  22
HETATM   22  C   UNL     1     -12.296  17.373  68.494  1.00  0.00     3.413 C  
HETATM   23  C   UNL     1     -13.326  17.566  69.083  1.00  0.00    10.286 C  
ENDBRANCH   4  22
BRANCH   7  24
HETATM   24  C   UNL     1     -11.085  19.656  66.768  1.00  0.00    -0.202 C  
HETATM   25  C   UNL     1     -10.797  20.057  65.338  1.00  0.00    -0.084 C  
ENDBRANCH   7  24
BRANCH  12  26
HETATM   26  N   UNL     1      -5.393  12.489  66.763  1.00  0.00    -0.400 NA 
HETATM   27  O   UNL     1      -5.325  11.149  66.316  1.00  0.00    -0.110 OA 
HETATM   28  H   UNL     1      -4.483  10.967  65.914  1.00  0.00     0.000 HD 
HETATM   29  H   UNL     1      -4.638  13.169  66.668  1.00  0.00     0.000 HD 
ENDBRANCH  12  26
TORSDOF 5
ENDMDL
MODEL      117
REMARK 921   NORMALIZED FREE ENERGY PREDICTED BY IDOCK:   16.99 KCAL/MOL
REMARK 922        TOTAL FREE ENERGY PREDICTED BY IDOCK:   21.54 KCAL/MOL
REMARK 923 INTER-LIGAND FREE ENERGY PREDICTED BY IDOCK:   18.29 KCAL/MOL
REMARK 924 INTRA-LIGAND FREE ENERGY PREDICTED BY IDOCK:    3.25 KCAL/MOL
REMARK 927      BINDING AFFINITY PREDICTED BY RF-SCORE:    0.00 PKD
ROOT
HETATM    1  C   UNL     1     -12.530  16.294  69.194  1.00  0.00     0.911 C  
HETATM    2  C   UNL     1     -13.658  15.755  68.538  1.00  0.00     4.836 C  
HETATM    3  C   UNL     1     -12.730  14.756  69.135  1.00  0.00     0.325 C  
HETATM    4  C   UNL     1     -11.300  15.487  70.429  1.00  0.00    -0.342 C  
HETATM    5  C   UNL     1     -11.048  16.004  68.119  1.00  0.00    -0.344 C  
HETATM    6  C   UNL     1     -11.224  16.399  66.604  1.00  0.00     0.305 C  
HETATM    7  C   UNL     1     -12.574  15.063  70.703  1.00  0.00    -0.429 C  
HETATM    8  C   UNL     1     -10.170  15.835  65.572  1.00  0.00    -0.407 C  
HETATM    9  C   UNL     1     -11.864  13.316  70.470  1.00  0.00    -0.215 C  
HETATM   10  C   UNL     1      -9.449  14.546  65.967  1.00  0.00    -0.262 C  
HETATM   11  C   UNL     1      -9.331  13.424  65.226  1.00  0.00     0.513 C  
HETATM   12  C   UNL     1      -8.721  12.173  65.797  1.00  0.00     0.379 C  
HETATM   13  C   UNL     1      -8.010  12.237  67.136  1.00  0.00    -0.161 C  
HETATM   14  C   UNL     1      -7.931  13.599  67.773  1.00  0.00    -0.172 C  
HETATM   15  C   UNL     1     -10.553  13.331  69.353  1.00  0.00     0.190 C  
HETATM   16  C   UNL     1     -10.407  14.439  68.137  1.00  0.00    -0.231 C  
HETATM   17  C   UNL     1      -9.041  14.568  67.423  1.00  0.00    -0.201 C  
ENDROOT
BRANCH   4  18
HETATM   18  O   UNL     1     -10.565  14.791  71.514  1.00  0.00     0.507 OA 
BRANCH  18  19
HETATM   19  C   UNL     1     -10.565  15.250  72.789  1.00  0.00     2.233 C  
HETATM   20  O   UNL     1     -11.222  16.196  73.202  1.00  0.00     0.419 OA 
HETATM   21  C   UNL     1      -9.506  14.539  73.600  1.00  0.00     8.866 C  
ENDBRANCH  18  19
ENDBRANCH   4  18
BRANCH   4  22
HETATM   22  C   UNL     1     -11.200  16.941  70.990  1.00  0.00     0.553 C  
HETATM   23  C   UNL     1     -11.046  18.069  71.378  1.00  0.00     2.913 C  
ENDBRANCH   4  22
BRANCH   7  24
HETATM   24  C   UNL     1     -13.585  15.130  71.820  1.00  0.00    -0.553 C  
HETATM   25  C   UNL     1     -13.909  13.853  72.563  1.00  0.00    -0.620 C  
ENDBRANCH   7  24
BRANCH  12  26
HETATM   26  N   UNL     1      -8.830  11.037  65.156  1.00  0.00    -0.330 NA 
HETATM   27  O   UNL     1      -8.967  11.252  63.766  1.00  0.00    -0.395 OA 
HETATM   28  H   UNL     1      -9.046  10.428  63.300  1.00  0.00     0.000 HD 
HETATM   29  H   UNL     1      -8.818  10.119  65.600  1.00  0.00     0.000 HD 
ENDBRANCH  12  26
TORSDOF 5
ENDMDL
MODEL      118
REMARK 921   NORMALIZED FREE ENERGY PREDICTED BY IDOCK:   18.06 KCAL/MOL
REMARK 922        TOTAL FREE ENERGY PREDICTED BY IDOCK:   22.92 KCAL/MOL
REMARK 923 INTER-LIGAND FREE ENERGY PREDICTED BY IDOCK:   19.98 KCAL/MOL
REMARK 924 INTRA-LIGAND FREE ENERGY PREDICTED BY IDOCK:    2.94 KCAL/MOL
REMARK 927      BINDING AFFINITY PREDICTED BY RF-SCORE:    0.00 PKD
ROOT
HETATM    1  C   UNL     1      -8.679  14.132  65.939  1.00  0.00     0.915 C  
HETATM    2  C   UNL     1      -7.487  14.185  66.694  1.00  0.00     1.212 C  
HETATM    3  C   UNL     1      -8.697  13.745  67.442  1.00  0.00    -0.210 C  
HETATM    4  C   UNL     1     -10.356  13.272  66.312  1.00  0.00    -0.290 C  
HETATM    5  C   UNL     1      -9.739  15.568  66.439  1.00  0.00    -0.306 C  
HETATM    6  C   UNL     1      -9.008  16.963  66.485  1.00  0.00    -0.303 C  
HETATM    7  C   UNL     1      -9.324  12.462  66.708  1.00  0.00    -0.220 C  
HETATM    8  C   UNL     1      -9.725  18.140  67.257  1.00  0.00    -0.297 C  
HETATM    9  C   UNL     1     -10.161  12.512  68.413  1.00  0.00    -0.216 C  
HETATM   10  C   UNL     1     -10.715  17.738  68.349  1.00  0.00    -0.205 C  
HETATM   11  C   UNL     1     -10.739  18.180  69.624  1.00  0.00     1.048 C  
HETATM   12  C   UNL     1     -11.681  17.588  70.637  1.00  0.00     3.381 C  
HETATM   13  C   UNL     1     -12.783  16.655  70.172  1.00  0.00     2.906 C  
HETATM   14  C   UNL     1     -12.873  16.435  68.684  1.00  0.00     2.538 C  
HETATM   15  C   UNL     1     -11.003  13.997  68.640  1.00  0.00    -0.281 C  
HETATM   16  C   UNL     1     -10.569  15.410  67.903  1.00  0.00    -0.267 C  
HETATM   17  C   UNL     1     -11.582  16.579  67.907  1.00  0.00     0.221 C  
ENDROOT
BRANCH   4  18
HETATM   18  O   UNL     1     -11.506  12.395  66.644  1.00  0.00    -0.327 OA 
BRANCH  18  19
HETATM   19  C   UNL     1     -12.403  12.004  65.707  1.00  0.00     0.543 C  
HETATM   20  O   UNL     1     -13.580  12.334  65.671  1.00  0.00     1.987 OA 
HETATM   21  C   UNL     1     -11.791  10.957  64.804  1.00  0.00     1.401 C  
ENDBRANCH  18  19
ENDBRANCH   4  18
BRANCH   4  22
HETATM   22  C   UNL     1     -10.426  13.151  64.757  1.00  0.00    -0.390 C  
HETATM   23  C   UNL     1     -10.445  13.140  63.554  1.00  0.00     0.502 C  
ENDBRANCH   4  22
BRANCH   7  24
HETATM   24  C   UNL     1      -8.749  11.105  66.388  1.00  0.00    -0.177 C  
HETATM   25  C   UNL     1      -9.686   9.918  66.387  1.00  0.00    -0.270 C  
ENDBRANCH   7  24
BRANCH  12  26
HETATM   26  N   UNL     1     -11.529  17.854  71.910  1.00  0.00     1.827 NA 
HETATM   27  O   UNL     1     -10.160  17.965  72.244  1.00  0.00     5.254 OA 
HETATM   28  H   UNL     1     -10.050  18.159  73.168  1.00  0.00     0.000 HD 
HETATM   29  H   UNL     1     -12.297  17.967  72.572  1.00  0.00     0.000 HD 
ENDBRANCH  12  26
TORSDOF 5
ENDMDL
MODEL      119
REMARK 921   NORMALIZED FREE ENERGY PREDICTED BY IDOCK:   18.68 KCAL/MOL
REMARK 922        TOTAL FREE ENERGY PREDICTED BY IDOCK:   23.72 KCAL/MOL
REMARK 923 INTER-LIGAND FREE ENERGY PREDICTED BY IDOCK:   14.07 KCAL/MOL
REMARK 924 INTRA-LIGAND FREE ENERGY PREDICTED BY IDOCK:    9.65 KCAL/MOL
REMARK 927      BINDING AFFINITY PREDICTED BY RF-SCORE:    0.00 PKD
ROOT
HETATM    1  C   UNL     1     -11.961  13.300  67.215  1.00  0.00    -0.393 C  
HETATM    2  C   UNL     1     -13.344  13.576  67.127  1.00  0.00     3.890 C  
HETATM    3  C   UNL     1     -12.476  14.751  67.415  1.00  0.00     0.443 C  
HETATM    4  C   UNL     1     -10.447  14.480  67.161  1.00  0.00    -0.267 C  
HETATM    5  C   UNL     1     -11.474  13.374  69.002  1.00  0.00    -0.348 C  
HETATM    6  C   UNL     1     -12.405  12.574  69.989  1.00  0.00    -0.154 C  
HETATM    7  C   UNL     1     -11.383  14.889  66.247  1.00  0.00    -0.306 C  
HETATM    8  C   UNL     1     -12.288  12.898  71.531  1.00  0.00     0.017 C  
HETATM    9  C   UNL     1     -11.324  16.545  67.175  1.00  0.00     0.338 C  
HETATM   10  C   UNL     1     -11.761  14.284  71.900  1.00  0.00     0.322 C  
HETATM   11  C   UNL     1     -12.332  15.169  72.745  1.00  0.00    -0.485 C  
HETATM   12  C   UNL     1     -11.783  16.561  72.903  1.00  0.00    -0.177 C  
HETATM   13  C   UNL     1     -10.435  16.902  72.296  1.00  0.00     4.223 C  
HETATM   14  C   UNL     1      -9.719  15.770  71.608  1.00  0.00     3.509 C  
HETATM   15  C   UNL     1     -10.931  16.305  68.835  1.00  0.00    -0.334 C  
HETATM   16  C   UNL     1     -11.286  14.919  69.661  1.00  0.00    -0.300 C  
HETATM   17  C   UNL     1     -10.593  14.681  71.024  1.00  0.00     0.784 C  
ENDROOT
BRANCH   4  18
HETATM   18  O   UNL     1      -9.386  15.485  66.900  1.00  0.00    -0.214 OA 
BRANCH  18  19
HETATM   19  C   UNL     1      -9.623  16.606  66.177  1.00  0.00    -0.294 C  
HETATM   20  O   UNL     1     -10.395  17.501  66.490  1.00  0.00    -0.335 OA 
HETATM   21  C   UNL     1      -8.929  16.519  64.837  1.00  0.00     3.157 C  
ENDBRANCH  18  19
ENDBRANCH   4  18
BRANCH   4  22
HETATM   22  C   UNL     1      -9.740  13.240  66.528  1.00  0.00    -0.273 C  
HETATM   23  C   UNL     1      -9.239  12.234  66.100  1.00  0.00    -0.132 C  
ENDBRANCH   4  22
BRANCH   7  24
HETATM   24  C   UNL     1     -11.521  15.068  64.756  1.00  0.00    -0.403 C  
HETATM   25  C   UNL     1     -12.440  14.127  64.009  1.00  0.00    -0.206 C  
ENDBRANCH   7  24
BRANCH  12  26
HETATM   26  N   UNL     1     -12.477  17.473  73.535  1.00  0.00     1.019 NA 
HETATM   27  O   UNL     1     -11.674  18.591  73.853  1.00  0.00     0.992 OA 
HETATM   28  H   UNL     1     -12.177  19.253  74.312  1.00  0.00     0.000 HD 
HETATM   29  H   UNL     1     -13.467  17.388  73.768  1.00  0.00     0.000 HD 
ENDBRANCH  12  26
TORSDOF 5
ENDMDL
MODEL      120
REMARK 921   NORMALIZED FREE ENERGY PREDICTED BY IDOCK:   25.00 KCAL/MOL
REMARK 922        TOTAL FREE ENERGY PREDICTED BY IDOCK:   31.88 KCAL/MOL
REMARK 923 INTER-LIGAND FREE ENERGY PREDICTED BY IDOCK:   19.00 KCAL/MOL
REMARK 924 INTRA-LIGAND FREE ENERGY PREDICTED BY IDOCK:   12.88 KCAL/MOL
REMARK 927      BINDING AFFINITY PREDICTED BY RF-SCORE:    0.00 PKD
ROOT
HETATM    1  C   UNL     1     -11.491  14.290  65.605  1.00  0.00    -0.329 C  
HETATM    2  C   UNL     1     -12.876  14.075  65.435  1.00  0.00    -0.442 C  
HETATM    3  C   UNL     1     -12.507  15.040  66.508  1.00  0.00     0.592 C  
HETATM    4  C   UNL     1     -10.548  15.683  66.531  1.00  0.00    -0.307 C  
HETATM    5  C   UNL     1     -10.962  13.424  67.156  1.00  0.00    -0.292 C  
HETATM    6  C   UNL     1     -11.456  11.935  67.300  1.00  0.00    -0.385 C  
HETATM    7  C   UNL     1     -11.622  16.216  65.867  1.00  0.00     0.696 C  
HETATM    8  C   UNL     1     -11.379  11.273  68.732  1.00  0.00    -0.335 C  
HETATM    9  C   UNL     1     -12.143  16.865  67.575  1.00  0.00     1.846 C  
HETATM   10  C   UNL     1     -11.400  12.225  69.927  1.00  0.00    -0.084 C  
HETATM   11  C   UNL     1     -12.213  12.157  71.003  1.00  0.00    -0.227 C  
HETATM   12  C   UNL     1     -12.228  13.248  72.039  1.00  0.00     0.664 C  
HETATM   13  C   UNL     1     -11.152  14.317  72.008  1.00  0.00     1.878 C  
HETATM   14  C   UNL     1     -10.101  14.161  70.941  1.00  0.00     2.881 C  
HETATM   15  C   UNL     1     -11.590  15.818  68.825  1.00  0.00    -0.401 C  
HETATM   16  C   UNL     1     -11.338  14.200  68.610  1.00  0.00    -0.306 C  
HETATM   17  C   UNL     1     -10.527  13.435  69.683  1.00  0.00     0.565 C  
ENDROOT
BRANCH   4  18
HETATM   18  O   UNL     1      -9.968  16.923  67.107  1.00  0.00    -0.261 OA 
BRANCH  18  19
HETATM   19  C   UNL     1     -10.742  17.880  67.673  1.00  0.00    -0.331 C  
HETATM   20  O   UNL     1     -11.071  17.921  68.850  1.00  0.00     0.384 OA 
HETATM   21  C   UNL     1     -11.292  18.803  66.610  1.00  0.00     0.736 C  
ENDBRANCH  18  19
ENDBRANCH   4  18
BRANCH   4  22
HETATM   22  C   UNL     1      -9.460  15.413  65.444  1.00  0.00    -0.033 C  
HETATM   23  C   UNL     1      -8.641  15.118  64.614  1.00  0.00     6.315 C  
ENDBRANCH   4  22
BRANCH   7  24
HETATM   24  C   UNL     1     -11.908  17.203  64.763  1.00  0.00     2.009 C  
HETATM   25  C   UNL     1     -11.376  16.897  63.381  1.00  0.00     5.171 C  
ENDBRANCH   7  24
BRANCH  12  26
HETATM   26  N   UNL     1     -13.179  13.287  72.938  1.00  0.00    -0.414 NA 
HETATM   27  O   UNL     1     -14.117  14.301  72.639  1.00  0.00    -0.585 OA 
HETATM   28  H   UNL     1     -14.807  14.329  73.292  1.00  0.00     0.000 HD 
HETATM   29  H   UNL     1     -13.235  12.668  73.747  1.00  0.00     0.000 HD 
ENDBRANCH  12  26
TORSDOF 5
ENDMDL
MODEL      121
REMARK 921   NORMALIZED FREE ENERGY PREDICTED BY IDOCK:   30.72 KCAL/MOL
REMARK 922        TOTAL FREE ENERGY PREDICTED BY IDOCK:   39.27 KCAL/MOL
REMARK 923 INTER-LIGAND FREE ENERGY PREDICTED BY IDOCK:   30.26 KCAL/MOL
REMARK 924 INTRA-LIGAND FREE ENERGY PREDICTED BY IDOCK:    9.02 KCAL/MOL
REMARK 927      BINDING AFFINITY PREDICTED BY RF-SCORE:    0.00 PKD
ROOT
HETATM    1  C   UNL     1     -10.478   9.472  65.267  1.00  0.00     0.928 C  
HETATM    2  C   UNL     1     -11.246   8.363  64.850  1.00  0.00     9.604 C  
HETATM    3  C   UNL     1     -11.943   9.318  65.756  1.00  0.00     7.983 C  
HETATM    4  C   UNL     1     -11.016  11.133  66.069  1.00  0.00    -0.123 C  
HETATM    5  C   UNL     1     -10.005   9.208  67.039  1.00  0.00    -0.294 C  
HETATM    6  C   UNL     1      -9.412   7.788  67.376  1.00  0.00    -0.177 C  
HETATM    7  C   UNL     1     -11.912  10.780  65.094  1.00  0.00     2.289 C  
HETATM    8  C   UNL     1      -9.349   7.361  68.895  1.00  0.00    -0.145 C  
HETATM    9  C   UNL     1     -13.208  10.893  66.479  1.00  0.00    10.212 C  
HETATM   10  C   UNL     1     -10.345   8.038  69.837  1.00  0.00    -0.221 C  
HETATM   11  C   UNL     1     -11.184   7.429  70.702  1.00  0.00    -0.292 C  
HETATM   12  C   UNL     1     -12.220   8.211  71.464  1.00  0.00    -0.301 C  
HETATM   13  C   UNL     1     -12.167   9.727  71.448  1.00  0.00    -0.486 C  
HETATM   14  C   UNL     1     -11.019  10.337  70.688  1.00  0.00    -0.287 C  
HETATM   15  C   UNL     1     -12.509  10.514  68.006  1.00  0.00     2.536 C  
HETATM   16  C   UNL     1     -11.208   9.513  68.187  1.00  0.00     0.067 C  
HETATM   17  C   UNL     1     -10.463   9.517  69.543  1.00  0.00    -0.234 C  
ENDROOT
BRANCH   4  18
HETATM   18  O   UNL     1     -11.599  12.431  66.489  1.00  0.00    -0.355 OA 
BRANCH  18  19
HETATM   19  C   UNL     1     -11.489  13.546  65.728  1.00  0.00    -0.315 C  
HETATM   20  O   UNL     1     -10.731  14.481  65.947  1.00  0.00    -0.288 OA 
HETATM   21  C   UNL     1     -12.559  13.558  64.661  1.00  0.00    -0.303 C  
ENDBRANCH  18  19
ENDBRANCH   4  18
BRANCH   4  22
HETATM   22  C   UNL     1      -9.761  11.684  65.321  1.00  0.00    -0.255 C  
HETATM   23  C   UNL     1      -8.850  12.158  64.694  1.00  0.00     1.045 C  
ENDBRANCH   4  22
BRANCH   7  24
HETATM   24  C   UNL     1     -12.430  11.299  63.776  1.00  0.00     0.596 C  
HETATM   25  C   UNL     1     -12.132  12.736  63.413  1.00  0.00    -0.619 C  
ENDBRANCH   7  24
BRANCH  12  26
HETATM   26  N   UNL     1     -13.171   7.585  72.109  1.00  0.00    -0.514 NA 
HETATM   27  O   UNL     1     -13.326   6.265  71.629  1.00  0.00     0.205 OA 
HETATM   28  H   UNL     1     -14.016   5.811  72.097  1.00  0.00     0.000 HD 
HETATM   29  H   UNL     1     -13.728   7.996  72.859  1.00  0.00     0.000 HD 
ENDBRANCH  12  26
TORSDOF 5
ENDMDL
MODEL      122
REMARK 921   NORMALIZED FREE ENERGY PREDICTED BY IDOCK:   50.90 KCAL/MOL
REMARK 922        TOTAL FREE ENERGY PREDICTED BY IDOCK:   65.36 KCAL/MOL
REMARK 923 INTER-LIGAND FREE ENERGY PREDICTED BY IDOCK:   63.24 KCAL/MOL
REMARK 924 INTRA-LIGAND FREE ENERGY PREDICTED BY IDOCK:    2.12 KCAL/MOL
REMARK 927      BINDING AFFINITY PREDICTED BY RF-SCORE:    0.00 PKD
ROOT
HETATM    1  C   UNL     1      -8.782   8.938  70.524  1.00  0.00    -0.213 C  
HETATM    2  C   UNL     1      -9.567   8.684  71.670  1.00  0.00    -0.344 C  
HETATM    3  C   UNL     1      -8.963   7.482  71.031  1.00  0.00    -0.147 C  
HETATM    4  C   UNL     1      -7.504   7.829  69.615  1.00  0.00    -0.090 C  
HETATM    5  C   UNL     1      -9.743   8.394  69.036  1.00  0.00    -0.171 C  
HETATM    6  C   UNL     1     -11.236   8.892  68.977  1.00  0.00     0.267 C  
HETATM    7  C   UNL     1      -7.370   7.671  70.970  1.00  0.00    -0.070 C  
HETATM    8  C   UNL     1     -12.210   8.170  67.966  1.00  0.00     4.845 C  
HETATM    9  C   UNL     1      -7.662   5.828  70.616  1.00  0.00    -0.093 C  
HETATM   10  C   UNL     1     -11.845   6.739  67.569  1.00  0.00     1.485 C  
HETATM   11  C   UNL     1     -12.649   5.656  67.613  1.00  0.00     9.128 C  
HETATM   12  C   UNL     1     -12.116   4.277  67.333  1.00  0.00    11.502 C  
HETATM   13  C   UNL     1     -10.720   4.123  66.760  1.00  0.00     1.178 C  
HETATM   14  C   UNL     1      -9.985   5.404  66.464  1.00  0.00    -0.222 C  
HETATM   15  C   UNL     1      -8.658   5.619  69.228  1.00  0.00    -0.106 C  
HETATM   16  C   UNL     1      -9.777   6.730  68.737  1.00  0.00    -0.132 C  
HETATM   17  C   UNL     1     -10.361   6.602  67.310  1.00  0.00    -0.296 C  
ENDROOT
BRANCH   4  18
HETATM   18  O   UNL     1      -6.411   6.940  69.150  1.00  0.00    -0.026 OA 
BRANCH  18  19
HETATM   19  C   UNL     1      -6.438   6.348  67.931  1.00  0.00    -0.049 C  
HETATM   20  O   UNL     1      -6.937   6.825  66.922  1.00  0.00    -0.066 OA 
HETATM   21  C   UNL     1      -5.918   4.931  68.028  1.00  0.00    -0.026 C  
ENDBRANCH  18  19
ENDBRANCH   4  18
BRANCH   4  22
HETATM   22  C   UNL     1      -6.838   9.199  69.273  1.00  0.00    -0.049 C  
HETATM   23  C   UNL     1      -6.337  10.235  68.923  1.00  0.00    -0.047 C  
ENDBRANCH   4  22
BRANCH   7  24
HETATM   24  C   UNL     1      -6.342   7.895  72.051  1.00  0.00    -0.043 C  
HETATM   25  C   UNL     1      -5.642   6.685  72.627  1.00  0.00    -0.038 C  
ENDBRANCH   7  24
BRANCH  12  26
HETATM   26  N   UNL     1     -12.841   3.223  67.611  1.00  0.00    22.685 NA 
HETATM   27  O   UNL     1     -12.212   2.042  67.157  1.00  0.00    14.380 OA 
HETATM   28  H   UNL     1     -12.738   1.277  67.358  1.00  0.00     0.000 HD 
HETATM   29  H   UNL     1     -13.741   3.251  68.090  1.00  0.00     0.000 HD 
ENDBRANCH  12  26
TORSDOF 5
ENDMDL
MODEL      123
REMARK 921   NORMALIZED FREE ENERGY PREDICTED BY IDOCK:   70.08 KCAL/MOL
REMARK 922        TOTAL FREE ENERGY PREDICTED BY IDOCK:   90.14 KCAL/MOL
REMARK 923 INTER-LIGAND FREE ENERGY PREDICTED BY IDOCK:   78.51 KCAL/MOL
REMARK 924 INTRA-LIGAND FREE ENERGY PREDICTED BY IDOCK:   11.63 KCAL/MOL
REMARK 927      BINDING AFFINITY PREDICTED BY RF-SCORE:    0.00 PKD
ROOT
HETATM    1  C   UNL     1      -6.299  15.478  69.857  1.00  0.00    -0.151 C  
HETATM    2  C   UNL     1      -5.346  16.288  70.514  1.00  0.00    -0.176 C  
HETATM    3  C   UNL     1      -6.525  15.896  71.335  1.00  0.00     1.884 C  
HETATM    4  C   UNL     1      -7.728  14.409  70.565  1.00  0.00     1.463 C  
HETATM    5  C   UNL     1      -7.779  16.526  69.479  1.00  0.00     0.119 C  
HETATM    6  C   UNL     1      -7.469  17.917  68.806  1.00  0.00    -0.271 C  
HETATM    7  C   UNL     1      -6.625  14.294  71.370  1.00  0.00     0.823 C  
HETATM    8  C   UNL     1      -8.614  19.004  68.808  1.00  0.00    -0.356 C  
HETATM    9  C   UNL     1      -7.779  14.890  72.756  1.00  0.00     6.429 C  
HETATM   10  C   UNL     1      -9.668  18.884  69.909  1.00  0.00     0.689 C  
HETATM   11  C   UNL     1     -10.071  19.857  70.754  1.00  0.00     1.484 C  
HETATM   12  C   UNL     1     -11.012  19.562  71.890  1.00  0.00     5.388 C  
HETATM   13  C   UNL     1     -11.708  18.215  71.949  1.00  0.00     4.877 C  
HETATM   14  C   UNL     1     -11.426  17.279  70.802  1.00  0.00     1.667 C  
HETATM   15  C   UNL     1      -9.012  15.917  72.129  1.00  0.00     8.387 C  
HETATM   16  C   UNL     1      -8.823  16.839  70.772  1.00  0.00     4.495 C  
HETATM   17  C   UNL     1     -10.087  17.445  70.116  1.00  0.00     0.961 C  
ENDROOT
BRANCH   4  18
HETATM   18  O   UNL     1      -8.649  13.482  71.269  1.00  0.00     6.926 OA 
BRANCH  18  19
HETATM   19  C   UNL     1      -9.540  13.919  72.192  1.00  0.00     9.793 C  
HETATM   20  O   UNL     1      -9.273  14.623  73.156  1.00  0.00     5.916 OA 
HETATM   21  C   UNL     1     -10.886  13.270  71.965  1.00  0.00     6.620 C  
ENDBRANCH  18  19
ENDBRANCH   4  18
BRANCH   4  22
HETATM   22  C   UNL     1      -7.440  13.527  69.310  1.00  0.00     0.221 C  
HETATM   23  C   UNL     1      -7.135  12.835  68.375  1.00  0.00    -0.102 C  
ENDBRANCH   4  22
BRANCH   7  24
HETATM   24  C   UNL     1      -5.658  13.236  71.840  1.00  0.00     0.111 C  
HETATM   25  C   UNL     1      -5.273  13.225  73.302  1.00  0.00     0.093 C  
ENDBRANCH   7  24
BRANCH  12  26
HETATM   26  N   UNL     1     -11.203  20.450  72.832  1.00  0.00     7.899 NA 
HETATM   27  O   UNL     1     -10.091  20.513  73.702  1.00  0.00     3.318 OA 
HETATM   28  H   UNL     1     -10.230  21.158  74.386  1.00  0.00     0.000 HD 
HETATM   29  H   UNL     1     -12.044  21.021  72.926  1.00  0.00     0.000 HD 
ENDBRANCH  12  26
TORSDOF 5
ENDMDL
