MODEL        1
REMARK 921   NORMALIZED FREE ENERGY PREDICTED BY IDOCK:   -6.46 KCAL/MOL
REMARK 922        TOTAL FREE ENERGY PREDICTED BY IDOCK:   -6.70 KCAL/MOL
REMARK 923 INTER-LIGAND FREE ENERGY PREDICTED BY IDOCK:   -7.22 KCAL/MOL
REMARK 924 INTRA-LIGAND FREE ENERGY PREDICTED BY IDOCK:    0.51 KCAL/MOL
REMARK 927      BINDING AFFINITY PREDICTED BY RF-SCORE:    0.00 PKD
ROOT
HETATM    1  C   UNL     1      -6.840  15.591  68.434  1.00  0.00    -0.115 C  
HETATM    2  C   UNL     1      -8.020  15.417  67.455  1.00  0.00    -0.213 C  
ENDROOT
BRANCH   2   3
HETATM    3  C   UNL     1      -9.177  16.490  67.553  1.00  0.00    -0.203 C  
HETATM    4  C   UNL     1      -9.860  15.946  69.083  1.00  0.00    -0.247 C  
HETATM    5  C   UNL     1     -10.543  14.575  68.986  1.00  0.00    -0.250 C  
HETATM    6  C   UNL     1     -11.148  14.314  67.588  1.00  0.00    -0.305 C  
HETATM    7  C   UNL     1     -10.712  15.375  66.600  1.00  0.00    -0.309 C  
HETATM    8  C   UNL     1     -11.241  15.098  65.177  1.00  0.00    -0.392 C  
HETATM    9  C   UNL     1     -10.655  16.807  67.215  1.00  0.00    -0.275 C  
HETATM   10  C   UNL     1     -10.177  18.174  68.369  1.00  0.00    -0.401 C  
HETATM   11  C   UNL     1     -10.508  13.806  64.672  1.00  0.00    -0.433 C  
HETATM   12  C   UNL     1      -8.624  18.510  67.990  1.00  0.00    -0.310 C  
HETATM   13  C   UNL     1     -10.598  12.641  65.650  1.00  0.00    -0.299 C  
HETATM   14  C   UNL     1      -8.751  17.850  66.583  1.00  0.00    -0.262 C  
HETATM   15  C   UNL     1     -10.419  11.370  65.255  1.00  0.00    -0.340 C  
HETATM   16  C   UNL     1     -10.678  12.928  67.135  1.00  0.00    -0.268 C  
HETATM   17  O   UNL     1      -7.586  17.823  65.821  1.00  0.00    -0.536 OA 
HETATM   18  C   UNL     1     -10.402  10.244  66.244  1.00  0.00    -0.186 C  
HETATM   19  C   UNL     1     -11.487  11.834  67.845  1.00  0.00    -0.387 C  
HETATM   20  H   UNL     1      -7.351  18.573  65.286  1.00  0.00     0.000 HD 
HETATM   21  C   UNL     1     -10.730  10.541  67.701  1.00  0.00    -0.324 C  
HETATM   22  O   UNL     1     -10.084   9.131  65.875  1.00  0.00    -0.273 OA 
BRANCH  14  23
HETATM   23  C   UNL     1      -9.656  19.028  66.261  1.00  0.00    -0.367 C  
HETATM   24  C   UNL     1     -10.431  20.039  65.985  1.00  0.00    -0.523 C  
ENDBRANCH  14  23
ENDBRANCH   2   3
TORSDOF 2
ENDMDL
MODEL        2
REMARK 921   NORMALIZED FREE ENERGY PREDICTED BY IDOCK:   -6.43 KCAL/MOL
REMARK 922        TOTAL FREE ENERGY PREDICTED BY IDOCK:   -6.66 KCAL/MOL
REMARK 923 INTER-LIGAND FREE ENERGY PREDICTED BY IDOCK:   -7.21 KCAL/MOL
REMARK 924 INTRA-LIGAND FREE ENERGY PREDICTED BY IDOCK:    0.55 KCAL/MOL
REMARK 927      BINDING AFFINITY PREDICTED BY RF-SCORE:    0.00 PKD
ROOT
HETATM    1  C   UNL     1     -12.373  14.922  64.209  1.00  0.00    -0.300 C  
HETATM    2  C   UNL     1     -11.112  15.013  65.095  1.00  0.00    -0.408 C  
ENDROOT
BRANCH   2   3
HETATM    3  C   UNL     1     -10.834  13.783  66.048  1.00  0.00    -0.282 C  
HETATM    4  C   UNL     1     -11.988  14.209  67.309  1.00  0.00    -0.449 C  
HETATM    5  C   UNL     1     -11.589  15.467  68.092  1.00  0.00    -0.331 C  
HETATM    6  C   UNL     1     -10.057  15.649  68.176  1.00  0.00    -0.222 C  
HETATM    7  C   UNL     1      -9.342  14.671  67.269  1.00  0.00    -0.212 C  
HETATM    8  C   UNL     1      -7.813  14.881  67.277  1.00  0.00    -0.235 C  
HETATM    9  C   UNL     1      -9.999  13.258  67.242  1.00  0.00    -0.231 C  
HETATM   10  C   UNL     1     -11.308  11.965  67.033  1.00  0.00    -0.392 C  
HETATM   11  C   UNL     1      -7.550  16.270  66.596  1.00  0.00    -0.268 C  
HETATM   12  C   UNL     1     -11.531  11.860  65.419  1.00  0.00    -0.310 C  
HETATM   13  C   UNL     1      -8.375  17.401  67.196  1.00  0.00    -0.232 C  
HETATM   14  C   UNL     1     -10.145  12.507  65.114  1.00  0.00    -0.246 C  
HETATM   15  C   UNL     1      -8.015  18.688  67.062  1.00  0.00    -0.254 C  
HETATM   16  C   UNL     1      -9.743  17.093  67.771  1.00  0.00    -0.271 C  
HETATM   17  O   UNL     1      -9.855  12.710  63.768  1.00  0.00    -0.660 OA 
HETATM   18  C   UNL     1      -8.892  19.796  67.562  1.00  0.00    -0.326 C  
HETATM   19  C   UNL     1     -10.063  18.052  68.925  1.00  0.00    -0.352 C  
HETATM   20  H   UNL     1      -9.476  12.006  63.253  1.00  0.00     0.000 HD 
HETATM   21  C   UNL     1     -10.144  19.442  68.353  1.00  0.00    -0.538 C  
HETATM   22  O   UNL     1      -8.613  20.947  67.289  1.00  0.00    -0.246 OA 
BRANCH  14  23
HETATM   23  C   UNL     1      -9.571  11.213  65.668  1.00  0.00    -0.259 C  
HETATM   24  C   UNL     1      -9.078  10.103  66.142  1.00  0.00    -0.184 C  
ENDBRANCH  14  23
ENDBRANCH   2   3
TORSDOF 2
ENDMDL
MODEL        3
REMARK 921   NORMALIZED FREE ENERGY PREDICTED BY IDOCK:   -6.12 KCAL/MOL
REMARK 922        TOTAL FREE ENERGY PREDICTED BY IDOCK:   -6.32 KCAL/MOL
REMARK 923 INTER-LIGAND FREE ENERGY PREDICTED BY IDOCK:   -6.83 KCAL/MOL
REMARK 924 INTRA-LIGAND FREE ENERGY PREDICTED BY IDOCK:    0.51 KCAL/MOL
REMARK 927      BINDING AFFINITY PREDICTED BY RF-SCORE:    0.00 PKD
ROOT
HETATM    1  C   UNL     1      -7.312  10.971  66.687  1.00  0.00    -0.143 C  
HETATM    2  C   UNL     1      -8.438  11.660  67.486  1.00  0.00    -0.150 C  
ENDROOT
BRANCH   2   3
HETATM    3  C   UNL     1      -9.601  10.725  68.008  1.00  0.00    -0.172 C  
HETATM    4  C   UNL     1     -10.328  10.372  66.443  1.00  0.00    -0.278 C  
HETATM    5  C   UNL     1     -11.003  11.592  65.802  1.00  0.00    -0.329 C  
HETATM    6  C   UNL     1     -11.564  12.576  66.853  1.00  0.00    -0.436 C  
HETATM    7  C   UNL     1     -11.103  12.206  68.246  1.00  0.00    -0.288 C  
HETATM    8  C   UNL     1     -11.589  13.215  69.307  1.00  0.00    -0.370 C  
HETATM    9  C   UNL     1     -11.069  10.668  68.498  1.00  0.00    -0.318 C  
HETATM   10  C   UNL     1     -10.630   8.886  68.252  1.00  0.00    -0.203 C  
HETATM   11  C   UNL     1     -10.836  14.562  69.019  1.00  0.00    -0.265 C  
HETATM   12  C   UNL     1      -9.068   8.777  68.716  1.00  0.00    -0.138 C  
HETATM   13  C   UNL     1     -10.952  15.019  67.571  1.00  0.00    -0.307 C  
HETATM   14  C   UNL     1      -9.150  10.093  69.548  1.00  0.00    -0.195 C  
HETATM   15  C   UNL     1     -10.756  16.299  67.214  1.00  0.00    -0.265 C  
HETATM   16  C   UNL     1     -11.077  13.979  66.476  1.00  0.00    -0.315 C  
HETATM   17  O   UNL     1      -7.963  10.504  70.148  1.00  0.00    -0.381 OA 
HETATM   18  C   UNL     1     -10.765  16.715  65.775  1.00  0.00    -0.204 C  
HETATM   19  C   UNL     1     -11.903  14.533  65.308  1.00  0.00    -0.358 C  
HETATM   20  H   UNL     1      -7.715  10.156  70.997  1.00  0.00     0.000 HD 
HETATM   21  C   UNL     1     -11.138  15.686  64.716  1.00  0.00    -0.426 C  
HETATM   22  O   UNL     1     -10.433  17.845  65.479  1.00  0.00    -0.650 OA 
BRANCH  14  23
HETATM   23  C   UNL     1     -10.049   9.291  70.475  1.00  0.00    -0.313 C  
HETATM   24  C   UNL     1     -10.822   8.605  71.270  1.00  0.00    -0.327 C  
ENDBRANCH  14  23
ENDBRANCH   2   3
TORSDOF 2
ENDMDL
MODEL        4
REMARK 921   NORMALIZED FREE ENERGY PREDICTED BY IDOCK:   -5.99 KCAL/MOL
REMARK 922        TOTAL FREE ENERGY PREDICTED BY IDOCK:   -6.18 KCAL/MOL
REMARK 923 INTER-LIGAND FREE ENERGY PREDICTED BY IDOCK:   -6.70 KCAL/MOL
REMARK 924 INTRA-LIGAND FREE ENERGY PREDICTED BY IDOCK:    0.52 KCAL/MOL
REMARK 927      BINDING AFFINITY PREDICTED BY RF-SCORE:    0.00 PKD
ROOT
HETATM    1  C   UNL     1      -6.510  11.495  66.796  1.00  0.00    -0.128 C  
HETATM    2  C   UNL     1      -7.974  11.601  67.272  1.00  0.00    -0.157 C  
ENDROOT
BRANCH   2   3
HETATM    3  C   UNL     1      -8.597  10.300  67.919  1.00  0.00    -0.118 C  
HETATM    4  C   UNL     1      -8.833   9.396  66.426  1.00  0.00    -0.167 C  
HETATM    5  C   UNL     1      -9.918   9.995  65.521  1.00  0.00    -0.367 C  
HETATM    6  C   UNL     1     -11.027  10.710  66.325  1.00  0.00    -0.017 C  
HETATM    7  C   UNL     1     -10.646  10.840  67.783  1.00  0.00    -0.266 C  
HETATM    8  C   UNL     1     -11.704  11.616  68.595  1.00  0.00    -0.386 C  
HETATM    9  C   UNL     1      -9.905   9.587  68.343  1.00  0.00    -0.175 C  
HETATM   10  C   UNL     1      -8.627   8.256  68.483  1.00  0.00    -0.133 C  
HETATM   11  C   UNL     1     -11.669  13.096  68.075  1.00  0.00    -0.394 C  
HETATM   12  C   UNL     1      -7.292   9.020  69.030  1.00  0.00    -0.073 C  
HETATM   13  C   UNL     1     -11.786  13.205  66.560  1.00  0.00    -0.456 C  
HETATM   14  C   UNL     1      -8.119  10.225  69.574  1.00  0.00    -0.162 C  
HETATM   15  C   UNL     1     -12.189  14.338  65.961  1.00  0.00    -0.422 C  
HETATM   16  C   UNL     1     -11.235  12.091  65.694  1.00  0.00    -0.377 C  
HETATM   17  O   UNL     1      -7.378  11.264  70.132  1.00  0.00    -0.382 OA 
HETATM   18  C   UNL     1     -12.196  14.467  64.468  1.00  0.00    -0.465 C  
HETATM   19  C   UNL     1     -12.052  11.968  64.401  1.00  0.00    -0.375 C  
HETATM   20  H   UNL     1      -7.114  11.222  71.044  1.00  0.00     0.000 HD 
HETATM   21  C   UNL     1     -11.868  13.244  63.623  1.00  0.00    -0.515 C  
HETATM   22  O   UNL     1     -12.416  15.551  63.964  1.00  0.00    -0.641 OA 
BRANCH  14  23
HETATM   23  C   UNL     1      -8.636   9.232  70.602  1.00  0.00    -0.270 C  
HETATM   24  C   UNL     1      -9.079   8.379  71.483  1.00  0.00    -0.254 C  
ENDBRANCH  14  23
ENDBRANCH   2   3
TORSDOF 2
ENDMDL
MODEL        5
REMARK 921   NORMALIZED FREE ENERGY PREDICTED BY IDOCK:   -5.93 KCAL/MOL
REMARK 922        TOTAL FREE ENERGY PREDICTED BY IDOCK:   -6.11 KCAL/MOL
REMARK 923 INTER-LIGAND FREE ENERGY PREDICTED BY IDOCK:   -6.62 KCAL/MOL
REMARK 924 INTRA-LIGAND FREE ENERGY PREDICTED BY IDOCK:    0.51 KCAL/MOL
REMARK 927      BINDING AFFINITY PREDICTED BY RF-SCORE:    0.00 PKD
ROOT
HETATM    1  C   UNL     1     -11.793  13.438  63.847  1.00  0.00    -0.492 C  
HETATM    2  C   UNL     1     -10.639  13.719  64.831  1.00  0.00    -0.427 C  
ENDROOT
BRANCH   2   3
HETATM    3  C   UNL     1     -10.482  12.707  66.035  1.00  0.00    -0.288 C  
HETATM    4  C   UNL     1     -11.904  13.214  66.944  1.00  0.00    -0.444 C  
HETATM    5  C   UNL     1     -11.771  14.622  67.537  1.00  0.00    -0.403 C  
HETATM    6  C   UNL     1     -10.308  14.982  67.882  1.00  0.00    -0.241 C  
HETATM    7  C   UNL     1      -9.349  13.947  67.334  1.00  0.00    -0.228 C  
HETATM    8  C   UNL     1      -7.876  14.320  67.600  1.00  0.00    -0.191 C  
HETATM    9  C   UNL     1      -9.884  12.487  67.447  1.00  0.00    -0.201 C  
HETATM   10  C   UNL     1     -11.023  11.043  67.235  1.00  0.00    -0.356 C  
HETATM   11  C   UNL     1      -7.574  15.593  66.734  1.00  0.00    -0.125 C  
HETATM   12  C   UNL     1     -10.891  10.641  65.658  1.00  0.00    -0.010 C  
HETATM   13  C   UNL     1      -8.586  16.713  66.936  1.00  0.00    -0.240 C  
HETATM   14  C   UNL     1      -9.522  11.374  65.513  1.00  0.00    -0.227 C  
HETATM   15  C   UNL     1      -8.299  17.990  66.634  1.00  0.00    -0.284 C  
HETATM   16  C   UNL     1     -10.019  16.361  67.280  1.00  0.00    -0.258 C  
HETATM   17  O   UNL     1      -8.968  11.374  64.235  1.00  0.00    -0.395 OA 
HETATM   18  C   UNL     1      -9.338  19.065  66.735  1.00  0.00    -0.326 C  
HETATM   19  C   UNL     1     -10.644  17.462  68.147  1.00  0.00    -0.376 C  
HETATM   20  H   UNL     1      -8.439  10.638  63.947  1.00  0.00     0.000 HD 
HETATM   21  C   UNL     1     -10.701  18.717  67.319  1.00  0.00    -0.490 C  
HETATM   22  O   UNL     1      -9.090  20.176  66.309  1.00  0.00    -0.328 OA 
BRANCH  14  23
HETATM   23  C   UNL     1      -8.987  10.263  66.403  1.00  0.00    -0.166 C  
HETATM   24  C   UNL     1      -8.528   9.310  67.165  1.00  0.00    -0.124 C  
ENDBRANCH  14  23
ENDBRANCH   2   3
TORSDOF 2
ENDMDL
MODEL        6
REMARK 921   NORMALIZED FREE ENERGY PREDICTED BY IDOCK:   -5.83 KCAL/MOL
REMARK 922        TOTAL FREE ENERGY PREDICTED BY IDOCK:   -6.00 KCAL/MOL
REMARK 923 INTER-LIGAND FREE ENERGY PREDICTED BY IDOCK:   -6.98 KCAL/MOL
REMARK 924 INTRA-LIGAND FREE ENERGY PREDICTED BY IDOCK:    0.98 KCAL/MOL
REMARK 927      BINDING AFFINITY PREDICTED BY RF-SCORE:    0.00 PKD
ROOT
HETATM    1  C   UNL     1     -10.545  16.111  69.707  1.00  0.00    -0.312 C  
HETATM    2  C   UNL     1      -9.720  14.908  69.202  1.00  0.00    -0.184 C  
ENDROOT
BRANCH   2   3
HETATM    3  C   UNL     1      -9.913  14.513  67.684  1.00  0.00    -0.224 C  
HETATM    4  C   UNL     1      -8.268  13.959  67.383  1.00  0.00    -0.198 C  
HETATM    5  C   UNL     1      -7.234  15.092  67.411  1.00  0.00    -0.231 C  
HETATM    6  C   UNL     1      -7.826  16.443  66.949  1.00  0.00    -0.273 C  
HETATM    7  C   UNL     1      -9.331  16.358  66.809  1.00  0.00    -0.265 C  
HETATM    8  C   UNL     1      -9.956  17.714  66.421  1.00  0.00    -0.337 C  
HETATM    9  C   UNL     1      -9.822  15.002  66.216  1.00  0.00    -0.307 C  
HETATM   10  C   UNL     1     -10.047  13.173  66.045  1.00  0.00    -0.286 C  
HETATM   11  C   UNL     1      -9.757  18.667  67.652  1.00  0.00    -0.330 C  
HETATM   12  C   UNL     1     -11.072  12.768  67.250  1.00  0.00    -0.314 C  
HETATM   13  C   UNL     1      -8.317  18.720  68.146  1.00  0.00    -0.334 C  
HETATM   14  C   UNL     1     -11.589  14.232  67.397  1.00  0.00    -0.369 C  
HETATM   15  C   UNL     1      -7.858  19.746  68.881  1.00  0.00    -0.230 C  
HETATM   16  C   UNL     1      -7.438  17.496  67.993  1.00  0.00    -0.214 C  
HETATM   17  O   UNL     1     -12.515  14.447  68.415  1.00  0.00    -0.583 OA 
HETATM   18  C   UNL     1      -6.473  19.735  69.452  1.00  0.00    -0.346 C  
HETATM   19  C   UNL     1      -5.973  17.913  67.808  1.00  0.00    -0.157 C  
HETATM   20  H   UNL     1     -13.439  14.291  68.257  1.00  0.00     0.000 HD 
HETATM   21  C   UNL     1      -5.532  18.599  69.074  1.00  0.00    -0.203 C  
HETATM   22  O   UNL     1      -6.144  20.602  70.237  1.00  0.00    -0.480 OA 
BRANCH  14  23
HETATM   23  C   UNL     1     -12.230  13.998  66.038  1.00  0.00    -0.484 C  
HETATM   24  C   UNL     1     -12.780  13.798  64.873  1.00  0.00    -0.314 C  
ENDBRANCH  14  23
ENDBRANCH   2   3
TORSDOF 2
ENDMDL
MODEL        7
REMARK 921   NORMALIZED FREE ENERGY PREDICTED BY IDOCK:   -5.81 KCAL/MOL
REMARK 922        TOTAL FREE ENERGY PREDICTED BY IDOCK:   -5.98 KCAL/MOL
REMARK 923 INTER-LIGAND FREE ENERGY PREDICTED BY IDOCK:   -6.56 KCAL/MOL
REMARK 924 INTRA-LIGAND FREE ENERGY PREDICTED BY IDOCK:    0.59 KCAL/MOL
REMARK 927      BINDING AFFINITY PREDICTED BY RF-SCORE:    0.00 PKD
ROOT
HETATM    1  C   UNL     1      -7.193  15.413  69.275  1.00  0.00    -0.186 C  
HETATM    2  C   UNL     1      -8.505  14.958  68.603  1.00  0.00    -0.166 C  
ENDROOT
BRANCH   2   3
HETATM    3  C   UNL     1      -9.605  16.072  68.385  1.00  0.00    -0.206 C  
HETATM    4  C   UNL     1     -10.299  16.024  70.004  1.00  0.00    -0.204 C  
HETATM    5  C   UNL     1     -11.051  14.720  70.300  1.00  0.00    -0.185 C  
HETATM    6  C   UNL     1     -11.682  14.102  69.032  1.00  0.00    -0.361 C  
HETATM    7  C   UNL     1     -11.204  14.812  67.784  1.00  0.00    -0.323 C  
HETATM    8  C   UNL     1     -11.761  14.168  66.497  1.00  0.00    -0.414 C  
HETATM    9  C   UNL     1     -11.068  16.355  67.964  1.00  0.00    -0.292 C  
HETATM   10  C   UNL     1     -10.509  17.968  68.681  1.00  0.00    -0.236 C  
HETATM   11  C   UNL     1     -11.100  12.749  66.386  1.00  0.00    -0.320 C  
HETATM   12  C   UNL     1      -8.946  18.102  68.229  1.00  0.00    -0.306 C  
HETATM   13  C   UNL     1     -11.239  11.919  67.655  1.00  0.00    -0.340 C  
HETATM   14  C   UNL     1      -9.120  17.074  67.069  1.00  0.00    -0.221 C  
HETATM   15  C   UNL     1     -11.128  10.580  67.641  1.00  0.00    -0.375 C  
HETATM   16  C   UNL     1     -11.289  12.621  68.996  1.00  0.00    -0.345 C  
HETATM   17  O   UNL     1      -7.966  16.771  66.352  1.00  0.00    -0.268 OA 
HETATM   18  C   UNL     1     -11.158   9.784  68.911  1.00  0.00    -0.099 C  
HETATM   19  C   UNL     1     -12.144  11.819  69.986  1.00  0.00    -0.387 C  
HETATM   20  H   UNL     1      -7.699  17.324  65.626  1.00  0.00     0.000 HD 
HETATM   21  C   UNL     1     -11.455  10.502  70.220  1.00  0.00    -0.416 C  
HETATM   22  O   UNL     1     -10.901   8.597  68.876  1.00  0.00    -0.133 OA 
BRANCH  14  23
HETATM   23  C   UNL     1      -9.968  18.156  66.419  1.00  0.00    -0.376 C  
HETATM   24  C   UNL     1     -10.696  19.083  65.862  1.00  0.00    -0.404 C  
ENDBRANCH  14  23
ENDBRANCH   2   3
TORSDOF 2
ENDMDL
MODEL        8
REMARK 921   NORMALIZED FREE ENERGY PREDICTED BY IDOCK:   -5.75 KCAL/MOL
REMARK 922        TOTAL FREE ENERGY PREDICTED BY IDOCK:   -5.91 KCAL/MOL
REMARK 923 INTER-LIGAND FREE ENERGY PREDICTED BY IDOCK:   -6.43 KCAL/MOL
REMARK 924 INTRA-LIGAND FREE ENERGY PREDICTED BY IDOCK:    0.52 KCAL/MOL
REMARK 927      BINDING AFFINITY PREDICTED BY RF-SCORE:    0.00 PKD
ROOT
HETATM    1  C   UNL     1     -11.932  10.610  69.471  1.00  0.00    -0.319 C  
HETATM    2  C   UNL     1     -11.381  10.498  68.033  1.00  0.00    -0.319 C  
ENDROOT
BRANCH   2   3
HETATM    3  C   UNL     1      -9.917   9.923  67.886  1.00  0.00    -0.190 C  
HETATM    4  C   UNL     1      -9.070  11.262  68.656  1.00  0.00    -0.153 C  
HETATM    5  C   UNL     1      -9.114  12.558  67.836  1.00  0.00    -0.199 C  
HETATM    6  C   UNL     1      -9.180  12.291  66.315  1.00  0.00    -0.171 C  
HETATM    7  C   UNL     1      -9.418  10.824  66.029  1.00  0.00    -0.230 C  
HETATM    8  C   UNL     1      -9.562  10.541  64.519  1.00  0.00    -0.359 C  
HETATM    9  C   UNL     1      -8.650   9.873  66.996  1.00  0.00    -0.130 C  
HETATM   10  C   UNL     1      -8.085   9.117  68.589  1.00  0.00    -0.102 C  
HETATM   11  C   UNL     1     -10.899  11.224  64.062  1.00  0.00    -0.414 C  
HETATM   12  C   UNL     1      -9.371   8.263  69.121  1.00  0.00    -0.151 C  
HETATM   13  C   UNL     1     -10.999  12.687  64.474  1.00  0.00    -0.365 C  
HETATM   14  C   UNL     1     -10.013   8.212  67.700  1.00  0.00    -0.185 C  
HETATM   15  C   UNL     1     -11.826  13.543  63.850  1.00  0.00    -0.460 C  
HETATM   16  C   UNL     1     -10.318  13.145  65.747  1.00  0.00    -0.294 C  
HETATM   17  O   UNL     1     -11.256   7.590  67.621  1.00  0.00    -0.495 OA 
HETATM   18  C   UNL     1     -11.996  14.951  64.333  1.00  0.00    -0.394 C  
HETATM   19  C   UNL     1      -9.872  14.607  65.616  1.00  0.00    -0.354 C  
HETATM   20  H   UNL     1     -11.309   6.646  67.519  1.00  0.00     0.000 HD 
HETATM   21  C   UNL     1     -11.111  15.450  65.468  1.00  0.00    -0.301 C  
HETATM   22  O   UNL     1     -12.862  15.649  63.844  1.00  0.00    -0.619 OA 
BRANCH  14  23
HETATM   23  C   UNL     1      -8.853   7.290  67.358  1.00  0.00    -0.119 C  
HETATM   24  C   UNL     1      -7.860   6.499  67.063  1.00  0.00    -0.108 C  
ENDBRANCH  14  23
ENDBRANCH   2   3
TORSDOF 2
ENDMDL
MODEL        9
REMARK 921   NORMALIZED FREE ENERGY PREDICTED BY IDOCK:   -5.74 KCAL/MOL
REMARK 922        TOTAL FREE ENERGY PREDICTED BY IDOCK:   -5.89 KCAL/MOL
REMARK 923 INTER-LIGAND FREE ENERGY PREDICTED BY IDOCK:   -6.44 KCAL/MOL
REMARK 924 INTRA-LIGAND FREE ENERGY PREDICTED BY IDOCK:    0.55 KCAL/MOL
REMARK 927      BINDING AFFINITY PREDICTED BY RF-SCORE:    0.00 PKD
ROOT
HETATM    1  C   UNL     1      -9.048  14.760  68.931  1.00  0.00    -0.168 C  
HETATM    2  C   UNL     1      -9.437  13.361  68.407  1.00  0.00    -0.176 C  
ENDROOT
BRANCH   2   3
HETATM    3  C   UNL     1     -10.739  13.284  67.516  1.00  0.00    -0.259 C  
HETATM    4  C   UNL     1     -11.914  13.324  68.828  1.00  0.00    -0.335 C  
HETATM    5  C   UNL     1     -11.900  12.056  69.691  1.00  0.00    -0.401 C  
HETATM    6  C   UNL     1     -11.491  10.800  68.888  1.00  0.00    -0.362 C  
HETATM    7  C   UNL     1     -10.984  11.175  67.512  1.00  0.00    -0.331 C  
HETATM    8  C   UNL     1     -10.500   9.945  66.716  1.00  0.00    -0.261 C  
HETATM    9  C   UNL     1     -11.780  12.344  66.857  1.00  0.00    -0.432 C  
HETATM   10  C   UNL     1     -12.533  14.024  66.660  1.00  0.00    -0.296 C  
HETATM   11  C   UNL     1      -9.216   9.417  67.447  1.00  0.00    -0.145 C  
HETATM   12  C   UNL     1     -11.267  15.014  66.373  1.00  0.00    -0.310 C  
HETATM   13  C   UNL     1      -9.420   9.199  68.941  1.00  0.00    -0.151 C  
HETATM   14  C   UNL     1     -10.353  13.832  65.927  1.00  0.00    -0.309 C  
HETATM   15  C   UNL     1      -8.622   8.386  69.653  1.00  0.00    -0.132 C  
HETATM   16  C   UNL     1     -10.403  10.076  69.688  1.00  0.00    -0.274 C  
HETATM   17  O   UNL     1      -9.040  14.169  65.608  1.00  0.00    -0.371 OA 
HETATM   18  C   UNL     1      -8.765   8.264  71.140  1.00  0.00    -0.147 C  
HETATM   19  C   UNL     1     -11.027   9.301  70.856  1.00  0.00    -0.368 C  
HETATM   20  H   UNL     1      -8.828  14.472  64.732  1.00  0.00     0.000 HD 
HETATM   21  C   UNL     1      -9.924   8.974  71.827  1.00  0.00    -0.359 C  
HETATM   22  O   UNL     1      -7.933   7.642  71.770  1.00  0.00    -0.090 OA 
BRANCH  14  23
HETATM   23  C   UNL     1     -11.269  13.758  64.716  1.00  0.00    -0.370 C  
HETATM   24  C   UNL     1     -12.055  13.696  63.678  1.00  0.00    -0.397 C  
ENDBRANCH  14  23
ENDBRANCH   2   3
TORSDOF 2
ENDMDL
MODEL       10
REMARK 921   NORMALIZED FREE ENERGY PREDICTED BY IDOCK:   -5.72 KCAL/MOL
REMARK 922        TOTAL FREE ENERGY PREDICTED BY IDOCK:   -5.87 KCAL/MOL
REMARK 923 INTER-LIGAND FREE ENERGY PREDICTED BY IDOCK:   -6.44 KCAL/MOL
REMARK 924 INTRA-LIGAND FREE ENERGY PREDICTED BY IDOCK:    0.57 KCAL/MOL
REMARK 927      BINDING AFFINITY PREDICTED BY RF-SCORE:    0.00 PKD
ROOT
HETATM    1  C   UNL     1     -12.458  13.126  65.312  1.00  0.00    -0.550 C  
HETATM    2  C   UNL     1     -11.235  13.688  66.066  1.00  0.00    -0.302 C  
ENDROOT
BRANCH   2   3
HETATM    3  C   UNL     1     -10.834  12.947  67.404  1.00  0.00    -0.272 C  
HETATM    4  C   UNL     1     -12.022  13.717  68.453  1.00  0.00    -0.395 C  
HETATM    5  C   UNL     1     -11.748  15.209  68.682  1.00  0.00    -0.364 C  
HETATM    6  C   UNL     1     -10.241  15.548  68.629  1.00  0.00    -0.216 C  
HETATM    7  C   UNL     1      -9.435  14.366  68.134  1.00  0.00    -0.204 C  
HETATM    8  C   UNL     1      -7.934  14.701  68.001  1.00  0.00    -0.137 C  
HETATM    9  C   UNL     1      -9.949  12.997  68.674  1.00  0.00    -0.114 C  
HETATM   10  C   UNL     1     -11.124  11.610  69.024  1.00  0.00    -0.297 C  
HETATM   11  C   UNL     1      -7.811  15.742  66.834  1.00  0.00    -0.271 C  
HETATM   12  C   UNL     1     -11.339  10.876  67.582  1.00  0.00    -0.345 C  
HETATM   13  C   UNL     1      -8.743  16.936  66.990  1.00  0.00    -0.230 C  
HETATM   14  C   UNL     1     -10.025  11.480  66.999  1.00  0.00    -0.200 C  
HETATM   15  C   UNL     1      -8.513  18.101  66.363  1.00  0.00    -0.263 C  
HETATM   16  C   UNL     1     -10.072  16.749  67.693  1.00  0.00    -0.275 C  
HETATM   17  O   UNL     1      -9.759  11.177  65.666  1.00  0.00    -0.205 OA 
HETATM   18  C   UNL     1      -9.494  19.232  66.438  1.00  0.00    -0.365 C  
HETATM   19  C   UNL     1     -10.484  18.043  68.407  1.00  0.00    -0.326 C  
HETATM   20  H   UNL     1      -9.313  10.368  65.443  1.00  0.00     0.000 HD 
HETATM   21  C   UNL     1     -10.703  19.095  67.353  1.00  0.00    -0.578 C  
HETATM   22  O   UNL     1      -9.330  20.211  65.737  1.00  0.00    -0.251 OA 
BRANCH  14  23
HETATM   23  C   UNL     1      -9.324  10.554  67.980  1.00  0.00    -0.150 C  
HETATM   24  C   UNL     1      -8.724   9.759  68.822  1.00  0.00    -0.128 C  
ENDBRANCH  14  23
ENDBRANCH   2   3
TORSDOF 2
ENDMDL
MODEL       11
REMARK 921   NORMALIZED FREE ENERGY PREDICTED BY IDOCK:   -5.65 KCAL/MOL
REMARK 922        TOTAL FREE ENERGY PREDICTED BY IDOCK:   -5.80 KCAL/MOL
REMARK 923 INTER-LIGAND FREE ENERGY PREDICTED BY IDOCK:   -6.78 KCAL/MOL
REMARK 924 INTRA-LIGAND FREE ENERGY PREDICTED BY IDOCK:    0.98 KCAL/MOL
REMARK 927      BINDING AFFINITY PREDICTED BY RF-SCORE:    0.00 PKD
ROOT
HETATM    1  C   UNL     1      -7.830  14.917  68.319  1.00  0.00    -0.122 C  
HETATM    2  C   UNL     1      -8.402  14.426  66.973  1.00  0.00    -0.172 C  
ENDROOT
BRANCH   2   3
HETATM    3  C   UNL     1      -9.839  13.770  67.019  1.00  0.00    -0.251 C  
HETATM    4  C   UNL     1     -10.370  14.274  65.417  1.00  0.00    -0.391 C  
HETATM    5  C   UNL     1     -10.586  15.789  65.301  1.00  0.00    -0.446 C  
HETATM    6  C   UNL     1     -11.029  16.426  66.637  1.00  0.00     0.024 C  
HETATM    7  C   UNL     1     -10.914  15.436  67.777  1.00  0.00    -0.311 C  
HETATM    8  C   UNL     1     -11.280  16.069  69.136  1.00  0.00    -0.342 C  
HETATM    9  C   UNL     1     -11.330  13.987  67.382  1.00  0.00    -0.350 C  
HETATM   10  C   UNL     1     -11.344  12.387  66.450  1.00  0.00    -0.392 C  
HETATM   11  C   UNL     1     -10.162  17.123  69.453  1.00  0.00    -0.164 C  
HETATM   12  C   UNL     1      -9.964  11.637  66.894  1.00  0.00    -0.225 C  
HETATM   13  C   UNL     1      -9.916  18.103  68.313  1.00  0.00    -0.380 C  
HETATM   14  C   UNL     1      -9.828  12.500  68.186  1.00  0.00    -0.221 C  
HETATM   15  C   UNL     1      -9.333  19.296  68.517  1.00  0.00    -0.443 C  
HETATM   16  C   UNL     1     -10.133  17.644  66.886  1.00  0.00    -0.331 C  
HETATM   17  O   UNL     1      -8.687  12.269  68.951  1.00  0.00    -0.369 OA 
HETATM   18  C   UNL     1      -8.999  20.203  67.373  1.00  0.00    -0.352 C  
HETATM   19  C   UNL     1     -10.582  18.822  66.011  1.00  0.00    -0.442 C  
HETATM   20  H   UNL     1      -8.681  11.569  69.593  1.00  0.00     0.000 HD 
HETATM   21  C   UNL     1      -9.454  19.817  65.972  1.00  0.00    -0.393 C  
HETATM   22  O   UNL     1      -8.336  21.201  67.577  1.00  0.00    -0.085 OA 
BRANCH  14  23
HETATM   23  C   UNL     1     -11.045  11.727  68.668  1.00  0.00    -0.289 C  
HETATM   24  C   UNL     1     -12.088  11.063  69.082  1.00  0.00    -0.333 C  
ENDBRANCH  14  23
ENDBRANCH   2   3
TORSDOF 2
ENDMDL
MODEL       12
REMARK 921   NORMALIZED FREE ENERGY PREDICTED BY IDOCK:   -5.65 KCAL/MOL
REMARK 922        TOTAL FREE ENERGY PREDICTED BY IDOCK:   -5.79 KCAL/MOL
REMARK 923 INTER-LIGAND FREE ENERGY PREDICTED BY IDOCK:   -6.31 KCAL/MOL
REMARK 924 INTRA-LIGAND FREE ENERGY PREDICTED BY IDOCK:    0.51 KCAL/MOL
REMARK 927      BINDING AFFINITY PREDICTED BY RF-SCORE:    0.00 PKD
ROOT
HETATM    1  C   UNL     1      -7.161  11.249  68.359  1.00  0.00    -0.081 C  
HETATM    2  C   UNL     1      -8.638  11.081  68.773  1.00  0.00    -0.144 C  
ENDROOT
BRANCH   2   3
HETATM    3  C   UNL     1      -9.543  10.220  67.805  1.00  0.00    -0.171 C  
HETATM    4  C   UNL     1      -9.603  11.367  66.470  1.00  0.00    -0.220 C  
HETATM    5  C   UNL     1     -10.401  12.636  66.799  1.00  0.00    -0.246 C  
HETATM    6  C   UNL     1     -11.540  12.372  67.810  1.00  0.00    -0.413 C  
HETATM    7  C   UNL     1     -11.435  10.980  68.396  1.00  0.00    -0.378 C  
HETATM    8  C   UNL     1     -12.518  10.716  69.464  1.00  0.00    -0.036 C  
HETATM    9  C   UNL     1     -10.993   9.904  67.359  1.00  0.00    -0.214 C  
HETATM   10  C   UNL     1      -9.957   9.067  66.073  1.00  0.00    -0.246 C  
HETATM   11  C   UNL     1     -12.183  11.651  70.679  1.00  0.00    -0.461 C  
HETATM   12  C   UNL     1      -8.663   8.497  66.891  1.00  0.00    -0.137 C  
HETATM   13  C   UNL     1     -11.988  13.108  70.283  1.00  0.00    -0.366 C  
HETATM   14  C   UNL     1      -9.411   8.561  68.258  1.00  0.00    -0.137 C  
HETATM   15  C   UNL     1     -12.110  14.107  71.173  1.00  0.00    -0.392 C  
HETATM   16  C   UNL     1     -11.433  13.433  68.911  1.00  0.00    -0.347 C  
HETATM   17  O   UNL     1      -8.661   8.203  69.375  1.00  0.00    -0.132 OA 
HETATM   18  C   UNL     1     -11.809  15.526  70.795  1.00  0.00    -0.367 C  
HETATM   19  C   UNL     1     -11.992  14.773  68.414  1.00  0.00    -0.270 C  
HETATM   20  H   UNL     1      -8.587   7.289  69.624  1.00  0.00     0.000 HD 
HETATM   21  C   UNL     1     -11.490  15.847  69.341  1.00  0.00    -0.351 C  
HETATM   22  O   UNL     1     -11.780  16.379  71.660  1.00  0.00    -0.465 OA 
BRANCH  14  23
HETATM   23  C   UNL     1     -10.247   7.420  67.701  1.00  0.00    -0.261 C  
HETATM   24  C   UNL     1     -10.965   6.443  67.222  1.00  0.00    -0.474 C  
ENDBRANCH  14  23
ENDBRANCH   2   3
TORSDOF 2
ENDMDL
MODEL       13
REMARK 921   NORMALIZED FREE ENERGY PREDICTED BY IDOCK:   -5.63 KCAL/MOL
REMARK 922        TOTAL FREE ENERGY PREDICTED BY IDOCK:   -5.77 KCAL/MOL
REMARK 923 INTER-LIGAND FREE ENERGY PREDICTED BY IDOCK:   -6.30 KCAL/MOL
REMARK 924 INTRA-LIGAND FREE ENERGY PREDICTED BY IDOCK:    0.53 KCAL/MOL
REMARK 927      BINDING AFFINITY PREDICTED BY RF-SCORE:    0.00 PKD
ROOT
HETATM    1  C   UNL     1      -7.726   8.459  72.456  1.00  0.00    -0.145 C  
HETATM    2  C   UNL     1      -9.251   8.591  72.257  1.00  0.00    -0.343 C  
ENDROOT
BRANCH   2   3
HETATM    3  C   UNL     1     -10.014   7.286  71.797  1.00  0.00    -0.186 C  
HETATM    4  C   UNL     1      -9.511   7.311  70.109  1.00  0.00    -0.165 C  
HETATM    5  C   UNL     1     -10.119   8.475  69.315  1.00  0.00    -0.203 C  
HETATM    6  C   UNL     1     -11.511   8.887  69.845  1.00  0.00     0.104 C  
HETATM    7  C   UNL     1     -11.821   8.196  71.155  1.00  0.00    -0.303 C  
HETATM    8  C   UNL     1     -13.175   8.647  71.744  1.00  0.00    -0.399 C  
HETATM    9  C   UNL     1     -11.329   6.718  71.207  1.00  0.00    -0.333 C  
HETATM   10  C   UNL     1     -10.165   5.281  71.121  1.00  0.00    -0.294 C  
HETATM   11  C   UNL     1     -13.004  10.151  72.156  1.00  0.00    -0.436 C  
HETATM   12  C   UNL     1      -9.258   5.402  72.474  1.00  0.00    -0.145 C  
HETATM   13  C   UNL     1     -12.446  11.022  71.037  1.00  0.00    -0.512 C  
HETATM   14  C   UNL     1     -10.312   6.305  73.184  1.00  0.00    -0.222 C  
HETATM   15  C   UNL     1     -12.611  12.356  71.029  1.00  0.00    -0.349 C  
HETATM   16  C   UNL     1     -11.503  10.409  70.023  1.00  0.00    -0.382 C  
HETATM   17  O   UNL     1      -9.959   6.766  74.450  1.00  0.00    -0.350 OA 
HETATM   18  C   UNL     1     -11.966  13.212  69.982  1.00  0.00    -0.321 C  
HETATM   19  C   UNL     1     -11.656  11.105  68.664  1.00  0.00    -0.383 C  
HETATM   20  H   UNL     1     -10.123   6.225  75.214  1.00  0.00     0.000 HD 
HETATM   21  C   UNL     1     -11.225  12.537  68.835  1.00  0.00    -0.330 C  
HETATM   22  O   UNL     1     -12.008  14.421  70.092  1.00  0.00    -0.283 OA 
BRANCH  14  23
HETATM   23  C   UNL     1     -11.168   5.050  73.215  1.00  0.00    -0.411 C  
HETATM   24  C   UNL     1     -11.903   3.973  73.240  1.00  0.00     0.088 C  
ENDBRANCH  14  23
ENDBRANCH   2   3
TORSDOF 2
ENDMDL
MODEL       14
REMARK 921   NORMALIZED FREE ENERGY PREDICTED BY IDOCK:   -5.53 KCAL/MOL
REMARK 922        TOTAL FREE ENERGY PREDICTED BY IDOCK:   -5.67 KCAL/MOL
REMARK 923 INTER-LIGAND FREE ENERGY PREDICTED BY IDOCK:   -6.24 KCAL/MOL
REMARK 924 INTRA-LIGAND FREE ENERGY PREDICTED BY IDOCK:    0.57 KCAL/MOL
REMARK 927      BINDING AFFINITY PREDICTED BY RF-SCORE:    0.00 PKD
ROOT
HETATM    1  C   UNL     1      -6.286  14.812  67.668  1.00  0.00    -0.139 C  
HETATM    2  C   UNL     1      -7.311  15.725  66.963  1.00  0.00    -0.226 C  
ENDROOT
BRANCH   2   3
HETATM    3  C   UNL     1      -7.598  17.119  67.651  1.00  0.00    -0.180 C  
HETATM    4  C   UNL     1      -8.212  16.495  69.180  1.00  0.00    -0.159 C  
HETATM    5  C   UNL     1      -9.568  15.789  69.043  1.00  0.00    -0.243 C  
HETATM    6  C   UNL     1     -10.427  16.377  67.902  1.00  0.00    -0.307 C  
HETATM    7  C   UNL     1      -9.624  17.344  67.058  1.00  0.00    -0.273 C  
HETATM    8  C   UNL     1     -10.437  17.890  65.866  1.00  0.00    -0.253 C  
HETATM    9  C   UNL     1      -8.649  18.230  67.892  1.00  0.00    -0.267 C  
HETATM   10  C   UNL     1      -7.289  18.665  69.070  1.00  0.00    -0.262 C  
HETATM   11  C   UNL     1     -10.682  16.678  64.899  1.00  0.00    -0.102 C  
HETATM   12  C   UNL     1      -5.915  18.285  68.274  1.00  0.00    -0.175 C  
HETATM   13  C   UNL     1     -11.271  15.460  65.598  1.00  0.00    -0.208 C  
HETATM   14  C   UNL     1      -6.626  18.320  66.886  1.00  0.00    -0.184 C  
HETATM   15  C   UNL     1     -11.928  14.503  64.921  1.00  0.00    -0.425 C  
HETATM   16  C   UNL     1     -10.929  15.205  67.052  1.00  0.00    -0.322 C  
HETATM   17  O   UNL     1      -5.834  17.981  65.792  1.00  0.00    -0.185 OA 
HETATM   18  C   UNL     1     -12.407  13.258  65.603  1.00  0.00    -0.465 C  
HETATM   19  C   UNL     1     -12.094  14.497  67.757  1.00  0.00    -0.269 C  
HETATM   20  H   UNL     1      -5.298  18.644  65.371  1.00  0.00     0.000 HD 
HETATM   21  C   UNL     1     -12.261  13.146  67.115  1.00  0.00    -0.250 C  
HETATM   22  O   UNL     1     -12.858  12.349  64.935  1.00  0.00    -0.711 OA 
BRANCH  14  23
HETATM   23  C   UNL     1      -6.719  19.819  67.124  1.00  0.00    -0.230 C  
HETATM   24  C   UNL     1      -6.797  21.104  67.328  1.00  0.00    -0.408 C  
ENDBRANCH  14  23
ENDBRANCH   2   3
TORSDOF 2
ENDMDL
MODEL       15
REMARK 921   NORMALIZED FREE ENERGY PREDICTED BY IDOCK:   -5.52 KCAL/MOL
REMARK 922        TOTAL FREE ENERGY PREDICTED BY IDOCK:   -5.65 KCAL/MOL
REMARK 923 INTER-LIGAND FREE ENERGY PREDICTED BY IDOCK:   -6.17 KCAL/MOL
REMARK 924 INTRA-LIGAND FREE ENERGY PREDICTED BY IDOCK:    0.51 KCAL/MOL
REMARK 927      BINDING AFFINITY PREDICTED BY RF-SCORE:    0.00 PKD
ROOT
HETATM    1  C   UNL     1      -7.278   9.767  69.248  1.00  0.00    -0.072 C  
HETATM    2  C   UNL     1      -8.698  10.191  69.679  1.00  0.00    -0.176 C  
ENDROOT
BRANCH   2   3
HETATM    3  C   UNL     1      -9.772   9.036  69.785  1.00  0.00    -0.183 C  
HETATM    4  C   UNL     1      -9.935   8.719  68.060  1.00  0.00    -0.220 C  
HETATM    5  C   UNL     1     -10.604   9.868  67.295  1.00  0.00    -0.316 C  
HETATM    6  C   UNL     1     -11.616  10.646  68.165  1.00  0.00    -0.217 C  
HETATM    7  C   UNL     1     -11.521  10.227  69.617  1.00  0.00    -0.297 C  
HETATM    8  C   UNL     1     -12.470  11.042  70.521  1.00  0.00    -0.432 C  
HETATM    9  C   UNL     1     -11.283   8.698  69.805  1.00  0.00     0.008 C  
HETATM   10  C   UNL     1     -10.476   7.041  69.631  1.00  0.00    -0.238 C  
HETATM   11  C   UNL     1     -11.924  12.514  70.529  1.00  0.00    -0.277 C  
HETATM   12  C   UNL     1      -9.124   7.142  70.542  1.00  0.00    -0.155 C  
HETATM   13  C   UNL     1     -11.693  13.078  69.133  1.00  0.00    -0.378 C  
HETATM   14  C   UNL     1      -9.683   8.345  71.363  1.00  0.00    -0.199 C  
HETATM   15  C   UNL     1     -11.638  14.401  68.905  1.00  0.00    -0.340 C  
HETATM   16  C   UNL     1     -11.303  12.138  68.011  1.00  0.00    -0.353 C  
HETATM   17  O   UNL     1      -8.817   8.885  72.310  1.00  0.00    -0.397 OA 
HETATM   18  C   UNL     1     -11.303  14.942  67.548  1.00  0.00    -0.342 C  
HETATM   19  C   UNL     1     -11.839  12.659  66.671  1.00  0.00    -0.449 C  
HETATM   20  H   UNL     1      -8.768   8.503  73.180  1.00  0.00     0.000 HD 
HETATM   21  C   UNL     1     -11.157  13.970  66.385  1.00  0.00    -0.316 C  
HETATM   22  O   UNL     1     -11.110  16.134  67.412  1.00  0.00    -0.258 OA 
BRANCH  14  23
HETATM   23  C   UNL     1     -10.652   7.326  71.940  1.00  0.00    -0.238 C  
HETATM   24  C   UNL     1     -11.482   6.451  72.435  1.00  0.00    -0.320 C  
ENDBRANCH  14  23
ENDBRANCH   2   3
TORSDOF 2
ENDMDL
MODEL       16
REMARK 921   NORMALIZED FREE ENERGY PREDICTED BY IDOCK:   -5.52 KCAL/MOL
REMARK 922        TOTAL FREE ENERGY PREDICTED BY IDOCK:   -5.65 KCAL/MOL
REMARK 923 INTER-LIGAND FREE ENERGY PREDICTED BY IDOCK:   -6.17 KCAL/MOL
REMARK 924 INTRA-LIGAND FREE ENERGY PREDICTED BY IDOCK:    0.52 KCAL/MOL
REMARK 927      BINDING AFFINITY PREDICTED BY RF-SCORE:    0.00 PKD
ROOT
HETATM    1  C   UNL     1      -6.901  10.509  67.424  1.00  0.00    -0.076 C  
HETATM    2  C   UNL     1      -8.311  10.706  68.019  1.00  0.00    -0.118 C  
ENDROOT
BRANCH   2   3
HETATM    3  C   UNL     1      -9.366   9.571  67.713  1.00  0.00    -0.143 C  
HETATM    4  C   UNL     1      -9.550   9.891  65.990  1.00  0.00    -0.284 C  
HETATM    5  C   UNL     1     -10.247  11.225  65.694  1.00  0.00    -0.304 C  
HETATM    6  C   UNL     1     -11.257  11.620  66.795  1.00  0.00    -0.371 C  
HETATM    7  C   UNL     1     -11.135  10.709  67.998  1.00  0.00    -0.361 C  
HETATM    8  C   UNL     1     -12.082  11.127  69.142  1.00  0.00    -0.352 C  
HETATM    9  C   UNL     1     -10.872   9.219  67.622  1.00  0.00    -0.188 C  
HETATM   10  C   UNL     1     -10.043   7.751  66.857  1.00  0.00    -0.356 C  
HETATM   11  C   UNL     1     -11.558  12.507  69.674  1.00  0.00    -0.323 C  
HETATM   12  C   UNL     1      -8.680   7.544  67.732  1.00  0.00    -0.123 C  
HETATM   13  C   UNL     1     -11.356  13.540  68.573  1.00  0.00    -0.327 C  
HETATM   14  C   UNL     1      -9.244   8.361  68.935  1.00  0.00    -0.147 C  
HETATM   15  C   UNL     1     -11.324  14.857  68.835  1.00  0.00    -0.301 C  
HETATM   16  C   UNL     1     -10.969  13.073  67.185  1.00  0.00    -0.293 C  
HETATM   17  O   UNL     1      -8.372   8.540  70.006  1.00  0.00    -0.116 OA 
HETATM   18  C   UNL     1     -11.017  15.855  67.760  1.00  0.00    -0.315 C  
HETATM   19  C   UNL     1     -11.532  14.030  66.125  1.00  0.00    -0.350 C  
HETATM   20  H   UNL     1      -8.305   7.873  70.680  1.00  0.00     0.000 HD 
HETATM   21  C   UNL     1     -10.874  15.369  66.325  1.00  0.00    -0.301 C  
HETATM   22  O   UNL     1     -10.843  17.020  68.061  1.00  0.00    -0.371 OA 
BRANCH  14  23
HETATM   23  C   UNL     1     -10.189   7.184  69.116  1.00  0.00    -0.196 C  
HETATM   24  C   UNL     1     -11.000   6.175  69.270  1.00  0.00    -0.450 C  
ENDBRANCH  14  23
ENDBRANCH   2   3
TORSDOF 2
ENDMDL
MODEL       17
REMARK 921   NORMALIZED FREE ENERGY PREDICTED BY IDOCK:   -5.49 KCAL/MOL
REMARK 922        TOTAL FREE ENERGY PREDICTED BY IDOCK:   -5.62 KCAL/MOL
REMARK 923 INTER-LIGAND FREE ENERGY PREDICTED BY IDOCK:   -6.60 KCAL/MOL
REMARK 924 INTRA-LIGAND FREE ENERGY PREDICTED BY IDOCK:    0.99 KCAL/MOL
REMARK 927      BINDING AFFINITY PREDICTED BY RF-SCORE:    0.00 PKD
ROOT
HETATM    1  C   UNL     1     -10.626  16.814  69.363  1.00  0.00    -0.318 C  
HETATM    2  C   UNL     1     -11.022  17.661  68.135  1.00  0.00    -0.089 C  
ENDROOT
BRANCH   2   3
HETATM    3  C   UNL     1      -9.834  18.282  67.298  1.00  0.00    -0.327 C  
HETATM    4  C   UNL     1     -10.569  18.119  65.705  1.00  0.00    -0.186 C  
HETATM    5  C   UNL     1     -10.708  16.660  65.250  1.00  0.00    -0.219 C  
HETATM    6  C   UNL     1      -9.595  15.755  65.823  1.00  0.00    -0.355 C  
HETATM    7  C   UNL     1      -8.785  16.485  66.873  1.00  0.00    -0.233 C  
HETATM    8  C   UNL     1      -7.713  15.580  67.516  1.00  0.00    -0.195 C  
HETATM    9  C   UNL     1      -8.526  17.982  66.523  1.00  0.00    -0.285 C  
HETATM   10  C   UNL     1      -8.895  19.741  66.078  1.00  0.00    -0.295 C  
HETATM   11  C   UNL     1      -8.485  14.491  68.341  1.00  0.00    -0.163 C  
HETATM   12  C   UNL     1      -9.513  20.392  67.442  1.00  0.00    -0.561 C  
HETATM   13  C   UNL     1      -9.560  13.773  67.536  1.00  0.00    -0.219 C  
HETATM   14  C   UNL     1      -8.890  19.280  68.339  1.00  0.00    -0.352 C  
HETATM   15  C   UNL     1     -10.030  12.568  67.898  1.00  0.00    -0.212 C  
HETATM   16  C   UNL     1     -10.271  14.518  66.425  1.00  0.00    -0.293 C  
HETATM   17  O   UNL     1      -9.195  19.355  69.696  1.00  0.00     0.044 OA 
HETATM   18  C   UNL     1     -11.163  11.922  67.160  1.00  0.00    -0.319 C  
HETATM   19  C   UNL     1     -10.687  13.545  65.313  1.00  0.00    -0.328 C  
HETATM   20  H   UNL     1      -8.675  19.906  70.270  1.00  0.00     0.000 HD 
HETATM   21  C   UNL     1     -11.692  12.589  65.897  1.00  0.00    -0.480 C  
HETATM   22  O   UNL     1     -11.664  10.909  67.606  1.00  0.00    -0.566 OA 
BRANCH  14  23
HETATM   23  C   UNL     1      -7.560  19.926  67.983  1.00  0.00    -0.332 C  
HETATM   24  C   UNL     1      -6.421  20.481  67.676  1.00  0.00    -0.322 C  
ENDBRANCH  14  23
ENDBRANCH   2   3
TORSDOF 2
ENDMDL
MODEL       18
REMARK 921   NORMALIZED FREE ENERGY PREDICTED BY IDOCK:   -5.43 KCAL/MOL
REMARK 922        TOTAL FREE ENERGY PREDICTED BY IDOCK:   -5.55 KCAL/MOL
REMARK 923 INTER-LIGAND FREE ENERGY PREDICTED BY IDOCK:   -6.07 KCAL/MOL
REMARK 924 INTRA-LIGAND FREE ENERGY PREDICTED BY IDOCK:    0.51 KCAL/MOL
REMARK 927      BINDING AFFINITY PREDICTED BY RF-SCORE:    0.00 PKD
ROOT
HETATM    1  C   UNL     1      -7.477   8.379  72.868  1.00  0.00    -0.117 C  
HETATM    2  C   UNL     1      -8.928   7.972  72.538  1.00  0.00    -0.256 C  
ENDROOT
BRANCH   2   3
HETATM    3  C   UNL     1      -9.109   6.832  71.459  1.00  0.00    -0.145 C  
HETATM    4  C   UNL     1      -8.567   7.756  70.060  1.00  0.00    -0.140 C  
HETATM    5  C   UNL     1      -9.532   8.883  69.669  1.00  0.00    -0.168 C  
HETATM    6  C   UNL     1     -11.001   8.546  70.010  1.00  0.00    -0.197 C  
HETATM    7  C   UNL     1     -11.091   7.292  70.853  1.00  0.00    -0.284 C  
HETATM    8  C   UNL     1     -12.542   6.975  71.271  1.00  0.00    -0.418 C  
HETATM    9  C   UNL     1     -10.074   6.189  70.431  1.00  0.00    -0.237 C  
HETATM   10  C   UNL     1      -8.445   5.398  70.043  1.00  0.00    -0.111 C  
HETATM   11  C   UNL     1     -12.982   8.111  72.259  1.00  0.00    -0.232 C  
HETATM   12  C   UNL     1      -7.726   5.200  71.495  1.00  0.00    -0.103 C  
HETATM   13  C   UNL     1     -12.743   9.512  71.710  1.00  0.00    -0.492 C  
HETATM   14  C   UNL     1      -9.080   5.306  72.260  1.00  0.00    -0.138 C  
HETATM   15  C   UNL     1     -13.405  10.581  72.184  1.00  0.00    -0.347 C  
HETATM   16  C   UNL     1     -11.586   9.747  70.762  1.00  0.00    -0.417 C  
HETATM   17  O   UNL     1      -8.997   5.251  73.649  1.00  0.00    -0.124 OA 
HETATM   18  C   UNL     1     -13.084  11.966  71.712  1.00  0.00    -0.360 C  
HETATM   19  C   UNL     1     -11.923  10.877  69.780  1.00  0.00    -0.423 C  
HETATM   20  H   UNL     1      -8.981   4.410  74.091  1.00  0.00     0.000 HD 
HETATM   21  C   UNL     1     -12.083  12.142  70.579  1.00  0.00    -0.383 C  
HETATM   22  O   UNL     1     -13.591  12.919  72.271  1.00  0.00    -0.560 OA 
BRANCH  14  23
HETATM   23  C   UNL     1      -9.391   3.962  71.621  1.00  0.00    -0.202 C  
HETATM   24  C   UNL     1      -9.658   2.809  71.074  1.00  0.00    -0.215 C  
ENDBRANCH  14  23
ENDBRANCH   2   3
TORSDOF 2
ENDMDL
MODEL       19
REMARK 921   NORMALIZED FREE ENERGY PREDICTED BY IDOCK:   -5.39 KCAL/MOL
REMARK 922        TOTAL FREE ENERGY PREDICTED BY IDOCK:   -5.50 KCAL/MOL
REMARK 923 INTER-LIGAND FREE ENERGY PREDICTED BY IDOCK:   -6.02 KCAL/MOL
REMARK 924 INTRA-LIGAND FREE ENERGY PREDICTED BY IDOCK:    0.52 KCAL/MOL
REMARK 927      BINDING AFFINITY PREDICTED BY RF-SCORE:    0.00 PKD
ROOT
HETATM    1  C   UNL     1     -10.026   9.273  65.968  1.00  0.00    -0.325 C  
HETATM    2  C   UNL     1     -10.766   9.846  67.194  1.00  0.00    -0.276 C  
ENDROOT
BRANCH   2   3
HETATM    3  C   UNL     1     -10.366  11.311  67.633  1.00  0.00    -0.212 C  
HETATM    4  C   UNL     1      -8.739  10.942  68.196  1.00  0.00    -0.133 C  
HETATM    5  C   UNL     1      -8.720  10.084  69.469  1.00  0.00    -0.205 C  
HETATM    6  C   UNL     1      -9.947  10.341  70.371  1.00  0.00     0.176 C  
HETATM    7  C   UNL     1     -10.974  11.200  69.664  1.00  0.00    -0.254 C  
HETATM    8  C   UNL     1     -12.243  11.411  70.516  1.00  0.00    -0.478 C  
HETATM    9  C   UNL     1     -10.341  12.332  68.798  1.00  0.00    -0.156 C  
HETATM   10  C   UNL     1      -9.285  13.132  67.504  1.00  0.00    -0.206 C  
HETATM   11  C   UNL     1     -12.947  10.012  70.621  1.00  0.00    -0.250 C  
HETATM   12  C   UNL     1     -10.002  12.747  66.089  1.00  0.00    -0.272 C  
HETATM   13  C   UNL     1     -12.015   8.902  71.087  1.00  0.00    -0.344 C  
HETATM   14  C   UNL     1     -11.363  12.432  66.783  1.00  0.00    -0.335 C  
HETATM   15  C   UNL     1     -12.483   7.767  71.632  1.00  0.00    -0.352 C  
HETATM   16  C   UNL     1     -10.543   8.977  70.738  1.00  0.00    -0.300 C  
HETATM   17  O   UNL     1     -12.375  11.968  65.947  1.00  0.00    -0.463 OA 
HETATM   18  C   UNL     1     -11.563   6.638  71.986  1.00  0.00    -0.301 C  
HETATM   19  C   UNL     1      -9.701   8.305  71.830  1.00  0.00    -0.299 C  
HETATM   20  H   UNL     1     -12.925  12.587  65.478  1.00  0.00     0.000 HD 
HETATM   21  C   UNL     1     -10.061   6.844  71.848  1.00  0.00    -0.198 C  
HETATM   22  O   UNL     1     -12.033   5.572  72.332  1.00  0.00    -0.184 OA 
BRANCH  14  23
HETATM   23  C   UNL     1     -11.427  13.930  67.035  1.00  0.00    -0.367 C  
HETATM   24  C   UNL     1     -11.482  15.215  67.252  1.00  0.00    -0.284 C  
ENDBRANCH  14  23
ENDBRANCH   2   3
TORSDOF 2
ENDMDL
MODEL       20
REMARK 921   NORMALIZED FREE ENERGY PREDICTED BY IDOCK:   -5.33 KCAL/MOL
REMARK 922        TOTAL FREE ENERGY PREDICTED BY IDOCK:   -5.44 KCAL/MOL
REMARK 923 INTER-LIGAND FREE ENERGY PREDICTED BY IDOCK:   -6.43 KCAL/MOL
REMARK 924 INTRA-LIGAND FREE ENERGY PREDICTED BY IDOCK:    0.99 KCAL/MOL
REMARK 927      BINDING AFFINITY PREDICTED BY RF-SCORE:    0.00 PKD
ROOT
HETATM    1  C   UNL     1     -10.773  15.319  65.202  1.00  0.00    -0.455 C  
HETATM    2  C   UNL     1      -9.297  15.678  65.474  1.00  0.00    -0.072 C  
ENDROOT
BRANCH   2   3
HETATM    3  C   UNL     1      -9.024  16.651  66.689  1.00  0.00    -0.285 C  
HETATM    4  C   UNL     1      -7.438  16.022  67.130  1.00  0.00    -0.253 C  
HETATM    5  C   UNL     1      -7.491  14.603  67.711  1.00  0.00    -0.180 C  
HETATM    6  C   UNL     1      -8.810  14.323  68.464  1.00  0.00    -0.176 C  
HETATM    7  C   UNL     1      -9.812  15.435  68.240  1.00  0.00    -0.213 C  
HETATM    8  C   UNL     1     -11.166  15.144  68.921  1.00  0.00    -0.292 C  
HETATM    9  C   UNL     1      -9.167  16.854  68.218  1.00  0.00    -0.241 C  
HETATM   10  C   UNL     1      -8.041  18.231  67.706  1.00  0.00    -0.256 C  
HETATM   11  C   UNL     1     -11.797  13.926  68.159  1.00  0.00    -0.407 C  
HETATM   12  C   UNL     1      -8.599  18.700  66.245  1.00  0.00    -0.232 C  
HETATM   13  C   UNL     1     -10.851  12.738  68.035  1.00  0.00    -0.254 C  
HETATM   14  C   UNL     1      -9.998  18.060  66.496  1.00  0.00    -0.371 C  
HETATM   15  C   UNL     1     -11.303  11.494  67.808  1.00  0.00    -0.364 C  
HETATM   16  C   UNL     1      -9.359  12.988  67.949  1.00  0.00    -0.212 C  
HETATM   17  O   UNL     1     -10.900  18.143  65.437  1.00  0.00    -0.556 OA 
HETATM   18  C   UNL     1     -10.358  10.354  67.579  1.00  0.00    -0.224 C  
HETATM   19  C   UNL     1      -8.587  11.818  68.574  1.00  0.00    -0.123 C  
HETATM   20  H   UNL     1     -11.437  18.920  65.331  1.00  0.00     0.000 HD 
HETATM   21  C   UNL     1      -8.863  10.594  67.742  1.00  0.00    -0.133 C  
HETATM   22  O   UNL     1     -10.797   9.277  67.224  1.00  0.00    -0.238 OA 
BRANCH  14  23
HETATM   23  C   UNL     1     -10.170  19.167  67.523  1.00  0.00    -0.493 C  
HETATM   24  C   UNL     1     -10.318  20.115  68.406  1.00  0.00    -0.401 C  
ENDBRANCH  14  23
ENDBRANCH   2   3
TORSDOF 2
ENDMDL
MODEL       21
REMARK 921   NORMALIZED FREE ENERGY PREDICTED BY IDOCK:   -5.30 KCAL/MOL
REMARK 922        TOTAL FREE ENERGY PREDICTED BY IDOCK:   -5.40 KCAL/MOL
REMARK 923 INTER-LIGAND FREE ENERGY PREDICTED BY IDOCK:   -5.92 KCAL/MOL
REMARK 924 INTRA-LIGAND FREE ENERGY PREDICTED BY IDOCK:    0.52 KCAL/MOL
REMARK 927      BINDING AFFINITY PREDICTED BY RF-SCORE:    0.00 PKD
ROOT
HETATM    1  C   UNL     1     -10.678   6.114  66.722  1.00  0.00    -0.371 C  
HETATM    2  C   UNL     1     -10.509   7.536  67.297  1.00  0.00    -0.391 C  
ENDROOT
BRANCH   2   3
HETATM    3  C   UNL     1      -9.034   8.104  67.340  1.00  0.00    -0.145 C  
HETATM    4  C   UNL     1      -8.410   7.018  68.579  1.00  0.00    -0.121 C  
HETATM    5  C   UNL     1      -9.016   7.272  69.966  1.00  0.00    -0.142 C  
HETATM    6  C   UNL     1      -9.402   8.753  70.179  1.00  0.00    -0.181 C  
HETATM    7  C   UNL     1      -9.300   9.534  68.886  1.00  0.00    -0.149 C  
HETATM    8  C   UNL     1      -9.751  11.000  69.055  1.00  0.00    -0.151 C  
HETATM    9  C   UNL     1      -8.078   9.122  68.009  1.00  0.00    -0.105 C  
HETATM   10  C   UNL     1      -6.935   8.035  67.041  1.00  0.00    -0.074 C  
HETATM   11  C   UNL     1     -11.294  10.962  69.339  1.00  0.00    -0.347 C  
HETATM   12  C   UNL     1      -7.757   7.682  65.675  1.00  0.00    -0.099 C  
HETATM   13  C   UNL     1     -11.675  10.019  70.472  1.00  0.00    -0.400 C  
HETATM   14  C   UNL     1      -8.709   8.906  65.849  1.00  0.00    -0.170 C  
HETATM   15  C   UNL     1     -12.835  10.144  71.138  1.00  0.00    -0.494 C  
HETATM   16  C   UNL     1     -10.836   8.782  70.718  1.00  0.00    -0.282 C  
HETATM   17  O   UNL     1      -9.714   9.031  64.893  1.00  0.00    -0.344 OA 
HETATM   18  C   UNL     1     -13.247   9.145  72.176  1.00  0.00    -0.458 C  
HETATM   19  C   UNL     1     -10.852   8.415  72.208  1.00  0.00    -0.422 C  
HETATM   20  H   UNL     1      -9.534   9.473  64.071  1.00  0.00     0.000 HD 
HETATM   21  C   UNL     1     -12.266   8.050  72.571  1.00  0.00    -0.294 C  
HETATM   22  O   UNL     1     -14.366   9.201  72.646  1.00  0.00    -0.561 OA 
BRANCH  14  23
HETATM   23  C   UNL     1      -7.474   9.738  65.540  1.00  0.00    -0.115 C  
HETATM   24  C   UNL     1      -6.417  10.452  65.275  1.00  0.00    -0.105 C  
ENDBRANCH  14  23
ENDBRANCH   2   3
TORSDOF 2
ENDMDL
MODEL       22
REMARK 921   NORMALIZED FREE ENERGY PREDICTED BY IDOCK:   -5.28 KCAL/MOL
REMARK 922        TOTAL FREE ENERGY PREDICTED BY IDOCK:   -5.39 KCAL/MOL
REMARK 923 INTER-LIGAND FREE ENERGY PREDICTED BY IDOCK:   -6.37 KCAL/MOL
REMARK 924 INTRA-LIGAND FREE ENERGY PREDICTED BY IDOCK:    0.99 KCAL/MOL
REMARK 927      BINDING AFFINITY PREDICTED BY RF-SCORE:    0.00 PKD
ROOT
HETATM    1  C   UNL     1     -11.021   6.266  69.054  1.00  0.00    -0.437 C  
HETATM    2  C   UNL     1     -11.754   6.692  70.344  1.00  0.00    -0.446 C  
ENDROOT
BRANCH   2   3
HETATM    3  C   UNL     1     -10.858   6.867  71.634  1.00  0.00    -0.252 C  
HETATM    4  C   UNL     1     -11.815   8.128  72.405  1.00  0.00    -0.448 C  
HETATM    5  C   UNL     1     -11.766   9.467  71.656  1.00  0.00    -0.468 C  
HETATM    6  C   UNL     1     -10.427   9.680  70.916  1.00  0.00    -0.359 C  
HETATM    7  C   UNL     1      -9.593   8.417  70.923  1.00  0.00    -0.212 C  
HETATM    8  C   UNL     1      -8.282   8.580  70.126  1.00  0.00    -0.121 C  
HETATM    9  C   UNL     1      -9.671   7.633  72.269  1.00  0.00    -0.226 C  
HETATM   10  C   UNL     1     -10.420   6.737  73.706  1.00  0.00    -0.383 C  
HETATM   11  C   UNL     1      -8.692   8.738  68.620  1.00  0.00    -0.134 C  
HETATM   12  C   UNL     1     -10.900   5.302  73.093  1.00  0.00    -0.339 C  
HETATM   13  C   UNL     1      -9.743   9.816  68.391  1.00  0.00    -0.162 C  
HETATM   14  C   UNL     1      -9.943   5.424  71.868  1.00  0.00    -0.184 C  
HETATM   15  C   UNL     1      -9.921  10.389  67.189  1.00  0.00    -0.239 C  
HETATM   16  C   UNL     1     -10.757  10.102  69.480  1.00  0.00    -0.277 C  
HETATM   17  O   UNL     1     -10.019   4.393  70.935  1.00  0.00    -0.197 OA 
HETATM   18  C   UNL     1     -11.029  11.368  66.951  1.00  0.00    -0.299 C  
HETATM   19  C   UNL     1     -11.177  11.577  69.442  1.00  0.00    -0.324 C  
HETATM   20  H   UNL     1      -9.515   3.598  71.064  1.00  0.00     0.000 HD 
HETATM   21  C   UNL     1     -11.878  11.818  68.132  1.00  0.00    -0.324 C  
HETATM   22  O   UNL     1     -11.256  11.748  65.819  1.00  0.00    -0.322 OA 
BRANCH  14  23
HETATM   23  C   UNL     1      -8.832   5.234  72.889  1.00  0.00    -0.121 C  
HETATM   24  C   UNL     1      -7.880   5.070  73.764  1.00  0.00    -0.099 C  
ENDBRANCH  14  23
ENDBRANCH   2   3
TORSDOF 2
ENDMDL
MODEL       23
REMARK 921   NORMALIZED FREE ENERGY PREDICTED BY IDOCK:   -5.22 KCAL/MOL
REMARK 922        TOTAL FREE ENERGY PREDICTED BY IDOCK:   -5.32 KCAL/MOL
REMARK 923 INTER-LIGAND FREE ENERGY PREDICTED BY IDOCK:   -5.83 KCAL/MOL
REMARK 924 INTRA-LIGAND FREE ENERGY PREDICTED BY IDOCK:    0.51 KCAL/MOL
REMARK 927      BINDING AFFINITY PREDICTED BY RF-SCORE:    0.00 PKD
ROOT
HETATM    1  C   UNL     1      -7.882   7.001  68.346  1.00  0.00    -0.122 C  
HETATM    2  C   UNL     1      -9.172   7.302  69.138  1.00  0.00    -0.139 C  
ENDROOT
BRANCH   2   3
HETATM    3  C   UNL     1      -9.535   8.827  69.334  1.00  0.00    -0.161 C  
HETATM    4  C   UNL     1      -8.223   9.232  70.437  1.00  0.00    -0.199 C  
HETATM    5  C   UNL     1      -8.364   8.570  71.814  1.00  0.00    -0.221 C  
HETATM    6  C   UNL     1      -9.840   8.351  72.214  1.00  0.00    -0.383 C  
HETATM    7  C   UNL     1     -10.768   8.631  71.051  1.00  0.00    -0.284 C  
HETATM    8  C   UNL     1     -12.244   8.349  71.403  1.00  0.00    -0.335 C  
HETATM    9  C   UNL     1     -10.325   9.851  70.187  1.00  0.00    -0.336 C  
HETATM   10  C   UNL     1      -9.239  10.918  69.133  1.00  0.00    -0.077 C  
HETATM   11  C   UNL     1     -12.366   6.798  71.602  1.00  0.00    -0.409 C  
HETATM   12  C   UNL     1      -9.181  10.153  67.692  1.00  0.00    -0.151 C  
HETATM   13  C   UNL     1     -11.336   6.231  72.570  1.00  0.00    -0.313 C  
HETATM   14  C   UNL     1     -10.482   9.345  67.989  1.00  0.00    -0.228 C  
HETATM   15  C   UNL     1     -11.518   5.052  73.188  1.00  0.00    -0.362 C  
HETATM   16  C   UNL     1      -9.980   6.898  72.680  1.00  0.00    -0.191 C  
HETATM   17  O   UNL     1     -10.861   8.429  67.012  1.00  0.00    -0.390 OA 
HETATM   18  C   UNL     1     -10.451   4.455  74.053  1.00  0.00    -0.247 C  
HETATM   19  C   UNL     1      -9.422   6.738  74.100  1.00  0.00    -0.268 C  
HETATM   20  H   UNL     1     -11.383   8.715  66.270  1.00  0.00     0.000 HD 
HETATM   21  C   UNL     1      -9.195   5.269  74.338  1.00  0.00    -0.118 C  
HETATM   22  O   UNL     1     -10.586   3.322  74.471  1.00  0.00    -0.186 OA 
BRANCH  14  23
HETATM   23  C   UNL     1     -11.183  10.689  67.863  1.00  0.00    -0.376 C  
HETATM   24  C   UNL     1     -11.785  11.840  67.754  1.00  0.00    -0.337 C  
ENDBRANCH  14  23
ENDBRANCH   2   3
TORSDOF 2
ENDMDL
MODEL       24
REMARK 921   NORMALIZED FREE ENERGY PREDICTED BY IDOCK:   -5.20 KCAL/MOL
REMARK 922        TOTAL FREE ENERGY PREDICTED BY IDOCK:   -5.30 KCAL/MOL
REMARK 923 INTER-LIGAND FREE ENERGY PREDICTED BY IDOCK:   -5.89 KCAL/MOL
REMARK 924 INTRA-LIGAND FREE ENERGY PREDICTED BY IDOCK:    0.59 KCAL/MOL
REMARK 927      BINDING AFFINITY PREDICTED BY RF-SCORE:    0.00 PKD
ROOT
HETATM    1  C   UNL     1      -8.331  13.591  68.740  1.00  0.00     0.067 C  
HETATM    2  C   UNL     1      -8.885  12.738  67.580  1.00  0.00    -0.187 C  
ENDROOT
BRANCH   2   3
HETATM    3  C   UNL     1     -10.280  13.183  66.986  1.00  0.00    -0.250 C  
HETATM    4  C   UNL     1     -11.300  12.379  68.176  1.00  0.00    -0.341 C  
HETATM    5  C   UNL     1     -11.252  10.848  68.078  1.00  0.00    -0.378 C  
HETATM    6  C   UNL     1     -10.996  10.358  66.635  1.00  0.00    -0.067 C  
HETATM    7  C   UNL     1     -10.626  11.510  65.725  1.00  0.00    -0.315 C  
HETATM    8  C   UNL     1     -10.292  11.038  64.294  1.00  0.00    -0.430 C  
HETATM    9  C   UNL     1     -11.431  12.812  66.018  1.00  0.00    -0.396 C  
HETATM   10  C   UNL     1     -12.120  14.239  66.976  1.00  0.00    -0.424 C  
HETATM   11  C   UNL     1      -8.963  10.211  64.396  1.00  0.00    -0.264 C  
HETATM   12  C   UNL     1     -10.846  15.234  67.207  1.00  0.00    -0.318 C  
HETATM   13  C   UNL     1      -9.011   9.120  65.458  1.00  0.00    -0.252 C  
HETATM   14  C   UNL     1     -10.045  14.598  66.030  1.00  0.00    -0.311 C  
HETATM   15  C   UNL     1      -8.181   8.064  65.427  1.00  0.00    -0.152 C  
HETATM   16  C   UNL     1      -9.862   9.328  66.693  1.00  0.00    -0.311 C  
HETATM   17  O   UNL     1      -8.761  15.099  65.832  1.00  0.00    -0.376 OA 
HETATM   18  C   UNL     1      -8.165   7.055  66.535  1.00  0.00    -0.114 C  
HETATM   19  C   UNL     1     -10.391   7.983  67.209  1.00  0.00    -0.371 C  
HETATM   20  H   UNL     1      -8.632  15.879  65.305  1.00  0.00     0.000 HD 
HETATM   21  C   UNL     1      -9.205   7.164  67.642  1.00  0.00    -0.127 C  
HETATM   22  O   UNL     1      -7.299   6.203  66.552  1.00  0.00    -0.078 OA 
BRANCH  14  23
HETATM   23  C   UNL     1     -11.092  15.253  65.143  1.00  0.00    -0.412 C  
HETATM   24  C   UNL     1     -11.988  15.815  64.381  1.00  0.00    -0.082 C  
ENDBRANCH  14  23
ENDBRANCH   2   3
TORSDOF 2
ENDMDL
MODEL       25
REMARK 921   NORMALIZED FREE ENERGY PREDICTED BY IDOCK:   -5.17 KCAL/MOL
REMARK 922        TOTAL FREE ENERGY PREDICTED BY IDOCK:   -5.26 KCAL/MOL
REMARK 923 INTER-LIGAND FREE ENERGY PREDICTED BY IDOCK:   -6.26 KCAL/MOL
REMARK 924 INTRA-LIGAND FREE ENERGY PREDICTED BY IDOCK:    1.00 KCAL/MOL
REMARK 927      BINDING AFFINITY PREDICTED BY RF-SCORE:    0.00 PKD
ROOT
HETATM    1  C   UNL     1      -8.258  12.727  68.062  1.00  0.00    -0.168 C  
HETATM    2  C   UNL     1      -9.016  13.792  68.884  1.00  0.00     0.146 C  
ENDROOT
BRANCH   2   3
HETATM    3  C   UNL     1     -10.194  14.541  68.144  1.00  0.00    -0.230 C  
HETATM    4  C   UNL     1     -11.177  14.878  69.567  1.00  0.00    -0.300 C  
HETATM    5  C   UNL     1     -11.786  13.617  70.193  1.00  0.00    -0.351 C  
HETATM    6  C   UNL     1     -12.068  12.515  69.146  1.00  0.00    -0.187 C  
HETATM    7  C   UNL     1     -11.458  12.869  67.806  1.00  0.00    -0.369 C  
HETATM    8  C   UNL     1     -11.661  11.751  66.762  1.00  0.00    -0.287 C  
HETATM    9  C   UNL     1     -11.573  14.383  67.455  1.00  0.00    -0.398 C  
HETATM   10  C   UNL     1     -11.391  16.217  67.634  1.00  0.00    -0.064 C  
HETATM   11  C   UNL     1     -10.802  10.529  67.243  1.00  0.00    -0.338 C  
HETATM   12  C   UNL     1      -9.803  16.501  67.381  1.00  0.00    -0.253 C  
HETATM   13  C   UNL     1     -11.069  10.137  68.691  1.00  0.00    -0.254 C  
HETATM   14  C   UNL     1      -9.606  15.144  66.640  1.00  0.00    -0.253 C  
HETATM   15  C   UNL     1     -10.775   8.913  69.159  1.00  0.00    -0.162 C  
HETATM   16  C   UNL     1     -11.475  11.208  69.683  1.00  0.00    -0.383 C  
HETATM   17  O   UNL     1      -8.303  14.858  66.238  1.00  0.00    -0.348 OA 
HETATM   18  C   UNL     1     -10.942   8.576  70.610  1.00  0.00    -0.239 C  
HETATM   19  C   UNL     1     -12.388  10.614  70.763  1.00  0.00    -0.472 C  
HETATM   20  H   UNL     1      -7.979  15.191  65.409  1.00  0.00     0.000 HD 
HETATM   21  C   UNL     1     -11.584   9.602  71.534  1.00  0.00    -0.451 C  
HETATM   22  O   UNL     1     -10.523   7.514  71.027  1.00  0.00    -0.213 OA 
BRANCH  14  23
HETATM   23  C   UNL     1     -10.451  15.774  65.545  1.00  0.00    -0.425 C  
HETATM   24  C   UNL     1     -11.177  16.315  64.606  1.00  0.00    -0.264 C  
ENDBRANCH  14  23
ENDBRANCH   2   3
TORSDOF 2
ENDMDL
MODEL       26
REMARK 921   NORMALIZED FREE ENERGY PREDICTED BY IDOCK:   -5.16 KCAL/MOL
REMARK 922        TOTAL FREE ENERGY PREDICTED BY IDOCK:   -5.25 KCAL/MOL
REMARK 923 INTER-LIGAND FREE ENERGY PREDICTED BY IDOCK:   -5.78 KCAL/MOL
REMARK 924 INTRA-LIGAND FREE ENERGY PREDICTED BY IDOCK:    0.52 KCAL/MOL
REMARK 927      BINDING AFFINITY PREDICTED BY RF-SCORE:    0.00 PKD
ROOT
HETATM    1  C   UNL     1     -11.610  13.349  69.800  1.00  0.00    -0.305 C  
HETATM    2  C   UNL     1     -11.143  14.043  68.504  1.00  0.00    -0.279 C  
ENDROOT
BRANCH   2   3
HETATM    3  C   UNL     1     -10.124  13.237  67.604  1.00  0.00    -0.229 C  
HETATM    4  C   UNL     1      -8.695  13.485  68.604  1.00  0.00    -0.001 C  
HETATM    5  C   UNL     1      -8.210  14.940  68.616  1.00  0.00    -0.157 C  
HETATM    6  C   UNL     1      -8.520  15.676  67.293  1.00  0.00    -0.214 C  
HETATM    7  C   UNL     1      -9.428  14.848  66.409  1.00  0.00    -0.327 C  
HETATM    8  C   UNL     1      -9.813  15.591  65.112  1.00  0.00    -0.086 C  
HETATM    9  C   UNL     1      -9.102  13.324  66.443  1.00  0.00    -0.062 C  
HETATM   10  C   UNL     1      -8.814  11.634  67.143  1.00  0.00    -0.172 C  
HETATM   11  C   UNL     1     -10.721  16.796  65.542  1.00  0.00    -0.206 C  
HETATM   12  C   UNL     1     -10.298  11.105  67.571  1.00  0.00    -0.228 C  
HETATM   13  C   UNL     1     -10.104  17.656  66.637  1.00  0.00    -0.335 C  
HETATM   14  C   UNL     1     -11.010  12.124  66.630  1.00  0.00    -0.282 C  
HETATM   15  C   UNL     1     -10.495  18.923  66.848  1.00  0.00    -0.496 C  
HETATM   16  C   UNL     1      -9.183  17.010  67.652  1.00  0.00    -0.233 C  
HETATM   17  O   UNL     1     -12.402  12.117  66.673  1.00  0.00    -0.453 OA 
HETATM   18  C   UNL     1      -9.958  19.721  67.997  1.00  0.00    -0.433 C  
HETATM   19  C   UNL     1      -8.129  18.016  68.131  1.00  0.00    -0.276 C  
HETATM   20  H   UNL     1     -12.890  11.503  66.136  1.00  0.00     0.000 HD 
HETATM   21  C   UNL     1      -8.850  19.123  68.853  1.00  0.00    -0.319 C  
HETATM   22  O   UNL     1     -10.445  20.805  68.249  1.00  0.00     0.054 OA 
BRANCH  14  23
HETATM   23  C   UNL     1     -10.436  11.279  65.504  1.00  0.00    -0.323 C  
HETATM   24  C   UNL     1      -9.944  10.553  64.539  1.00  0.00    -0.413 C  
ENDBRANCH  14  23
ENDBRANCH   2   3
TORSDOF 2
ENDMDL
MODEL       27
REMARK 921   NORMALIZED FREE ENERGY PREDICTED BY IDOCK:   -5.14 KCAL/MOL
REMARK 922        TOTAL FREE ENERGY PREDICTED BY IDOCK:   -5.23 KCAL/MOL
REMARK 923 INTER-LIGAND FREE ENERGY PREDICTED BY IDOCK:   -5.75 KCAL/MOL
REMARK 924 INTRA-LIGAND FREE ENERGY PREDICTED BY IDOCK:    0.51 KCAL/MOL
REMARK 927      BINDING AFFINITY PREDICTED BY RF-SCORE:    0.00 PKD
ROOT
HETATM    1  C   UNL     1      -8.292   9.499  64.688  1.00  0.00    -0.161 C  
HETATM    2  C   UNL     1      -8.305  10.711  65.642  1.00  0.00    -0.162 C  
ENDROOT
BRANCH   2   3
HETATM    3  C   UNL     1      -8.391  10.387  67.187  1.00  0.00    -0.126 C  
HETATM    4  C   UNL     1     -10.070   9.857  67.214  1.00  0.00    -0.264 C  
HETATM    5  C   UNL     1     -11.067  10.994  66.952  1.00  0.00    -0.280 C  
HETATM    6  C   UNL     1     -10.547  12.361  67.450  1.00  0.00    -0.237 C  
HETATM    7  C   UNL     1      -9.092  12.274  67.859  1.00  0.00    -0.190 C  
HETATM    8  C   UNL     1      -8.526  13.643  68.291  1.00  0.00    -0.170 C  
HETATM    9  C   UNL     1      -8.734  10.945  68.591  1.00  0.00    -0.154 C  
HETATM   10  C   UNL     1      -8.569   9.124  68.882  1.00  0.00    -0.131 C  
HETATM   11  C   UNL     1      -8.490  14.538  67.003  1.00  0.00    -0.222 C  
HETATM   12  C   UNL     1      -7.352   8.656  67.898  1.00  0.00    -0.092 C  
HETATM   13  C   UNL     1      -9.818  14.577  66.259  1.00  0.00    -0.322 C  
HETATM   14  C   UNL     1      -6.796  10.109  67.780  1.00  0.00    -0.075 C  
HETATM   15  C   UNL     1     -10.124  15.570  65.408  1.00  0.00    -0.387 C  
HETATM   16  C   UNL     1     -10.728  13.367  66.308  1.00  0.00    -0.290 C  
HETATM   17  O   UNL     1      -5.701  10.270  66.934  1.00  0.00    -0.045 OA 
HETATM   18  C   UNL     1     -11.387  15.540  64.600  1.00  0.00    -0.357 C  
HETATM   19  C   UNL     1     -12.197  13.801  66.209  1.00  0.00    -0.489 C  
HETATM   20  H   UNL     1      -4.822  10.116  67.261  1.00  0.00     0.000 HD 
HETATM   21  C   UNL     1     -12.396  14.430  64.856  1.00  0.00    -0.414 C  
HETATM   22  O   UNL     1     -11.558  16.372  63.731  1.00  0.00    -1.055 OA 
BRANCH  14  23
HETATM   23  C   UNL     1      -6.410   9.935  69.240  1.00  0.00    -0.044 C  
HETATM   24  C   UNL     1      -6.081   9.787  70.493  1.00  0.00    -0.078 C  
ENDBRANCH  14  23
ENDBRANCH   2   3
TORSDOF 2
ENDMDL
MODEL       28
REMARK 921   NORMALIZED FREE ENERGY PREDICTED BY IDOCK:   -5.13 KCAL/MOL
REMARK 922        TOTAL FREE ENERGY PREDICTED BY IDOCK:   -5.22 KCAL/MOL
REMARK 923 INTER-LIGAND FREE ENERGY PREDICTED BY IDOCK:   -5.75 KCAL/MOL
REMARK 924 INTRA-LIGAND FREE ENERGY PREDICTED BY IDOCK:    0.53 KCAL/MOL
REMARK 927      BINDING AFFINITY PREDICTED BY RF-SCORE:    0.00 PKD
ROOT
HETATM    1  C   UNL     1      -8.153  13.483  68.513  1.00  0.00    -0.108 C  
HETATM    2  C   UNL     1      -8.884  12.144  68.280  1.00  0.00    -0.182 C  
ENDROOT
BRANCH   2   3
HETATM    3  C   UNL     1     -10.286  12.228  67.556  1.00  0.00    -0.212 C  
HETATM    4  C   UNL     1     -11.224  12.782  68.940  1.00  0.00    -0.332 C  
HETATM    5  C   UNL     1     -11.363  11.720  70.039  1.00  0.00    -0.130 C  
HETATM    6  C   UNL     1     -11.358  10.282  69.474  1.00  0.00    -0.299 C  
HETATM    7  C   UNL     1     -10.983  10.274  68.007  1.00  0.00    -0.345 C  
HETATM    8  C   UNL     1     -10.897   8.844  67.436  1.00  0.00    -0.096 C  
HETATM    9  C   UNL     1     -11.590  11.467  67.208  1.00  0.00    -0.280 C  
HETATM   10  C   UNL     1     -11.979  13.218  66.746  1.00  0.00    -0.438 C  
HETATM   11  C   UNL     1      -9.668   8.158  68.130  1.00  0.00    -0.180 C  
HETATM   12  C   UNL     1     -10.581  13.806  66.141  1.00  0.00    -0.291 C  
HETATM   13  C   UNL     1      -9.700   8.262  69.649  1.00  0.00    -0.173 C  
HETATM   14  C   UNL     1     -10.021  12.378  65.859  1.00  0.00    -0.255 C  
HETATM   15  C   UNL     1      -9.005   7.419  70.431  1.00  0.00    -0.150 C  
HETATM   16  C   UNL     1     -10.350   9.469  70.294  1.00  0.00    -0.321 C  
HETATM   17  O   UNL     1      -8.726  12.327  65.350  1.00  0.00    -0.095 OA 
HETATM   18  C   UNL     1      -8.958   7.599  71.918  1.00  0.00    -0.120 C  
HETATM   19  C   UNL     1     -10.955   9.086  71.651  1.00  0.00    -0.435 C  
HETATM   20  H   UNL     1      -8.579  12.410  64.414  1.00  0.00     0.000 HD 
HETATM   21  C   UNL     1      -9.823   8.678  72.555  1.00  0.00    -0.268 C  
HETATM   22  O   UNL     1      -8.200   6.915  72.577  1.00  0.00    -0.106 OA 
BRANCH  14  23
HETATM   23  C   UNL     1     -11.094  12.317  64.784  1.00  0.00    -0.356 C  
HETATM   24  C   UNL     1     -12.014  12.264  63.862  1.00  0.00    -0.582 C  
ENDBRANCH  14  23
ENDBRANCH   2   3
TORSDOF 2
ENDMDL
MODEL       29
REMARK 921   NORMALIZED FREE ENERGY PREDICTED BY IDOCK:   -5.12 KCAL/MOL
REMARK 922        TOTAL FREE ENERGY PREDICTED BY IDOCK:   -5.21 KCAL/MOL
REMARK 923 INTER-LIGAND FREE ENERGY PREDICTED BY IDOCK:   -5.82 KCAL/MOL
REMARK 924 INTRA-LIGAND FREE ENERGY PREDICTED BY IDOCK:    0.61 KCAL/MOL
REMARK 927      BINDING AFFINITY PREDICTED BY RF-SCORE:    0.00 PKD
ROOT
HETATM    1  C   UNL     1     -12.255  13.442  69.879  1.00  0.00    -0.337 C  
HETATM    2  C   UNL     1     -11.041  12.941  69.070  1.00  0.00    -0.284 C  
ENDROOT
BRANCH   2   3
HETATM    3  C   UNL     1     -10.546  13.876  67.896  1.00  0.00    -0.248 C  
HETATM    4  C   UNL     1     -11.662  13.298  66.661  1.00  0.00    -0.425 C  
HETATM    5  C   UNL     1     -11.380  11.857  66.218  1.00  0.00    -0.394 C  
HETATM    6  C   UNL     1      -9.881  11.491  66.319  1.00  0.00    -0.245 C  
HETATM    7  C   UNL     1      -9.106  12.568  67.046  1.00  0.00    -0.213 C  
HETATM    8  C   UNL     1      -7.620  12.194  67.226  1.00  0.00    -0.156 C  
HETATM    9  C   UNL     1      -9.576  14.013  66.696  1.00  0.00    -0.299 C  
HETATM   10  C   UNL     1     -10.718  15.456  66.490  1.00  0.00    -0.308 C  
HETATM   11  C   UNL     1      -7.582  10.982  68.221  1.00  0.00    -0.106 C  
HETATM   12  C   UNL     1     -11.029  15.958  68.012  1.00  0.00    -0.336 C  
HETATM   13  C   UNL     1      -8.506   9.841  67.816  1.00  0.00    -0.121 C  
HETATM   14  C   UNL     1      -9.760  15.250  68.580  1.00  0.00    -0.211 C  
HETATM   15  C   UNL     1      -8.324   8.588  68.266  1.00  0.00    -0.124 C  
HETATM   16  C   UNL     1      -9.782  10.156  67.064  1.00  0.00    -0.224 C  
HETATM   17  O   UNL     1      -9.585  15.336  69.958  1.00  0.00    -0.458 OA 
HETATM   18  C   UNL     1      -9.302   7.499  67.948  1.00  0.00    -0.138 C  
HETATM   19  C   UNL     1     -10.149   8.996  66.128  1.00  0.00    -0.242 C  
HETATM   20  H   UNL     1      -9.152  16.094  70.335  1.00  0.00     0.000 HD 
HETATM   21  C   UNL     1     -10.445   7.795  66.986  1.00  0.00    -0.419 C  
HETATM   22  O   UNL     1      -9.192   6.420  68.496  1.00  0.00    -0.126 OA 
BRANCH  14  23
HETATM   23  C   UNL     1      -8.990  16.307  67.806  1.00  0.00    -0.193 C  
HETATM   24  C   UNL     1      -8.330  17.215  67.142  1.00  0.00    -0.216 C  
ENDBRANCH  14  23
ENDBRANCH   2   3
TORSDOF 2
ENDMDL
MODEL       30
REMARK 921   NORMALIZED FREE ENERGY PREDICTED BY IDOCK:   -5.07 KCAL/MOL
REMARK 922        TOTAL FREE ENERGY PREDICTED BY IDOCK:   -5.14 KCAL/MOL
REMARK 923 INTER-LIGAND FREE ENERGY PREDICTED BY IDOCK:   -5.66 KCAL/MOL
REMARK 924 INTRA-LIGAND FREE ENERGY PREDICTED BY IDOCK:    0.51 KCAL/MOL
REMARK 927      BINDING AFFINITY PREDICTED BY RF-SCORE:    0.00 PKD
ROOT
HETATM    1  C   UNL     1     -12.208  13.232  64.332  1.00  0.00    -0.449 C  
HETATM    2  C   UNL     1     -10.875  13.406  65.090  1.00  0.00    -0.322 C  
ENDROOT
BRANCH   2   3
HETATM    3  C   UNL     1     -10.212  12.087  65.655  1.00  0.00    -0.284 C  
HETATM    4  C   UNL     1     -11.366  11.792  66.953  1.00  0.00    -0.386 C  
HETATM    5  C   UNL     1     -11.291  12.834  68.077  1.00  0.00    -0.335 C  
HETATM    6  C   UNL     1      -9.868  13.411  68.252  1.00  0.00    -0.235 C  
HETATM    7  C   UNL     1      -8.961  12.975  67.121  1.00  0.00    -0.223 C  
HETATM    8  C   UNL     1      -7.553  13.598  67.233  1.00  0.00    -0.073 C  
HETATM    9  C   UNL     1      -9.198  11.502  66.670  1.00  0.00    -0.194 C  
HETATM   10  C   UNL     1     -10.104  10.007  66.060  1.00  0.00    -0.318 C  
HETATM   11  C   UNL     1      -7.726  15.139  66.990  1.00  0.00    -0.158 C  
HETATM   12  C   UNL     1     -10.379  10.307  64.478  1.00  0.00     0.009 C  
HETATM   13  C   UNL     1      -8.799  15.770  67.867  1.00  0.00    -0.175 C  
HETATM   14  C   UNL     1      -9.248  11.379  64.413  1.00  0.00     0.023 C  
HETATM   15  C   UNL     1      -8.821  17.089  68.121  1.00  0.00    -0.227 C  
HETATM   16  C   UNL     1      -9.992  14.937  68.290  1.00  0.00    -0.222 C  
HETATM   17  O   UNL     1      -9.102  12.030  63.190  1.00  0.00    -0.654 OA 
HETATM   18  C   UNL     1      -9.942  17.713  68.894  1.00  0.00    -0.324 C  
HETATM   19  C   UNL     1     -10.502  15.396  69.662  1.00  0.00    -0.286 C  
HETATM   20  H   UNL     1      -8.571  11.639  62.505  1.00  0.00     0.000 HD 
HETATM   21  C   UNL     1     -10.999  16.809  69.514  1.00  0.00    -0.158 C  
HETATM   22  O   UNL     1     -10.010  18.924  68.973  1.00  0.00    -0.392 OA 
BRANCH  14  23
HETATM   23  C   UNL     1      -8.306  10.199  64.585  1.00  0.00    -0.167 C  
HETATM   24  C   UNL     1      -7.497   9.187  64.734  1.00  0.00    -0.106 C  
ENDBRANCH  14  23
ENDBRANCH   2   3
TORSDOF 2
ENDMDL
MODEL       31
REMARK 921   NORMALIZED FREE ENERGY PREDICTED BY IDOCK:   -5.06 KCAL/MOL
REMARK 922        TOTAL FREE ENERGY PREDICTED BY IDOCK:   -5.14 KCAL/MOL
REMARK 923 INTER-LIGAND FREE ENERGY PREDICTED BY IDOCK:   -5.68 KCAL/MOL
REMARK 924 INTRA-LIGAND FREE ENERGY PREDICTED BY IDOCK:    0.54 KCAL/MOL
REMARK 927      BINDING AFFINITY PREDICTED BY RF-SCORE:    0.00 PKD
ROOT
HETATM    1  C   UNL     1     -11.646   9.630  71.522  1.00  0.00    -0.451 C  
HETATM    2  C   UNL     1     -11.076   9.374  70.111  1.00  0.00    -0.277 C  
ENDROOT
BRANCH   2   3
HETATM    3  C   UNL     1     -10.008   8.215  69.985  1.00  0.00    -0.192 C  
HETATM    4  C   UNL     1      -8.631   9.107  70.627  1.00  0.00    -0.266 C  
HETATM    5  C   UNL     1      -8.159  10.238  69.703  1.00  0.00    -0.157 C  
HETATM    6  C   UNL     1      -8.411   9.924  68.211  1.00  0.00    -0.111 C  
HETATM    7  C   UNL     1      -9.269   8.686  68.052  1.00  0.00    -0.147 C  
HETATM    8  C   UNL     1      -9.597   8.392  66.573  1.00  0.00    -0.304 C  
HETATM    9  C   UNL     1      -8.932   7.564  69.081  1.00  0.00    -0.135 C  
HETATM   10  C   UNL     1      -8.664   6.748  70.721  1.00  0.00    -0.146 C  
HETATM   11  C   UNL     1     -10.535   9.552  66.085  1.00  0.00    -0.077 C  
HETATM   12  C   UNL     1     -10.162   6.569  71.344  1.00  0.00    -0.221 C  
HETATM   13  C   UNL     1      -9.978  10.940  66.375  1.00  0.00    -0.266 C  
HETATM   14  C   UNL     1     -10.837   6.704  69.944  1.00  0.00    -0.278 C  
HETATM   15  C   UNL     1     -10.390  12.024  65.697  1.00  0.00    -0.288 C  
HETATM   16  C   UNL     1      -9.102  11.144  67.594  1.00  0.00    -0.147 C  
HETATM   17  O   UNL     1     -12.229   6.674  69.938  1.00  0.00    -0.598 OA 
HETATM   18  C   UNL     1      -9.916  13.397  66.065  1.00  0.00    -0.293 C  
HETATM   19  C   UNL     1      -8.081  12.259  67.334  1.00  0.00    -0.175 C  
HETATM   20  H   UNL     1     -12.686   5.841  69.916  1.00  0.00     0.000 HD 
HETATM   21  C   UNL     1      -8.846  13.541  67.139  1.00  0.00    -0.231 C  
HETATM   22  O   UNL     1     -10.424  14.365  65.535  1.00  0.00    -0.310 OA 
BRANCH  14  23
HETATM   23  C   UNL     1     -10.202   5.352  69.659  1.00  0.00    -0.345 C  
HETATM   24  C   UNL     1      -9.660   4.192  69.415  1.00  0.00    -0.265 C  
ENDBRANCH  14  23
ENDBRANCH   2   3
TORSDOF 2
ENDMDL
MODEL       32
REMARK 921   NORMALIZED FREE ENERGY PREDICTED BY IDOCK:   -5.06 KCAL/MOL
REMARK 922        TOTAL FREE ENERGY PREDICTED BY IDOCK:   -5.14 KCAL/MOL
REMARK 923 INTER-LIGAND FREE ENERGY PREDICTED BY IDOCK:   -5.67 KCAL/MOL
REMARK 924 INTRA-LIGAND FREE ENERGY PREDICTED BY IDOCK:    0.54 KCAL/MOL
REMARK 927      BINDING AFFINITY PREDICTED BY RF-SCORE:    0.00 PKD
ROOT
HETATM    1  C   UNL     1     -10.773   7.262  67.821  1.00  0.00    -0.267 C  
HETATM    2  C   UNL     1     -10.261   8.235  66.738  1.00  0.00    -0.375 C  
ENDROOT
BRANCH   2   3
HETATM    3  C   UNL     1      -8.697   8.268  66.507  1.00  0.00    -0.157 C  
HETATM    4  C   UNL     1      -8.282   9.246  67.913  1.00  0.00    -0.115 C  
HETATM    5  C   UNL     1      -8.770  10.696  67.806  1.00  0.00    -0.129 C  
HETATM    6  C   UNL     1      -8.816  11.197  66.345  1.00  0.00    -0.182 C  
HETATM    7  C   UNL     1      -8.592  10.059  65.372  1.00  0.00    -0.162 C  
HETATM    8  C   UNL     1      -8.706  10.518  63.903  1.00  0.00    -0.176 C  
HETATM    9  C   UNL     1      -7.520   9.035  65.855  1.00  0.00    -0.094 C  
HETATM   10  C   UNL     1      -6.675   7.806  66.953  1.00  0.00    -0.067 C  
HETATM   11  C   UNL     1     -10.209  10.905  63.672  1.00  0.00    -0.395 C  
HETATM   12  C   UNL     1      -7.602   6.465  66.862  1.00  0.00    -0.095 C  
HETATM   13  C   UNL     1     -10.747  11.879  64.713  1.00  0.00    -0.356 C  
HETATM   14  C   UNL     1      -8.257   6.923  65.523  1.00  0.00    -0.135 C  
HETATM   15  C   UNL     1     -11.828  12.641  64.478  1.00  0.00    -0.441 C  
HETATM   16  C   UNL     1     -10.189  11.838  66.121  1.00  0.00    -0.255 C  
HETATM   17  O   UNL     1      -9.243   6.082  65.014  1.00  0.00    -0.351 OA 
HETATM   18  C   UNL     1     -12.411  13.513  65.547  1.00  0.00    -0.491 C  
HETATM   19  C   UNL     1     -10.233  13.236  66.751  1.00  0.00    -0.254 C  
HETATM   20  H   UNL     1      -9.000   5.340  64.471  1.00  0.00     0.000 HD 
HETATM   21  C   UNL     1     -11.680  13.634  66.877  1.00  0.00    -0.423 C  
HETATM   22  O   UNL     1     -13.474  14.068  65.350  1.00  0.00    -0.679 OA 
BRANCH  14  23
HETATM   23  C   UNL     1      -6.883   6.675  64.923  1.00  0.00    -0.050 C  
HETATM   24  C   UNL     1      -5.704   6.462  64.409  1.00  0.00    -0.022 C  
ENDBRANCH  14  23
ENDBRANCH   2   3
TORSDOF 2
ENDMDL
MODEL       33
REMARK 921   NORMALIZED FREE ENERGY PREDICTED BY IDOCK:   -5.04 KCAL/MOL
REMARK 922        TOTAL FREE ENERGY PREDICTED BY IDOCK:   -5.12 KCAL/MOL
REMARK 923 INTER-LIGAND FREE ENERGY PREDICTED BY IDOCK:   -5.63 KCAL/MOL
REMARK 924 INTRA-LIGAND FREE ENERGY PREDICTED BY IDOCK:    0.51 KCAL/MOL
REMARK 927      BINDING AFFINITY PREDICTED BY RF-SCORE:    0.00 PKD
ROOT
HETATM    1  C   UNL     1     -11.197  11.298  64.777  1.00  0.00    -0.128 C  
HETATM    2  C   UNL     1     -11.352  11.815  66.222  1.00  0.00    -0.350 C  
ENDROOT
BRANCH   2   3
HETATM    3  C   UNL     1     -10.485  13.078  66.612  1.00  0.00    -0.271 C  
HETATM    4  C   UNL     1      -8.918  12.275  66.646  1.00  0.00    -0.189 C  
HETATM    5  C   UNL     1      -8.776  11.275  67.802  1.00  0.00    -0.134 C  
HETATM    6  C   UNL     1      -9.605  11.684  69.040  1.00  0.00     0.095 C  
HETATM    7  C   UNL     1     -10.527  12.841  68.721  1.00  0.00    -0.179 C  
HETATM    8  C   UNL     1     -11.420  13.222  69.921  1.00  0.00    -0.170 C  
HETATM    9  C   UNL     1      -9.884  13.903  67.777  1.00  0.00    -0.237 C  
HETATM   10  C   UNL     1      -9.049  14.604  66.281  1.00  0.00    -0.196 C  
HETATM   11  C   UNL     1     -12.404  12.021  70.144  1.00  0.00    -0.230 C  
HETATM   12  C   UNL     1     -10.196  14.585  65.120  1.00  0.00    -0.420 C  
HETATM   13  C   UNL     1     -11.699  10.674  70.246  1.00  0.00    -0.433 C  
HETATM   14  C   UNL     1     -11.352  14.500  66.164  1.00  0.00    -0.348 C  
HETATM   15  C   UNL     1     -12.277   9.615  70.835  1.00  0.00    -0.368 C  
HETATM   16  C   UNL     1     -10.408  10.457  69.482  1.00  0.00    -0.264 C  
HETATM   17  O   UNL     1     -12.636  14.395  65.638  1.00  0.00    -0.408 OA 
HETATM   18  C   UNL     1     -11.618   8.269  70.832  1.00  0.00    -0.262 C  
HETATM   19  C   UNL     1      -9.505   9.471  70.235  1.00  0.00    -0.307 C  
HETATM   20  H   UNL     1     -13.114  15.179  65.391  1.00  0.00     0.000 HD 
HETATM   21  C   UNL     1     -10.209   8.142  70.269  1.00  0.00    -0.200 C  
HETATM   22  O   UNL     1     -12.235   7.302  71.235  1.00  0.00    -0.321 OA 
BRANCH  14  23
HETATM   23  C   UNL     1     -10.957  15.926  66.514  1.00  0.00    -0.121 C  
HETATM   24  C   UNL     1     -10.617  17.148  66.814  1.00  0.00    -0.192 C  
ENDBRANCH  14  23
ENDBRANCH   2   3
TORSDOF 2
ENDMDL
MODEL       34
REMARK 921   NORMALIZED FREE ENERGY PREDICTED BY IDOCK:   -5.02 KCAL/MOL
REMARK 922        TOTAL FREE ENERGY PREDICTED BY IDOCK:   -5.10 KCAL/MOL
REMARK 923 INTER-LIGAND FREE ENERGY PREDICTED BY IDOCK:   -6.08 KCAL/MOL
REMARK 924 INTRA-LIGAND FREE ENERGY PREDICTED BY IDOCK:    0.98 KCAL/MOL
REMARK 927      BINDING AFFINITY PREDICTED BY RF-SCORE:    0.00 PKD
ROOT
HETATM    1  C   UNL     1     -11.194  15.026  69.110  1.00  0.00    -0.293 C  
HETATM    2  C   UNL     1     -11.588  15.876  67.883  1.00  0.00    -0.109 C  
ENDROOT
BRANCH   2   3
HETATM    3  C   UNL     1     -10.462  16.813  67.288  1.00  0.00    -0.310 C  
HETATM    4  C   UNL     1     -10.906  16.650  65.591  1.00  0.00    -0.142 C  
HETATM    5  C   UNL     1     -10.647  15.245  65.031  1.00  0.00    -0.444 C  
HETATM    6  C   UNL     1      -9.452  14.547  65.719  1.00  0.00    -0.158 C  
HETATM    7  C   UNL     1      -8.987  15.330  66.928  1.00  0.00    -0.274 C  
HETATM    8  C   UNL     1      -7.842  14.616  67.678  1.00  0.00    -0.196 C  
HETATM    9  C   UNL     1      -9.024  16.874  66.717  1.00  0.00    -0.264 C  
HETATM   10  C   UNL     1      -9.711  18.548  66.327  1.00  0.00    -0.315 C  
HETATM   11  C   UNL     1      -8.459  13.315  68.300  1.00  0.00    -0.160 C  
HETATM   12  C   UNL     1     -10.649  18.920  67.611  1.00  0.00    -0.501 C  
HETATM   13  C   UNL     1      -9.218  12.465  67.289  1.00  0.00    -0.187 C  
HETATM   14  C   UNL     1      -9.926  17.885  68.527  1.00  0.00    -0.379 C  
HETATM   15  C   UNL     1      -9.452  11.158  67.496  1.00  0.00    -0.178 C  
HETATM   16  C   UNL     1      -9.912  13.143  66.126  1.00  0.00    -0.291 C  
HETATM   17  O   UNL     1     -10.432  17.763  69.819  1.00  0.00    -0.217 OA 
HETATM   18  C   UNL     1     -10.292  10.359  66.548  1.00  0.00    -0.224 C  
HETATM   19  C   UNL     1      -9.934  12.215  64.905  1.00  0.00    -0.235 C  
HETATM   20  H   UNL     1     -10.137  18.355  70.502  1.00  0.00     0.000 HD 
HETATM   21  C   UNL     1     -10.771  11.015  65.260  1.00  0.00    -0.234 C  
HETATM   22  O   UNL     1     -10.611   9.225  66.844  1.00  0.00    -0.236 OA 
BRANCH  14  23
HETATM   23  C   UNL     1      -8.740  18.830  68.430  1.00  0.00    -0.369 C  
HETATM   24  C   UNL     1      -7.722  19.640  68.345  1.00  0.00    -0.366 C  
ENDBRANCH  14  23
ENDBRANCH   2   3
TORSDOF 2
ENDMDL
MODEL       35
REMARK 921   NORMALIZED FREE ENERGY PREDICTED BY IDOCK:   -4.94 KCAL/MOL
REMARK 922        TOTAL FREE ENERGY PREDICTED BY IDOCK:   -5.00 KCAL/MOL
REMARK 923 INTER-LIGAND FREE ENERGY PREDICTED BY IDOCK:   -5.52 KCAL/MOL
REMARK 924 INTRA-LIGAND FREE ENERGY PREDICTED BY IDOCK:    0.51 KCAL/MOL
REMARK 927      BINDING AFFINITY PREDICTED BY RF-SCORE:    0.00 PKD
ROOT
HETATM    1  C   UNL     1      -9.804  10.176  64.871  1.00  0.00    -0.390 C  
HETATM    2  C   UNL     1     -10.307  10.344  66.320  1.00  0.00    -0.270 C  
ENDROOT
BRANCH   2   3
HETATM    3  C   UNL     1      -9.966  11.716  67.027  1.00  0.00    -0.226 C  
HETATM    4  C   UNL     1      -8.239  11.441  67.235  1.00  0.00    -0.150 C  
HETATM    5  C   UNL     1      -7.921  10.336  68.251  1.00  0.00    -0.106 C  
HETATM    6  C   UNL     1      -8.988  10.233  69.364  1.00  0.00    -0.190 C  
HETATM    7  C   UNL     1     -10.194  11.089  69.042  1.00  0.00    -0.217 C  
HETATM    8  C   UNL     1     -11.307  10.947  70.102  1.00  0.00    -0.367 C  
HETATM    9  C   UNL     1      -9.826  12.453  68.382  1.00  0.00    -0.198 C  
HETATM   10  C   UNL     1      -9.089  13.642  67.170  1.00  0.00    -0.241 C  
HETATM   11  C   UNL     1     -11.856   9.482  69.979  1.00  0.00     0.053 C  
HETATM   12  C   UNL     1     -10.008  13.488  65.829  1.00  0.00    -0.266 C  
HETATM   13  C   UNL     1     -10.762   8.423  70.024  1.00  0.00    -0.236 C  
HETATM   14  C   UNL     1     -11.192  12.861  66.627  1.00  0.00    -0.304 C  
HETATM   15  C   UNL     1     -11.025   7.147  70.350  1.00  0.00    -0.290 C  
HETATM   16  C   UNL     1      -9.387   8.758  69.483  1.00  0.00    -0.157 C  
HETATM   17  O   UNL     1     -12.291  12.466  65.868  1.00  0.00    -0.638 OA 
HETATM   18  C   UNL     1      -9.961   6.093  70.284  1.00  0.00    -0.183 C  
HETATM   19  C   UNL     1      -8.310   7.975  70.246  1.00  0.00    -0.125 C  
HETATM   20  H   UNL     1     -12.966  13.098  65.647  1.00  0.00     0.000 HD 
HETATM   21  C   UNL     1      -8.531   6.512  69.972  1.00  0.00    -0.135 C  
HETATM   22  O   UNL     1     -10.267   4.927  70.435  1.00  0.00    -0.247 OA 
BRANCH  14  23
HETATM   23  C   UNL     1     -11.342  14.247  67.232  1.00  0.00    -0.350 C  
HETATM   24  C   UNL     1     -11.471  15.437  67.750  1.00  0.00    -0.284 C  
ENDBRANCH  14  23
ENDBRANCH   2   3
TORSDOF 2
ENDMDL
MODEL       36
REMARK 921   NORMALIZED FREE ENERGY PREDICTED BY IDOCK:   -4.92 KCAL/MOL
REMARK 922        TOTAL FREE ENERGY PREDICTED BY IDOCK:   -4.99 KCAL/MOL
REMARK 923 INTER-LIGAND FREE ENERGY PREDICTED BY IDOCK:   -5.51 KCAL/MOL
REMARK 924 INTRA-LIGAND FREE ENERGY PREDICTED BY IDOCK:    0.52 KCAL/MOL
REMARK 927      BINDING AFFINITY PREDICTED BY RF-SCORE:    0.00 PKD
ROOT
HETATM    1  C   UNL     1     -12.547  11.968  63.387  1.00  0.00    -0.592 C  
HETATM    2  C   UNL     1     -11.961  11.725  64.794  1.00  0.00    -0.116 C  
ENDROOT
BRANCH   2   3
HETATM    3  C   UNL     1     -10.988  12.839  65.351  1.00  0.00    -0.313 C  
HETATM    4  C   UNL     1      -9.585  12.424  64.369  1.00  0.00     0.135 C  
HETATM    5  C   UNL     1      -8.962  11.073  64.745  1.00  0.00    -0.101 C  
HETATM    6  C   UNL     1      -9.143  10.736  66.242  1.00  0.00    -0.192 C  
HETATM    7  C   UNL     1     -10.089  11.711  66.909  1.00  0.00    -0.238 C  
HETATM    8  C   UNL     1     -10.346  11.353  68.388  1.00  0.00    -0.209 C  
HETATM    9  C   UNL     1      -9.914  13.179  66.415  1.00  0.00    -0.282 C  
HETATM   10  C   UNL     1      -9.821  14.607  65.239  1.00  0.00    -0.228 C  
HETATM   11  C   UNL     1     -11.151  10.006  68.388  1.00  0.00    -0.236 C  
HETATM   12  C   UNL     1     -11.366  14.866  64.779  1.00  0.00    -0.400 C  
HETATM   13  C   UNL     1     -10.499   8.915  67.547  1.00  0.00    -0.337 C  
HETATM   14  C   UNL     1     -11.936  14.113  66.020  1.00  0.00    -0.413 C  
HETATM   15  C   UNL     1     -10.774   7.614  67.738  1.00  0.00    -0.215 C  
HETATM   16  C   UNL     1      -9.689   9.307  66.329  1.00  0.00    -0.340 C  
HETATM   17  O   UNL     1     -13.322  13.996  66.072  1.00  0.00    -0.496 OA 
HETATM   18  C   UNL     1     -10.211   6.560  66.835  1.00  0.00    -0.215 C  
HETATM   19  C   UNL     1      -8.563   8.292  66.090  1.00  0.00    -0.156 C  
HETATM   20  H   UNL     1     -13.845  14.699  66.441  1.00  0.00     0.000 HD 
HETATM   21  C   UNL     1      -9.204   6.968  65.769  1.00  0.00     0.089 C  
HETATM   22  O   UNL     1     -10.602   5.414  66.940  1.00  0.00    -0.264 OA 
BRANCH  14  23
HETATM   23  C   UNL     1     -11.400  15.295  66.813  1.00  0.00    -0.183 C  
HETATM   24  C   UNL     1     -10.939  16.309  67.491  1.00  0.00    -0.207 C  
ENDBRANCH  14  23
ENDBRANCH   2   3
TORSDOF 2
ENDMDL
MODEL       37
REMARK 921   NORMALIZED FREE ENERGY PREDICTED BY IDOCK:   -4.92 KCAL/MOL
REMARK 922        TOTAL FREE ENERGY PREDICTED BY IDOCK:   -4.98 KCAL/MOL
REMARK 923 INTER-LIGAND FREE ENERGY PREDICTED BY IDOCK:   -5.62 KCAL/MOL
REMARK 924 INTRA-LIGAND FREE ENERGY PREDICTED BY IDOCK:    0.64 KCAL/MOL
REMARK 927      BINDING AFFINITY PREDICTED BY RF-SCORE:    0.00 PKD
ROOT
HETATM    1  C   UNL     1     -11.077   6.717  68.141  1.00  0.00    -0.287 C  
HETATM    2  C   UNL     1     -10.386   8.092  68.025  1.00  0.00    -0.262 C  
ENDROOT
BRANCH   2   3
HETATM    3  C   UNL     1      -9.769   8.681  69.355  1.00  0.00    -0.176 C  
HETATM    4  C   UNL     1     -11.227   9.468  69.952  1.00  0.00    -0.209 C  
HETATM    5  C   UNL     1     -11.657  10.670  69.100  1.00  0.00    -0.342 C  
HETATM    6  C   UNL     1     -10.456  11.384  68.438  1.00  0.00    -0.221 C  
HETATM    7  C   UNL     1      -9.185  10.580  68.607  1.00  0.00    -0.172 C  
HETATM    8  C   UNL     1      -7.984  11.234  67.892  1.00  0.00    -0.118 C  
HETATM    9  C   UNL     1      -9.065   9.899  70.004  1.00  0.00    -0.217 C  
HETATM   10  C   UNL     1      -9.518   8.841  71.455  1.00  0.00    -0.341 C  
HETATM   11  C   UNL     1      -8.275  11.137  66.353  1.00  0.00    -0.164 C  
HETATM   12  C   UNL     1      -9.309   7.309  70.931  1.00  0.00    -0.159 C  
HETATM   13  C   UNL     1      -9.648  11.672  65.964  1.00  0.00    -0.249 C  
HETATM   14  C   UNL     1      -8.372   7.759  69.769  1.00  0.00    -0.131 C  
HETATM   15  C   UNL     1      -9.926  12.063  64.710  1.00  0.00    -0.241 C  
HETATM   16  C   UNL     1     -10.790  11.564  66.954  1.00  0.00    -0.331 C  
HETATM   17  O   UNL     1      -7.930   6.747  68.921  1.00  0.00    -0.112 OA 
HETATM   18  C   UNL     1     -11.309  12.484  64.316  1.00  0.00    -0.361 C  
HETATM   19  C   UNL     1     -11.769  12.729  66.765  1.00  0.00    -0.459 C  
HETATM   20  H   UNL     1      -7.160   6.238  69.150  1.00  0.00     0.000 HD 
HETATM   21  C   UNL     1     -12.378  12.597  65.395  1.00  0.00    -0.499 C  
HETATM   22  O   UNL     1     -11.561  12.682  63.144  1.00  0.00    -0.442 OA 
BRANCH  14  23
HETATM   23  C   UNL     1      -7.385   8.093  70.876  1.00  0.00    -0.059 C  
HETATM   24  C   UNL     1      -6.538   8.381  71.825  1.00  0.00    -0.070 C  
ENDBRANCH  14  23
ENDBRANCH   2   3
TORSDOF 2
ENDMDL
MODEL       38
REMARK 921   NORMALIZED FREE ENERGY PREDICTED BY IDOCK:   -4.89 KCAL/MOL
REMARK 922        TOTAL FREE ENERGY PREDICTED BY IDOCK:   -4.94 KCAL/MOL
REMARK 923 INTER-LIGAND FREE ENERGY PREDICTED BY IDOCK:   -5.49 KCAL/MOL
REMARK 924 INTRA-LIGAND FREE ENERGY PREDICTED BY IDOCK:    0.55 KCAL/MOL
REMARK 927      BINDING AFFINITY PREDICTED BY RF-SCORE:    0.00 PKD
ROOT
HETATM    1  C   UNL     1     -12.384  10.634  71.150  1.00  0.00    -0.505 C  
HETATM    2  C   UNL     1     -11.675   9.618  70.229  1.00  0.00    -0.213 C  
ENDROOT
BRANCH   2   3
HETATM    3  C   UNL     1     -10.860   8.471  70.948  1.00  0.00    -0.275 C  
HETATM    4  C   UNL     1      -9.424   9.418  71.328  1.00  0.00    -0.113 C  
HETATM    5  C   UNL     1      -8.616   9.815  70.086  1.00  0.00    -0.214 C  
HETATM    6  C   UNL     1      -8.732   8.775  68.949  1.00  0.00    -0.134 C  
HETATM    7  C   UNL     1      -9.797   7.745  69.260  1.00  0.00    -0.173 C  
HETATM    8  C   UNL     1      -9.986   6.737  68.107  1.00  0.00    -0.161 C  
HETATM    9  C   UNL     1      -9.833   7.326  70.761  1.00  0.00    -0.178 C  
HETATM   10  C   UNL     1      -9.950   7.500  72.601  1.00  0.00    -0.259 C  
HETATM   11  C   UNL     1     -10.595   7.541  66.905  1.00  0.00    -0.367 C  
HETATM   12  C   UNL     1     -11.521   7.843  72.884  1.00  0.00    -0.357 C  
HETATM   13  C   UNL     1      -9.808   8.799  66.561  1.00  0.00    -0.349 C  
HETATM   14  C   UNL     1     -11.968   7.272  71.503  1.00  0.00    -0.316 C  
HETATM   15  C   UNL     1      -9.899   9.383  65.355  1.00  0.00    -0.159 C  
HETATM   16  C   UNL     1      -9.073   9.535  67.663  1.00  0.00    -0.131 C  
HETATM   17  O   UNL     1     -13.324   7.390  71.210  1.00  0.00    -0.503 OA 
HETATM   18  C   UNL     1      -9.205  10.679  65.065  1.00  0.00    -0.211 C  
HETATM   19  C   UNL     1      -7.821  10.220  67.101  1.00  0.00    -0.110 C  
HETATM   20  H   UNL     1     -13.935   6.729  71.516  1.00  0.00     0.000 HD 
HETATM   21  C   UNL     1      -8.275  11.266  66.119  1.00  0.00    -0.088 C  
HETATM   22  O   UNL     1      -9.431  11.256  64.020  1.00  0.00    -0.220 OA 
BRANCH  14  23
HETATM   23  C   UNL     1     -11.592   5.922  72.092  1.00  0.00    -0.314 C  
HETATM   24  C   UNL     1     -11.269   4.764  72.597  1.00  0.00    -0.146 C  
ENDBRANCH  14  23
ENDBRANCH   2   3
TORSDOF 2
ENDMDL
MODEL       39
REMARK 921   NORMALIZED FREE ENERGY PREDICTED BY IDOCK:   -4.87 KCAL/MOL
REMARK 922        TOTAL FREE ENERGY PREDICTED BY IDOCK:   -4.93 KCAL/MOL
REMARK 923 INTER-LIGAND FREE ENERGY PREDICTED BY IDOCK:   -5.46 KCAL/MOL
REMARK 924 INTRA-LIGAND FREE ENERGY PREDICTED BY IDOCK:    0.53 KCAL/MOL
REMARK 927      BINDING AFFINITY PREDICTED BY RF-SCORE:    0.00 PKD
ROOT
HETATM    1  C   UNL     1     -12.008  15.531  69.387  1.00  0.00    -0.358 C  
HETATM    2  C   UNL     1     -10.750  14.777  68.906  1.00  0.00    -0.253 C  
ENDROOT
BRANCH   2   3
HETATM    3  C   UNL     1     -10.125  15.259  67.537  1.00  0.00    -0.232 C  
HETATM    4  C   UNL     1     -11.307  14.505  66.470  1.00  0.00    -0.354 C  
HETATM    5  C   UNL     1     -11.230  12.973  66.469  1.00  0.00    -0.335 C  
HETATM    6  C   UNL     1      -9.798  12.454  66.735  1.00  0.00    -0.228 C  
HETATM    7  C   UNL     1      -8.881  13.581  67.159  1.00  0.00    -0.231 C  
HETATM    8  C   UNL     1      -7.463  13.078  67.503  1.00  0.00    -0.158 C  
HETATM    9  C   UNL     1      -9.141  14.913  66.392  1.00  0.00    -0.293 C  
HETATM   10  C   UNL     1     -10.066  16.375  65.733  1.00  0.00    -0.352 C  
HETATM   11  C   UNL     1      -7.600  12.210  68.803  1.00  0.00    -0.056 C  
HETATM   12  C   UNL     1     -10.308  17.331  67.034  1.00  0.00    -0.318 C  
HETATM   13  C   UNL     1      -8.675  11.136  68.699  1.00  0.00    -0.153 C  
HETATM   14  C   UNL     1      -9.154  16.653  67.835  1.00  0.00    -0.218 C  
HETATM   15  C   UNL     1      -8.674  10.054  69.495  1.00  0.00    -0.205 C  
HETATM   16  C   UNL     1      -9.892  11.389  67.833  1.00  0.00    -0.188 C  
HETATM   17  O   UNL     1      -8.974  17.108  69.139  1.00  0.00    -0.166 OA 
HETATM   18  C   UNL     1      -9.795   9.060  69.458  1.00  0.00    -0.180 C  
HETATM   19  C   UNL     1     -10.415  10.070  67.252  1.00  0.00    -0.313 C  
HETATM   20  H   UNL     1      -8.439  17.877  69.303  1.00  0.00     0.000 HD 
HETATM   21  C   UNL     1     -10.881   9.218  68.402  1.00  0.00    -0.125 C  
HETATM   22  O   UNL     1      -9.840   8.180  70.295  1.00  0.00    -0.182 OA 
BRANCH  14  23
HETATM   23  C   UNL     1      -8.240  17.329  66.827  1.00  0.00    -0.279 C  
HETATM   24  C   UNL     1      -7.454  17.909  65.963  1.00  0.00    -0.279 C  
ENDBRANCH  14  23
ENDBRANCH   2   3
TORSDOF 2
ENDMDL
MODEL       40
REMARK 921   NORMALIZED FREE ENERGY PREDICTED BY IDOCK:   -4.86 KCAL/MOL
REMARK 922        TOTAL FREE ENERGY PREDICTED BY IDOCK:   -4.92 KCAL/MOL
REMARK 923 INTER-LIGAND FREE ENERGY PREDICTED BY IDOCK:   -5.45 KCAL/MOL
REMARK 924 INTRA-LIGAND FREE ENERGY PREDICTED BY IDOCK:    0.53 KCAL/MOL
REMARK 927      BINDING AFFINITY PREDICTED BY RF-SCORE:    0.00 PKD
ROOT
HETATM    1  C   UNL     1     -11.276   6.684  67.784  1.00  0.00    -0.244 C  
HETATM    2  C   UNL     1     -10.351   7.695  67.073  1.00  0.00    -0.400 C  
ENDROOT
BRANCH   2   3
HETATM    3  C   UNL     1      -9.027   8.093  67.839  1.00  0.00    -0.133 C  
HETATM    4  C   UNL     1      -9.762   9.187  69.008  1.00  0.00    -0.166 C  
HETATM    5  C   UNL     1     -10.302  10.475  68.372  1.00  0.00    -0.199 C  
HETATM    6  C   UNL     1      -9.496  10.901  67.125  1.00  0.00    -0.178 C  
HETATM    7  C   UNL     1      -8.524   9.817  66.708  1.00  0.00    -0.125 C  
HETATM    8  C   UNL     1      -7.758  10.186  65.421  1.00  0.00    -0.143 C  
HETATM    9  C   UNL     1      -7.849   9.096  67.914  1.00  0.00    -0.100 C  
HETATM   10  C   UNL     1      -7.701   8.142  69.494  1.00  0.00    -0.102 C  
HETATM   11  C   UNL     1      -8.814  10.195  64.260  1.00  0.00    -0.244 C  
HETATM   12  C   UNL     1      -8.124   6.616  69.098  1.00  0.00    -0.116 C  
HETATM   13  C   UNL     1     -10.040  11.046  64.567  1.00  0.00    -0.380 C  
HETATM   14  C   UNL     1      -7.850   6.859  67.582  1.00  0.00    -0.112 C  
HETATM   15  C   UNL     1     -10.835  11.520  63.594  1.00  0.00    -0.488 C  
HETATM   16  C   UNL     1     -10.500  11.187  66.003  1.00  0.00    -0.312 C  
HETATM   17  O   UNL     1      -8.136   5.790  66.737  1.00  0.00    -0.102 OA 
HETATM   18  C   UNL     1     -12.096  12.263  63.913  1.00  0.00    -0.506 C  
HETATM   19  C   UNL     1     -11.162  12.555  66.218  1.00  0.00    -0.359 C  
HETATM   20  H   UNL     1      -7.488   5.110  66.595  1.00  0.00     0.000 HD 
HETATM   21  C   UNL     1     -12.402  12.599  65.366  1.00  0.00    -0.499 C  
HETATM   22  O   UNL     1     -12.868  12.541  63.017  1.00  0.00    -0.481 OA 
BRANCH  14  23
HETATM   23  C   UNL     1      -6.389   6.927  67.996  1.00  0.00    -0.042 C  
HETATM   24  C   UNL     1      -5.136   6.985  68.352  1.00  0.00    -0.016 C  
ENDBRANCH  14  23
ENDBRANCH   2   3
TORSDOF 2
ENDMDL
MODEL       41
REMARK 921   NORMALIZED FREE ENERGY PREDICTED BY IDOCK:   -4.86 KCAL/MOL
REMARK 922        TOTAL FREE ENERGY PREDICTED BY IDOCK:   -4.91 KCAL/MOL
REMARK 923 INTER-LIGAND FREE ENERGY PREDICTED BY IDOCK:   -5.89 KCAL/MOL
REMARK 924 INTRA-LIGAND FREE ENERGY PREDICTED BY IDOCK:    0.98 KCAL/MOL
REMARK 927      BINDING AFFINITY PREDICTED BY RF-SCORE:    0.00 PKD
ROOT
HETATM    1  C   UNL     1      -6.951  15.614  67.511  1.00  0.00    -0.218 C  
HETATM    2  C   UNL     1      -7.189  16.890  68.345  1.00  0.00    -0.195 C  
ENDROOT
BRANCH   2   3
HETATM    3  C   UNL     1      -7.627  18.180  67.544  1.00  0.00    -0.217 C  
HETATM    4  C   UNL     1      -8.646  18.888  68.794  1.00  0.00    -0.336 C  
HETATM    5  C   UNL     1      -9.925  18.083  69.059  1.00  0.00    -0.292 C  
HETATM    6  C   UNL     1     -10.430  17.346  67.798  1.00  0.00    -0.376 C  
HETATM    7  C   UNL     1      -9.410  17.415  66.682  1.00  0.00    -0.279 C  
HETATM    8  C   UNL     1      -9.857  16.624  65.435  1.00  0.00     0.162 C  
HETATM    9  C   UNL     1      -8.684  18.792  66.592  1.00  0.00    -0.306 C  
HETATM   10  C   UNL     1      -7.690  20.259  67.127  1.00  0.00    -0.360 C  
HETATM   11  C   UNL     1      -9.851  15.108  65.842  1.00  0.00    -0.372 C  
HETATM   12  C   UNL     1      -6.158  19.704  67.232  1.00  0.00    -0.197 C  
HETATM   13  C   UNL     1     -10.630  14.824  67.119  1.00  0.00    -0.285 C  
HETATM   14  C   UNL     1      -6.462  18.484  66.309  1.00  0.00    -0.203 C  
HETATM   15  C   UNL     1     -11.094  13.597  67.408  1.00  0.00    -0.299 C  
HETATM   16  C   UNL     1     -10.702  15.890  68.193  1.00  0.00    -0.302 C  
HETATM   17  O   UNL     1      -5.408  17.595  66.114  1.00  0.00    -0.171 OA 
HETATM   18  C   UNL     1     -11.763  13.307  68.717  1.00  0.00    -0.329 C  
HETATM   19  C   UNL     1     -12.027  15.786  68.959  1.00  0.00    -0.294 C  
HETATM   20  H   UNL     1      -4.766  17.763  65.434  1.00  0.00     0.000 HD 
HETATM   21  C   UNL     1     -12.037  14.460  69.673  1.00  0.00    -0.381 C  
HETATM   22  O   UNL     1     -12.031  12.158  69.008  1.00  0.00    -0.297 OA 
BRANCH  14  23
HETATM   23  C   UNL     1      -6.589  19.522  65.206  1.00  0.00    -0.309 C  
HETATM   24  C   UNL     1      -6.699  20.412  64.259  1.00  0.00    -0.036 C  
ENDBRANCH  14  23
ENDBRANCH   2   3
TORSDOF 2
ENDMDL
MODEL       42
REMARK 921   NORMALIZED FREE ENERGY PREDICTED BY IDOCK:   -4.78 KCAL/MOL
REMARK 922        TOTAL FREE ENERGY PREDICTED BY IDOCK:   -4.82 KCAL/MOL
REMARK 923 INTER-LIGAND FREE ENERGY PREDICTED BY IDOCK:   -5.80 KCAL/MOL
REMARK 924 INTRA-LIGAND FREE ENERGY PREDICTED BY IDOCK:    0.98 KCAL/MOL
REMARK 927      BINDING AFFINITY PREDICTED BY RF-SCORE:    0.00 PKD
ROOT
HETATM    1  C   UNL     1     -11.752  12.196  69.136  1.00  0.00    -0.384 C  
HETATM    2  C   UNL     1     -12.002  12.415  67.629  1.00  0.00    -0.249 C  
ENDROOT
BRANCH   2   3
HETATM    3  C   UNL     1     -10.810  13.047  66.806  1.00  0.00    -0.285 C  
HETATM    4  C   UNL     1     -11.092  12.180  65.298  1.00  0.00    -0.367 C  
HETATM    5  C   UNL     1     -10.802  10.677  65.402  1.00  0.00     0.005 C  
HETATM    6  C   UNL     1      -9.690  10.360  66.428  1.00  0.00    -0.250 C  
HETATM    7  C   UNL     1      -9.330  11.587  67.237  1.00  0.00    -0.170 C  
HETATM    8  C   UNL     1      -8.274  11.281  68.320  1.00  0.00    -0.143 C  
HETATM    9  C   UNL     1      -9.322  12.901  66.399  1.00  0.00    -0.192 C  
HETATM   10  C   UNL     1      -9.942  14.242  65.283  1.00  0.00    -0.313 C  
HETATM   11  C   UNL     1      -8.968  10.342  69.368  1.00  0.00    -0.190 C  
HETATM   12  C   UNL     1     -10.992  15.091  66.201  1.00  0.00    -0.334 C  
HETATM   13  C   UNL     1      -9.640   9.129  68.738  1.00  0.00    -0.161 C  
HETATM   14  C   UNL     1     -10.377  14.551  67.528  1.00  0.00    -0.244 C  
HETATM   15  C   UNL     1      -9.914   8.022  69.449  1.00  0.00    -0.190 C  
HETATM   16  C   UNL     1     -10.209   9.243  67.339  1.00  0.00    -0.304 C  
HETATM   17  O   UNL     1     -11.006  14.967  68.699  1.00  0.00    -0.240 OA 
HETATM   18  C   UNL     1     -10.672   6.879  68.846  1.00  0.00    -0.222 C  
HETATM   19  C   UNL     1     -10.130   7.889  66.620  1.00  0.00    -0.310 C  
HETATM   20  H   UNL     1     -10.768  15.797  69.097  1.00  0.00     0.000 HD 
HETATM   21  C   UNL     1     -11.016   6.926  67.364  1.00  0.00    -0.374 C  
HETATM   22  O   UNL     1     -11.036   5.964  69.558  1.00  0.00    -0.381 OA 
BRANCH  14  23
HETATM   23  C   UNL     1      -9.172  15.400  67.156  1.00  0.00    -0.226 C  
HETATM   24  C   UNL     1      -8.138  16.127  66.836  1.00  0.00    -0.275 C  
ENDBRANCH  14  23
ENDBRANCH   2   3
TORSDOF 2
ENDMDL
MODEL       43
REMARK 921   NORMALIZED FREE ENERGY PREDICTED BY IDOCK:   -4.77 KCAL/MOL
REMARK 922        TOTAL FREE ENERGY PREDICTED BY IDOCK:   -4.81 KCAL/MOL
REMARK 923 INTER-LIGAND FREE ENERGY PREDICTED BY IDOCK:   -5.36 KCAL/MOL
REMARK 924 INTRA-LIGAND FREE ENERGY PREDICTED BY IDOCK:    0.55 KCAL/MOL
REMARK 927      BINDING AFFINITY PREDICTED BY RF-SCORE:    0.00 PKD
ROOT
HETATM    1  C   UNL     1      -7.234   9.880  70.367  1.00  0.00    -0.143 C  
HETATM    2  C   UNL     1      -8.203   8.825  69.793  1.00  0.00    -0.117 C  
ENDROOT
BRANCH   2   3
HETATM    3  C   UNL     1      -9.323   9.361  68.815  1.00  0.00    -0.146 C  
HETATM    4  C   UNL     1     -10.413   9.996  70.045  1.00  0.00    -0.337 C  
HETATM    5  C   UNL     1     -11.066   8.900  70.897  1.00  0.00    -0.328 C  
HETATM    6  C   UNL     1     -11.264   7.582  70.114  1.00  0.00    -0.213 C  
HETATM    7  C   UNL     1     -10.553   7.631  68.778  1.00  0.00    -0.169 C  
HETATM    8  C   UNL     1     -10.672   6.300  68.007  1.00  0.00    -0.369 C  
HETATM    9  C   UNL     1     -10.644   9.022  68.080  1.00  0.00    -0.242 C  
HETATM   10  C   UNL     1     -10.481  10.852  67.846  1.00  0.00    -0.227 C  
HETATM   11  C   UNL     1      -9.850   5.238  68.819  1.00  0.00    -0.224 C  
HETATM   12  C   UNL     1      -8.879  11.102  67.653  1.00  0.00    -0.136 C  
HETATM   13  C   UNL     1     -10.228   5.184  70.293  1.00  0.00    -0.342 C  
HETATM   14  C   UNL     1      -8.622   9.615  67.261  1.00  0.00    -0.132 C  
HETATM   15  C   UNL     1      -9.968   4.106  71.052  1.00  0.00    -0.206 C  
HETATM   16  C   UNL     1     -10.711   6.445  70.980  1.00  0.00    -0.301 C  
HETATM   17  O   UNL     1      -7.292   9.271  67.033  1.00  0.00    -0.089 OA 
HETATM   18  C   UNL     1     -10.245   4.106  72.524  1.00  0.00    -0.174 C  
HETATM   19  C   UNL     1     -11.703   6.096  72.097  1.00  0.00    -0.361 C  
HETATM   20  H   UNL     1      -6.905   9.411  66.176  1.00  0.00     0.000 HD 
HETATM   21  C   UNL     1     -10.958   5.304  73.137  1.00  0.00    -0.362 C  
HETATM   22  O   UNL     1      -9.857   3.177  73.204  1.00  0.00    -0.106 OA 
BRANCH  14  23
HETATM   23  C   UNL     1      -9.382   9.961  65.990  1.00  0.00    -0.240 C  
HETATM   24  C   UNL     1     -10.034  10.258  64.901  1.00  0.00    -0.393 C  
ENDBRANCH  14  23
ENDBRANCH   2   3
TORSDOF 2
ENDMDL
MODEL       44
REMARK 921   NORMALIZED FREE ENERGY PREDICTED BY IDOCK:   -4.77 KCAL/MOL
REMARK 922        TOTAL FREE ENERGY PREDICTED BY IDOCK:   -4.81 KCAL/MOL
REMARK 923 INTER-LIGAND FREE ENERGY PREDICTED BY IDOCK:   -5.37 KCAL/MOL
REMARK 924 INTRA-LIGAND FREE ENERGY PREDICTED BY IDOCK:    0.56 KCAL/MOL
REMARK 927      BINDING AFFINITY PREDICTED BY RF-SCORE:    0.00 PKD
ROOT
HETATM    1  C   UNL     1      -7.625   6.622  71.920  1.00  0.00    -0.096 C  
HETATM    2  C   UNL     1      -8.423   7.108  70.692  1.00  0.00    -0.138 C  
ENDROOT
BRANCH   2   3
HETATM    3  C   UNL     1      -9.987   7.241  70.880  1.00  0.00    -0.186 C  
HETATM    4  C   UNL     1     -10.319   5.545  71.222  1.00  0.00    -0.297 C  
HETATM    5  C   UNL     1     -10.101   4.630  70.009  1.00  0.00    -0.267 C  
HETATM    6  C   UNL     1     -10.381   5.349  68.670  1.00  0.00    -0.229 C  
HETATM    7  C   UNL     1     -10.573   6.836  68.880  1.00  0.00    -0.257 C  
HETATM    8  C   UNL     1     -10.780   7.590  67.549  1.00  0.00    -0.296 C  
HETATM    9  C   UNL     1     -11.366   7.180  70.177  1.00  0.00    -0.277 C  
HETATM   10  C   UNL     1     -11.803   7.219  71.976  1.00  0.00    -0.332 C  
HETATM   11  C   UNL     1      -9.421   7.503  66.771  1.00  0.00    -0.230 C  
HETATM   12  C   UNL     1     -10.697   8.213  72.649  1.00  0.00    -0.421 C  
HETATM   13  C   UNL     1      -8.885   6.082  66.649  1.00  0.00    -0.125 C  
HETATM   14  C   UNL     1     -10.356   8.877  71.279  1.00  0.00    -0.285 C  
HETATM   15  C   UNL     1      -7.999   5.738  65.701  1.00  0.00    -0.116 C  
HETATM   16  C   UNL     1      -9.188   5.082  67.746  1.00  0.00    -0.131 C  
HETATM   17  O   UNL     1      -9.344   9.832  71.305  1.00  0.00    -0.281 OA 
HETATM   18  C   UNL     1      -7.398   4.366  65.659  1.00  0.00    -0.080 C  
HETATM   19  C   UNL     1      -9.271   3.664  67.166  1.00  0.00    -0.212 C  
HETATM   20  H   UNL     1      -9.547  10.734  71.526  1.00  0.00     0.000 HD 
HETATM   21  C   UNL     1      -7.909   3.311  66.631  1.00  0.00    -0.080 C  
HETATM   22  O   UNL     1      -6.489   4.136  64.887  1.00  0.00    -0.036 OA 
BRANCH  14  23
HETATM   23  C   UNL     1     -11.752   9.473  71.375  1.00  0.00    -0.465 C  
HETATM   24  C   UNL     1     -12.948   9.985  71.459  1.00  0.00    -0.535 C  
ENDBRANCH  14  23
ENDBRANCH   2   3
TORSDOF 2
ENDMDL
MODEL       45
REMARK 921   NORMALIZED FREE ENERGY PREDICTED BY IDOCK:   -4.70 KCAL/MOL
REMARK 922        TOTAL FREE ENERGY PREDICTED BY IDOCK:   -4.74 KCAL/MOL
REMARK 923 INTER-LIGAND FREE ENERGY PREDICTED BY IDOCK:   -5.26 KCAL/MOL
REMARK 924 INTRA-LIGAND FREE ENERGY PREDICTED BY IDOCK:    0.52 KCAL/MOL
REMARK 927      BINDING AFFINITY PREDICTED BY RF-SCORE:    0.00 PKD
ROOT
HETATM    1  C   UNL     1      -9.729  11.357  63.295  1.00  0.00    -0.413 C  
HETATM    2  C   UNL     1      -9.959  10.556  64.593  1.00  0.00    -0.415 C  
ENDROOT
BRANCH   2   3
HETATM    3  C   UNL     1      -9.820  11.360  65.947  1.00  0.00    -0.262 C  
HETATM    4  C   UNL     1      -8.061  11.463  65.969  1.00  0.00     0.053 C  
HETATM    5  C   UNL     1      -7.379  10.107  66.195  1.00  0.00    -0.115 C  
HETATM    6  C   UNL     1      -8.235   9.152  67.058  1.00  0.00    -0.116 C  
HETATM    7  C   UNL     1      -9.627   9.708  67.267  1.00  0.00    -0.203 C  
HETATM    8  C   UNL     1     -10.527   8.740  68.064  1.00  0.00    -0.260 C  
HETATM    9  C   UNL     1      -9.651  11.252  67.483  1.00  0.00    -0.181 C  
HETATM   10  C   UNL     1      -9.357  13.049  67.144  1.00  0.00    -0.230 C  
HETATM   11  C   UNL     1     -10.766   7.493  67.142  1.00  0.00    -0.379 C  
HETATM   12  C   UNL     1     -10.400  13.419  65.944  1.00  0.00    -0.290 C  
HETATM   13  C   UNL     1      -9.479   6.896  66.590  1.00  0.00    -0.209 C  
HETATM   14  C   UNL     1     -11.302  12.185  66.252  1.00  0.00    -0.357 C  
HETATM   15  C   UNL     1      -9.419   5.629  66.146  1.00  0.00    -0.157 C  
HETATM   16  C   UNL     1      -8.294   7.804  66.332  1.00  0.00    -0.131 C  
HETATM   17  O   UNL     1     -12.388  12.002  65.400  1.00  0.00    -0.457 OA 
HETATM   18  C   UNL     1      -8.177   5.088  65.505  1.00  0.00    -0.118 C  
HETATM   19  C   UNL     1      -6.981   7.035  66.530  1.00  0.00    -0.069 C  
HETATM   20  H   UNL     1     -13.206  12.457  65.568  1.00  0.00     0.000 HD 
HETATM   21  C   UNL     1      -6.924   5.954  65.484  1.00  0.00    -0.064 C  
HETATM   22  O   UNL     1      -8.206   3.994  64.978  1.00  0.00    -0.099 OA 
BRANCH  14  23
HETATM   23  C   UNL     1     -11.655  12.932  67.528  1.00  0.00    -0.409 C  
HETATM   24  C   UNL     1     -11.957  13.572  68.623  1.00  0.00    -0.378 C  
ENDBRANCH  14  23
ENDBRANCH   2   3
TORSDOF 2
ENDMDL
MODEL       46
REMARK 921   NORMALIZED FREE ENERGY PREDICTED BY IDOCK:   -4.68 KCAL/MOL
REMARK 922        TOTAL FREE ENERGY PREDICTED BY IDOCK:   -4.71 KCAL/MOL
REMARK 923 INTER-LIGAND FREE ENERGY PREDICTED BY IDOCK:   -5.23 KCAL/MOL
REMARK 924 INTRA-LIGAND FREE ENERGY PREDICTED BY IDOCK:    0.52 KCAL/MOL
REMARK 927      BINDING AFFINITY PREDICTED BY RF-SCORE:    0.00 PKD
ROOT
HETATM    1  C   UNL     1     -10.178   9.081  71.042  1.00  0.00    -0.347 C  
HETATM    2  C   UNL     1     -10.345   9.570  69.588  1.00  0.00    -0.236 C  
ENDROOT
BRANCH   2   3
HETATM    3  C   UNL     1      -9.322   8.992  68.532  1.00  0.00    -0.141 C  
HETATM    4  C   UNL     1      -7.881   9.798  69.147  1.00  0.00    -0.095 C  
HETATM    5  C   UNL     1      -7.906  11.318  68.944  1.00  0.00    -0.114 C  
HETATM    6  C   UNL     1      -8.698  11.732  67.683  1.00  0.00    -0.159 C  
HETATM    7  C   UNL     1      -9.445  10.552  67.098  1.00  0.00    -0.182 C  
HETATM    8  C   UNL     1     -10.304  10.953  65.880  1.00  0.00    -0.310 C  
HETATM    9  C   UNL     1      -8.640   9.219  67.159  1.00  0.00    -0.130 C  
HETATM   10  C   UNL     1      -7.681   7.811  67.887  1.00  0.00    -0.122 C  
HETATM   11  C   UNL     1     -11.450  11.876  66.427  1.00  0.00    -0.371 C  
HETATM   12  C   UNL     1      -8.793   6.924  68.688  1.00  0.00    -0.124 C  
HETATM   13  C   UNL     1     -10.939  13.027  67.284  1.00  0.00    -0.288 C  
HETATM   14  C   UNL     1      -9.973   7.537  67.873  1.00  0.00    -0.165 C  
HETATM   15  C   UNL     1     -11.672  14.133  67.494  1.00  0.00    -0.418 C  
HETATM   16  C   UNL     1      -9.674  12.839  68.096  1.00  0.00    -0.223 C  
HETATM   17  O   UNL     1     -11.247   7.116  68.243  1.00  0.00    -0.476 OA 
HETATM   18  C   UNL     1     -11.205  15.210  68.425  1.00  0.00    -0.299 C  
HETATM   19  C   UNL     1      -8.933  14.174  68.242  1.00  0.00    -0.188 C  
HETATM   20  H   UNL     1     -11.606   6.314  67.880  1.00  0.00     0.000 HD 
HETATM   21  C   UNL     1      -9.815  15.101  69.036  1.00  0.00    -0.238 C  
HETATM   22  O   UNL     1     -11.959  16.120  68.710  1.00  0.00    -0.286 OA 
BRANCH  14  23
HETATM   23  C   UNL     1      -9.394   6.756  66.705  1.00  0.00    -0.197 C  
HETATM   24  C   UNL     1      -8.896   6.085  65.704  1.00  0.00    -0.118 C  
ENDBRANCH  14  23
ENDBRANCH   2   3
TORSDOF 2
ENDMDL
MODEL       47
REMARK 921   NORMALIZED FREE ENERGY PREDICTED BY IDOCK:   -4.66 KCAL/MOL
REMARK 922        TOTAL FREE ENERGY PREDICTED BY IDOCK:   -4.69 KCAL/MOL
REMARK 923 INTER-LIGAND FREE ENERGY PREDICTED BY IDOCK:   -5.20 KCAL/MOL
REMARK 924 INTRA-LIGAND FREE ENERGY PREDICTED BY IDOCK:    0.51 KCAL/MOL
REMARK 927      BINDING AFFINITY PREDICTED BY RF-SCORE:    0.00 PKD
ROOT
HETATM    1  C   UNL     1      -9.472  10.255  63.830  1.00  0.00    -0.356 C  
HETATM    2  C   UNL     1      -8.979  10.869  65.157  1.00  0.00    -0.195 C  
ENDROOT
BRANCH   2   3
HETATM    3  C   UNL     1      -9.416  10.123  66.480  1.00  0.00    -0.214 C  
HETATM    4  C   UNL     1     -11.112  10.598  66.458  1.00  0.00    -0.012 C  
HETATM    5  C   UNL     1     -11.324  12.096  66.712  1.00  0.00    -0.398 C  
HETATM    6  C   UNL     1     -10.233  12.700  67.625  1.00  0.00    -0.217 C  
HETATM    7  C   UNL     1      -9.104  11.716  67.848  1.00  0.00    -0.171 C  
HETATM    8  C   UNL     1      -7.965  12.320  68.697  1.00  0.00    -0.050 C  
HETATM    9  C   UNL     1      -9.591  10.244  68.015  1.00  0.00    -0.159 C  
HETATM   10  C   UNL     1     -10.441   8.650  67.611  1.00  0.00    -0.311 C  
HETATM   11  C   UNL     1      -7.304  13.442  67.822  1.00  0.00    -0.158 C  
HETATM   12  C   UNL     1      -9.536   7.987  66.424  1.00  0.00    -0.268 C  
HETATM   13  C   UNL     1      -8.309  14.439  67.260  1.00  0.00    -0.228 C  
HETATM   14  C   UNL     1      -8.292   8.853  66.793  1.00  0.00    -0.111 C  
HETATM   15  C   UNL     1      -7.940  15.666  66.856  1.00  0.00    -0.278 C  
HETATM   16  C   UNL     1      -9.716  13.972  66.945  1.00  0.00    -0.272 C  
HETATM   17  O   UNL     1      -7.178   8.692  65.973  1.00  0.00    -0.082 OA 
HETATM   18  C   UNL     1      -8.917  16.596  66.204  1.00  0.00    -0.286 C  
HETATM   19  C   UNL     1     -10.714  15.121  67.137  1.00  0.00    -0.310 C  
HETATM   20  H   UNL     1      -6.559   7.992  66.145  1.00  0.00     0.000 HD 
HETATM   21  C   UNL     1     -10.382  16.186  66.126  1.00  0.00    -0.350 C  
HETATM   22  O   UNL     1      -8.517  17.633  65.714  1.00  0.00    -0.525 OA 
BRANCH  14  23
HETATM   23  C   UNL     1      -8.243   8.003  68.052  1.00  0.00    -0.129 C  
HETATM   24  C   UNL     1      -8.200   7.272  69.131  1.00  0.00    -0.122 C  
ENDBRANCH  14  23
ENDBRANCH   2   3
TORSDOF 2
ENDMDL
MODEL       48
REMARK 921   NORMALIZED FREE ENERGY PREDICTED BY IDOCK:   -4.65 KCAL/MOL
REMARK 922        TOTAL FREE ENERGY PREDICTED BY IDOCK:   -4.68 KCAL/MOL
REMARK 923 INTER-LIGAND FREE ENERGY PREDICTED BY IDOCK:   -5.20 KCAL/MOL
REMARK 924 INTRA-LIGAND FREE ENERGY PREDICTED BY IDOCK:    0.52 KCAL/MOL
REMARK 927      BINDING AFFINITY PREDICTED BY RF-SCORE:    0.00 PKD
ROOT
HETATM    1  C   UNL     1      -6.726   9.805  68.990  1.00  0.00    -0.049 C  
HETATM    2  C   UNL     1      -7.876   8.921  68.464  1.00  0.00    -0.103 C  
ENDROOT
BRANCH   2   3
HETATM    3  C   UNL     1      -9.116   9.679  67.842  1.00  0.00    -0.130 C  
HETATM    4  C   UNL     1      -9.802  10.269  69.354  1.00  0.00    -0.247 C  
HETATM    5  C   UNL     1     -10.372   9.150  70.235  1.00  0.00    -0.253 C  
HETATM    6  C   UNL     1     -10.910   7.962  69.406  1.00  0.00    -0.114 C  
HETATM    7  C   UNL     1     -10.528   8.098  67.948  1.00  0.00    -0.259 C  
HETATM    8  C   UNL     1     -10.990   6.887  67.110  1.00  0.00    -0.427 C  
HETATM    9  C   UNL     1     -10.603   9.565  67.424  1.00  0.00    -0.337 C  
HETATM   10  C   UNL     1     -10.269  11.383  67.325  1.00  0.00    -0.229 C  
HETATM   11  C   UNL     1     -10.142   5.659  67.596  1.00  0.00    -0.208 C  
HETATM   12  C   UNL     1      -8.737  11.493  66.772  1.00  0.00    -0.178 C  
HETATM   13  C   UNL     1     -10.171   5.467  69.106  1.00  0.00    -0.309 C  
HETATM   14  C   UNL     1      -8.767  10.045  66.194  1.00  0.00    -0.140 C  
HETATM   15  C   UNL     1      -9.880   4.286  69.676  1.00  0.00    -0.244 C  
HETATM   16  C   UNL     1     -10.320   6.680  70.002  1.00  0.00    -0.232 C  
HETATM   17  O   UNL     1      -7.581   9.599  65.618  1.00  0.00    -0.102 OA 
HETATM   18  C   UNL     1      -9.806   4.138  71.165  1.00  0.00    -0.174 C  
HETATM   19  C   UNL     1     -11.062   6.301  71.291  1.00  0.00    -0.345 C  
HETATM   20  H   UNL     1      -7.388   9.801  64.709  1.00  0.00     0.000 HD 
HETATM   21  C   UNL     1     -10.202   5.320  72.041  1.00  0.00    -0.259 C  
HETATM   22  O   UNL     1      -9.391   3.100  71.641  1.00  0.00    -0.108 OA 
BRANCH  14  23
HETATM   23  C   UNL     1      -9.752  10.614  65.184  1.00  0.00    -0.327 C  
HETATM   24  C   UNL     1     -10.597  11.101  64.319  1.00  0.00    -0.425 C  
ENDBRANCH  14  23
ENDBRANCH   2   3
TORSDOF 2
ENDMDL
MODEL       49
REMARK 921   NORMALIZED FREE ENERGY PREDICTED BY IDOCK:   -4.60 KCAL/MOL
REMARK 922        TOTAL FREE ENERGY PREDICTED BY IDOCK:   -4.63 KCAL/MOL
REMARK 923 INTER-LIGAND FREE ENERGY PREDICTED BY IDOCK:   -5.62 KCAL/MOL
REMARK 924 INTRA-LIGAND FREE ENERGY PREDICTED BY IDOCK:    1.00 KCAL/MOL
REMARK 927      BINDING AFFINITY PREDICTED BY RF-SCORE:    0.00 PKD
ROOT
HETATM    1  C   UNL     1     -11.008   6.427  68.673  1.00  0.00    -0.404 C  
HETATM    2  C   UNL     1     -11.660   7.200  69.839  1.00  0.00    -0.097 C  
ENDROOT
BRANCH   2   3
HETATM    3  C   UNL     1     -10.718   7.560  71.056  1.00  0.00    -0.243 C  
HETATM    4  C   UNL     1     -11.541   9.037  71.550  1.00  0.00    -0.413 C  
HETATM    5  C   UNL     1     -11.396  10.178  70.535  1.00  0.00    -0.416 C  
HETATM    6  C   UNL     1     -10.064  10.109  69.756  1.00  0.00    -0.269 C  
HETATM    7  C   UNL     1      -9.343   8.805  70.024  1.00  0.00    -0.175 C  
HETATM    8  C   UNL     1      -8.045   8.678  69.200  1.00  0.00    -0.116 C  
HETATM    9  C   UNL     1      -9.452   8.331  71.505  1.00  0.00    -0.244 C  
HETATM   10  C   UNL     1     -10.237   7.828  73.104  1.00  0.00    -0.398 C  
HETATM   11  C   UNL     1      -8.480   8.553  67.697  1.00  0.00    -0.129 C  
HETATM   12  C   UNL     1     -10.857   6.346  72.813  1.00  0.00    -0.278 C  
HETATM   13  C   UNL     1      -9.439   9.650  67.254  1.00  0.00    -0.175 C  
HETATM   14  C   UNL     1      -9.926   6.122  71.582  1.00  0.00    -0.177 C  
HETATM   15  C   UNL     1      -9.599   9.971  65.960  1.00  0.00    -0.279 C  
HETATM   16  C   UNL     1     -10.395  10.248  68.266  1.00  0.00    -0.209 C  
HETATM   17  O   UNL     1     -10.116   4.929  70.889  1.00  0.00    -0.213 OA 
HETATM   18  C   UNL     1     -10.624  10.975  65.529  1.00  0.00    -0.200 C  
HETATM   19  C   UNL     1     -10.686  11.715  67.920  1.00  0.00    -0.241 C  
HETATM   20  H   UNL     1      -9.679   4.136  71.179  1.00  0.00     0.000 HD 
HETATM   21  C   UNL     1     -11.399  11.737  66.595  1.00  0.00    -0.381 C  
HETATM   22  O   UNL     1     -10.847  11.128  64.344  1.00  0.00    -0.344 OA 
BRANCH  14  23
HETATM   23  C   UNL     1      -8.809   6.050  72.611  1.00  0.00    -0.124 C  
HETATM   24  C   UNL     1      -7.851   5.990  73.493  1.00  0.00    -0.100 C  
ENDBRANCH  14  23
ENDBRANCH   2   3
TORSDOF 2
ENDMDL
MODEL       50
REMARK 921   NORMALIZED FREE ENERGY PREDICTED BY IDOCK:   -4.58 KCAL/MOL
REMARK 922        TOTAL FREE ENERGY PREDICTED BY IDOCK:   -4.60 KCAL/MOL
REMARK 923 INTER-LIGAND FREE ENERGY PREDICTED BY IDOCK:   -5.12 KCAL/MOL
REMARK 924 INTRA-LIGAND FREE ENERGY PREDICTED BY IDOCK:    0.52 KCAL/MOL
REMARK 927      BINDING AFFINITY PREDICTED BY RF-SCORE:    0.00 PKD
ROOT
HETATM    1  C   UNL     1     -10.422  13.330  64.300  1.00  0.00    -0.372 C  
HETATM    2  C   UNL     1     -10.599  12.607  65.652  1.00  0.00    -0.299 C  
ENDROOT
BRANCH   2   3
HETATM    3  C   UNL     1     -10.319  13.467  66.948  1.00  0.00    -0.257 C  
HETATM    4  C   UNL     1      -8.561  13.472  66.841  1.00  0.00    -0.114 C  
HETATM    5  C   UNL     1      -7.937  12.092  67.089  1.00  0.00    -0.170 C  
HETATM    6  C   UNL     1      -8.776  11.230  68.059  1.00  0.00    -0.144 C  
HETATM    7  C   UNL     1     -10.118  11.873  68.336  1.00  0.00    -0.206 C  
HETATM    8  C   UNL     1     -11.007  10.996  69.244  1.00  0.00    -0.305 C  
HETATM    9  C   UNL     1     -10.044  13.424  68.472  1.00  0.00    -0.208 C  
HETATM   10  C   UNL     1      -9.682  15.183  68.020  1.00  0.00    -0.209 C  
HETATM   11  C   UNL     1     -11.378   9.722  68.407  1.00  0.00     0.027 C  
HETATM   12  C   UNL     1     -10.789  15.553  66.879  1.00  0.00    -0.301 C  
HETATM   13  C   UNL     1     -10.168   9.027  67.798  1.00  0.00    -0.284 C  
HETATM   14  C   UNL     1     -11.730  14.388  67.314  1.00  0.00    -0.404 C  
HETATM   15  C   UNL     1     -10.207   7.739  67.418  1.00  0.00    -0.320 C  
HETATM   16  C   UNL     1      -8.959   9.854  67.410  1.00  0.00    -0.144 C  
HETATM   17  O   UNL     1     -12.884  14.225  66.551  1.00  0.00    -0.462 OA 
HETATM   18  C   UNL     1      -9.046   7.099  66.720  1.00  0.00    -0.147 C  
HETATM   19  C   UNL     1      -7.677   9.023  67.555  1.00  0.00    -0.096 C  
HETATM   20  H   UNL     1     -13.661  14.734  66.752  1.00  0.00     0.000 HD 
HETATM   21  C   UNL     1      -7.755   7.891  66.566  1.00  0.00    -0.097 C  
HETATM   22  O   UNL     1      -9.171   5.984  66.254  1.00  0.00    -0.154 OA 
BRANCH  14  23
HETATM   23  C   UNL     1     -11.949  15.214  68.571  1.00  0.00    -0.243 C  
HETATM   24  C   UNL     1     -12.135  15.922  69.650  1.00  0.00    -0.216 C  
ENDBRANCH  14  23
ENDBRANCH   2   3
TORSDOF 2
ENDMDL
MODEL       51
REMARK 921   NORMALIZED FREE ENERGY PREDICTED BY IDOCK:   -4.57 KCAL/MOL
REMARK 922        TOTAL FREE ENERGY PREDICTED BY IDOCK:   -4.59 KCAL/MOL
REMARK 923 INTER-LIGAND FREE ENERGY PREDICTED BY IDOCK:   -5.14 KCAL/MOL
REMARK 924 INTRA-LIGAND FREE ENERGY PREDICTED BY IDOCK:    0.55 KCAL/MOL
REMARK 927      BINDING AFFINITY PREDICTED BY RF-SCORE:    0.00 PKD
ROOT
HETATM    1  C   UNL     1     -10.089  15.246  65.099  1.00  0.00    -0.323 C  
HETATM    2  C   UNL     1     -10.063  13.904  65.859  1.00  0.00    -0.331 C  
ENDROOT
BRANCH   2   3
HETATM    3  C   UNL     1     -10.105  13.990  67.437  1.00  0.00    -0.244 C  
HETATM    4  C   UNL     1      -8.406  14.386  67.686  1.00  0.00    -0.186 C  
HETATM    5  C   UNL     1      -7.459  13.230  67.337  1.00  0.00    -0.134 C  
HETATM    6  C   UNL     1      -8.105  11.846  67.575  1.00  0.00    -0.156 C  
HETATM    7  C   UNL     1      -9.584  11.978  67.869  1.00  0.00    -0.196 C  
HETATM    8  C   UNL     1     -10.268  10.605  68.037  1.00  0.00    -0.202 C  
HETATM    9  C   UNL     1      -9.929  13.208  68.762  1.00  0.00    -0.038 C  
HETATM   10  C   UNL     1     -10.012  14.974  69.314  1.00  0.00    -0.218 C  
HETATM   11  C   UNL     1     -10.236   9.916  66.628  1.00  0.00    -0.293 C  
HETATM   12  C   UNL     1     -11.100  15.668  68.315  1.00  0.00    -0.336 C  
HETATM   13  C   UNL     1      -8.848   9.890  66.001  1.00  0.00    -0.166 C  
HETATM   14  C   UNL     1     -11.729  14.294  67.929  1.00  0.00    -0.359 C  
HETATM   15  C   UNL     1      -8.523   9.013  65.036  1.00  0.00    -0.191 C  
HETATM   16  C   UNL     1      -7.876  11.009  66.311  1.00  0.00    -0.141 C  
HETATM   17  O   UNL     1     -12.746  14.339  66.980  1.00  0.00    -0.483 OA 
HETATM   18  C   UNL     1      -7.191   9.069  64.352  1.00  0.00    -0.098 C  
HETATM   19  C   UNL     1      -6.434  10.488  66.271  1.00  0.00    -0.114 C  
HETATM   20  H   UNL     1     -13.642  14.507  67.251  1.00  0.00     0.000 HD 
HETATM   21  C   UNL     1      -6.146  10.053  64.859  1.00  0.00    -0.116 C  
HETATM   22  O   UNL     1      -6.988   8.364  63.384  1.00  0.00    -0.087 OA 
BRANCH  14  23
HETATM   23  C   UNL     1     -12.239  14.279  69.361  1.00  0.00    -0.319 C  
HETATM   24  C   UNL     1     -12.678  14.266  70.589  1.00  0.00    -0.409 C  
ENDBRANCH  14  23
ENDBRANCH   2   3
TORSDOF 2
ENDMDL
MODEL       52
REMARK 921   NORMALIZED FREE ENERGY PREDICTED BY IDOCK:   -4.55 KCAL/MOL
REMARK 922        TOTAL FREE ENERGY PREDICTED BY IDOCK:   -4.56 KCAL/MOL
REMARK 923 INTER-LIGAND FREE ENERGY PREDICTED BY IDOCK:   -5.08 KCAL/MOL
REMARK 924 INTRA-LIGAND FREE ENERGY PREDICTED BY IDOCK:    0.52 KCAL/MOL
REMARK 927      BINDING AFFINITY PREDICTED BY RF-SCORE:    0.00 PKD
ROOT
HETATM    1  C   UNL     1      -6.561  10.394  69.659  1.00  0.00    -0.085 C  
HETATM    2  C   UNL     1      -8.060  10.685  69.433  1.00  0.00    -0.102 C  
ENDROOT
BRANCH   2   3
HETATM    3  C   UNL     1      -8.861   9.618  68.586  1.00  0.00    -0.128 C  
HETATM    4  C   UNL     1      -8.197  10.037  67.009  1.00  0.00    -0.117 C  
HETATM    5  C   UNL     1      -8.647  11.417  66.511  1.00  0.00    -0.175 C  
HETATM    6  C   UNL     1     -10.053  11.800  67.026  1.00  0.00    -0.232 C  
HETATM    7  C   UNL     1     -10.533  10.823  68.077  1.00  0.00    -0.225 C  
HETATM    8  C   UNL     1     -11.904  11.224  68.662  1.00  0.00    -0.369 C  
HETATM    9  C   UNL     1     -10.148   9.344  67.769  1.00  0.00    -0.246 C  
HETATM   10  C   UNL     1      -9.079   7.880  67.389  1.00  0.00    -0.146 C  
HETATM   11  C   UNL     1     -11.673  12.548  69.473  1.00  0.00    -0.375 C  
HETATM   12  C   UNL     1      -8.300   7.563  68.788  1.00  0.00    -0.129 C  
HETATM   13  C   UNL     1     -10.954  13.626  68.673  1.00  0.00    -0.290 C  
HETATM   14  C   UNL     1      -9.355   8.341  69.634  1.00  0.00    -0.158 C  
HETATM   15  C   UNL     1     -11.028  14.925  69.009  1.00  0.00    -0.251 C  
HETATM   16  C   UNL     1      -9.961  13.216  67.605  1.00  0.00    -0.219 C  
HETATM   17  O   UNL     1      -9.095   8.422  70.999  1.00  0.00    -0.144 OA 
HETATM   18  C   UNL     1     -10.230  15.963  68.280  1.00  0.00    -0.227 C  
HETATM   19  C   UNL     1      -9.936  14.253  66.475  1.00  0.00    -0.289 C  
HETATM   20  H   UNL     1      -9.368   7.718  71.577  1.00  0.00     0.000 HD 
HETATM   21  C   UNL     1      -9.429  15.547  67.054  1.00  0.00    -0.238 C  
HETATM   22  O   UNL     1     -10.201  17.100  68.707  1.00  0.00    -0.294 OA 
BRANCH  14  23
HETATM   23  C   UNL     1     -10.292   7.203  69.263  1.00  0.00    -0.209 C  
HETATM   24  C   UNL     1     -11.096   6.227  68.944  1.00  0.00    -0.434 C  
ENDBRANCH  14  23
ENDBRANCH   2   3
TORSDOF 2
ENDMDL
MODEL       53
REMARK 921   NORMALIZED FREE ENERGY PREDICTED BY IDOCK:   -4.54 KCAL/MOL
REMARK 922        TOTAL FREE ENERGY PREDICTED BY IDOCK:   -4.55 KCAL/MOL
REMARK 923 INTER-LIGAND FREE ENERGY PREDICTED BY IDOCK:   -5.11 KCAL/MOL
REMARK 924 INTRA-LIGAND FREE ENERGY PREDICTED BY IDOCK:    0.56 KCAL/MOL
REMARK 927      BINDING AFFINITY PREDICTED BY RF-SCORE:    0.00 PKD
ROOT
HETATM    1  C   UNL     1     -11.897  15.811  68.873  1.00  0.00    -0.354 C  
HETATM    2  C   UNL     1     -10.398  16.171  68.918  1.00  0.00    -0.250 C  
ENDROOT
BRANCH   2   3
HETATM    3  C   UNL     1      -9.862  17.089  67.748  1.00  0.00    -0.271 C  
HETATM    4  C   UNL     1     -10.201  15.984  66.419  1.00  0.00    -0.315 C  
HETATM    5  C   UNL     1      -9.314  14.732  66.432  1.00  0.00    -0.320 C  
HETATM    6  C   UNL     1      -7.920  15.004  67.043  1.00  0.00    -0.197 C  
HETATM    7  C   UNL     1      -7.865  16.373  67.685  1.00  0.00    -0.160 C  
HETATM    8  C   UNL     1      -6.507  16.641  68.368  1.00  0.00    -0.135 C  
HETATM    9  C   UNL     1      -8.634  17.465  66.882  1.00  0.00    -0.270 C  
HETATM   10  C   UNL     1     -10.041  18.305  66.019  1.00  0.00    -0.278 C  
HETATM   11  C   UNL     1      -6.421  15.660  69.590  1.00  0.00    -0.179 C  
HETATM   12  C   UNL     1     -11.022  18.809  67.223  1.00  0.00    -0.266 C  
HETATM   13  C   UNL     1      -6.700  14.210  69.219  1.00  0.00    -0.122 C  
HETATM   14  C   UNL     1      -9.881  18.728  68.283  1.00  0.00    -0.373 C  
HETATM   15  C   UNL     1      -6.282  13.190  69.987  1.00  0.00    -0.073 C  
HETATM   16  C   UNL     1      -7.651  13.908  68.080  1.00  0.00    -0.144 C  
HETATM   17  O   UNL     1     -10.248  19.029  69.592  1.00  0.00    -0.362 OA 
HETATM   18  C   UNL     1      -6.656  11.774  69.670  1.00  0.00    -0.081 C  
HETATM   19  C   UNL     1      -7.249  12.602  67.382  1.00  0.00    -0.138 C  
HETATM   20  H   UNL     1     -10.259  19.933  69.886  1.00  0.00     0.000 HD 
HETATM   21  C   UNL     1      -7.409  11.485  68.378  1.00  0.00    -0.097 C  
HETATM   22  O   UNL     1      -6.393  10.895  70.466  1.00  0.00    -0.268 OA 
BRANCH  14  23
HETATM   23  C   UNL     1      -9.288  19.912  67.535  1.00  0.00    -0.465 C  
HETATM   24  C   UNL     1      -8.779  20.927  66.895  1.00  0.00     0.007 C  
ENDBRANCH  14  23
ENDBRANCH   2   3
TORSDOF 2
ENDMDL
MODEL       54
REMARK 921   NORMALIZED FREE ENERGY PREDICTED BY IDOCK:   -4.53 KCAL/MOL
REMARK 922        TOTAL FREE ENERGY PREDICTED BY IDOCK:   -4.55 KCAL/MOL
REMARK 923 INTER-LIGAND FREE ENERGY PREDICTED BY IDOCK:   -5.16 KCAL/MOL
REMARK 924 INTRA-LIGAND FREE ENERGY PREDICTED BY IDOCK:    0.61 KCAL/MOL
REMARK 927      BINDING AFFINITY PREDICTED BY RF-SCORE:    0.00 PKD
ROOT
HETATM    1  C   UNL     1      -7.233  11.594  68.022  1.00  0.00    -0.083 C  
HETATM    2  C   UNL     1      -8.617  12.193  68.350  1.00  0.00    -0.141 C  
ENDROOT
BRANCH   2   3
HETATM    3  C   UNL     1      -9.845  11.201  68.279  1.00  0.00    -0.195 C  
HETATM    4  C   UNL     1     -10.142  11.332  66.547  1.00  0.00    -0.256 C  
HETATM    5  C   UNL     1     -10.669  12.710  66.127  1.00  0.00    -0.293 C  
HETATM    6  C   UNL     1     -11.507  13.384  67.236  1.00  0.00    -0.374 C  
HETATM    7  C   UNL     1     -11.402  12.620  68.539  1.00  0.00    -0.333 C  
HETATM    8  C   UNL     1     -12.170  13.313  69.684  1.00  0.00    -0.258 C  
HETATM    9  C   UNL     1     -11.387  11.073  68.348  1.00  0.00    -0.363 C  
HETATM   10  C   UNL     1     -10.847   9.413  67.729  1.00  0.00    -0.223 C  
HETATM   11  C   UNL     1     -11.410  14.653  69.984  1.00  0.00    -0.288 C  
HETATM   12  C   UNL     1      -9.451   9.111  68.520  1.00  0.00    -0.151 C  
HETATM   13  C   UNL     1     -11.169  15.500  68.742  1.00  0.00    -0.316 C  
HETATM   14  C   UNL     1      -9.780  10.145  69.640  1.00  0.00    -0.221 C  
HETATM   15  C   UNL     1     -10.928  16.820  68.820  1.00  0.00    -0.275 C  
HETATM   16  C   UNL     1     -10.983  14.814  67.404  1.00  0.00    -0.313 C  
HETATM   17  O   UNL     1      -8.796  10.320  70.610  1.00  0.00    -0.197 OA 
HETATM   18  C   UNL     1     -10.585  17.621  67.601  1.00  0.00    -0.362 C  
HETATM   19  C   UNL     1     -11.502  15.708  66.270  1.00  0.00     0.189 C  
HETATM   20  H   UNL     1      -8.760   9.738  71.360  1.00  0.00     0.000 HD 
HETATM   21  C   UNL     1     -10.647  16.946  66.238  1.00  0.00    -0.191 C  
HETATM   22  O   UNL     1     -10.223  18.774  67.728  1.00  0.00    -0.353 OA 
BRANCH  14  23
HETATM   23  C   UNL     1     -10.860   9.156  70.048  1.00  0.00    -0.256 C  
HETATM   24  C   UNL     1     -11.786   8.309  70.399  1.00  0.00     0.097 C  
ENDBRANCH  14  23
ENDBRANCH   2   3
TORSDOF 2
ENDMDL
MODEL       55
REMARK 921   NORMALIZED FREE ENERGY PREDICTED BY IDOCK:   -4.52 KCAL/MOL
REMARK 922        TOTAL FREE ENERGY PREDICTED BY IDOCK:   -4.54 KCAL/MOL
REMARK 923 INTER-LIGAND FREE ENERGY PREDICTED BY IDOCK:   -5.11 KCAL/MOL
REMARK 924 INTRA-LIGAND FREE ENERGY PREDICTED BY IDOCK:    0.57 KCAL/MOL
REMARK 927      BINDING AFFINITY PREDICTED BY RF-SCORE:    0.00 PKD
ROOT
HETATM    1  C   UNL     1      -7.593  11.465  68.898  1.00  0.00    -0.114 C  
HETATM    2  C   UNL     1      -8.075  11.329  67.438  1.00  0.00    -0.135 C  
ENDROOT
BRANCH   2   3
HETATM    3  C   UNL     1      -9.623  11.528  67.190  1.00  0.00    -0.189 C  
HETATM    4  C   UNL     1     -10.188  10.198  68.198  1.00  0.00    -0.200 C  
HETATM    5  C   UNL     1      -9.829   8.817  67.633  1.00  0.00    -0.228 C  
HETATM    6  C   UNL     1      -9.764   8.811  66.089  1.00  0.00    -0.320 C  
HETATM    7  C   UNL     1      -9.840  10.217  65.534  1.00  0.00    -0.365 C  
HETATM    8  C   UNL     1      -9.702  10.245  63.997  1.00  0.00    -0.343 C  
HETATM    9  C   UNL     1     -10.835  11.134  66.309  1.00  0.00    -0.266 C  
HETATM   10  C   UNL     1     -11.613  12.023  67.734  1.00  0.00    -0.400 C  
HETATM   11  C   UNL     1      -8.232   9.803  63.673  1.00  0.00    -0.158 C  
HETATM   12  C   UNL     1     -10.565  13.223  68.095  1.00  0.00    -0.259 C  
HETATM   13  C   UNL     1      -7.831   8.499  64.349  1.00  0.00    -0.140 C  
HETATM   14  C   UNL     1      -9.895  13.155  66.688  1.00  0.00    -0.261 C  
HETATM   15  C   UNL     1      -6.814   7.748  63.894  1.00  0.00    -0.062 C  
HETATM   16  C   UNL     1      -8.445   8.141  65.687  1.00  0.00    -0.170 C  
HETATM   17  O   UNL     1      -8.815  14.012  66.491  1.00  0.00    -0.441 OA 
HETATM   18  C   UNL     1      -6.361   6.525  64.631  1.00  0.00    -0.038 C  
HETATM   19  C   UNL     1      -8.556   6.617  65.832  1.00  0.00    -0.153 C  
HETATM   20  H   UNL     1      -8.965  14.909  66.215  1.00  0.00     0.000 HD 
HETATM   21  C   UNL     1      -7.159   6.058  65.840  1.00  0.00    -0.074 C  
HETATM   22  O   UNL     1      -5.345   5.959  64.278  1.00  0.00    -0.016 OA 
BRANCH  14  23
HETATM   23  C   UNL     1     -11.213  13.719  66.183  1.00  0.00    -0.301 C  
HETATM   24  C   UNL     1     -12.344  14.204  65.750  1.00  0.00    -0.481 C  
ENDBRANCH  14  23
ENDBRANCH   2   3
TORSDOF 2
ENDMDL
MODEL       56
REMARK 921   NORMALIZED FREE ENERGY PREDICTED BY IDOCK:   -4.52 KCAL/MOL
REMARK 922        TOTAL FREE ENERGY PREDICTED BY IDOCK:   -4.54 KCAL/MOL
REMARK 923 INTER-LIGAND FREE ENERGY PREDICTED BY IDOCK:   -5.55 KCAL/MOL
REMARK 924 INTRA-LIGAND FREE ENERGY PREDICTED BY IDOCK:    1.02 KCAL/MOL
REMARK 927      BINDING AFFINITY PREDICTED BY RF-SCORE:    0.00 PKD
ROOT
HETATM    1  C   UNL     1     -11.404  11.913  68.833  1.00  0.00    -0.335 C  
HETATM    2  C   UNL     1     -11.772  11.656  67.356  1.00  0.00    -0.278 C  
ENDROOT
BRANCH   2   3
HETATM    3  C   UNL     1     -11.203  12.687  66.302  1.00  0.00    -0.354 C  
HETATM    4  C   UNL     1     -11.155  11.595  64.921  1.00  0.00    -0.317 C  
HETATM    5  C   UNL     1     -10.101  10.489  65.061  1.00  0.00    -0.390 C  
HETATM    6  C   UNL     1      -8.880  10.939  65.894  1.00  0.00    -0.197 C  
HETATM    7  C   UNL     1      -9.135  12.277  66.555  1.00  0.00    -0.188 C  
HETATM    8  C   UNL     1      -7.960  12.716  67.453  1.00  0.00    -0.177 C  
HETATM    9  C   UNL     1      -9.925  13.273  65.652  1.00  0.00    -0.242 C  
HETATM   10  C   UNL     1     -11.287  13.928  64.584  1.00  0.00    -0.380 C  
HETATM   11  C   UNL     1      -7.921  11.713  68.660  1.00  0.00    -0.127 C  
HETATM   12  C   UNL     1     -12.512  14.235  65.619  1.00  0.00    -0.432 C  
HETATM   13  C   UNL     1      -7.915  10.252  68.229  1.00  0.00    -0.106 C  
HETATM   14  C   UNL     1     -11.555  14.284  66.848  1.00  0.00    -0.387 C  
HETATM   15  C   UNL     1      -7.474   9.277  69.041  1.00  0.00    -0.073 C  
HETATM   16  C   UNL     1      -8.616   9.857  66.946  1.00  0.00    -0.131 C  
HETATM   17  O   UNL     1     -12.167  14.478  68.084  1.00  0.00    -0.570 OA 
HETATM   18  C   UNL     1      -7.573   7.834  68.648  1.00  0.00    -0.105 C  
HETATM   19  C   UNL     1      -7.914   8.652  66.306  1.00  0.00    -0.102 C  
HETATM   20  H   UNL     1     -12.361  15.358  68.385  1.00  0.00     0.000 HD 
HETATM   21  C   UNL     1      -8.060   7.487  67.247  1.00  0.00    -0.115 C  
HETATM   22  O   UNL     1      -7.310   6.974  69.464  1.00  0.00    -0.088 OA 
BRANCH  14  23
HETATM   23  C   UNL     1     -11.037  15.570  66.223  1.00  0.00    -0.177 C  
HETATM   24  C   UNL     1     -10.593  16.673  65.688  1.00  0.00    -0.282 C  
ENDBRANCH  14  23
ENDBRANCH   2   3
TORSDOF 2
ENDMDL
MODEL       57
REMARK 921   NORMALIZED FREE ENERGY PREDICTED BY IDOCK:   -4.51 KCAL/MOL
REMARK 922        TOTAL FREE ENERGY PREDICTED BY IDOCK:   -4.53 KCAL/MOL
REMARK 923 INTER-LIGAND FREE ENERGY PREDICTED BY IDOCK:   -5.04 KCAL/MOL
REMARK 924 INTRA-LIGAND FREE ENERGY PREDICTED BY IDOCK:    0.51 KCAL/MOL
REMARK 927      BINDING AFFINITY PREDICTED BY RF-SCORE:    0.00 PKD
ROOT
HETATM    1  C   UNL     1      -5.570  12.331  67.536  1.00  0.00    -0.121 C  
HETATM    2  C   UNL     1      -6.959  11.707  67.787  1.00  0.00    -0.084 C  
ENDROOT
BRANCH   2   3
HETATM    3  C   UNL     1      -6.991  10.147  68.043  1.00  0.00    -0.082 C  
HETATM    4  C   UNL     1      -6.661   9.641  66.388  1.00  0.00    -0.076 C  
HETATM    5  C   UNL     1      -7.813   9.948  65.421  1.00  0.00    -0.132 C  
HETATM    6  C   UNL     1      -9.193   9.910  66.116  1.00  0.00    -0.211 C  
HETATM    7  C   UNL     1      -9.043   9.808  67.619  1.00  0.00    -0.140 C  
HETATM    8  C   UNL     1     -10.406   9.842  68.342  1.00  0.00    -0.226 C  
HETATM    9  C   UNL     1      -7.875   8.876  68.062  1.00  0.00    -0.102 C  
HETATM   10  C   UNL     1      -6.155   8.203  68.191  1.00  0.00    -0.046 C  
HETATM   11  C   UNL     1     -10.988  11.284  68.130  1.00  0.00    -0.284 C  
HETATM   12  C   UNL     1      -5.358   9.282  69.121  1.00  0.00    -0.036 C  
HETATM   13  C   UNL     1     -11.004  11.718  66.670  1.00  0.00    -0.342 C  
HETATM   14  C   UNL     1      -6.681   9.856  69.713  1.00  0.00    -0.076 C  
HETATM   15  C   UNL     1     -11.814  12.695  66.231  1.00  0.00    -0.471 C  
HETATM   16  C   UNL     1      -9.937  11.192  65.731  1.00  0.00    -0.292 C  
HETATM   17  O   UNL     1      -6.537  10.927  70.591  1.00  0.00    -0.447 OA 
HETATM   18  C   UNL     1     -11.743  13.187  64.817  1.00  0.00    -0.347 C  
HETATM   19  C   UNL     1     -10.493  11.078  64.305  1.00  0.00    -0.427 C  
HETATM   20  H   UNL     1      -6.366  10.767  71.512  1.00  0.00     0.000 HD 
HETATM   21  C   UNL     1     -10.828  12.468  63.835  1.00  0.00    -0.472 C  
HETATM   22  O   UNL     1     -12.377  14.172  64.495  1.00  0.00    -0.532 OA 
BRANCH  14  23
HETATM   23  C   UNL     1      -6.791   8.512  70.415  1.00  0.00    -0.037 C  
HETATM   24  C   UNL     1      -6.885   7.359  71.017  1.00  0.00    -0.054 C  
ENDBRANCH  14  23
ENDBRANCH   2   3
TORSDOF 2
ENDMDL
MODEL       58
REMARK 921   NORMALIZED FREE ENERGY PREDICTED BY IDOCK:   -4.47 KCAL/MOL
REMARK 922        TOTAL FREE ENERGY PREDICTED BY IDOCK:   -4.48 KCAL/MOL
REMARK 923 INTER-LIGAND FREE ENERGY PREDICTED BY IDOCK:   -5.46 KCAL/MOL
REMARK 924 INTRA-LIGAND FREE ENERGY PREDICTED BY IDOCK:    0.98 KCAL/MOL
REMARK 927      BINDING AFFINITY PREDICTED BY RF-SCORE:    0.00 PKD
ROOT
HETATM    1  C   UNL     1     -10.417  12.501  64.466  1.00  0.00    -0.366 C  
HETATM    2  C   UNL     1     -10.523  10.965  64.567  1.00  0.00    -0.393 C  
ENDROOT
BRANCH   2   3
HETATM    3  C   UNL     1      -9.164  10.178  64.740  1.00  0.00    -0.291 C  
HETATM    4  C   UNL     1      -9.785   8.871  65.744  1.00  0.00    -0.193 C  
HETATM    5  C   UNL     1     -10.204   9.332  67.146  1.00  0.00    -0.324 C  
HETATM    6  C   UNL     1      -9.367  10.531  67.647  1.00  0.00    -0.160 C  
HETATM    7  C   UNL     1      -8.504  11.094  66.538  1.00  0.00    -0.165 C  
HETATM    8  C   UNL     1      -7.713  12.339  66.991  1.00  0.00    -0.089 C  
HETATM    9  C   UNL     1      -7.895   9.999  65.611  1.00  0.00    -0.138 C  
HETATM   10  C   UNL     1      -7.831   8.551  64.458  1.00  0.00    -0.138 C  
HETATM   11  C   UNL     1      -8.769  13.472  67.244  1.00  0.00    -0.228 C  
HETATM   12  C   UNL     1      -8.399   9.127  63.040  1.00  0.00    -0.196 C  
HETATM   13  C   UNL     1      -9.907  13.041  68.161  1.00  0.00    -0.228 C  
HETATM   14  C   UNL     1      -8.111  10.606  63.443  1.00  0.00    -0.004 C  
HETATM   15  C   UNL     1     -10.658  13.935  68.825  1.00  0.00    -0.258 C  
HETATM   16  C   UNL     1     -10.345  11.591  68.164  1.00  0.00    -0.211 C  
HETATM   17  O   UNL     1      -8.501  11.572  62.520  1.00  0.00    -0.608 OA 
HETATM   18  C   UNL     1     -11.842  13.505  69.637  1.00  0.00    -0.336 C  
HETATM   19  C   UNL     1     -10.873  11.197  69.550  1.00  0.00    -0.241 C  
HETATM   20  H   UNL     1      -7.921  11.808  61.805  1.00  0.00     0.000 HD 
HETATM   21  C   UNL     1     -12.107  12.016  69.817  1.00  0.00    -0.317 C  
HETATM   22  O   UNL     1     -12.588  14.347  70.096  1.00  0.00    -0.345 OA 
BRANCH  14  23
HETATM   23  C   UNL     1      -6.648  10.211  63.322  1.00  0.00    -0.134 C  
HETATM   24  C   UNL     1      -5.393   9.871  63.217  1.00  0.00    -0.093 C  
ENDBRANCH  14  23
ENDBRANCH   2   3
TORSDOF 2
ENDMDL
MODEL       59
REMARK 921   NORMALIZED FREE ENERGY PREDICTED BY IDOCK:   -4.46 KCAL/MOL
REMARK 922        TOTAL FREE ENERGY PREDICTED BY IDOCK:   -4.47 KCAL/MOL
REMARK 923 INTER-LIGAND FREE ENERGY PREDICTED BY IDOCK:   -5.05 KCAL/MOL
REMARK 924 INTRA-LIGAND FREE ENERGY PREDICTED BY IDOCK:    0.57 KCAL/MOL
REMARK 927      BINDING AFFINITY PREDICTED BY RF-SCORE:    0.00 PKD
ROOT
HETATM    1  C   UNL     1     -11.034   6.336  66.988  1.00  0.00    -0.442 C  
HETATM    2  C   UNL     1     -10.851   7.085  68.325  1.00  0.00    -0.198 C  
ENDROOT
BRANCH   2   3
HETATM    3  C   UNL     1      -9.649   8.109  68.396  1.00  0.00    -0.155 C  
HETATM    4  C   UNL     1      -8.350   6.954  68.107  1.00  0.00    -0.118 C  
HETATM    5  C   UNL     1      -8.151   5.967  69.264  1.00  0.00    -0.106 C  
HETATM    6  C   UNL     1      -8.521   6.580  70.634  1.00  0.00    -0.134 C  
HETATM    7  C   UNL     1      -9.206   7.919  70.464  1.00  0.00    -0.158 C  
HETATM    8  C   UNL     1      -9.652   8.520  71.813  1.00  0.00    -0.337 C  
HETATM    9  C   UNL     1      -8.599   8.782  69.315  1.00  0.00    -0.130 C  
HETATM   10  C   UNL     1      -8.035   9.242  67.613  1.00  0.00    -0.103 C  
HETATM   11  C   UNL     1     -10.794   7.592  72.358  1.00  0.00    -0.341 C  
HETATM   12  C   UNL     1      -9.414   9.481  66.771  1.00  0.00    -0.217 C  
HETATM   13  C   UNL     1     -10.412   6.118  72.385  1.00  0.00    -0.228 C  
HETATM   14  C   UNL     1     -10.253   9.690  68.069  1.00  0.00    -0.194 C  
HETATM   15  C   UNL     1     -11.047   5.236  73.174  1.00  0.00    -0.384 C  
HETATM   16  C   UNL     1      -9.443   5.587  71.348  1.00  0.00    -0.182 C  
HETATM   17  O   UNL     1     -11.619   9.888  67.881  1.00  0.00    -0.583 OA 
HETATM   18  C   UNL     1     -10.736   3.772  73.111  1.00  0.00    -0.176 C  
HETATM   19  C   UNL     1      -8.627   4.425  71.929  1.00  0.00    -0.121 C  
HETATM   20  H   UNL     1     -11.952  10.760  67.700  1.00  0.00     0.000 HD 
HETATM   21  C   UNL     1      -9.584   3.303  72.233  1.00  0.00    -0.202 C  
HETATM   22  O   UNL     1     -11.433   2.987  73.724  1.00  0.00    -0.183 OA 
BRANCH  14  23
HETATM   23  C   UNL     1      -9.468  10.985  68.205  1.00  0.00    -0.172 C  
HETATM   24  C   UNL     1      -8.795  12.096  68.320  1.00  0.00    -0.182 C  
ENDBRANCH  14  23
ENDBRANCH   2   3
TORSDOF 2
ENDMDL
MODEL       60
REMARK 921   NORMALIZED FREE ENERGY PREDICTED BY IDOCK:   -4.44 KCAL/MOL
REMARK 922        TOTAL FREE ENERGY PREDICTED BY IDOCK:   -4.44 KCAL/MOL
REMARK 923 INTER-LIGAND FREE ENERGY PREDICTED BY IDOCK:   -4.98 KCAL/MOL
REMARK 924 INTRA-LIGAND FREE ENERGY PREDICTED BY IDOCK:    0.54 KCAL/MOL
REMARK 927      BINDING AFFINITY PREDICTED BY RF-SCORE:    0.00 PKD
ROOT
HETATM    1  C   UNL     1      -7.665  13.922  68.495  1.00  0.00    -0.139 C  
HETATM    2  C   UNL     1      -8.835  12.968  68.815  1.00  0.00     0.174 C  
ENDROOT
BRANCH   2   3
HETATM    3  C   UNL     1      -9.550  12.294  67.577  1.00  0.00    -0.184 C  
HETATM    4  C   UNL     1     -10.181  13.769  66.850  1.00  0.00    -0.261 C  
HETATM    5  C   UNL     1     -11.286  14.430  67.686  1.00  0.00    -0.348 C  
HETATM    6  C   UNL     1     -12.110  13.401  68.493  1.00  0.00    -0.283 C  
HETATM    7  C   UNL     1     -11.472  12.029  68.438  1.00  0.00    -0.356 C  
HETATM    8  C   UNL     1     -12.234  10.999  69.298  1.00  0.00    -0.280 C  
HETATM    9  C   UNL     1     -10.869  11.683  67.043  1.00  0.00    -0.311 C  
HETATM   10  C   UNL     1      -9.827  11.850  65.522  1.00  0.00    -0.257 C  
HETATM   11  C   UNL     1     -12.038  11.433  70.793  1.00  0.00    -0.433 C  
HETATM   12  C   UNL     1      -8.310  11.509  66.020  1.00  0.00     0.042 C  
HETATM   13  C   UNL     1     -12.388  12.893  71.047  1.00  0.00    -0.318 C  
HETATM   14  C   UNL     1      -8.820  10.759  67.289  1.00  0.00    -0.133 C  
HETATM   15  C   UNL     1     -12.689  13.346  72.276  1.00  0.00    -0.161 C  
HETATM   16  C   UNL     1     -12.185  13.905  69.938  1.00  0.00    -0.393 C  
HETATM   17  O   UNL     1      -7.832  10.286  68.149  1.00  0.00    -0.101 OA 
HETATM   18  C   UNL     1     -12.925  14.804  72.530  1.00  0.00    -0.392 C  
HETATM   19  C   UNL     1     -13.217  15.035  70.054  1.00  0.00     0.236 C  
HETATM   20  H   UNL     1      -7.430   9.440  67.989  1.00  0.00     0.000 HD 
HETATM   21  C   UNL     1     -12.954  15.761  71.347  1.00  0.00    -0.478 C  
HETATM   22  O   UNL     1     -13.042  15.198  73.674  1.00  0.00    -0.472 OA 
BRANCH  14  23
HETATM   23  C   UNL     1      -9.316   9.712  66.304  1.00  0.00    -0.238 C  
HETATM   24  C   UNL     1      -9.740   8.814  65.460  1.00  0.00     0.103 C  
ENDBRANCH  14  23
ENDBRANCH   2   3
TORSDOF 2
ENDMDL
MODEL       61
REMARK 921   NORMALIZED FREE ENERGY PREDICTED BY IDOCK:   -4.42 KCAL/MOL
REMARK 922        TOTAL FREE ENERGY PREDICTED BY IDOCK:   -4.43 KCAL/MOL
REMARK 923 INTER-LIGAND FREE ENERGY PREDICTED BY IDOCK:   -4.95 KCAL/MOL
REMARK 924 INTRA-LIGAND FREE ENERGY PREDICTED BY IDOCK:    0.52 KCAL/MOL
REMARK 927      BINDING AFFINITY PREDICTED BY RF-SCORE:    0.00 PKD
ROOT
HETATM    1  C   UNL     1      -9.002   4.244  67.403  1.00  0.00    -0.134 C  
HETATM    2  C   UNL     1      -9.749   5.089  68.456  1.00  0.00    -0.215 C  
ENDROOT
BRANCH   2   3
HETATM    3  C   UNL     1      -9.402   6.631  68.492  1.00  0.00    -0.125 C  
HETATM    4  C   UNL     1      -7.736   6.474  69.042  1.00  0.00    -0.109 C  
HETATM    5  C   UNL     1      -7.620   5.967  70.485  1.00  0.00    -0.091 C  
HETATM    6  C   UNL     1      -8.819   6.399  71.360  1.00  0.00    -0.138 C  
HETATM    7  C   UNL     1      -9.915   7.014  70.516  1.00  0.00    -0.191 C  
HETATM    8  C   UNL     1     -11.155   7.387  71.355  1.00  0.00    -0.263 C  
HETATM    9  C   UNL     1      -9.376   7.912  69.362  1.00  0.00    -0.152 C  
HETATM   10  C   UNL     1      -8.417   8.398  67.854  1.00  0.00    -0.131 C  
HETATM   11  C   UNL     1     -11.786   6.036  71.845  1.00  0.00    -0.287 C  
HETATM   12  C   UNL     1      -9.175   7.643  66.621  1.00  0.00    -0.211 C  
HETATM   13  C   UNL     1     -10.781   5.113  72.523  1.00  0.00    -0.286 C  
HETATM   14  C   UNL     1     -10.488   7.465  67.444  1.00  0.00    -0.296 C  
HETATM   15  C   UNL     1     -11.170   4.136  73.360  1.00  0.00    -0.339 C  
HETATM   16  C   UNL     1      -9.331   5.151  72.087  1.00  0.00    -0.162 C  
HETATM   17  O   UNL     1     -11.512   6.769  66.807  1.00  0.00    -0.733 OA 
HETATM   18  C   UNL     1     -10.182   3.167  73.935  1.00  0.00    -0.141 C  
HETATM   19  C   UNL     1      -8.412   4.807  73.266  1.00  0.00    -0.103 C  
HETATM   20  H   UNL     1     -12.110   7.228  66.229  1.00  0.00     0.000 HD 
HETATM   21  C   UNL     1      -8.699   3.385  73.668  1.00  0.00    -0.081 C  
HETATM   22  O   UNL     1     -10.584   2.207  74.561  1.00  0.00    -0.138 OA 
BRANCH  14  23
HETATM   23  C   UNL     1     -10.613   8.974  67.316  1.00  0.00    -0.301 C  
HETATM   24  C   UNL     1     -10.722  10.269  67.206  1.00  0.00    -0.323 C  
ENDBRANCH  14  23
ENDBRANCH   2   3
TORSDOF 2
ENDMDL
MODEL       62
REMARK 921   NORMALIZED FREE ENERGY PREDICTED BY IDOCK:   -4.42 KCAL/MOL
REMARK 922        TOTAL FREE ENERGY PREDICTED BY IDOCK:   -4.42 KCAL/MOL
REMARK 923 INTER-LIGAND FREE ENERGY PREDICTED BY IDOCK:   -5.41 KCAL/MOL
REMARK 924 INTRA-LIGAND FREE ENERGY PREDICTED BY IDOCK:    0.98 KCAL/MOL
REMARK 927      BINDING AFFINITY PREDICTED BY RF-SCORE:    0.00 PKD
ROOT
HETATM    1  C   UNL     1     -12.466   7.464  71.420  1.00  0.00    -0.402 C  
HETATM    2  C   UNL     1     -11.323   7.707  72.428  1.00  0.00    -0.381 C  
ENDROOT
BRANCH   2   3
HETATM    3  C   UNL     1     -10.314   6.510  72.647  1.00  0.00    -0.214 C  
HETATM    4  C   UNL     1      -8.883   7.480  72.984  1.00  0.00    -0.201 C  
HETATM    5  C   UNL     1      -8.378   8.258  71.762  1.00  0.00    -0.193 C  
HETATM    6  C   UNL     1      -8.677   7.528  70.433  1.00  0.00    -0.144 C  
HETATM    7  C   UNL     1      -9.596   6.346  70.656  1.00  0.00    -0.186 C  
HETATM    8  C   UNL     1      -9.970   5.643  69.334  1.00  0.00    -0.261 C  
HETATM    9  C   UNL     1      -9.291   5.565  71.970  1.00  0.00    -0.164 C  
HETATM   10  C   UNL     1      -9.026   5.260  73.777  1.00  0.00    -0.123 C  
HETATM   11  C   UNL     1     -10.862   6.652  68.529  1.00  0.00    -0.319 C  
HETATM   12  C   UNL     1     -10.517   5.353  74.435  1.00  0.00    -0.255 C  
HETATM   13  C   UNL     1     -10.233   8.032  68.388  1.00  0.00    -0.239 C  
HETATM   14  C   UNL     1     -11.215   5.100  73.063  1.00  0.00    -0.322 C  
HETATM   15  C   UNL     1     -10.608   8.886  67.421  1.00  0.00    -0.305 C  
HETATM   16  C   UNL     1      -9.322   8.544  69.485  1.00  0.00    -0.161 C  
HETATM   17  O   UNL     1     -12.607   5.142  73.076  1.00  0.00    -0.358 OA 
HETATM   18  C   UNL     1     -10.061  10.279  67.359  1.00  0.00    -0.202 C  
HETATM   19  C   UNL     1      -8.255   9.477  68.898  1.00  0.00    -0.116 C  
HETATM   20  H   UNL     1     -13.103   4.365  73.306  1.00  0.00     0.000 HD 
HETATM   21  C   UNL     1      -8.962  10.680  68.334  1.00  0.00    -0.149 C  
HETATM   22  O   UNL     1     -10.533  11.071  66.568  1.00  0.00    -0.241 OA 
BRANCH  14  23
HETATM   23  C   UNL     1     -10.652   3.694  73.190  1.00  0.00    -0.269 C  
HETATM   24  C   UNL     1     -10.170   2.487  73.300  1.00  0.00    -0.203 C  
ENDBRANCH  14  23
ENDBRANCH   2   3
TORSDOF 2
ENDMDL
MODEL       63
REMARK 921   NORMALIZED FREE ENERGY PREDICTED BY IDOCK:   -4.39 KCAL/MOL
REMARK 922        TOTAL FREE ENERGY PREDICTED BY IDOCK:   -4.39 KCAL/MOL
REMARK 923 INTER-LIGAND FREE ENERGY PREDICTED BY IDOCK:   -5.37 KCAL/MOL
REMARK 924 INTRA-LIGAND FREE ENERGY PREDICTED BY IDOCK:    0.97 KCAL/MOL
REMARK 927      BINDING AFFINITY PREDICTED BY RF-SCORE:    0.00 PKD
ROOT
HETATM    1  C   UNL     1     -11.643  10.109  70.441  1.00  0.00    -0.396 C  
HETATM    2  C   UNL     1     -10.178   9.627  70.493  1.00  0.00    -0.351 C  
ENDROOT
BRANCH   2   3
HETATM    3  C   UNL     1      -9.661   8.820  69.236  1.00  0.00    -0.162 C  
HETATM    4  C   UNL     1      -7.994   9.391  69.271  1.00  0.00    -0.093 C  
HETATM    5  C   UNL     1      -7.858  10.879  68.921  1.00  0.00    -0.142 C  
HETATM    6  C   UNL     1      -8.952  11.356  67.939  1.00  0.00    -0.153 C  
HETATM    7  C   UNL     1     -10.017  10.297  67.754  1.00  0.00    -0.203 C  
HETATM    8  C   UNL     1     -11.161  10.777  66.836  1.00  0.00    -0.204 C  
HETATM    9  C   UNL     1      -9.446   8.848  67.703  1.00  0.00    -0.164 C  
HETATM   10  C   UNL     1      -8.522   7.335  68.238  1.00  0.00    -0.124 C  
HETATM   11  C   UNL     1     -11.909  11.916  67.613  1.00  0.00    -0.265 C  
HETATM   12  C   UNL     1      -9.425   6.703  69.442  1.00  0.00    -0.146 C  
HETATM   13  C   UNL     1     -10.978  13.004  68.133  1.00  0.00    -0.269 C  
HETATM   14  C   UNL     1     -10.703   7.470  68.982  1.00  0.00    -0.134 C  
HETATM   15  C   UNL     1     -11.426  14.232  68.441  1.00  0.00    -0.331 C  
HETATM   16  C   UNL     1      -9.559  12.640  68.516  1.00  0.00    -0.112 C  
HETATM   17  O   UNL     1     -11.830   7.302  69.781  1.00  0.00    -0.512 OA 
HETATM   18  C   UNL     1     -10.522  15.258  69.053  1.00  0.00    -0.248 C  
HETATM   19  C   UNL     1      -8.620  13.829  68.273  1.00  0.00    -0.175 C  
HETATM   20  H   UNL     1     -12.405   6.557  69.640  1.00  0.00     0.000 HD 
HETATM   21  C   UNL     1      -9.041  14.938  69.199  1.00  0.00    -0.140 C  
HETATM   22  O   UNL     1     -10.994  16.301  69.460  1.00  0.00    -0.304 OA 
BRANCH  14  23
HETATM   23  C   UNL     1     -10.667   6.536  67.783  1.00  0.00    -0.368 C  
HETATM   24  C   UNL     1     -10.637   5.734  66.756  1.00  0.00    -0.373 C  
ENDBRANCH  14  23
ENDBRANCH   2   3
TORSDOF 2
ENDMDL
MODEL       64
REMARK 921   NORMALIZED FREE ENERGY PREDICTED BY IDOCK:   -4.38 KCAL/MOL
REMARK 922        TOTAL FREE ENERGY PREDICTED BY IDOCK:   -4.38 KCAL/MOL
REMARK 923 INTER-LIGAND FREE ENERGY PREDICTED BY IDOCK:   -5.37 KCAL/MOL
REMARK 924 INTRA-LIGAND FREE ENERGY PREDICTED BY IDOCK:    0.99 KCAL/MOL
REMARK 927      BINDING AFFINITY PREDICTED BY RF-SCORE:    0.00 PKD
ROOT
HETATM    1  C   UNL     1     -11.724  11.090  70.278  1.00  0.00    -0.445 C  
HETATM    2  C   UNL     1     -11.883  11.183  68.746  1.00  0.00    -0.388 C  
ENDROOT
BRANCH   2   3
HETATM    3  C   UNL     1     -10.708  11.891  67.961  1.00  0.00    -0.242 C  
HETATM    4  C   UNL     1     -10.867  10.992  66.455  1.00  0.00    -0.253 C  
HETATM    5  C   UNL     1     -10.474   9.515  66.588  1.00  0.00    -0.241 C  
HETATM    6  C   UNL     1      -9.383   9.289  67.659  1.00  0.00    -0.146 C  
HETATM    7  C   UNL     1      -9.145  10.547  68.467  1.00  0.00    -0.154 C  
HETATM    8  C   UNL     1      -8.112  10.328  69.593  1.00  0.00    -0.157 C  
HETATM    9  C   UNL     1      -9.199  11.850  67.613  1.00  0.00    -0.183 C  
HETATM   10  C   UNL     1      -9.870  13.132  66.458  1.00  0.00    -0.265 C  
HETATM   11  C   UNL     1      -8.778   9.352  70.625  1.00  0.00    -0.263 C  
HETATM   12  C   UNL     1     -11.014  13.911  67.324  1.00  0.00    -0.299 C  
HETATM   13  C   UNL     1      -9.335   8.087  69.985  1.00  0.00    -0.156 C  
HETATM   14  C   UNL     1     -10.414  13.430  68.681  1.00  0.00    -0.225 C  
HETATM   15  C   UNL     1      -9.556   6.970  70.699  1.00  0.00    -0.165 C  
HETATM   16  C   UNL     1      -9.856   8.146  68.564  1.00  0.00    -0.190 C  
HETATM   17  O   UNL     1     -11.117  13.810  69.822  1.00  0.00    -0.444 OA 
HETATM   18  C   UNL     1     -10.206   5.770  70.081  1.00  0.00    -0.236 C  
HETATM   19  C   UNL     1      -9.651   6.795  67.865  1.00  0.00    -0.125 C  
HETATM   20  H   UNL     1     -10.955  14.659  70.218  1.00  0.00     0.000 HD 
HETATM   21  C   UNL     1     -10.493   5.777  68.586  1.00  0.00    -0.298 C  
HETATM   22  O   UNL     1     -10.530   4.837  70.790  1.00  0.00    -0.160 OA 
BRANCH  14  23
HETATM   23  C   UNL     1      -9.260  14.360  68.345  1.00  0.00    -0.195 C  
HETATM   24  C   UNL     1      -8.270  15.159  68.056  1.00  0.00    -0.144 C  
ENDBRANCH  14  23
ENDBRANCH   2   3
TORSDOF 2
ENDMDL
MODEL       65
REMARK 921   NORMALIZED FREE ENERGY PREDICTED BY IDOCK:   -4.36 KCAL/MOL
REMARK 922        TOTAL FREE ENERGY PREDICTED BY IDOCK:   -4.36 KCAL/MOL
REMARK 923 INTER-LIGAND FREE ENERGY PREDICTED BY IDOCK:   -5.34 KCAL/MOL
REMARK 924 INTRA-LIGAND FREE ENERGY PREDICTED BY IDOCK:    0.98 KCAL/MOL
REMARK 927      BINDING AFFINITY PREDICTED BY RF-SCORE:    0.00 PKD
ROOT
HETATM    1  C   UNL     1     -11.727  13.631  66.109  1.00  0.00    -0.391 C  
HETATM    2  C   UNL     1     -11.893  12.114  66.340  1.00  0.00    -0.321 C  
ENDROOT
BRANCH   2   3
HETATM    3  C   UNL     1     -10.573  11.303  66.651  1.00  0.00    -0.309 C  
HETATM    4  C   UNL     1     -11.295  10.093  67.709  1.00  0.00    -0.060 C  
HETATM    5  C   UNL     1     -11.778  10.670  69.046  1.00  0.00    -0.305 C  
HETATM    6  C   UNL     1     -10.932  11.878  69.508  1.00  0.00    -0.090 C  
HETATM    7  C   UNL     1      -9.989  12.332  68.414  1.00  0.00    -0.210 C  
HETATM    8  C   UNL     1      -9.184  13.583  68.823  1.00  0.00     0.078 C  
HETATM    9  C   UNL     1      -9.364  11.153  67.608  1.00  0.00    -0.169 C  
HETATM   10  C   UNL     1      -9.281   9.622  66.569  1.00  0.00    -0.197 C  
HETATM   11  C   UNL     1     -10.215  14.762  68.928  1.00  0.00    -0.237 C  
HETATM   12  C   UNL     1      -9.747  10.107  65.081  1.00  0.00    -0.370 C  
HETATM   13  C   UNL     1     -11.417  14.434  69.804  1.00  0.00    -0.328 C  
HETATM   14  C   UNL     1      -9.433  11.602  65.393  1.00  0.00    -0.171 C  
HETATM   15  C   UNL     1     -12.175  15.397  70.355  1.00  0.00    -0.430 C  
HETATM   16  C   UNL     1     -11.903  13.002  69.886  1.00  0.00    -0.377 C  
HETATM   17  O   UNL     1      -9.737  12.508  64.380  1.00  0.00    -0.524 OA 
HETATM   18  C   UNL     1     -13.417  15.063  71.124  1.00  0.00    -0.437 C  
HETATM   19  C   UNL     1     -12.523  12.728  71.263  1.00  0.00    -0.284 C  
HETATM   20  H   UNL     1      -9.109  12.673  63.686  1.00  0.00     0.000 HD 
HETATM   21  C   UNL     1     -13.743  13.600  71.395  1.00  0.00    -0.141 C  
HETATM   22  O   UNL     1     -14.160  15.958  71.474  1.00  0.00    -0.374 OA 
BRANCH  14  23
HETATM   23  C   UNL     1      -7.979  11.157  65.389  1.00  0.00     0.252 C  
HETATM   24  C   UNL     1      -6.733  10.776  65.384  1.00  0.00     0.060 C  
ENDBRANCH  14  23
ENDBRANCH   2   3
TORSDOF 2
ENDMDL
MODEL       66
REMARK 921   NORMALIZED FREE ENERGY PREDICTED BY IDOCK:   -4.27 KCAL/MOL
REMARK 922        TOTAL FREE ENERGY PREDICTED BY IDOCK:   -4.26 KCAL/MOL
REMARK 923 INTER-LIGAND FREE ENERGY PREDICTED BY IDOCK:   -4.88 KCAL/MOL
REMARK 924 INTRA-LIGAND FREE ENERGY PREDICTED BY IDOCK:    0.62 KCAL/MOL
REMARK 927      BINDING AFFINITY PREDICTED BY RF-SCORE:    0.00 PKD
ROOT
HETATM    1  C   UNL     1      -5.883   9.007  68.643  1.00  0.00    -0.041 C  
HETATM    2  C   UNL     1      -7.320   8.521  68.361  1.00  0.00    -0.094 C  
ENDROOT
BRANCH   2   3
HETATM    3  C   UNL     1      -8.071   9.217  67.157  1.00  0.00    -0.109 C  
HETATM    4  C   UNL     1      -8.688  10.606  68.048  1.00  0.00    -0.126 C  
HETATM    5  C   UNL     1      -9.763  10.235  69.077  1.00  0.00    -0.213 C  
HETATM    6  C   UNL     1     -10.591   9.003  68.648  1.00  0.00    -0.194 C  
HETATM    7  C   UNL     1      -9.981   8.333  67.435  1.00  0.00    -0.271 C  
HETATM    8  C   UNL     1     -10.747   7.056  67.029  1.00  0.00    -0.423 C  
HETATM    9  C   UNL     1      -9.412   9.343  66.392  1.00  0.00    -0.259 C  
HETATM   10  C   UNL     1      -8.397  10.732  65.708  1.00  0.00    -0.158 C  
HETATM   11  C   UNL     1     -10.514   6.013  68.177  1.00  0.00    -0.292 C  
HETATM   12  C   UNL     1      -6.877  10.138  65.639  1.00  0.00    -0.124 C  
HETATM   13  C   UNL     1     -10.830   6.561  69.563  1.00  0.00    -0.360 C  
HETATM   14  C   UNL     1      -7.377   8.662  65.680  1.00  0.00    -0.084 C  
HETATM   15  C   UNL     1     -11.099   5.751  70.600  1.00  0.00    -0.272 C  
HETATM   16  C   UNL     1     -10.629   8.037  69.837  1.00  0.00    -0.242 C  
HETATM   17  O   UNL     1      -6.383   7.687  65.701  1.00  0.00    -0.041 OA 
HETATM   18  C   UNL     1     -11.301   6.297  71.981  1.00  0.00    -0.300 C  
HETATM   19  C   UNL     1     -11.635   8.525  70.887  1.00  0.00    -0.295 C  
HETATM   20  H   UNL     1      -6.000   7.381  64.887  1.00  0.00     0.000 HD 
HETATM   21  C   UNL     1     -11.334   7.807  72.175  1.00  0.00    -0.353 C  
HETATM   22  O   UNL     1     -11.388   5.530  72.919  1.00  0.00    -0.291 OA 
BRANCH  14  23
HETATM   23  C   UNL     1      -7.913   8.947  64.286  1.00  0.00    -0.146 C  
HETATM   24  C   UNL     1      -8.373   9.190  63.090  1.00  0.00    -0.193 C  
ENDBRANCH  14  23
ENDBRANCH   2   3
TORSDOF 2
ENDMDL
MODEL       67
REMARK 921   NORMALIZED FREE ENERGY PREDICTED BY IDOCK:   -4.24 KCAL/MOL
REMARK 922        TOTAL FREE ENERGY PREDICTED BY IDOCK:   -4.22 KCAL/MOL
REMARK 923 INTER-LIGAND FREE ENERGY PREDICTED BY IDOCK:   -4.80 KCAL/MOL
REMARK 924 INTRA-LIGAND FREE ENERGY PREDICTED BY IDOCK:    0.58 KCAL/MOL
REMARK 927      BINDING AFFINITY PREDICTED BY RF-SCORE:    0.00 PKD
ROOT
HETATM    1  C   UNL     1      -7.922   6.690  67.219  1.00  0.00    -0.117 C  
HETATM    2  C   UNL     1      -8.790   7.502  68.202  1.00  0.00    -0.127 C  
ENDROOT
BRANCH   2   3
HETATM    3  C   UNL     1      -8.691   9.076  68.089  1.00  0.00    -0.130 C  
HETATM    4  C   UNL     1      -7.223   9.279  69.041  1.00  0.00    -0.071 C  
HETATM    5  C   UNL     1      -7.418   8.959  70.529  1.00  0.00    -0.089 C  
HETATM    6  C   UNL     1      -8.854   9.263  71.014  1.00  0.00    -0.205 C  
HETATM    7  C   UNL     1      -9.767   9.578  69.849  1.00  0.00    -0.252 C  
HETATM    8  C   UNL     1     -11.224   9.813  70.299  1.00  0.00    -0.347 C  
HETATM    9  C   UNL     1      -9.080  10.428  68.737  1.00  0.00    -0.165 C  
HETATM   10  C   UNL     1      -7.840  10.910  67.450  1.00  0.00    -0.113 C  
HETATM   11  C   UNL     1     -11.759   8.433  70.819  1.00  0.00    -0.219 C  
HETATM   12  C   UNL     1      -8.130   9.904  66.198  1.00  0.00    -0.119 C  
HETATM   13  C   UNL     1     -10.846   7.783  71.850  1.00  0.00    -0.281 C  
HETATM   14  C   UNL     1      -9.573   9.585  66.698  1.00  0.00    -0.188 C  
HETATM   15  C   UNL     1     -11.294   6.848  72.705  1.00  0.00    -0.272 C  
HETATM   16  C   UNL     1      -9.353   8.031  71.775  1.00  0.00    -0.218 C  
HETATM   17  O   UNL     1     -10.282   8.653  65.944  1.00  0.00    -0.381 OA 
HETATM   18  C   UNL     1     -10.363   6.139  73.639  1.00  0.00    -0.263 C  
HETATM   19  C   UNL     1      -8.735   7.985  73.179  1.00  0.00    -0.300 C  
HETATM   20  H   UNL     1     -10.767   8.933  65.177  1.00  0.00     0.000 HD 
HETATM   21  C   UNL     1      -8.909   6.587  73.709  1.00  0.00    -0.140 C  
HETATM   22  O   UNL     1     -10.772   5.196  74.287  1.00  0.00    -0.281 OA 
BRANCH  14  23
HETATM   23  C   UNL     1      -9.877  11.025  66.318  1.00  0.00    -0.257 C  
HETATM   24  C   UNL     1     -10.139  12.261  65.994  1.00  0.00    -0.269 C  
ENDBRANCH  14  23
ENDBRANCH   2   3
TORSDOF 2
ENDMDL
MODEL       68
REMARK 921   NORMALIZED FREE ENERGY PREDICTED BY IDOCK:   -4.19 KCAL/MOL
REMARK 922        TOTAL FREE ENERGY PREDICTED BY IDOCK:   -4.17 KCAL/MOL
REMARK 923 INTER-LIGAND FREE ENERGY PREDICTED BY IDOCK:   -4.70 KCAL/MOL
REMARK 924 INTRA-LIGAND FREE ENERGY PREDICTED BY IDOCK:    0.53 KCAL/MOL
REMARK 927      BINDING AFFINITY PREDICTED BY RF-SCORE:    0.00 PKD
ROOT
HETATM    1  C   UNL     1      -7.805   6.158  70.808  1.00  0.00    -0.103 C  
HETATM    2  C   UNL     1      -8.443   7.432  70.216  1.00  0.00    -0.136 C  
ENDROOT
BRANCH   2   3
HETATM    3  C   UNL     1     -10.020   7.519  70.277  1.00  0.00    -0.192 C  
HETATM    4  C   UNL     1     -10.359   6.416  68.946  1.00  0.00    -0.237 C  
HETATM    5  C   UNL     1      -9.943   6.973  67.578  1.00  0.00    -0.201 C  
HETATM    6  C   UNL     1     -10.039   8.514  67.515  1.00  0.00    -0.282 C  
HETATM    7  C   UNL     1     -10.294   9.100  68.887  1.00  0.00    -0.232 C  
HETATM    8  C   UNL     1     -10.320  10.643  68.864  1.00  0.00    -0.225 C  
HETATM    9  C   UNL     1     -11.278   8.252  69.749  1.00  0.00     0.029 C  
HETATM   10  C   UNL     1     -11.977   6.780  70.627  1.00  0.00    -0.418 C  
HETATM   11  C   UNL     1      -8.859  11.110  68.534  1.00  0.00    -0.161 C  
HETATM   12  C   UNL     1     -11.006   6.571  71.922  1.00  0.00    -0.288 C  
HETATM   13  C   UNL     1      -8.278  10.440  67.295  1.00  0.00    -0.121 C  
HETATM   14  C   UNL     1     -10.482   8.039  71.855  1.00  0.00    -0.236 C  
HETATM   15  C   UNL     1      -7.253  10.978  66.614  1.00  0.00    -0.143 C  
HETATM   16  C   UNL     1      -8.716   9.034  66.942  1.00  0.00    -0.132 C  
HETATM   17  O   UNL     1      -9.507   8.377  72.789  1.00  0.00    -0.272 OA 
HETATM   18  C   UNL     1      -6.621  10.257  65.462  1.00  0.00    -0.128 C  
HETATM   19  C   UNL     1      -8.679   8.831  65.421  1.00  0.00    -0.217 C  
HETATM   20  H   UNL     1      -9.762   8.663  73.659  1.00  0.00     0.000 HD 
HETATM   21  C   UNL     1      -7.246   8.955  64.980  1.00  0.00    -0.091 C  
HETATM   22  O   UNL     1      -5.603  10.699  64.969  1.00  0.00    -0.139 OA 
BRANCH  14  23
HETATM   23  C   UNL     1     -11.890   8.417  72.286  1.00  0.00    -0.456 C  
HETATM   24  C   UNL     1     -13.097   8.743  72.657  1.00  0.00    -0.315 C  
ENDBRANCH  14  23
ENDBRANCH   2   3
TORSDOF 2
ENDMDL
MODEL       69
REMARK 921   NORMALIZED FREE ENERGY PREDICTED BY IDOCK:   -4.09 KCAL/MOL
REMARK 922        TOTAL FREE ENERGY PREDICTED BY IDOCK:   -4.06 KCAL/MOL
REMARK 923 INTER-LIGAND FREE ENERGY PREDICTED BY IDOCK:   -4.57 KCAL/MOL
REMARK 924 INTRA-LIGAND FREE ENERGY PREDICTED BY IDOCK:    0.51 KCAL/MOL
REMARK 927      BINDING AFFINITY PREDICTED BY RF-SCORE:    0.00 PKD
ROOT
HETATM    1  C   UNL     1      -6.347   9.400  69.265  1.00  0.00    -0.044 C  
HETATM    2  C   UNL     1      -7.863   9.634  69.100  1.00  0.00    -0.090 C  
ENDROOT
BRANCH   2   3
HETATM    3  C   UNL     1      -8.793   8.373  69.301  1.00  0.00    -0.142 C  
HETATM    4  C   UNL     1      -8.403   7.560  67.788  1.00  0.00    -0.119 C  
HETATM    5  C   UNL     1      -8.931   8.298  66.551  1.00  0.00    -0.189 C  
HETATM    6  C   UNL     1     -10.232   9.080  66.842  1.00  0.00    -0.339 C  
HETATM    7  C   UNL     1     -10.528   9.111  68.326  1.00  0.00    -0.254 C  
HETATM    8  C   UNL     1     -11.783   9.949  68.652  1.00  0.00     0.352 C  
HETATM    9  C   UNL     1     -10.198   7.770  69.051  1.00  0.00    -0.213 C  
HETATM   10  C   UNL     1      -9.206   6.318  69.628  1.00  0.00    -0.144 C  
HETATM   11  C   UNL     1     -11.421  11.440  68.321  1.00  0.00    -0.369 C  
HETATM   12  C   UNL     1      -8.204   6.927  70.764  1.00  0.00    -0.122 C  
HETATM   13  C   UNL     1     -10.848  11.625  66.922  1.00  0.00    -0.322 C  
HETATM   14  C   UNL     1      -9.104   8.181  70.986  1.00  0.00    -0.152 C  
HETATM   15  C   UNL     1     -10.866  12.815  66.301  1.00  0.00    -0.299 C  
HETATM   16  C   UNL     1     -10.046  10.501  66.298  1.00  0.00    -0.290 C  
HETATM   17  O   UNL     1      -8.620   9.120  71.894  1.00  0.00    -0.332 OA 
HETATM   18  C   UNL     1     -10.202  13.009  64.971  1.00  0.00    -0.269 C  
HETATM   19  C   UNL     1     -10.212  10.512  64.773  1.00  0.00    -0.373 C  
HETATM   20  H   UNL     1      -8.791   9.014  72.823  1.00  0.00     0.000 HD 
HETATM   21  C   UNL     1      -9.617  11.796  64.260  1.00  0.00    -0.090 C  
HETATM   22  O   UNL     1     -10.104  14.129  64.511  1.00  0.00    -0.287 OA 
BRANCH  14  23
HETATM   23  C   UNL     1     -10.088   7.199  71.601  1.00  0.00    -0.197 C  
HETATM   24  C   UNL     1     -10.933   6.358  72.128  1.00  0.00    -0.288 C  
ENDBRANCH  14  23
ENDBRANCH   2   3
TORSDOF 2
ENDMDL
MODEL       70
REMARK 921   NORMALIZED FREE ENERGY PREDICTED BY IDOCK:   -4.08 KCAL/MOL
REMARK 922        TOTAL FREE ENERGY PREDICTED BY IDOCK:   -4.05 KCAL/MOL
REMARK 923 INTER-LIGAND FREE ENERGY PREDICTED BY IDOCK:   -4.58 KCAL/MOL
REMARK 924 INTRA-LIGAND FREE ENERGY PREDICTED BY IDOCK:    0.53 KCAL/MOL
REMARK 927      BINDING AFFINITY PREDICTED BY RF-SCORE:    0.00 PKD
ROOT
HETATM    1  C   UNL     1      -5.216  17.484  66.180  1.00  0.00    -0.215 C  
HETATM    2  C   UNL     1      -6.546  16.878  66.674  1.00  0.00    -0.252 C  
ENDROOT
BRANCH   2   3
HETATM    3  C   UNL     1      -7.331  17.707  67.767  1.00  0.00    -0.193 C  
HETATM    4  C   UNL     1      -6.146  17.556  69.061  1.00  0.00    -0.204 C  
HETATM    5  C   UNL     1      -6.023  16.126  69.604  1.00  0.00    -0.171 C  
HETATM    6  C   UNL     1      -7.350  15.340  69.504  1.00  0.00    -0.210 C  
HETATM    7  C   UNL     1      -8.371  16.099  68.684  1.00  0.00    -0.211 C  
HETATM    8  C   UNL     1      -9.682  15.304  68.506  1.00  0.00    -0.211 C  
HETATM    9  C   UNL     1      -8.346  17.638  68.936  1.00  0.00    -0.139 C  
HETATM   10  C   UNL     1      -7.671  19.358  69.055  1.00  0.00    -0.350 C  
HETATM   11  C   UNL     1      -9.334  14.069  67.603  1.00  0.00    -0.203 C  
HETATM   12  C   UNL     1      -7.458  19.827  67.506  1.00  0.00    -0.306 C  
HETATM   13  C   UNL     1      -8.140  13.270  68.108  1.00  0.00    -0.159 C  
HETATM   14  C   UNL     1      -8.449  18.749  66.969  1.00  0.00    -0.281 C  
HETATM   15  C   UNL     1      -7.939  11.991  67.748  1.00  0.00    -0.147 C  
HETATM   16  C   UNL     1      -7.036  13.987  68.858  1.00  0.00    -0.110 C  
HETATM   17  O   UNL     1      -8.588  18.691  65.585  1.00  0.00    -0.324 OA 
HETATM   18  C   UNL     1      -6.705  11.251  68.164  1.00  0.00    -0.058 C  
HETATM   19  C   UNL     1      -6.390  13.045  69.883  1.00  0.00    -0.034 C  
HETATM   20  H   UNL     1      -9.204  19.266  65.145  1.00  0.00     0.000 HD 
HETATM   21  C   UNL     1      -5.732  11.926  69.122  1.00  0.00    -0.059 C  
HETATM   22  O   UNL     1      -6.482  10.152  67.695  1.00  0.00    -0.062 OA 
BRANCH  14  23
HETATM   23  C   UNL     1      -9.518  19.590  67.649  1.00  0.00    -0.416 C  
HETATM   24  C   UNL     1     -10.434  20.311  68.232  1.00  0.00    -0.267 C  
ENDBRANCH  14  23
ENDBRANCH   2   3
TORSDOF 2
ENDMDL
MODEL       71
REMARK 921   NORMALIZED FREE ENERGY PREDICTED BY IDOCK:   -4.00 KCAL/MOL
REMARK 922        TOTAL FREE ENERGY PREDICTED BY IDOCK:   -3.95 KCAL/MOL
REMARK 923 INTER-LIGAND FREE ENERGY PREDICTED BY IDOCK:   -4.97 KCAL/MOL
REMARK 924 INTRA-LIGAND FREE ENERGY PREDICTED BY IDOCK:    1.02 KCAL/MOL
REMARK 927      BINDING AFFINITY PREDICTED BY RF-SCORE:    0.00 PKD
ROOT
HETATM    1  C   UNL     1      -9.654  10.248  69.423  1.00  0.00    -0.237 C  
HETATM    2  C   UNL     1      -9.339   9.317  70.612  1.00  0.00    -0.329 C  
ENDROOT
BRANCH   2   3
HETATM    3  C   UNL     1     -10.359   8.138  70.870  1.00  0.00    -0.218 C  
HETATM    4  C   UNL     1      -9.178   6.909  71.313  1.00  0.00    -0.157 C  
HETATM    5  C   UNL     1      -8.293   6.470  70.138  1.00  0.00    -0.134 C  
HETATM    6  C   UNL     1      -9.025   6.567  68.780  1.00  0.00    -0.124 C  
HETATM    7  C   UNL     1     -10.347   7.289  68.925  1.00  0.00    -0.207 C  
HETATM    8  C   UNL     1     -11.065   7.466  67.570  1.00  0.00    -0.045 C  
HETATM    9  C   UNL     1     -11.105   6.935  70.241  1.00  0.00    -0.342 C  
HETATM   10  C   UNL     1     -11.412   6.728  72.055  1.00  0.00    -0.317 C  
HETATM   11  C   UNL     1     -10.193   8.464  66.730  1.00  0.00    -0.376 C  
HETATM   12  C   UNL     1     -11.584   8.249  72.622  1.00  0.00    -0.419 C  
HETATM   13  C   UNL     1      -8.725   8.066  66.654  1.00  0.00    -0.153 C  
HETATM   14  C   UNL     1     -11.909   8.816  71.205  1.00  0.00    -0.303 C  
HETATM   15  C   UNL     1      -7.918   8.520  65.681  1.00  0.00    -0.107 C  
HETATM   16  C   UNL     1      -8.102   7.317  67.813  1.00  0.00    -0.115 C  
HETATM   17  O   UNL     1     -12.096  10.194  71.133  1.00  0.00    -0.328 OA 
HETATM   18  C   UNL     1      -6.452   8.208  65.679  1.00  0.00    -0.049 C  
HETATM   19  C   UNL     1      -6.991   6.386  67.310  1.00  0.00    -0.072 C  
HETATM   20  H   UNL     1     -12.951  10.567  71.318  1.00  0.00     0.000 HD 
HETATM   21  C   UNL     1      -5.904   7.249  66.726  1.00  0.00    -0.034 C  
HETATM   22  O   UNL     1      -5.727   8.759  64.875  1.00  0.00    -0.053 OA 
BRANCH  14  23
HETATM   23  C   UNL     1     -13.207   8.036  71.340  1.00  0.00    -0.260 C  
HETATM   24  C   UNL     1     -14.321   7.368  71.457  1.00  0.00    -0.594 C  
ENDBRANCH  14  23
ENDBRANCH   2   3
TORSDOF 2
ENDMDL
MODEL       72
REMARK 921   NORMALIZED FREE ENERGY PREDICTED BY IDOCK:   -3.98 KCAL/MOL
REMARK 922        TOTAL FREE ENERGY PREDICTED BY IDOCK:   -3.93 KCAL/MOL
REMARK 923 INTER-LIGAND FREE ENERGY PREDICTED BY IDOCK:   -4.91 KCAL/MOL
REMARK 924 INTRA-LIGAND FREE ENERGY PREDICTED BY IDOCK:    0.98 KCAL/MOL
REMARK 927      BINDING AFFINITY PREDICTED BY RF-SCORE:    0.00 PKD
ROOT
HETATM    1  C   UNL     1      -7.362  10.623  68.135  1.00  0.00    -0.088 C  
HETATM    2  C   UNL     1      -8.450  11.201  69.064  1.00  0.00    -0.044 C  
ENDROOT
BRANCH   2   3
HETATM    3  C   UNL     1      -9.706  11.847  68.355  1.00  0.00    -0.201 C  
HETATM    4  C   UNL     1     -10.912  11.360  69.543  1.00  0.00    -0.226 C  
HETATM    5  C   UNL     1     -11.157   9.846  69.570  1.00  0.00    -0.255 C  
HETATM    6  C   UNL     1     -10.939   9.189  68.188  1.00  0.00    -0.020 C  
HETATM    7  C   UNL     1     -10.315  10.164  67.214  1.00  0.00    -0.291 C  
HETATM    8  C   UNL     1     -10.018   9.511  65.847  1.00  0.00    -0.342 C  
HETATM    9  C   UNL     1     -10.865  11.616  67.353  1.00  0.00    -0.298 C  
HETATM   10  C   UNL     1     -11.305  13.227  68.152  1.00  0.00    -0.323 C  
HETATM   11  C   UNL     1      -8.879   8.460  66.092  1.00  0.00    -0.198 C  
HETATM   12  C   UNL     1      -9.874  13.980  68.379  1.00  0.00    -0.232 C  
HETATM   13  C   UNL     1      -9.183   7.497  67.232  1.00  0.00    -0.152 C  
HETATM   14  C   UNL     1      -9.161  13.102  67.305  1.00  0.00    -0.221 C  
HETATM   15  C   UNL     1      -8.572   6.305  67.335  1.00  0.00    -0.107 C  
HETATM   16  C   UNL     1     -10.030   7.973  68.395  1.00  0.00    -0.204 C  
HETATM   17  O   UNL     1      -7.797  13.330  67.144  1.00  0.00    -0.326 OA 
HETATM   18  C   UNL     1      -8.799   5.415  68.518  1.00  0.00    -0.100 C  
HETATM   19  C   UNL     1     -10.830   6.803  68.984  1.00  0.00    -0.290 C  
HETATM   20  H   UNL     1      -7.497  14.022  66.566  1.00  0.00     0.000 HD 
HETATM   21  C   UNL     1      -9.845   5.816  69.550  1.00  0.00    -0.231 C  
HETATM   22  O   UNL     1      -8.116   4.419  68.655  1.00  0.00    -0.077 OA 
BRANCH  14  23
HETATM   23  C   UNL     1     -10.023  13.861  66.309  1.00  0.00    -0.315 C  
HETATM   24  C   UNL     1     -10.762  14.511  65.454  1.00  0.00    -0.372 C  
ENDBRANCH  14  23
ENDBRANCH   2   3
TORSDOF 2
ENDMDL
MODEL       73
REMARK 921   NORMALIZED FREE ENERGY PREDICTED BY IDOCK:   -3.88 KCAL/MOL
REMARK 922        TOTAL FREE ENERGY PREDICTED BY IDOCK:   -3.83 KCAL/MOL
REMARK 923 INTER-LIGAND FREE ENERGY PREDICTED BY IDOCK:   -4.39 KCAL/MOL
REMARK 924 INTRA-LIGAND FREE ENERGY PREDICTED BY IDOCK:    0.57 KCAL/MOL
REMARK 927      BINDING AFFINITY PREDICTED BY RF-SCORE:    0.00 PKD
ROOT
HETATM    1  C   UNL     1     -10.936   8.090  72.522  1.00  0.00    -0.430 C  
HETATM    2  C   UNL     1     -10.542   8.216  71.036  1.00  0.00    -0.242 C  
ENDROOT
BRANCH   2   3
HETATM    3  C   UNL     1      -9.299   7.361  70.564  1.00  0.00    -0.157 C  
HETATM    4  C   UNL     1      -8.042   8.456  71.135  1.00  0.00    -0.144 C  
HETATM    5  C   UNL     1      -7.987   9.774  70.352  1.00  0.00    -0.139 C  
HETATM    6  C   UNL     1      -8.434   9.606  68.882  1.00  0.00    -0.125 C  
HETATM    7  C   UNL     1      -9.033   8.235  68.648  1.00  0.00    -0.137 C  
HETATM    8  C   UNL     1      -9.555   8.067  67.206  1.00  0.00    -0.210 C  
HETATM    9  C   UNL     1      -8.294   7.098  69.416  1.00  0.00    -0.133 C  
HETATM   10  C   UNL     1      -7.572   6.161  70.840  1.00  0.00    -0.097 C  
HETATM   11  C   UNL     1     -10.784   9.032  67.060  1.00  0.00    -0.185 C  
HETATM   12  C   UNL     1      -8.864   5.563  71.639  1.00  0.00    -0.141 C  
HETATM   13  C   UNL     1     -10.481  10.462  67.491  1.00  0.00    -0.292 C  
HETATM   14  C   UNL     1      -9.793   5.718  70.396  1.00  0.00    -0.186 C  
HETATM   15  C   UNL     1     -11.222  11.500  67.070  1.00  0.00    -0.365 C  
HETATM   16  C   UNL     1      -9.461  10.704  68.584  1.00  0.00    -0.176 C  
HETATM   17  O   UNL     1     -11.127   5.369  70.590  1.00  0.00    -0.134 OA 
HETATM   18  C   UNL     1     -10.982  12.886  67.586  1.00  0.00    -0.247 C  
HETATM   19  C   UNL     1      -8.754  12.048  68.365  1.00  0.00    -0.147 C  
HETATM   20  H   UNL     1     -11.399   4.463  70.497  1.00  0.00     0.000 HD 
HETATM   21  C   UNL     1      -9.789  13.133  68.500  1.00  0.00    -0.155 C  
HETATM   22  O   UNL     1     -11.765  13.771  67.305  1.00  0.00    -0.339 OA 
BRANCH  14  23
HETATM   23  C   UNL     1      -8.956   4.597  69.800  1.00  0.00    -0.140 C  
HETATM   24  C   UNL     1      -8.240   3.635  69.289  1.00  0.00    -0.070 C  
ENDBRANCH  14  23
ENDBRANCH   2   3
TORSDOF 2
ENDMDL
MODEL       74
REMARK 921   NORMALIZED FREE ENERGY PREDICTED BY IDOCK:   -3.85 KCAL/MOL
REMARK 922        TOTAL FREE ENERGY PREDICTED BY IDOCK:   -3.78 KCAL/MOL
REMARK 923 INTER-LIGAND FREE ENERGY PREDICTED BY IDOCK:   -4.83 KCAL/MOL
REMARK 924 INTRA-LIGAND FREE ENERGY PREDICTED BY IDOCK:    1.04 KCAL/MOL
REMARK 927      BINDING AFFINITY PREDICTED BY RF-SCORE:    0.00 PKD
ROOT
HETATM    1  C   UNL     1     -10.909  10.327  69.119  1.00  0.00    -0.270 C  
HETATM    2  C   UNL     1     -11.493  11.038  67.880  1.00  0.00    -0.358 C  
ENDROOT
BRANCH   2   3
HETATM    3  C   UNL     1     -10.972  12.504  67.602  1.00  0.00    -0.279 C  
HETATM    4  C   UNL     1     -11.268  12.523  65.865  1.00  0.00    -0.356 C  
HETATM    5  C   UNL     1     -10.347  11.577  65.084  1.00  0.00    -0.329 C  
HETATM    6  C   UNL     1      -8.967  11.406  65.759  1.00  0.00    -0.159 C  
HETATM    7  C   UNL     1      -8.955  12.030  67.139  1.00  0.00    -0.185 C  
HETATM    8  C   UNL     1      -7.611  11.809  67.865  1.00  0.00    -0.121 C  
HETATM    9  C   UNL     1      -9.747  13.371  67.218  1.00  0.00    -0.232 C  
HETATM   10  C   UNL     1     -11.168  14.549  67.074  1.00  0.00    -0.342 C  
HETATM   11  C   UNL     1      -7.510  10.271  68.159  1.00  0.00    -0.086 C  
HETATM   12  C   UNL     1     -12.174  14.134  68.291  1.00  0.00    -0.196 C  
HETATM   13  C   UNL     1      -7.746   9.406  66.928  1.00  0.00    -0.091 C  
HETATM   14  C   UNL     1     -11.041  13.401  69.072  1.00  0.00    -0.249 C  
HETATM   15  C   UNL     1      -7.307   8.138  66.859  1.00  0.00    -0.087 C  
HETATM   16  C   UNL     1      -8.678   9.904  65.842  1.00  0.00    -0.154 C  
HETATM   17  O   UNL     1     -11.429  12.773  70.253  1.00  0.00    -0.518 OA 
HETATM   18  C   UNL     1      -7.640   7.263  65.688  1.00  0.00    -0.089 C  
HETATM   19  C   UNL     1      -8.233   9.371  64.474  1.00  0.00    -0.147 C  
HETATM   20  H   UNL     1     -11.467  13.268  71.064  1.00  0.00     0.000 HD 
HETATM   21  C   UNL     1      -8.372   7.873  64.501  1.00  0.00    -0.021 C  
HETATM   22  O   UNL     1      -7.360   6.082  65.729  1.00  0.00    -0.073 OA 
BRANCH  14  23
HETATM   23  C   UNL     1     -10.474  14.795  69.288  1.00  0.00    -0.231 C  
HETATM   24  C   UNL     1      -9.986  15.990  69.473  1.00  0.00    -0.255 C  
ENDBRANCH  14  23
ENDBRANCH   2   3
TORSDOF 2
ENDMDL
MODEL       75
REMARK 921   NORMALIZED FREE ENERGY PREDICTED BY IDOCK:   -3.84 KCAL/MOL
REMARK 922        TOTAL FREE ENERGY PREDICTED BY IDOCK:   -3.78 KCAL/MOL
REMARK 923 INTER-LIGAND FREE ENERGY PREDICTED BY IDOCK:   -4.30 KCAL/MOL
REMARK 924 INTRA-LIGAND FREE ENERGY PREDICTED BY IDOCK:    0.53 KCAL/MOL
REMARK 927      BINDING AFFINITY PREDICTED BY RF-SCORE:    0.00 PKD
ROOT
HETATM    1  C   UNL     1      -8.232   7.199  65.464  1.00  0.00    -0.139 C  
HETATM    2  C   UNL     1      -8.213   7.916  66.830  1.00  0.00    -0.116 C  
ENDROOT
BRANCH   2   3
HETATM    3  C   UNL     1      -9.257   7.409  67.903  1.00  0.00    -0.132 C  
HETATM    4  C   UNL     1     -10.682   8.182  67.215  1.00  0.00    -0.263 C  
HETATM    5  C   UNL     1     -10.652   9.712  67.324  1.00  0.00    -0.315 C  
HETATM    6  C   UNL     1      -9.878  10.200  68.570  1.00  0.00    -0.165 C  
HETATM    7  C   UNL     1      -9.148   9.055  69.240  1.00  0.00    -0.145 C  
HETATM    8  C   UNL     1      -8.307   9.527  70.444  1.00  0.00    -0.226 C  
HETATM    9  C   UNL     1      -9.960   7.724  69.247  1.00  0.00    -0.182 C  
HETATM   10  C   UNL     1     -10.914   6.279  68.593  1.00  0.00    -0.423 C  
HETATM   11  C   UNL     1      -7.147  10.409  69.860  1.00  0.00    -0.160 C  
HETATM   12  C   UNL     1      -9.794   5.339  67.866  1.00  0.00    -0.189 C  
HETATM   13  C   UNL     1      -7.637  11.507  68.925  1.00  0.00    -0.102 C  
HETATM   14  C   UNL     1      -8.625   5.996  68.661  1.00  0.00    -0.112 C  
HETATM   15  C   UNL     1      -6.895  12.595  68.660  1.00  0.00    -0.091 C  
HETATM   16  C   UNL     1      -8.890  11.275  68.106  1.00  0.00    -0.159 C  
HETATM   17  O   UNL     1      -7.347   5.546  68.339  1.00  0.00    -0.073 OA 
HETATM   18  C   UNL     1      -7.340  13.614  67.656  1.00  0.00    -0.176 C  
HETATM   19  C   UNL     1      -9.621  12.602  67.865  1.00  0.00    -0.211 C  
HETATM   20  H   UNL     1      -6.998   4.767  68.757  1.00  0.00     0.000 HD 
HETATM   21  C   UNL     1      -8.721  13.473  67.031  1.00  0.00    -0.197 C  
HETATM   22  O   UNL     1      -6.577  14.501  67.328  1.00  0.00    -0.288 OA 
BRANCH  14  23
HETATM   23  C   UNL     1      -9.227   5.291  69.866  1.00  0.00    -0.178 C  
HETATM   24  C   UNL     1      -9.743   4.685  70.899  1.00  0.00    -0.262 C  
ENDBRANCH  14  23
ENDBRANCH   2   3
TORSDOF 2
ENDMDL
MODEL       76
REMARK 921   NORMALIZED FREE ENERGY PREDICTED BY IDOCK:   -3.83 KCAL/MOL
REMARK 922        TOTAL FREE ENERGY PREDICTED BY IDOCK:   -3.77 KCAL/MOL
REMARK 923 INTER-LIGAND FREE ENERGY PREDICTED BY IDOCK:   -4.32 KCAL/MOL
REMARK 924 INTRA-LIGAND FREE ENERGY PREDICTED BY IDOCK:    0.56 KCAL/MOL
REMARK 927      BINDING AFFINITY PREDICTED BY RF-SCORE:    0.00 PKD
ROOT
HETATM    1  C   UNL     1      -6.076  10.546  69.949  1.00  0.00    -0.079 C  
HETATM    2  C   UNL     1      -7.524  10.477  69.419  1.00  0.00    -0.141 C  
ENDROOT
BRANCH   2   3
HETATM    3  C   UNL     1      -7.708   9.916  67.953  1.00  0.00    -0.090 C  
HETATM    4  C   UNL     1      -7.278  11.390  67.091  1.00  0.00    -0.134 C  
HETATM    5  C   UNL     1      -8.310  12.513  67.261  1.00  0.00    -0.185 C  
HETATM    6  C   UNL     1      -9.744  11.972  67.457  1.00  0.00    -0.188 C  
HETATM    7  C   UNL     1      -9.737  10.472  67.664  1.00  0.00    -0.187 C  
HETATM    8  C   UNL     1     -11.150   9.915  67.936  1.00  0.00    -0.216 C  
HETATM    9  C   UNL     1      -8.695   9.730  66.773  1.00  0.00    -0.140 C  
HETATM   10  C   UNL     1      -7.055   9.291  66.035  1.00  0.00    -0.090 C  
HETATM   11  C   UNL     1     -11.588  10.475  69.335  1.00  0.00    -0.318 C  
HETATM   12  C   UNL     1      -6.255   8.521  67.232  1.00  0.00    -0.056 C  
HETATM   13  C   UNL     1     -11.439  11.986  69.453  1.00  0.00    -0.361 C  
HETATM   14  C   UNL     1      -7.573   8.198  68.000  1.00  0.00    -0.106 C  
HETATM   15  C   UNL     1     -12.123  12.696  70.366  1.00  0.00    -0.381 C  
HETATM   16  C   UNL     1     -10.342  12.683  68.675  1.00  0.00    -0.192 C  
HETATM   17  O   UNL     1      -7.417   7.545  69.221  1.00  0.00    -0.086 OA 
HETATM   18  C   UNL     1     -11.887  14.165  70.545  1.00  0.00    -0.282 C  
HETATM   19  C   UNL     1     -10.778  14.106  68.300  1.00  0.00    -0.256 C  
HETATM   20  H   UNL     1      -7.342   6.598  69.246  1.00  0.00     0.000 HD 
HETATM   21  C   UNL     1     -10.952  14.881  69.579  1.00  0.00    -0.289 C  
HETATM   22  O   UNL     1     -12.406  14.743  71.479  1.00  0.00    -0.311 OA 
BRANCH  14  23
HETATM   23  C   UNL     1      -7.856   7.254  66.843  1.00  0.00    -0.111 C  
HETATM   24  C   UNL     1      -8.097   6.444  65.850  1.00  0.00    -0.124 C  
ENDBRANCH  14  23
ENDBRANCH   2   3
TORSDOF 2
ENDMDL
MODEL       77
REMARK 921   NORMALIZED FREE ENERGY PREDICTED BY IDOCK:   -3.83 KCAL/MOL
REMARK 922        TOTAL FREE ENERGY PREDICTED BY IDOCK:   -3.76 KCAL/MOL
REMARK 923 INTER-LIGAND FREE ENERGY PREDICTED BY IDOCK:   -4.31 KCAL/MOL
REMARK 924 INTRA-LIGAND FREE ENERGY PREDICTED BY IDOCK:    0.54 KCAL/MOL
REMARK 927      BINDING AFFINITY PREDICTED BY RF-SCORE:    0.00 PKD
ROOT
HETATM    1  C   UNL     1      -5.772   8.804  68.763  1.00  0.00    -0.041 C  
HETATM    2  C   UNL     1      -7.207   8.355  68.418  1.00  0.00    -0.085 C  
ENDROOT
BRANCH   2   3
HETATM    3  C   UNL     1      -7.688   8.621  66.936  1.00  0.00    -0.091 C  
HETATM    4  C   UNL     1      -8.049  10.335  67.118  1.00  0.00    -0.121 C  
HETATM    5  C   UNL     1      -9.258  10.605  68.024  1.00  0.00    -0.148 C  
HETATM    6  C   UNL     1     -10.302   9.467  67.969  1.00  0.00    -0.260 C  
HETATM    7  C   UNL     1      -9.762   8.269  67.217  1.00  0.00    -0.234 C  
HETATM    8  C   UNL     1     -10.758   7.090  67.211  1.00  0.00    -0.412 C  
HETATM    9  C   UNL     1      -8.902   8.654  65.975  1.00  0.00    -0.213 C  
HETATM   10  C   UNL     1      -7.553   9.448  64.987  1.00  0.00    -0.109 C  
HETATM   11  C   UNL     1     -10.854   6.579  68.692  1.00  0.00    -0.357 C  
HETATM   12  C   UNL     1      -6.203   8.626  65.395  1.00  0.00    -0.049 C  
HETATM   13  C   UNL     1     -11.149   7.688  69.693  1.00  0.00    -0.074 C  
HETATM   14  C   UNL     1      -7.020   7.403  65.914  1.00  0.00    -0.061 C  
HETATM   15  C   UNL     1     -11.672   7.429  70.903  1.00  0.00    -0.325 C  
HETATM   16  C   UNL     1     -10.647   9.090  69.413  1.00  0.00    -0.231 C  
HETATM   17  O   UNL     1      -6.272   6.366  66.466  1.00  0.00    -0.034 OA 
HETATM   18  C   UNL     1     -11.856   8.515  71.919  1.00  0.00    -0.341 C  
HETATM   19  C   UNL     1     -11.600  10.127  70.021  1.00  0.00    -0.323 C  
HETATM   20  H   UNL     1      -5.904   5.695  65.902  1.00  0.00     0.000 HD 
HETATM   21  C   UNL     1     -11.569   9.954  71.516  1.00  0.00    -0.375 C  
HETATM   22  O   UNL     1     -12.186   8.222  73.052  1.00  0.00    -0.228 OA 
BRANCH  14  23
HETATM   23  C   UNL     1      -7.367   7.185  64.450  1.00  0.00    -0.082 C  
HETATM   24  C   UNL     1      -7.665   6.997  63.195  1.00  0.00    -0.115 C  
ENDBRANCH  14  23
ENDBRANCH   2   3
TORSDOF 2
ENDMDL
MODEL       78
REMARK 921   NORMALIZED FREE ENERGY PREDICTED BY IDOCK:   -3.82 KCAL/MOL
REMARK 922        TOTAL FREE ENERGY PREDICTED BY IDOCK:   -3.76 KCAL/MOL
REMARK 923 INTER-LIGAND FREE ENERGY PREDICTED BY IDOCK:   -4.30 KCAL/MOL
REMARK 924 INTRA-LIGAND FREE ENERGY PREDICTED BY IDOCK:    0.54 KCAL/MOL
REMARK 927      BINDING AFFINITY PREDICTED BY RF-SCORE:    0.00 PKD
ROOT
HETATM    1  C   UNL     1      -8.771   8.631  66.092  1.00  0.00    -0.180 C  
HETATM    2  C   UNL     1      -9.659   8.895  67.326  1.00  0.00    -0.212 C  
ENDROOT
BRANCH   2   3
HETATM    3  C   UNL     1      -9.578  10.345  67.951  1.00  0.00    -0.157 C  
HETATM    4  C   UNL     1      -7.892  10.277  68.459  1.00  0.00    -0.097 C  
HETATM    5  C   UNL     1      -7.646   9.292  69.608  1.00  0.00    -0.084 C  
HETATM    6  C   UNL     1      -8.872   9.153  70.539  1.00  0.00    -0.263 C  
HETATM    7  C   UNL     1     -10.083   9.845  69.952  1.00  0.00    -0.297 C  
HETATM    8  C   UNL     1     -11.341   9.659  70.826  1.00  0.00    -0.409 C  
HETATM    9  C   UNL     1      -9.742  11.189  69.239  1.00  0.00     0.031 C  
HETATM   10  C   UNL     1      -8.928  12.361  68.059  1.00  0.00    -0.194 C  
HETATM   11  C   UNL     1     -11.717   8.138  70.749  1.00  0.00    -0.211 C  
HETATM   12  C   UNL     1      -9.586  12.009  66.607  1.00  0.00    -0.225 C  
HETATM   13  C   UNL     1     -10.549   7.212  71.065  1.00  0.00    -0.239 C  
HETATM   14  C   UNL     1     -10.822  11.315  67.257  1.00  0.00    -0.267 C  
HETATM   15  C   UNL     1     -10.739   5.942  71.459  1.00  0.00    -0.313 C  
HETATM   16  C   UNL     1      -9.141   7.656  70.726  1.00  0.00    -0.153 C  
HETATM   17  O   UNL     1     -11.733  10.747  66.369  1.00  0.00     0.181 OA 
HETATM   18  C   UNL     1      -9.583   5.010  71.661  1.00  0.00    -0.156 C  
HETATM   19  C   UNL     1      -8.139   7.055  71.720  1.00  0.00    -0.099 C  
HETATM   20  H   UNL     1     -12.419  11.283  65.986  1.00  0.00     0.000 HD 
HETATM   21  C   UNL     1      -8.168   5.560  71.548  1.00  0.00    -0.119 C  
HETATM   22  O   UNL     1      -9.796   3.831  71.866  1.00  0.00    -0.164 OA 
BRANCH  14  23
HETATM   23  C   UNL     1     -11.206  12.717  67.702  1.00  0.00    -0.323 C  
HETATM   24  C   UNL     1     -11.536  13.919  68.085  1.00  0.00    -0.346 C  
ENDBRANCH  14  23
ENDBRANCH   2   3
TORSDOF 2
ENDMDL
MODEL       79
REMARK 921   NORMALIZED FREE ENERGY PREDICTED BY IDOCK:   -3.82 KCAL/MOL
REMARK 922        TOTAL FREE ENERGY PREDICTED BY IDOCK:   -3.75 KCAL/MOL
REMARK 923 INTER-LIGAND FREE ENERGY PREDICTED BY IDOCK:   -4.73 KCAL/MOL
REMARK 924 INTRA-LIGAND FREE ENERGY PREDICTED BY IDOCK:    0.98 KCAL/MOL
REMARK 927      BINDING AFFINITY PREDICTED BY RF-SCORE:    0.00 PKD
ROOT
HETATM    1  C   UNL     1      -8.832   6.009  71.988  1.00  0.00    -0.137 C  
HETATM    2  C   UNL     1      -7.954   7.197  71.541  1.00  0.00    -0.102 C  
ENDROOT
BRANCH   2   3
HETATM    3  C   UNL     1      -7.565   7.245  70.010  1.00  0.00    -0.090 C  
HETATM    4  C   UNL     1      -7.498   8.997  69.847  1.00  0.00    -0.065 C  
HETATM    5  C   UNL     1      -8.873   9.668  69.969  1.00  0.00    -0.259 C  
HETATM    6  C   UNL     1     -10.018   8.761  69.466  1.00  0.00    -0.195 C  
HETATM    7  C   UNL     1      -9.523   7.356  69.198  1.00  0.00    -0.149 C  
HETATM    8  C   UNL     1     -10.663   6.410  68.765  1.00  0.00    -0.339 C  
HETATM    9  C   UNL     1      -8.102   7.313  68.558  1.00  0.00    -0.125 C  
HETATM   10  C   UNL     1      -6.287   7.622  68.359  1.00  0.00    -0.041 C  
HETATM   11  C   UNL     1     -11.597   6.236  70.013  1.00  0.00    -0.378 C  
HETATM   12  C   UNL     1      -5.579   6.658  69.470  1.00  0.00    -0.014 C  
HETATM   13  C   UNL     1     -12.034   7.560  70.628  1.00  0.00    -0.161 C  
HETATM   14  C   UNL     1      -6.837   5.742  69.580  1.00  0.00    -0.061 C  
HETATM   15  C   UNL     1     -13.126   7.653  71.405  1.00  0.00    -0.339 C  
HETATM   16  C   UNL     1     -11.107   8.755  70.544  1.00  0.00    -0.278 C  
HETATM   17  O   UNL     1      -6.757   4.715  70.517  1.00  0.00    -0.034 OA 
HETATM   18  C   UNL     1     -13.483   8.936  72.092  1.00  0.00    -0.448 C  
HETATM   19  C   UNL     1     -11.920  10.055  70.487  1.00  0.00    -0.357 C  
HETATM   20  H   UNL     1      -6.355   3.886  70.280  1.00  0.00     0.000 HD 
HETATM   21  C   UNL     1     -12.665  10.184  71.789  1.00  0.00    -0.534 C  
HETATM   22  O   UNL     1     -14.385   8.945  72.906  1.00  0.00    -0.548 OA 
BRANCH  14  23
HETATM   23  C   UNL     1      -6.473   5.304  68.170  1.00  0.00    -0.048 C  
HETATM   24  C   UNL     1      -6.163   4.928  66.961  1.00  0.00    -0.032 C  
ENDBRANCH  14  23
ENDBRANCH   2   3
TORSDOF 2
ENDMDL
MODEL       80
REMARK 921   NORMALIZED FREE ENERGY PREDICTED BY IDOCK:   -3.80 KCAL/MOL
REMARK 922        TOTAL FREE ENERGY PREDICTED BY IDOCK:   -3.73 KCAL/MOL
REMARK 923 INTER-LIGAND FREE ENERGY PREDICTED BY IDOCK:   -4.24 KCAL/MOL
REMARK 924 INTRA-LIGAND FREE ENERGY PREDICTED BY IDOCK:    0.52 KCAL/MOL
REMARK 927      BINDING AFFINITY PREDICTED BY RF-SCORE:    0.00 PKD
ROOT
HETATM    1  C   UNL     1     -11.906   6.594  69.967  1.00  0.00    -0.301 C  
HETATM    2  C   UNL     1     -10.659   6.999  69.153  1.00  0.00    -0.235 C  
ENDROOT
BRANCH   2   3
HETATM    3  C   UNL     1      -9.305   7.119  69.959  1.00  0.00    -0.154 C  
HETATM    4  C   UNL     1      -9.689   8.601  70.830  1.00  0.00    -0.237 C  
HETATM    5  C   UNL     1      -9.766   9.834  69.919  1.00  0.00    -0.273 C  
HETATM    6  C   UNL     1      -8.823   9.726  68.700  1.00  0.00    -0.126 C  
HETATM    7  C   UNL     1      -8.236   8.335  68.586  1.00  0.00    -0.120 C  
HETATM    8  C   UNL     1      -7.348   8.178  67.334  1.00  0.00    -0.089 C  
HETATM    9  C   UNL     1      -7.871   7.704  69.964  1.00  0.00    -0.101 C  
HETATM   10  C   UNL     1      -8.091   7.096  71.699  1.00  0.00    -0.102 C  
HETATM   11  C   UNL     1      -8.305   8.274  66.094  1.00  0.00    -0.125 C  
HETATM   12  C   UNL     1      -8.968   5.727  71.549  1.00  0.00    -0.146 C  
HETATM   13  C   UNL     1      -9.202   9.504  66.118  1.00  0.00    -0.226 C  
HETATM   14  C   UNL     1      -8.578   5.558  70.049  1.00  0.00    -0.120 C  
HETATM   15  C   UNL     1      -9.770   9.989  65.001  1.00  0.00    -0.386 C  
HETATM   16  C   UNL     1      -9.643  10.071  67.452  1.00  0.00    -0.182 C  
HETATM   17  O   UNL     1      -9.163   4.480  69.390  1.00  0.00    -0.106 OA 
HETATM   18  C   UNL     1     -10.736  11.133  65.054  1.00  0.00    -0.231 C  
HETATM   19  C   UNL     1      -9.838  11.590  67.347  1.00  0.00    -0.202 C  
HETATM   20  H   UNL     1      -8.762   3.619  69.440  1.00  0.00     0.000 HD 
HETATM   21  C   UNL     1     -10.968  11.838  66.384  1.00  0.00    -0.341 C  
HETATM   22  O   UNL     1     -11.346  11.445  64.051  1.00  0.00    -0.353 OA 
BRANCH  14  23
HETATM   23  C   UNL     1      -7.188   5.257  70.585  1.00  0.00    -0.068 C  
HETATM   24  C   UNL     1      -5.995   4.999  71.044  1.00  0.00    -0.017 C  
ENDBRANCH  14  23
ENDBRANCH   2   3
TORSDOF 2
ENDMDL
MODEL       81
REMARK 921   NORMALIZED FREE ENERGY PREDICTED BY IDOCK:   -3.80 KCAL/MOL
REMARK 922        TOTAL FREE ENERGY PREDICTED BY IDOCK:   -3.73 KCAL/MOL
REMARK 923 INTER-LIGAND FREE ENERGY PREDICTED BY IDOCK:   -4.69 KCAL/MOL
REMARK 924 INTRA-LIGAND FREE ENERGY PREDICTED BY IDOCK:    0.97 KCAL/MOL
REMARK 927      BINDING AFFINITY PREDICTED BY RF-SCORE:    0.00 PKD
ROOT
HETATM    1  C   UNL     1      -9.473  10.672  65.515  1.00  0.00    -0.261 C  
HETATM    2  C   UNL     1      -9.415   9.292  66.203  1.00  0.00    -0.298 C  
ENDROOT
BRANCH   2   3
HETATM    3  C   UNL     1      -9.424   9.295  67.783  1.00  0.00    -0.160 C  
HETATM    4  C   UNL     1      -7.699   9.031  68.021  1.00  0.00    -0.097 C  
HETATM    5  C   UNL     1      -7.237   7.633  67.590  1.00  0.00    -0.087 C  
HETATM    6  C   UNL     1      -8.342   6.567  67.763  1.00  0.00    -0.119 C  
HETATM    7  C   UNL     1      -9.672   7.210  68.093  1.00  0.00    -0.147 C  
HETATM    8  C   UNL     1     -10.809   6.172  68.199  1.00  0.00    -0.389 C  
HETATM    9  C   UNL     1      -9.547   8.426  69.060  1.00  0.00    -0.160 C  
HETATM   10  C   UNL     1      -8.983  10.066  69.710  1.00  0.00    -0.209 C  
HETATM   11  C   UNL     1     -11.028   5.601  66.754  1.00  0.00    -0.180 C  
HETATM   12  C   UNL     1      -9.743  11.166  68.772  1.00  0.00    -0.194 C  
HETATM   13  C   UNL     1      -9.744   5.110  66.099  1.00  0.00    -0.192 C  
HETATM   14  C   UNL     1     -10.827  10.139  68.324  1.00  0.00    -0.252 C  
HETATM   15  C   UNL     1      -9.758   4.233  65.082  1.00  0.00    -0.199 C  
HETATM   16  C   UNL     1      -8.432   5.780  66.451  1.00  0.00    -0.122 C  
HETATM   17  O   UNL     1     -11.757  10.606  67.399  1.00  0.00    -0.501 OA 
HETATM   18  C   UNL     1      -8.496   3.841  64.375  1.00  0.00    -0.097 C  
HETATM   19  C   UNL     1      -7.277   4.773  66.354  1.00  0.00    -0.077 C  
HETATM   20  H   UNL     1     -12.531  11.072  67.697  1.00  0.00     0.000 HD 
HETATM   21  C   UNL     1      -7.165   4.347  64.915  1.00  0.00    -0.070 C  
HETATM   22  O   UNL     1      -8.562   3.168  63.365  1.00  0.00    -0.089 OA 
BRANCH  14  23
HETATM   23  C   UNL     1     -11.311  10.226  69.763  1.00  0.00    -0.334 C  
HETATM   24  C   UNL     1     -11.724  10.302  70.997  1.00  0.00    -0.461 C  
ENDBRANCH  14  23
ENDBRANCH   2   3
TORSDOF 2
ENDMDL
MODEL       82
REMARK 921   NORMALIZED FREE ENERGY PREDICTED BY IDOCK:   -3.76 KCAL/MOL
REMARK 922        TOTAL FREE ENERGY PREDICTED BY IDOCK:   -3.69 KCAL/MOL
REMARK 923 INTER-LIGAND FREE ENERGY PREDICTED BY IDOCK:   -4.69 KCAL/MOL
REMARK 924 INTRA-LIGAND FREE ENERGY PREDICTED BY IDOCK:    1.00 KCAL/MOL
REMARK 927      BINDING AFFINITY PREDICTED BY RF-SCORE:    0.00 PKD
ROOT
HETATM    1  C   UNL     1     -10.477   6.324  66.786  1.00  0.00    -0.311 C  
HETATM    2  C   UNL     1     -11.068   6.133  68.199  1.00  0.00    -0.328 C  
ENDROOT
BRANCH   2   3
HETATM    3  C   UNL     1     -10.031   6.054  69.388  1.00  0.00    -0.220 C  
HETATM    4  C   UNL     1     -10.982   6.940  70.577  1.00  0.00    -0.313 C  
HETATM    5  C   UNL     1     -11.142   8.427  70.236  1.00  0.00    -0.216 C  
HETATM    6  C   UNL     1      -9.932   8.987  69.455  1.00  0.00    -0.191 C  
HETATM    7  C   UNL     1      -9.002   7.874  69.021  1.00  0.00    -0.145 C  
HETATM    8  C   UNL     1      -7.823   8.398  68.174  1.00  0.00    -0.111 C  
HETATM    9  C   UNL     1      -8.839   6.752  70.090  1.00  0.00    -0.141 C  
HETATM   10  C   UNL     1      -9.319   5.420  71.283  1.00  0.00    -0.182 C  
HETATM   11  C   UNL     1      -8.437   8.909  66.823  1.00  0.00    -0.117 C  
HETATM   12  C   UNL     1      -9.754   4.158  70.342  1.00  0.00    -0.271 C  
HETATM   13  C   UNL     1      -9.594   9.880  67.016  1.00  0.00    -0.218 C  
HETATM   14  C   UNL     1      -8.976   4.718  69.111  1.00  0.00    -0.096 C  
HETATM   15  C   UNL     1      -9.973  10.732  66.049  1.00  0.00    -0.295 C  
HETATM   16  C   UNL     1     -10.479   9.741  68.238  1.00  0.00    -0.255 C  
HETATM   17  O   UNL     1      -9.087   3.977  67.938  1.00  0.00    -0.120 OA 
HETATM   18  C   UNL     1     -11.181  11.604  66.211  1.00  0.00    -0.271 C  
HETATM   19  C   UNL     1     -11.022  11.112  68.661  1.00  0.00    -0.268 C  
HETATM   20  H   UNL     1      -8.505   3.240  67.785  1.00  0.00     0.000 HD 
HETATM   21  C   UNL     1     -11.904  11.615  67.551  1.00  0.00    -0.196 C  
HETATM   22  O   UNL     1     -11.583  12.247  65.262  1.00  0.00    -0.342 OA 
BRANCH  14  23
HETATM   23  C   UNL     1      -7.731   4.389  69.919  1.00  0.00    -0.053 C  
HETATM   24  C   UNL     1      -6.664   4.107  70.613  1.00  0.00    -0.032 C  
ENDBRANCH  14  23
ENDBRANCH   2   3
TORSDOF 2
ENDMDL
MODEL       83
REMARK 921   NORMALIZED FREE ENERGY PREDICTED BY IDOCK:   -3.72 KCAL/MOL
REMARK 922        TOTAL FREE ENERGY PREDICTED BY IDOCK:   -3.64 KCAL/MOL
REMARK 923 INTER-LIGAND FREE ENERGY PREDICTED BY IDOCK:   -4.16 KCAL/MOL
REMARK 924 INTRA-LIGAND FREE ENERGY PREDICTED BY IDOCK:    0.52 KCAL/MOL
REMARK 927      BINDING AFFINITY PREDICTED BY RF-SCORE:    0.00 PKD
ROOT
HETATM    1  C   UNL     1      -9.914  10.616  64.525  1.00  0.00    -0.410 C  
HETATM    2  C   UNL     1      -9.815  10.366  66.044  1.00  0.00    -0.289 C  
ENDROOT
BRANCH   2   3
HETATM    3  C   UNL     1      -9.449  11.617  66.938  1.00  0.00    -0.195 C  
HETATM    4  C   UNL     1      -7.789  11.815  66.382  1.00  0.00     0.099 C  
HETATM    5  C   UNL     1      -6.863  10.675  66.826  1.00  0.00    -0.108 C  
HETATM    6  C   UNL     1      -7.291  10.059  68.177  1.00  0.00    -0.083 C  
HETATM    7  C   UNL     1      -8.647  10.578  68.607  1.00  0.00    -0.139 C  
HETATM    8  C   UNL     1      -9.131   9.923  69.917  1.00  0.00    -0.241 C  
HETATM    9  C   UNL     1      -8.859  12.090  68.290  1.00  0.00    -0.182 C  
HETATM   10  C   UNL     1      -8.959  13.650  67.298  1.00  0.00    -0.226 C  
HETATM   11  C   UNL     1      -9.406   8.414  69.587  1.00  0.00    -0.161 C  
HETATM   12  C   UNL     1     -10.332  13.498  66.427  1.00  0.00    -0.289 C  
HETATM   13  C   UNL     1      -8.235   7.725  68.897  1.00  0.00    -0.127 C  
HETATM   14  C   UNL     1     -10.908  12.416  67.392  1.00  0.00    -0.238 C  
HETATM   15  C   UNL     1      -8.094   6.389  68.907  1.00  0.00    -0.111 C  
HETATM   16  C   UNL     1      -7.325   8.538  67.999  1.00  0.00    -0.092 C  
HETATM   17  O   UNL     1     -12.139  11.876  67.029  1.00  0.00    -0.600 OA 
HETATM   18  C   UNL     1      -6.999   5.718  68.134  1.00  0.00    -0.069 C  
HETATM   19  C   UNL     1      -5.901   7.966  68.027  1.00  0.00    -0.041 C  
HETATM   20  H   UNL     1     -12.943  12.316  67.278  1.00  0.00     0.000 HD 
HETATM   21  C   UNL     1      -5.955   6.582  67.440  1.00  0.00    -0.020 C  
HETATM   22  O   UNL     1      -6.993   4.507  68.039  1.00  0.00    -0.054 OA 
BRANCH  14  23
HETATM   23  C   UNL     1     -11.021  13.559  68.388  1.00  0.00    -0.289 C  
HETATM   24  C   UNL     1     -11.118  14.540  69.241  1.00  0.00    -0.296 C  
ENDBRANCH  14  23
ENDBRANCH   2   3
TORSDOF 2
ENDMDL
MODEL       84
REMARK 921   NORMALIZED FREE ENERGY PREDICTED BY IDOCK:   -3.68 KCAL/MOL
REMARK 922        TOTAL FREE ENERGY PREDICTED BY IDOCK:   -3.60 KCAL/MOL
REMARK 923 INTER-LIGAND FREE ENERGY PREDICTED BY IDOCK:   -4.58 KCAL/MOL
REMARK 924 INTRA-LIGAND FREE ENERGY PREDICTED BY IDOCK:    0.97 KCAL/MOL
REMARK 927      BINDING AFFINITY PREDICTED BY RF-SCORE:    0.00 PKD
ROOT
HETATM    1  C   UNL     1     -10.708  10.569  66.919  1.00  0.00    -0.281 C  
HETATM    2  C   UNL     1     -10.367   9.277  66.147  1.00  0.00    -0.118 C  
ENDROOT
BRANCH   2   3
HETATM    3  C   UNL     1      -8.840   8.875  66.091  1.00  0.00    -0.193 C  
HETATM    4  C   UNL     1      -9.065   7.128  66.104  1.00  0.00    -0.155 C  
HETATM    5  C   UNL     1      -9.607   6.598  67.438  1.00  0.00    -0.147 C  
HETATM    6  C   UNL     1      -9.154   7.455  68.641  1.00  0.00    -0.134 C  
HETATM    7  C   UNL     1      -8.484   8.732  68.179  1.00  0.00    -0.130 C  
HETATM    8  C   UNL     1      -8.087   9.641  69.361  1.00  0.00    -0.118 C  
HETATM    9  C   UNL     1      -7.579   8.536  66.924  1.00  0.00    -0.091 C  
HETATM   10  C   UNL     1      -7.093   8.063  65.201  1.00  0.00    -0.063 C  
HETATM   11  C   UNL     1      -9.426  10.145  70.005  1.00  0.00    -0.086 C  
HETATM   12  C   UNL     1      -7.795   9.190  64.251  1.00  0.00    -0.127 C  
HETATM   13  C   UNL     1     -10.397   9.018  70.335  1.00  0.00    -0.253 C  
HETATM   14  C   UNL     1      -7.947  10.195  65.433  1.00  0.00    -0.144 C  
HETATM   15  C   UNL     1     -11.378   9.171  71.240  1.00  0.00    -0.406 C  
HETATM   16  C   UNL     1     -10.399   7.770  69.477  1.00  0.00    -0.219 C  
HETATM   17  O   UNL     1      -8.593  11.391  65.132  1.00  0.00    -0.386 OA 
HETATM   18  C   UNL     1     -12.392   8.094  71.476  1.00  0.00    -0.306 C  
HETATM   19  C   UNL     1     -10.799   6.549  70.315  1.00  0.00    -0.333 C  
HETATM   20  H   UNL     1      -8.101  12.119  64.769  1.00  0.00     0.000 HD 
HETATM   21  C   UNL     1     -12.219   6.755  70.771  1.00  0.00    -0.353 C  
HETATM   22  O   UNL     1     -13.352   8.323  72.185  1.00  0.00    -0.316 OA 
BRANCH  14  23
HETATM   23  C   UNL     1      -6.431  10.295  65.366  1.00  0.00    -0.123 C  
HETATM   24  C   UNL     1      -5.132  10.381  65.307  1.00  0.00    -0.094 C  
ENDBRANCH  14  23
ENDBRANCH   2   3
TORSDOF 2
ENDMDL
MODEL       85
REMARK 921   NORMALIZED FREE ENERGY PREDICTED BY IDOCK:   -3.63 KCAL/MOL
REMARK 922        TOTAL FREE ENERGY PREDICTED BY IDOCK:   -3.54 KCAL/MOL
REMARK 923 INTER-LIGAND FREE ENERGY PREDICTED BY IDOCK:   -4.15 KCAL/MOL
REMARK 924 INTRA-LIGAND FREE ENERGY PREDICTED BY IDOCK:    0.61 KCAL/MOL
REMARK 927      BINDING AFFINITY PREDICTED BY RF-SCORE:    0.00 PKD
ROOT
HETATM    1  C   UNL     1     -10.589   8.511  67.143  1.00  0.00    -0.314 C  
HETATM    2  C   UNL     1     -10.440   7.126  67.807  1.00  0.00    -0.284 C  
ENDROOT
BRANCH   2   3
HETATM    3  C   UNL     1      -9.811   7.108  69.257  1.00  0.00    -0.161 C  
HETATM    4  C   UNL     1      -8.281   7.879  68.850  1.00  0.00    -0.126 C  
HETATM    5  C   UNL     1      -7.377   7.004  67.972  1.00  0.00    -0.097 C  
HETATM    6  C   UNL     1      -7.582   5.495  68.235  1.00  0.00    -0.081 C  
HETATM    7  C   UNL     1      -8.784   5.255  69.123  1.00  0.00    -0.106 C  
HETATM    8  C   UNL     1      -9.055   3.752  69.343  1.00  0.00    -0.197 C  
HETATM    9  C   UNL     1      -8.936   6.314  70.258  1.00  0.00    -0.154 C  
HETATM   10  C   UNL     1      -9.105   7.974  71.060  1.00  0.00    -0.166 C  
HETATM   11  C   UNL     1      -9.505   3.173  67.955  1.00  0.00    -0.218 C  
HETATM   12  C   UNL     1     -10.628   8.448  70.712  1.00  0.00    -0.240 C  
HETATM   13  C   UNL     1      -8.547   3.513  66.821  1.00  0.00    -0.113 C  
HETATM   14  C   UNL     1     -11.088   6.989  70.409  1.00  0.00    -0.287 C  
HETATM   15  C   UNL     1      -8.511   2.796  65.685  1.00  0.00    -0.101 C  
HETATM   16  C   UNL     1      -7.768   4.811  66.876  1.00  0.00    -0.091 C  
HETATM   17  O   UNL     1     -12.404   6.847  69.977  1.00  0.00    -0.619 OA 
HETATM   18  C   UNL     1      -7.642   3.206  64.535  1.00  0.00    -0.076 C  
HETATM   19  C   UNL     1      -6.415   4.650  66.172  1.00  0.00    -0.041 C  
HETATM   20  H   UNL     1     -13.108   6.782  70.612  1.00  0.00     0.000 HD 
HETATM   21  C   UNL     1      -6.688   4.379  64.717  1.00  0.00    -0.045 C  
HETATM   22  O   UNL     1      -7.748   2.627  63.472  1.00  0.00    -0.065 OA 
BRANCH  14  23
HETATM   23  C   UNL     1     -10.917   6.769  71.904  1.00  0.00    -0.270 C  
HETATM   24  C   UNL     1     -10.771   6.580  73.185  1.00  0.00    -0.297 C  
ENDBRANCH  14  23
ENDBRANCH   2   3
TORSDOF 2
ENDMDL
MODEL       86
REMARK 921   NORMALIZED FREE ENERGY PREDICTED BY IDOCK:   -3.61 KCAL/MOL
REMARK 922        TOTAL FREE ENERGY PREDICTED BY IDOCK:   -3.52 KCAL/MOL
REMARK 923 INTER-LIGAND FREE ENERGY PREDICTED BY IDOCK:   -4.71 KCAL/MOL
REMARK 924 INTRA-LIGAND FREE ENERGY PREDICTED BY IDOCK:    1.19 KCAL/MOL
REMARK 927      BINDING AFFINITY PREDICTED BY RF-SCORE:    0.00 PKD
ROOT
HETATM    1  C   UNL     1      -5.574  10.830  65.943  1.00  0.00    -0.141 C  
HETATM    2  C   UNL     1      -7.086  10.570  65.776  1.00  0.00    -0.124 C  
ENDROOT
BRANCH   2   3
HETATM    3  C   UNL     1      -7.507   9.094  65.402  1.00  0.00    -0.093 C  
HETATM    4  C   UNL     1      -8.000   9.413  63.741  1.00  0.00    -0.142 C  
HETATM    5  C   UNL     1      -9.271  10.267  63.642  1.00  0.00    -0.315 C  
HETATM    6  C   UNL     1     -10.225  10.046  64.837  1.00  0.00    -0.037 C  
HETATM    7  C   UNL     1      -9.562   9.220  65.918  1.00  0.00    -0.345 C  
HETATM    8  C   UNL     1     -10.468   9.046  67.156  1.00  0.00    -0.333 C  
HETATM    9  C   UNL     1      -8.669   8.071  65.358  1.00  0.00    -0.101 C  
HETATM   10  C   UNL     1      -7.332   7.241  64.383  1.00  0.00    -0.085 C  
HETATM   11  C   UNL     1     -10.603  10.465  67.812  1.00  0.00    -0.294 C  
HETATM   12  C   UNL     1      -5.948   7.650  65.148  1.00  0.00    -0.038 C  
HETATM   13  C   UNL     1     -11.030  11.546  66.827  1.00  0.00    -0.347 C  
HETATM   14  C   UNL     1      -6.700   8.005  66.468  1.00  0.00    -0.062 C  
HETATM   15  C   UNL     1     -11.595  12.694  67.236  1.00  0.00    -0.428 C  
HETATM   16  C   UNL     1     -10.617  11.426  65.374  1.00  0.00    -0.333 C  
HETATM   17  O   UNL     1      -5.909   8.501  67.500  1.00  0.00    -0.042 OA 
HETATM   18  C   UNL     1     -11.910  13.794  66.268  1.00  0.00    -0.398 C  
HETATM   19  C   UNL     1     -11.673  12.071  64.466  1.00  0.00    -0.380 C  
HETATM   20  H   UNL     1      -5.464   7.900  68.088  1.00  0.00     0.000 HD 
HETATM   21  C   UNL     1     -11.707  13.542  64.780  1.00  0.00    -0.397 C  
HETATM   22  O   UNL     1     -12.275  14.873  66.690  1.00  0.00    -0.130 OA 
BRANCH  14  23
HETATM   23  C   UNL     1      -6.954   6.509  66.566  1.00  0.00    -0.067 C  
HETATM   24  C   UNL     1      -7.172   5.226  66.649  1.00  0.00    -0.077 C  
ENDBRANCH  14  23
ENDBRANCH   2   3
TORSDOF 2
ENDMDL
MODEL       87
REMARK 921   NORMALIZED FREE ENERGY PREDICTED BY IDOCK:   -3.61 KCAL/MOL
REMARK 922        TOTAL FREE ENERGY PREDICTED BY IDOCK:   -3.51 KCAL/MOL
REMARK 923 INTER-LIGAND FREE ENERGY PREDICTED BY IDOCK:   -4.14 KCAL/MOL
REMARK 924 INTRA-LIGAND FREE ENERGY PREDICTED BY IDOCK:    0.62 KCAL/MOL
REMARK 927      BINDING AFFINITY PREDICTED BY RF-SCORE:    0.00 PKD
ROOT
HETATM    1  C   UNL     1      -5.770  10.195  70.634  1.00  0.00    -0.089 C  
HETATM    2  C   UNL     1      -7.124   9.529  70.308  1.00  0.00    -0.110 C  
ENDROOT
BRANCH   2   3
HETATM    3  C   UNL     1      -7.166   8.621  69.016  1.00  0.00    -0.072 C  
HETATM    4  C   UNL     1      -7.481   9.902  67.849  1.00  0.00    -0.089 C  
HETATM    5  C   UNL     1      -8.878  10.521  67.993  1.00  0.00    -0.131 C  
HETATM    6  C   UNL     1      -9.920   9.509  68.520  1.00  0.00    -0.184 C  
HETATM    7  C   UNL     1      -9.252   8.231  68.982  1.00  0.00    -0.147 C  
HETATM    8  C   UNL     1     -10.263   7.231  69.582  1.00  0.00    -0.214 C  
HETATM    9  C   UNL     1      -8.067   7.788  68.071  1.00  0.00    -0.123 C  
HETATM   10  C   UNL     1      -6.462   7.889  67.153  1.00  0.00    -0.056 C  
HETATM   11  C   UNL     1     -10.786   7.872  70.916  1.00  0.00    -0.245 C  
HETATM   12  C   UNL     1      -5.317   7.805  68.314  1.00  0.00    -0.031 C  
HETATM   13  C   UNL     1     -11.292   9.298  70.741  1.00  0.00    -0.349 C  
HETATM   14  C   UNL     1      -6.302   7.164  69.339  1.00  0.00    -0.035 C  
HETATM   15  C   UNL     1     -12.139   9.861  71.618  1.00  0.00    -0.457 C  
HETATM   16  C   UNL     1     -10.666  10.178  69.679  1.00  0.00    -0.295 C  
HETATM   17  O   UNL     1      -5.785   6.929  70.610  1.00  0.00    -0.023 OA 
HETATM   18  C   UNL     1     -12.542  11.299  71.494  1.00  0.00    -0.312 C  
HETATM   19  C   UNL     1     -11.698  11.177  69.140  1.00  0.00    -0.408 C  
HETATM   20  H   UNL     1      -5.308   6.126  70.788  1.00  0.00     0.000 HD 
HETATM   21  C   UNL     1     -12.087  12.088  70.274  1.00  0.00    -0.395 C  
HETATM   22  O   UNL     1     -13.184  11.817  72.387  1.00  0.00    -0.302 OA 
BRANCH  14  23
HETATM   23  C   UNL     1      -6.244   5.947  68.429  1.00  0.00    -0.029 C  
HETATM   24  C   UNL     1      -6.193   4.904  67.648  1.00  0.00    -0.039 C  
ENDBRANCH  14  23
ENDBRANCH   2   3
TORSDOF 2
ENDMDL
MODEL       88
REMARK 921   NORMALIZED FREE ENERGY PREDICTED BY IDOCK:   -3.60 KCAL/MOL
REMARK 922        TOTAL FREE ENERGY PREDICTED BY IDOCK:   -3.51 KCAL/MOL
REMARK 923 INTER-LIGAND FREE ENERGY PREDICTED BY IDOCK:   -4.06 KCAL/MOL
REMARK 924 INTRA-LIGAND FREE ENERGY PREDICTED BY IDOCK:    0.55 KCAL/MOL
REMARK 927      BINDING AFFINITY PREDICTED BY RF-SCORE:    0.00 PKD
ROOT
HETATM    1  C   UNL     1     -11.347   9.602  70.234  1.00  0.00    -0.311 C  
HETATM    2  C   UNL     1     -10.209   9.092  69.325  1.00  0.00    -0.210 C  
ENDROOT
BRANCH   2   3
HETATM    3  C   UNL     1      -9.578   7.695  69.708  1.00  0.00    -0.163 C  
HETATM    4  C   UNL     1      -8.927   8.163  71.277  1.00  0.00    -0.179 C  
HETATM    5  C   UNL     1      -7.761   9.155  71.176  1.00  0.00    -0.116 C  
HETATM    6  C   UNL     1      -6.939   8.969  69.881  1.00  0.00    -0.052 C  
HETATM    7  C   UNL     1      -7.628   8.014  68.931  1.00  0.00    -0.099 C  
HETATM    8  C   UNL     1      -6.865   7.868  67.597  1.00  0.00    -0.070 C  
HETATM    9  C   UNL     1      -8.308   6.809  69.650  1.00  0.00    -0.132 C  
HETATM   10  C   UNL     1      -9.413   5.897  70.823  1.00  0.00    -0.192 C  
HETATM   11  C   UNL     1      -6.975   9.252  66.867  1.00  0.00    -0.081 C  
HETATM   12  C   UNL     1     -10.917   6.106  70.222  1.00  0.00    -0.417 C  
HETATM   13  C   UNL     1      -6.560  10.429  67.740  1.00  0.00    -0.065 C  
HETATM   14  C   UNL     1     -10.376   6.463  68.803  1.00  0.00    -0.198 C  
HETATM   15  C   UNL     1      -6.186  11.605  67.211  1.00  0.00    -0.115 C  
HETATM   16  C   UNL     1      -6.778  10.350  69.237  1.00  0.00    -0.067 C  
HETATM   17  O   UNL     1     -11.338   6.808  67.858  1.00  0.00    -0.560 OA 
HETATM   18  C   UNL     1      -5.885  12.788  68.081  1.00  0.00    -0.083 C  
HETATM   19  C   UNL     1      -5.701  11.159  69.974  1.00  0.00    -0.098 C  
HETATM   20  H   UNL     1     -11.779   6.129  67.359  1.00  0.00     0.000 HD 
HETATM   21  C   UNL     1      -5.877  12.604  69.593  1.00  0.00    -0.114 C  
HETATM   22  O   UNL     1      -5.701  13.874  67.568  1.00  0.00    -0.338 OA 
BRANCH  14  23
HETATM   23  C   UNL     1      -9.964   5.001  68.740  1.00  0.00    -0.225 C  
HETATM   24  C   UNL     1      -9.612   3.747  68.688  1.00  0.00    -0.173 C  
ENDBRANCH  14  23
ENDBRANCH   2   3
TORSDOF 2
ENDMDL
MODEL       89
REMARK 921   NORMALIZED FREE ENERGY PREDICTED BY IDOCK:   -3.55 KCAL/MOL
REMARK 922        TOTAL FREE ENERGY PREDICTED BY IDOCK:   -3.45 KCAL/MOL
REMARK 923 INTER-LIGAND FREE ENERGY PREDICTED BY IDOCK:   -4.00 KCAL/MOL
REMARK 924 INTRA-LIGAND FREE ENERGY PREDICTED BY IDOCK:    0.55 KCAL/MOL
REMARK 927      BINDING AFFINITY PREDICTED BY RF-SCORE:    0.00 PKD
ROOT
HETATM    1  C   UNL     1      -5.513  16.803  66.814  1.00  0.00    -0.094 C  
HETATM    2  C   UNL     1      -7.041  16.605  66.894  1.00  0.00    -0.264 C  
ENDROOT
BRANCH   2   3
HETATM    3  C   UNL     1      -7.845  17.683  67.725  1.00  0.00    -0.211 C  
HETATM    4  C   UNL     1      -7.494  17.041  69.327  1.00  0.00    -0.092 C  
HETATM    5  C   UNL     1      -8.169  15.690  69.598  1.00  0.00    -0.068 C  
HETATM    6  C   UNL     1      -9.507  15.536  68.840  1.00  0.00    -0.223 C  
HETATM    7  C   UNL     1      -9.700  16.658  67.843  1.00  0.00    -0.244 C  
HETATM    8  C   UNL     1     -10.995  16.489  67.020  1.00  0.00    -0.012 C  
HETATM    9  C   UNL     1      -9.208  18.042  68.366  1.00  0.00    -0.301 C  
HETATM   10  C   UNL     1      -8.059  19.318  69.059  1.00  0.00    -0.279 C  
HETATM   11  C   UNL     1     -10.785  15.226  66.113  1.00  0.00    -0.322 C  
HETATM   12  C   UNL     1      -7.035  19.660  67.835  1.00  0.00    -0.290 C  
HETATM   13  C   UNL     1     -10.328  13.997  66.887  1.00  0.00    -0.269 C  
HETATM   14  C   UNL     1      -8.019  19.102  66.762  1.00  0.00    -0.269 C  
HETATM   15  C   UNL     1     -10.491  12.754  66.403  1.00  0.00    -0.265 C  
HETATM   16  C   UNL     1      -9.480  14.179  68.129  1.00  0.00    -0.213 C  
HETATM   17  O   UNL     1      -7.554  19.114  65.449  1.00  0.00    -0.406 OA 
HETATM   18  C   UNL     1      -9.940  11.561  67.124  1.00  0.00    -0.199 C  
HETATM   19  C   UNL     1      -9.753  13.048  69.130  1.00  0.00     0.489 C  
HETATM   20  H   UNL     1      -7.650  19.897  64.919  1.00  0.00     0.000 HD 
HETATM   21  C   UNL     1      -9.306  11.759  68.494  1.00  0.00    -0.158 C  
HETATM   22  O   UNL     1      -9.970  10.473  66.585  1.00  0.00    -0.195 OA 
BRANCH  14  23
HETATM   23  C   UNL     1      -8.872  20.312  67.111  1.00  0.00    -0.446 C  
HETATM   24  C   UNL     1      -9.604  21.348  67.410  1.00  0.00     0.331 C  
ENDBRANCH  14  23
ENDBRANCH   2   3
TORSDOF 2
ENDMDL
MODEL       90
REMARK 921   NORMALIZED FREE ENERGY PREDICTED BY IDOCK:   -3.54 KCAL/MOL
REMARK 922        TOTAL FREE ENERGY PREDICTED BY IDOCK:   -3.44 KCAL/MOL
REMARK 923 INTER-LIGAND FREE ENERGY PREDICTED BY IDOCK:   -4.26 KCAL/MOL
REMARK 924 INTRA-LIGAND FREE ENERGY PREDICTED BY IDOCK:    0.81 KCAL/MOL
REMARK 927      BINDING AFFINITY PREDICTED BY RF-SCORE:    0.00 PKD
ROOT
HETATM    1  C   UNL     1     -11.568   9.804  70.266  1.00  0.00    -0.283 C  
HETATM    2  C   UNL     1     -10.601   8.673  69.858  1.00  0.00    -0.227 C  
ENDROOT
BRANCH   2   3
HETATM    3  C   UNL     1     -10.133   7.700  71.012  1.00  0.00    -0.196 C  
HETATM    4  C   UNL     1      -8.626   8.523  71.406  1.00  0.00    -0.224 C  
HETATM    5  C   UNL     1      -7.573   8.420  70.294  1.00  0.00    -0.068 C  
HETATM    6  C   UNL     1      -7.697   7.110  69.484  1.00  0.00    -0.113 C  
HETATM    7  C   UNL     1      -8.968   6.369  69.839  1.00  0.00    -0.142 C  
HETATM    8  C   UNL     1      -9.153   5.093  68.990  1.00  0.00    -0.137 C  
HETATM    9  C   UNL     1      -9.316   6.430  71.357  1.00  0.00    -0.157 C  
HETATM   10  C   UNL     1      -9.689   7.163  73.016  1.00  0.00    -0.216 C  
HETATM   11  C   UNL     1      -9.408   5.571  67.517  1.00  0.00    -0.114 C  
HETATM   12  C   UNL     1     -11.195   7.775  72.868  1.00  0.00    -0.434 C  
HETATM   13  C   UNL     1      -8.360   6.554  67.012  1.00  0.00    -0.113 C  
HETATM   14  C   UNL     1     -11.515   6.878  71.634  1.00  0.00    -0.275 C  
HETATM   15  C   UNL     1      -8.150   6.754  65.701  1.00  0.00    -0.122 C  
HETATM   16  C   UNL     1      -7.686   7.486  67.998  1.00  0.00    -0.116 C  
HETATM   17  O   UNL     1     -12.763   7.076  71.049  1.00  0.00    -0.481 OA 
HETATM   18  C   UNL     1      -7.194   7.801  65.218  1.00  0.00    -0.068 C  
HETATM   19  C   UNL     1      -6.256   7.802  67.540  1.00  0.00    -0.050 C  
HETATM   20  H   UNL     1     -13.525   6.623  71.392  1.00  0.00     0.000 HD 
HETATM   21  C   UNL     1      -6.351   8.553  66.239  1.00  0.00    -0.057 C  
HETATM   22  O   UNL     1      -7.143   8.061  64.032  1.00  0.00    -0.077 OA 
BRANCH  14  23
HETATM   23  C   UNL     1     -11.491   5.731  72.631  1.00  0.00    -0.337 C  
HETATM   24  C   UNL     1     -11.470   4.749  73.488  1.00  0.00    -0.248 C  
ENDBRANCH  14  23
ENDBRANCH   2   3
TORSDOF 2
ENDMDL
MODEL       91
REMARK 921   NORMALIZED FREE ENERGY PREDICTED BY IDOCK:   -3.52 KCAL/MOL
REMARK 922        TOTAL FREE ENERGY PREDICTED BY IDOCK:   -3.42 KCAL/MOL
REMARK 923 INTER-LIGAND FREE ENERGY PREDICTED BY IDOCK:   -4.48 KCAL/MOL
REMARK 924 INTRA-LIGAND FREE ENERGY PREDICTED BY IDOCK:    1.06 KCAL/MOL
REMARK 927      BINDING AFFINITY PREDICTED BY RF-SCORE:    0.00 PKD
ROOT
HETATM    1  C   UNL     1     -11.153   6.203  66.840  1.00  0.00    -0.301 C  
HETATM    2  C   UNL     1     -10.082   5.517  67.715  1.00  0.00    -0.214 C  
ENDROOT
BRANCH   2   3
HETATM    3  C   UNL     1      -8.577   5.763  67.303  1.00  0.00    -0.109 C  
HETATM    4  C   UNL     1      -7.859   5.477  68.886  1.00  0.00    -0.095 C  
HETATM    5  C   UNL     1      -8.212   6.560  69.914  1.00  0.00    -0.126 C  
HETATM    6  C   UNL     1      -8.430   7.944  69.262  1.00  0.00    -0.137 C  
HETATM    7  C   UNL     1      -8.469   7.835  67.753  1.00  0.00    -0.121 C  
HETATM    8  C   UNL     1      -8.759   9.193  67.079  1.00  0.00    -0.131 C  
HETATM    9  C   UNL     1      -7.442   6.811  67.180  1.00  0.00    -0.091 C  
HETATM   10  C   UNL     1      -6.566   5.199  66.930  1.00  0.00    -0.053 C  
HETATM   11  C   UNL     1     -10.234   9.572  67.456  1.00  0.00    -0.283 C  
HETATM   12  C   UNL     1      -7.622   4.280  66.092  1.00  0.00    -0.089 C  
HETATM   13  C   UNL     1     -10.510   9.504  68.953  1.00  0.00    -0.235 C  
HETATM   14  C   UNL     1      -8.425   5.524  65.602  1.00  0.00    -0.141 C  
HETATM   15  C   UNL     1     -11.534  10.168  69.515  1.00  0.00    -0.227 C  
HETATM   16  C   UNL     1      -9.752   8.503  69.799  1.00  0.00    -0.179 C  
HETATM   17  O   UNL     1      -9.555   5.252  64.835  1.00  0.00    -0.360 OA 
HETATM   18  C   UNL     1     -11.860  10.007  70.968  1.00  0.00    -0.386 C  
HETATM   19  C   UNL     1      -9.562   9.044  71.222  1.00  0.00    -0.361 C  
HETATM   20  H   UNL     1      -9.472   5.119  63.897  1.00  0.00     0.000 HD 
HETATM   21  C   UNL     1     -10.926   9.181  71.843  1.00  0.00    -0.372 C  
HETATM   22  O   UNL     1     -12.880  10.498  71.409  1.00  0.00    -0.376 OA 
BRANCH  14  23
HETATM   23  C   UNL     1      -7.189   5.826  64.771  1.00  0.00    -0.066 C  
HETATM   24  C   UNL     1      -6.129   6.086  64.057  1.00  0.00    -0.025 C  
ENDBRANCH  14  23
ENDBRANCH   2   3
TORSDOF 2
ENDMDL
MODEL       92
REMARK 921   NORMALIZED FREE ENERGY PREDICTED BY IDOCK:   -3.52 KCAL/MOL
REMARK 922        TOTAL FREE ENERGY PREDICTED BY IDOCK:   -3.42 KCAL/MOL
REMARK 923 INTER-LIGAND FREE ENERGY PREDICTED BY IDOCK:   -3.94 KCAL/MOL
REMARK 924 INTRA-LIGAND FREE ENERGY PREDICTED BY IDOCK:    0.52 KCAL/MOL
REMARK 927      BINDING AFFINITY PREDICTED BY RF-SCORE:    0.00 PKD
ROOT
HETATM    1  C   UNL     1     -11.692   9.758  70.077  1.00  0.00    -0.131 C  
HETATM    2  C   UNL     1     -10.363   8.977  70.012  1.00  0.00    -0.226 C  
ENDROOT
BRANCH   2   3
HETATM    3  C   UNL     1      -9.749   8.757  68.572  1.00  0.00    -0.173 C  
HETATM    4  C   UNL     1     -10.862   7.498  68.043  1.00  0.00    -0.097 C  
HETATM    5  C   UNL     1     -10.683   6.175  68.800  1.00  0.00    -0.370 C  
HETATM    6  C   UNL     1      -9.225   5.951  69.261  1.00  0.00    -0.134 C  
HETATM    7  C   UNL     1      -8.391   7.197  69.053  1.00  0.00    -0.126 C  
HETATM    8  C   UNL     1      -6.948   7.025  69.573  1.00  0.00    -0.062 C  
HETATM    9  C   UNL     1      -8.727   7.953  67.731  1.00  0.00    -0.127 C  
HETATM   10  C   UNL     1      -9.737   8.832  66.452  1.00  0.00    -0.335 C  
HETATM   11  C   UNL     1      -7.048   6.909  71.134  1.00  0.00    -0.075 C  
HETATM   12  C   UNL     1     -10.062  10.289  67.113  1.00  0.00    -0.259 C  
HETATM   13  C   UNL     1      -8.048   5.857  71.598  1.00  0.00    -0.118 C  
HETATM   14  C   UNL     1      -8.879  10.175  68.122  1.00  0.00    -0.126 C  
HETATM   15  C   UNL     1      -7.987   5.315  72.825  1.00  0.00    -0.102 C  
HETATM   16  C   UNL     1      -9.265   5.568  70.744  1.00  0.00    -0.179 C  
HETATM   17  O   UNL     1      -8.749  11.227  69.024  1.00  0.00    -0.341 OA 
HETATM   18  C   UNL     1      -9.039   4.363  73.307  1.00  0.00    -0.114 C  
HETATM   19  C   UNL     1      -9.691   4.102  70.903  1.00  0.00    -0.259 C  
HETATM   20  H   UNL     1      -8.269  12.009  68.776  1.00  0.00     0.000 HD 
HETATM   21  C   UNL     1     -10.117   3.905  72.333  1.00  0.00    -0.237 C  
HETATM   22  O   UNL     1      -9.039   4.013  74.471  1.00  0.00    -0.098 OA 
BRANCH  14  23
HETATM   23  C   UNL     1      -7.995  10.320  66.893  1.00  0.00    -0.112 C  
HETATM   24  C   UNL     1      -7.236  10.446  65.840  1.00  0.00    -0.135 C  
ENDBRANCH  14  23
ENDBRANCH   2   3
TORSDOF 2
ENDMDL
MODEL       93
REMARK 921   NORMALIZED FREE ENERGY PREDICTED BY IDOCK:   -3.46 KCAL/MOL
REMARK 922        TOTAL FREE ENERGY PREDICTED BY IDOCK:   -3.35 KCAL/MOL
REMARK 923 INTER-LIGAND FREE ENERGY PREDICTED BY IDOCK:   -3.87 KCAL/MOL
REMARK 924 INTRA-LIGAND FREE ENERGY PREDICTED BY IDOCK:    0.52 KCAL/MOL
REMARK 927      BINDING AFFINITY PREDICTED BY RF-SCORE:    0.00 PKD
ROOT
HETATM    1  C   UNL     1      -6.169   8.698  65.712  1.00  0.00    -0.055 C  
HETATM    2  C   UNL     1      -7.590   8.166  65.994  1.00  0.00    -0.082 C  
ENDROOT
BRANCH   2   3
HETATM    3  C   UNL     1      -8.545   9.118  66.818  1.00  0.00    -0.133 C  
HETATM    4  C   UNL     1      -7.674   9.045  68.347  1.00  0.00    -0.098 C  
HETATM    5  C   UNL     1      -7.747   7.668  69.019  1.00  0.00    -0.117 C  
HETATM    6  C   UNL     1      -9.062   6.923  68.697  1.00  0.00    -0.131 C  
HETATM    7  C   UNL     1      -9.842   7.639  67.615  1.00  0.00    -0.207 C  
HETATM    8  C   UNL     1     -11.125   6.877  67.222  1.00  0.00    -0.355 C  
HETATM    9  C   UNL     1      -9.788   9.192  67.739  1.00  0.00    -0.214 C  
HETATM   10  C   UNL     1      -9.063  10.892  67.861  1.00  0.00    -0.149 C  
HETATM   11  C   UNL     1     -10.659   5.552  66.521  1.00  0.00    -0.343 C  
HETATM   12  C   UNL     1      -8.498  11.208  66.362  1.00  0.00    -0.167 C  
HETATM   13  C   UNL     1      -9.645   4.762  67.338  1.00  0.00    -0.186 C  
HETATM   14  C   UNL     1      -9.408  10.121  65.712  1.00  0.00    -0.188 C  
HETATM   15  C   UNL     1      -9.442   3.450  67.136  1.00  0.00    -0.199 C  
HETATM   16  C   UNL     1      -8.690   5.506  68.248  1.00  0.00    -0.098 C  
HETATM   17  O   UNL     1      -9.251   9.941  64.341  1.00  0.00    -0.238 OA 
HETATM   18  C   UNL     1      -8.366   2.709  67.870  1.00  0.00    -0.076 C  
HETATM   19  C   UNL     1      -8.331   4.640  69.463  1.00  0.00    -0.080 C  
HETATM   20  H   UNL     1      -9.727  10.494  63.731  1.00  0.00     0.000 HD 
HETATM   21  C   UNL     1      -7.586   3.434  68.958  1.00  0.00    -0.052 C  
HETATM   22  O   UNL     1      -8.108   1.564  67.554  1.00  0.00    -0.059 OA 
BRANCH  14  23
HETATM   23  C   UNL     1     -10.551  11.057  66.071  1.00  0.00    -0.275 C  
HETATM   24  C   UNL     1     -11.532  11.859  66.379  1.00  0.00    -0.371 C  
ENDBRANCH  14  23
ENDBRANCH   2   3
TORSDOF 2
ENDMDL
MODEL       94
REMARK 921   NORMALIZED FREE ENERGY PREDICTED BY IDOCK:   -3.41 KCAL/MOL
REMARK 922        TOTAL FREE ENERGY PREDICTED BY IDOCK:   -3.29 KCAL/MOL
REMARK 923 INTER-LIGAND FREE ENERGY PREDICTED BY IDOCK:   -3.86 KCAL/MOL
REMARK 924 INTRA-LIGAND FREE ENERGY PREDICTED BY IDOCK:    0.57 KCAL/MOL
REMARK 927      BINDING AFFINITY PREDICTED BY RF-SCORE:    0.00 PKD
ROOT
HETATM    1  C   UNL     1     -12.578   6.925  70.724  1.00  0.00    -0.183 C  
HETATM    2  C   UNL     1     -11.197   6.291  70.456  1.00  0.00    -0.420 C  
ENDROOT
BRANCH   2   3
HETATM    3  C   UNL     1      -9.952   7.025  71.095  1.00  0.00    -0.191 C  
HETATM    4  C   UNL     1      -9.764   8.267  69.860  1.00  0.00    -0.180 C  
HETATM    5  C   UNL     1      -9.295   7.710  68.509  1.00  0.00    -0.147 C  
HETATM    6  C   UNL     1      -8.408   6.454  68.665  1.00  0.00    -0.121 C  
HETATM    7  C   UNL     1      -8.416   5.955  70.094  1.00  0.00    -0.126 C  
HETATM    8  C   UNL     1      -7.597   4.658  70.262  1.00  0.00    -0.051 C  
HETATM    9  C   UNL     1      -8.406   7.102  71.149  1.00  0.00    -0.113 C  
HETATM   10  C   UNL     1      -8.943   8.632  72.044  1.00  0.00    -0.286 C  
HETATM   11  C   UNL     1      -8.369   3.538  69.479  1.00  0.00    -0.082 C  
HETATM   12  C   UNL     1     -10.281   8.183  72.864  1.00  0.00    -0.341 C  
HETATM   13  C   UNL     1      -8.705   3.927  68.046  1.00  0.00    -0.122 C  
HETATM   14  C   UNL     1      -9.910   6.671  72.782  1.00  0.00    -0.169 C  
HETATM   15  C   UNL     1      -8.972   3.005  67.106  1.00  0.00    -0.180 C  
HETATM   16  C   UNL     1      -8.955   5.384  67.714  1.00  0.00    -0.108 C  
HETATM   17  O   UNL     1     -10.838   5.789  73.331  1.00  0.00    -0.259 OA 
HETATM   18  C   UNL     1      -9.407   3.403  65.728  1.00  0.00    -0.144 C  
HETATM   19  C   UNL     1      -8.527   5.683  66.272  1.00  0.00    -0.124 C  
HETATM   20  H   UNL     1     -10.814   5.594  74.261  1.00  0.00     0.000 HD 
HETATM   21  C   UNL     1      -9.412   4.880  65.357  1.00  0.00    -0.134 C  
HETATM   22  O   UNL     1      -9.788   2.548  64.953  1.00  0.00    -0.006 OA 
BRANCH  14  23
HETATM   23  C   UNL     1      -8.784   7.034  73.737  1.00  0.00    -0.187 C  
HETATM   24  C   UNL     1      -7.819   7.347  74.556  1.00  0.00    -0.193 C  
ENDBRANCH  14  23
ENDBRANCH   2   3
TORSDOF 2
ENDMDL
MODEL       95
REMARK 921   NORMALIZED FREE ENERGY PREDICTED BY IDOCK:   -3.36 KCAL/MOL
REMARK 922        TOTAL FREE ENERGY PREDICTED BY IDOCK:   -3.23 KCAL/MOL
REMARK 923 INTER-LIGAND FREE ENERGY PREDICTED BY IDOCK:   -3.76 KCAL/MOL
REMARK 924 INTRA-LIGAND FREE ENERGY PREDICTED BY IDOCK:    0.53 KCAL/MOL
REMARK 927      BINDING AFFINITY PREDICTED BY RF-SCORE:    0.00 PKD
ROOT
HETATM    1  C   UNL     1      -7.892   9.897  70.278  1.00  0.00    -0.151 C  
HETATM    2  C   UNL     1      -8.182   9.424  68.838  1.00  0.00    -0.111 C  
ENDROOT
BRANCH   2   3
HETATM    3  C   UNL     1      -9.472  10.024  68.149  1.00  0.00    -0.148 C  
HETATM    4  C   UNL     1     -10.661   9.038  68.996  1.00  0.00    -0.209 C  
HETATM    5  C   UNL     1     -10.607   7.556  68.604  1.00  0.00    -0.171 C  
HETATM    6  C   UNL     1     -10.142   7.349  67.145  1.00  0.00    -0.314 C  
HETATM    7  C   UNL     1      -9.635   8.643  66.546  1.00  0.00    -0.303 C  
HETATM    8  C   UNL     1      -9.095   8.449  65.113  1.00  0.00     0.087 C  
HETATM    9  C   UNL     1     -10.469   9.890  66.971  1.00  0.00    -0.296 C  
HETATM   10  C   UNL     1     -11.284  11.125  68.084  1.00  0.00    -0.356 C  
HETATM   11  C   UNL     1      -7.800   7.573  65.239  1.00  0.00    -0.120 C  
HETATM   12  C   UNL     1     -10.054  12.011  68.690  1.00  0.00    -0.170 C  
HETATM   13  C   UNL     1      -8.011   6.297  66.044  1.00  0.00    -0.114 C  
HETATM   14  C   UNL     1      -9.091  11.590  67.538  1.00  0.00    -0.166 C  
HETATM   15  C   UNL     1      -7.190   5.240  65.925  1.00  0.00    -0.073 C  
HETATM   16  C   UNL     1      -9.035   6.289  67.161  1.00  0.00    -0.111 C  
HETATM   17  O   UNL     1      -7.789  12.075  67.631  1.00  0.00    -0.129 OA 
HETATM   18  C   UNL     1      -7.344   4.034  66.801  1.00  0.00    -0.072 C  
HETATM   19  C   UNL     1      -9.640   4.888  67.317  1.00  0.00    -0.173 C  
HETATM   20  H   UNL     1      -7.579  12.939  67.294  1.00  0.00     0.000 HD 
HETATM   21  C   UNL     1      -8.536   3.960  67.745  1.00  0.00    -0.104 C  
HETATM   22  O   UNL     1      -6.495   3.166  66.773  1.00  0.00    -0.035 OA 
BRANCH  14  23
HETATM   23  C   UNL     1      -9.991  12.442  66.657  1.00  0.00    -0.236 C  
HETATM   24  C   UNL     1     -10.762  13.173  65.901  1.00  0.00    -0.287 C  
ENDBRANCH  14  23
ENDBRANCH   2   3
TORSDOF 2
ENDMDL
MODEL       96
REMARK 921   NORMALIZED FREE ENERGY PREDICTED BY IDOCK:   -3.26 KCAL/MOL
REMARK 922        TOTAL FREE ENERGY PREDICTED BY IDOCK:   -3.13 KCAL/MOL
REMARK 923 INTER-LIGAND FREE ENERGY PREDICTED BY IDOCK:   -3.65 KCAL/MOL
REMARK 924 INTRA-LIGAND FREE ENERGY PREDICTED BY IDOCK:    0.52 KCAL/MOL
REMARK 927      BINDING AFFINITY PREDICTED BY RF-SCORE:    0.00 PKD
ROOT
HETATM    1  C   UNL     1      -8.345  10.460  68.708  1.00  0.00    -0.134 C  
HETATM    2  C   UNL     1      -8.922   9.070  68.364  1.00  0.00    -0.133 C  
ENDROOT
BRANCH   2   3
HETATM    3  C   UNL     1      -9.331   8.158  69.589  1.00  0.00    -0.159 C  
HETATM    4  C   UNL     1      -7.702   7.723  70.101  1.00  0.00    -0.090 C  
HETATM    5  C   UNL     1      -6.978   6.812  69.101  1.00  0.00    -0.078 C  
HETATM    6  C   UNL     1      -7.951   5.897  68.324  1.00  0.00    -0.109 C  
HETATM    7  C   UNL     1      -9.390   6.293  68.577  1.00  0.00    -0.121 C  
HETATM    8  C   UNL     1     -10.381   5.442  67.755  1.00  0.00    -0.226 C  
HETATM    9  C   UNL     1      -9.664   6.718  70.052  1.00  0.00    -0.170 C  
HETATM   10  C   UNL     1      -9.489   7.650  71.642  1.00  0.00    -0.174 C  
HETATM   11  C   UNL     1     -10.156   5.825  66.250  1.00  0.00    -0.129 C  
HETATM   12  C   UNL     1     -10.116   9.124  71.329  1.00  0.00    -0.388 C  
HETATM   13  C   UNL     1      -8.697   5.742  65.819  1.00  0.00    -0.152 C  
HETATM   14  C   UNL     1     -10.917   8.600  70.099  1.00  0.00    -0.226 C  
HETATM   15  C   UNL     1      -8.346   5.617  64.528  1.00  0.00    -0.108 C  
HETATM   16  C   UNL     1      -7.609   6.020  66.836  1.00  0.00    -0.096 C  
HETATM   17  O   UNL     1     -11.634   9.561  69.389  1.00  0.00    -0.441 OA 
HETATM   18  C   UNL     1      -6.909   5.646  64.107  1.00  0.00    -0.049 C  
HETATM   19  C   UNL     1      -6.353   5.202  66.508  1.00  0.00    -0.036 C  
HETATM   20  H   UNL     1     -12.508   9.804  69.671  1.00  0.00     0.000 HD 
HETATM   21  C   UNL     1      -5.830   5.682  65.181  1.00  0.00    -0.021 C  
HETATM   22  O   UNL     1      -6.634   5.687  62.924  1.00  0.00    -0.024 OA 
BRANCH  14  23
HETATM   23  C   UNL     1     -11.755   7.861  71.130  1.00  0.00    -0.306 C  
HETATM   24  C   UNL     1     -12.475   7.227  72.013  1.00  0.00    -0.276 C  
ENDBRANCH  14  23
ENDBRANCH   2   3
TORSDOF 2
ENDMDL
MODEL       97
REMARK 921   NORMALIZED FREE ENERGY PREDICTED BY IDOCK:   -3.24 KCAL/MOL
REMARK 922        TOTAL FREE ENERGY PREDICTED BY IDOCK:   -3.11 KCAL/MOL
REMARK 923 INTER-LIGAND FREE ENERGY PREDICTED BY IDOCK:   -3.66 KCAL/MOL
REMARK 924 INTRA-LIGAND FREE ENERGY PREDICTED BY IDOCK:    0.55 KCAL/MOL
REMARK 927      BINDING AFFINITY PREDICTED BY RF-SCORE:    0.00 PKD
ROOT
HETATM    1  C   UNL     1     -12.102  13.389  69.317  1.00  0.00    -0.312 C  
HETATM    2  C   UNL     1     -10.610  13.764  69.200  1.00  0.00    -0.099 C  
ENDROOT
BRANCH   2   3
HETATM    3  C   UNL     1     -10.274  15.043  68.335  1.00  0.00    -0.228 C  
HETATM    4  C   UNL     1     -10.398  14.283  66.750  1.00  0.00    -0.274 C  
HETATM    5  C   UNL     1      -9.281  13.267  66.479  1.00  0.00    -0.182 C  
HETATM    6  C   UNL     1      -7.964  13.630  67.202  1.00  0.00    -0.060 C  
HETATM    7  C   UNL     1      -8.175  14.766  68.179  1.00  0.00    -0.142 C  
HETATM    8  C   UNL     1      -6.892  15.099  68.969  1.00  0.00    -0.122 C  
HETATM    9  C   UNL     1      -9.150  15.862  67.652  1.00  0.00    -0.200 C  
HETATM   10  C   UNL     1     -10.701  16.614  66.975  1.00  0.00    -0.174 C  
HETATM   11  C   UNL     1      -6.606  13.867  69.898  1.00  0.00    -0.028 C  
HETATM   12  C   UNL     1     -11.754  16.584  68.222  1.00  0.00     0.211 C  
HETATM   13  C   UNL     1      -6.596  12.540  69.151  1.00  0.00    -0.100 C  
HETATM   14  C   UNL     1     -10.612  16.448  69.275  1.00  0.00    -0.311 C  
HETATM   15  C   UNL     1      -5.980  11.453  69.645  1.00  0.00    -0.098 C  
HETATM   16  C   UNL     1      -7.477  12.372  67.930  1.00  0.00    -0.120 C  
HETATM   17  O   UNL     1     -11.023  16.317  70.599  1.00  0.00    -0.297 OA 
HETATM   18  C   UNL     1      -6.070  10.127  68.955  1.00  0.00    -0.043 C  
HETATM   19  C   UNL     1      -6.830  11.399  66.936  1.00  0.00    -0.142 C  
HETATM   20  H   UNL     1     -11.209  17.091  71.117  1.00  0.00     0.000 HD 
HETATM   21  C   UNL     1      -6.760  10.050  67.600  1.00  0.00    -0.075 C  
HETATM   22  O   UNL     1      -5.633   9.136  69.507  1.00  0.00    -0.034 OA 
BRANCH  14  23
HETATM   23  C   UNL     1     -10.269  17.878  68.888  1.00  0.00    -0.331 C  
HETATM   24  C   UNL     1      -9.974  19.104  68.557  1.00  0.00    -0.496 C  
ENDBRANCH  14  23
ENDBRANCH   2   3
TORSDOF 2
ENDMDL
MODEL       98
REMARK 921   NORMALIZED FREE ENERGY PREDICTED BY IDOCK:   -3.14 KCAL/MOL
REMARK 922        TOTAL FREE ENERGY PREDICTED BY IDOCK:   -2.99 KCAL/MOL
REMARK 923 INTER-LIGAND FREE ENERGY PREDICTED BY IDOCK:   -3.54 KCAL/MOL
REMARK 924 INTRA-LIGAND FREE ENERGY PREDICTED BY IDOCK:    0.54 KCAL/MOL
REMARK 927      BINDING AFFINITY PREDICTED BY RF-SCORE:    0.00 PKD
ROOT
HETATM    1  C   UNL     1     -11.183  10.856  67.884  1.00  0.00    -0.387 C  
HETATM    2  C   UNL     1      -9.664  10.720  67.649  1.00  0.00    -0.185 C  
ENDROOT
BRANCH   2   3
HETATM    3  C   UNL     1      -9.079   9.252  67.674  1.00  0.00    -0.136 C  
HETATM    4  C   UNL     1      -9.041   9.053  69.424  1.00  0.00    -0.146 C  
HETATM    5  C   UNL     1      -8.002   9.948  70.112  1.00  0.00    -0.181 C  
HETATM    6  C   UNL     1      -6.778  10.229  69.212  1.00  0.00    -0.063 C  
HETATM    7  C   UNL     1      -7.018   9.744  67.799  1.00  0.00    -0.086 C  
HETATM    8  C   UNL     1      -5.839  10.079  66.861  1.00  0.00    -0.051 C  
HETATM    9  C   UNL     1      -7.791   8.392  67.731  1.00  0.00    -0.107 C  
HETATM   10  C   UNL     1      -9.143   7.160  68.017  1.00  0.00    -0.132 C  
HETATM   11  C   UNL     1      -5.816  11.641  66.713  1.00  0.00    -0.140 C  
HETATM   12  C   UNL     1     -10.367   7.658  67.058  1.00  0.00    -0.400 C  
HETATM   13  C   UNL     1      -5.827  12.373  68.048  1.00  0.00    -0.073 C  
HETATM   14  C   UNL     1      -9.412   8.501  66.158  1.00  0.00    -0.217 C  
HETATM   15  C   UNL     1      -5.401  13.642  68.163  1.00  0.00    -0.109 C  
HETATM   16  C   UNL     1      -6.530  11.741  69.232  1.00  0.00    -0.107 C  
HETATM   17  O   UNL     1     -10.024   9.229  65.141  1.00  0.00    -0.395 OA 
HETATM   18  C   UNL     1      -5.518  14.387  69.459  1.00  0.00    -0.091 C  
HETATM   19  C   UNL     1      -5.842  12.152  70.540  1.00  0.00    -0.119 C  
HETATM   20  H   UNL     1     -10.208   8.815  64.305  1.00  0.00     0.000 HD 
HETATM   21  C   UNL     1      -6.005  13.640  70.693  1.00  0.00    -0.143 C  
HETATM   22  O   UNL     1      -5.268  15.575  69.488  1.00  0.00    -0.098 OA 
BRANCH  14  23
HETATM   23  C   UNL     1      -8.876   7.155  65.699  1.00  0.00    -0.043 C  
HETATM   24  C   UNL     1      -8.418   5.999  65.304  1.00  0.00    -0.131 C  
ENDBRANCH  14  23
ENDBRANCH   2   3
TORSDOF 2
ENDMDL
MODEL       99
REMARK 921   NORMALIZED FREE ENERGY PREDICTED BY IDOCK:   -3.09 KCAL/MOL
REMARK 922        TOTAL FREE ENERGY PREDICTED BY IDOCK:   -2.94 KCAL/MOL
REMARK 923 INTER-LIGAND FREE ENERGY PREDICTED BY IDOCK:   -3.92 KCAL/MOL
REMARK 924 INTRA-LIGAND FREE ENERGY PREDICTED BY IDOCK:    0.98 KCAL/MOL
REMARK 927      BINDING AFFINITY PREDICTED BY RF-SCORE:    0.00 PKD
ROOT
HETATM    1  C   UNL     1     -11.339  10.910  69.546  1.00  0.00    -0.351 C  
HETATM    2  C   UNL     1     -12.032  11.870  68.556  1.00  0.00    -0.273 C  
ENDROOT
BRANCH   2   3
HETATM    3  C   UNL     1     -11.491  13.354  68.524  1.00  0.00    -0.345 C  
HETATM    4  C   UNL     1     -11.805  13.673  66.820  1.00  0.00    -0.452 C  
HETATM    5  C   UNL     1     -10.907  12.860  65.877  1.00  0.00    -0.294 C  
HETATM    6  C   UNL     1      -9.523  12.559  66.496  1.00  0.00    -0.240 C  
HETATM    7  C   UNL     1      -9.487  12.939  67.960  1.00  0.00    -0.213 C  
HETATM    8  C   UNL     1      -8.139  12.579  68.621  1.00  0.00    -0.013 C  
HETATM    9  C   UNL     1     -10.256  14.257  68.277  1.00  0.00    -0.244 C  
HETATM   10  C   UNL     1     -11.660  15.462  68.353  1.00  0.00    -0.368 C  
HETATM   11  C   UNL     1      -8.059  11.012  68.648  1.00  0.00    -0.149 C  
HETATM   12  C   UNL     1     -12.659  14.860  69.496  1.00  0.00    -0.028 C  
HETATM   13  C   UNL     1      -8.322  10.372  67.291  1.00  0.00    -0.122 C  
HETATM   14  C   UNL     1     -11.530  13.990  70.126  1.00  0.00    -0.133 C  
HETATM   15  C   UNL     1      -7.904   9.129  67.002  1.00  0.00    -0.102 C  
HETATM   16  C   UNL     1      -9.257  11.060  66.318  1.00  0.00    -0.200 C  
HETATM   17  O   UNL     1     -11.915  13.175  71.188  1.00  0.00    -0.379 OA 
HETATM   18  C   UNL     1      -8.262   8.470  65.705  1.00  0.00    -0.130 C  
HETATM   19  C   UNL     1      -8.835  10.762  64.873  1.00  0.00    -0.176 C  
HETATM   20  H   UNL     1     -11.936  13.526  72.071  1.00  0.00     0.000 HD 
HETATM   21  C   UNL     1      -8.998   9.283  64.648  1.00  0.00    -0.202 C  
HETATM   22  O   UNL     1      -8.001   7.295  65.540  1.00  0.00    -0.108 OA 
BRANCH  14  23
HETATM   23  C   UNL     1     -10.938  15.319  70.568  1.00  0.00    -0.318 C  
HETATM   24  C   UNL     1     -10.430  16.458  70.948  1.00  0.00     0.919 C  
ENDBRANCH  14  23
ENDBRANCH   2   3
TORSDOF 2
ENDMDL
MODEL      100
REMARK 921   NORMALIZED FREE ENERGY PREDICTED BY IDOCK:   -3.02 KCAL/MOL
REMARK 922        TOTAL FREE ENERGY PREDICTED BY IDOCK:   -2.87 KCAL/MOL
REMARK 923 INTER-LIGAND FREE ENERGY PREDICTED BY IDOCK:   -3.87 KCAL/MOL
REMARK 924 INTRA-LIGAND FREE ENERGY PREDICTED BY IDOCK:    1.00 KCAL/MOL
REMARK 927      BINDING AFFINITY PREDICTED BY RF-SCORE:    0.00 PKD
ROOT
HETATM    1  C   UNL     1     -11.920   6.311  71.716  1.00  0.00    -0.313 C  
HETATM    2  C   UNL     1     -11.712   7.059  70.383  1.00  0.00    -0.326 C  
ENDROOT
BRANCH   2   3
HETATM    3  C   UNL     1     -11.386   8.602  70.488  1.00  0.00    -0.241 C  
HETATM    4  C   UNL     1     -10.229   8.679  69.162  1.00  0.00    -0.215 C  
HETATM    5  C   UNL     1      -8.920   7.936  69.457  1.00  0.00    -0.142 C  
HETATM    6  C   UNL     1      -8.566   7.941  70.962  1.00  0.00    -0.135 C  
HETATM    7  C   UNL     1      -9.715   8.475  71.790  1.00  0.00    -0.337 C  
HETATM    8  C   UNL     1      -9.415   8.422  73.303  1.00  0.00    -0.092 C  
HETATM    9  C   UNL     1     -10.458   9.670  71.119  1.00  0.00    -0.281 C  
HETATM   10  C   UNL     1     -11.394  10.620  69.834  1.00  0.00    -0.386 C  
HETATM   11  C   UNL     1      -9.358   6.903  73.694  1.00  0.00    -0.207 C  
HETATM   12  C   UNL     1     -12.896   9.982  69.861  1.00  0.00     0.407 C  
HETATM   13  C   UNL     1      -8.427   6.087  72.806  1.00  0.00    -0.121 C  
HETATM   14  C   UNL     1     -12.695   9.388  71.289  1.00  0.00    -0.314 C  
HETATM   15  C   UNL     1      -7.920   4.909  73.206  1.00  0.00    -0.100 C  
HETATM   16  C   UNL     1      -8.235   6.499  71.361  1.00  0.00    -0.120 C  
HETATM   17  O   UNL     1     -13.757   8.638  71.787  1.00  0.00    -0.380 OA 
HETATM   18  C   UNL     1      -7.094   4.065  72.283  1.00  0.00    -0.051 C  
HETATM   19  C   UNL     1      -6.825   6.125  70.884  1.00  0.00    -0.063 C  
HETATM   20  H   UNL     1     -14.479   9.071  72.228  1.00  0.00     0.000 HD 
HETATM   21  C   UNL     1      -6.716   4.624  70.918  1.00  0.00    -0.035 C  
HETATM   22  O   UNL     1      -6.783   2.941  72.623  1.00  0.00    -0.021 OA 
BRANCH  14  23
HETATM   23  C   UNL     1     -12.713  10.837  71.747  1.00  0.00    -0.464 C  
HETATM   24  C   UNL     1     -12.727  12.080  72.141  1.00  0.00     0.071 C  
ENDBRANCH  14  23
ENDBRANCH   2   3
TORSDOF 2
ENDMDL
MODEL      101
REMARK 921   NORMALIZED FREE ENERGY PREDICTED BY IDOCK:   -3.02 KCAL/MOL
REMARK 922        TOTAL FREE ENERGY PREDICTED BY IDOCK:   -2.86 KCAL/MOL
REMARK 923 INTER-LIGAND FREE ENERGY PREDICTED BY IDOCK:   -3.83 KCAL/MOL
REMARK 924 INTRA-LIGAND FREE ENERGY PREDICTED BY IDOCK:    0.96 KCAL/MOL
REMARK 927      BINDING AFFINITY PREDICTED BY RF-SCORE:    0.00 PKD
ROOT
HETATM    1  C   UNL     1     -10.683   5.641  66.483  1.00  0.00    -0.296 C  
HETATM    2  C   UNL     1     -10.032   7.000  66.816  1.00  0.00    -0.266 C  
ENDROOT
BRANCH   2   3
HETATM    3  C   UNL     1      -8.473   7.107  66.577  1.00  0.00    -0.125 C  
HETATM    4  C   UNL     1      -8.032   5.541  67.252  1.00  0.00    -0.101 C  
HETATM    5  C   UNL     1      -8.236   5.459  68.771  1.00  0.00    -0.094 C  
HETATM    6  C   UNL     1      -8.043   6.825  69.467  1.00  0.00    -0.126 C  
HETATM    7  C   UNL     1      -7.932   7.943  68.452  1.00  0.00    -0.122 C  
HETATM    8  C   UNL     1      -7.813   9.328  69.122  1.00  0.00    -0.086 C  
HETATM    9  C   UNL     1      -7.117   7.546  67.183  1.00  0.00    -0.085 C  
HETATM   10  C   UNL     1      -6.623   6.592  65.676  1.00  0.00    -0.043 C  
HETATM   11  C   UNL     1      -9.190   9.605  69.821  1.00  0.00    -0.237 C  
HETATM   12  C   UNL     1      -7.762   6.956  64.564  1.00  0.00    -0.116 C  
HETATM   13  C   UNL     1      -9.646   8.469  70.727  1.00  0.00    -0.217 C  
HETATM   14  C   UNL     1      -8.186   8.252  65.320  1.00  0.00    -0.148 C  
HETATM   15  C   UNL     1     -10.542   8.662  71.709  1.00  0.00    -0.395 C  
HETATM   16  C   UNL     1      -9.249   7.047  70.386  1.00  0.00    -0.156 C  
HETATM   17  O   UNL     1      -9.251   8.956  64.764  1.00  0.00    -0.440 OA 
HETATM   18  C   UNL     1     -11.063   7.516  72.522  1.00  0.00    -0.321 C  
HETATM   19  C   UNL     1      -9.103   6.214  71.666  1.00  0.00    -0.147 C  
HETATM   20  H   UNL     1      -9.093   9.587  64.071  1.00  0.00     0.000 HD 
HETATM   21  C   UNL     1     -10.459   6.134  72.315  1.00  0.00    -0.229 C  
HETATM   22  O   UNL     1     -11.982   7.703  73.294  1.00  0.00     0.059 OA 
BRANCH  14  23
HETATM   23  C   UNL     1      -6.826   8.782  64.896  1.00  0.00    -0.073 C  
HETATM   24  C   UNL     1      -5.658   9.235  64.533  1.00  0.00    -0.063 C  
ENDBRANCH  14  23
ENDBRANCH   2   3
TORSDOF 2
ENDMDL
MODEL      102
REMARK 921   NORMALIZED FREE ENERGY PREDICTED BY IDOCK:   -2.99 KCAL/MOL
REMARK 922        TOTAL FREE ENERGY PREDICTED BY IDOCK:   -2.82 KCAL/MOL
REMARK 923 INTER-LIGAND FREE ENERGY PREDICTED BY IDOCK:   -3.85 KCAL/MOL
REMARK 924 INTRA-LIGAND FREE ENERGY PREDICTED BY IDOCK:    1.03 KCAL/MOL
REMARK 927      BINDING AFFINITY PREDICTED BY RF-SCORE:    0.00 PKD
ROOT
HETATM    1  C   UNL     1      -8.363   3.926  68.605  1.00  0.00    -0.091 C  
HETATM    2  C   UNL     1      -7.443   4.719  67.653  1.00  0.00    -0.078 C  
ENDROOT
BRANCH   2   3
HETATM    3  C   UNL     1      -8.074   5.159  66.272  1.00  0.00    -0.108 C  
HETATM    4  C   UNL     1      -7.059   6.572  65.999  1.00  0.00    -0.063 C  
HETATM    5  C   UNL     1      -7.334   7.713  66.988  1.00  0.00    -0.090 C  
HETATM    6  C   UNL     1      -8.803   7.740  67.464  1.00  0.00    -0.124 C  
HETATM    7  C   UNL     1      -9.543   6.497  67.018  1.00  0.00    -0.174 C  
HETATM    8  C   UNL     1     -10.994   6.464  67.544  1.00  0.00    -0.454 C  
HETATM    9  C   UNL     1      -9.155   6.028  65.583  1.00  0.00    -0.033 C  
HETATM   10  C   UNL     1      -8.085   5.479  64.175  1.00  0.00    -0.124 C  
HETATM   11  C   UNL     1     -10.900   6.294  69.101  1.00  0.00    -0.403 C  
HETATM   12  C   UNL     1      -7.652   3.952  64.557  1.00  0.00    -0.080 C  
HETATM   13  C   UNL     1      -9.981   7.311  69.764  1.00  0.00    -0.183 C  
HETATM   14  C   UNL     1      -8.838   3.789  65.555  1.00  0.00    -0.122 C  
HETATM   15  C   UNL     1     -10.079   7.609  71.070  1.00  0.00    -0.196 C  
HETATM   16  C   UNL     1      -8.790   7.842  68.993  1.00  0.00    -0.145 C  
HETATM   17  O   UNL     1      -8.888   2.580  66.244  1.00  0.00    -0.122 OA 
HETATM   18  C   UNL     1      -9.099   8.529  71.733  1.00  0.00    -0.235 C  
HETATM   19  C   UNL     1      -8.473   9.280  69.427  1.00  0.00    -0.137 C  
HETATM   20  H   UNL     1      -9.309   1.826  65.849  1.00  0.00     0.000 HD 
HETATM   21  C   UNL     1      -8.060   9.238  70.874  1.00  0.00    -0.168 C  
HETATM   22  O   UNL     1      -9.123   8.655  72.941  1.00  0.00    -0.314 OA 
BRANCH  14  23
HETATM   23  C   UNL     1      -9.711   3.811  64.311  1.00  0.00    -0.177 C  
HETATM   24  C   UNL     1     -10.459   3.829  63.243  1.00  0.00    -0.227 C  
ENDBRANCH  14  23
ENDBRANCH   2   3
TORSDOF 2
ENDMDL
MODEL      103
REMARK 921   NORMALIZED FREE ENERGY PREDICTED BY IDOCK:   -2.98 KCAL/MOL
REMARK 922        TOTAL FREE ENERGY PREDICTED BY IDOCK:   -2.82 KCAL/MOL
REMARK 923 INTER-LIGAND FREE ENERGY PREDICTED BY IDOCK:   -3.49 KCAL/MOL
REMARK 924 INTRA-LIGAND FREE ENERGY PREDICTED BY IDOCK:    0.68 KCAL/MOL
REMARK 927      BINDING AFFINITY PREDICTED BY RF-SCORE:    0.00 PKD
ROOT
HETATM    1  C   UNL     1      -8.899  10.680  69.299  1.00  0.00    -0.092 C  
HETATM    2  C   UNL     1      -8.199   9.619  68.424  1.00  0.00    -0.106 C  
ENDROOT
BRANCH   2   3
HETATM    3  C   UNL     1      -8.775   9.422  66.965  1.00  0.00    -0.135 C  
HETATM    4  C   UNL     1     -10.449   9.120  67.422  1.00  0.00    -0.339 C  
HETATM    5  C   UNL     1     -10.644   7.784  68.152  1.00  0.00    -0.182 C  
HETATM    6  C   UNL     1      -9.627   6.712  67.702  1.00  0.00    -0.135 C  
HETATM    7  C   UNL     1      -8.549   7.316  66.827  1.00  0.00    -0.127 C  
HETATM    8  C   UNL     1      -7.478   6.281  66.424  1.00  0.00    -0.086 C  
HETATM    9  C   UNL     1      -9.087   8.400  65.844  1.00  0.00    -0.225 C  
HETATM   10  C   UNL     1      -9.938   9.940  65.268  1.00  0.00    -0.320 C  
HETATM   11  C   UNL     1      -6.710   5.899  67.738  1.00  0.00    -0.058 C  
HETATM   12  C   UNL     1      -8.945  11.155  65.721  1.00  0.00    -0.207 C  
HETATM   13  C   UNL     1      -7.633   5.486  68.877  1.00  0.00    -0.087 C  
HETATM   14  C   UNL     1      -7.718  10.200  65.847  1.00  0.00    -0.127 C  
HETATM   15  C   UNL     1      -7.197   4.745  69.909  1.00  0.00    -0.054 C  
HETATM   16  C   UNL     1      -9.016   6.098  68.967  1.00  0.00    -0.125 C  
HETATM   17  O   UNL     1      -6.538  10.786  66.297  1.00  0.00    -0.116 OA 
HETATM   18  C   UNL     1      -8.085   4.437  71.076  1.00  0.00    -0.080 C  
HETATM   19  C   UNL     1      -9.997   5.104  69.603  1.00  0.00    -0.313 C  
HETATM   20  H   UNL     1      -5.956  11.215  65.680  1.00  0.00     0.000 HD 
HETATM   21  C   UNL     1      -9.546   4.862  71.019  1.00  0.00    -0.238 C  
HETATM   22  O   UNL     1      -7.614   3.899  72.058  1.00  0.00    -0.062 OA 
BRANCH  14  23
HETATM   23  C   UNL     1      -7.807  10.107  64.332  1.00  0.00    -0.138 C  
HETATM   24  C   UNL     1      -7.885  10.028  63.033  1.00  0.00    -0.142 C  
ENDBRANCH  14  23
ENDBRANCH   2   3
TORSDOF 2
ENDMDL
MODEL      104
REMARK 921   NORMALIZED FREE ENERGY PREDICTED BY IDOCK:   -2.91 KCAL/MOL
REMARK 922        TOTAL FREE ENERGY PREDICTED BY IDOCK:   -2.73 KCAL/MOL
REMARK 923 INTER-LIGAND FREE ENERGY PREDICTED BY IDOCK:   -3.72 KCAL/MOL
REMARK 924 INTRA-LIGAND FREE ENERGY PREDICTED BY IDOCK:    0.99 KCAL/MOL
REMARK 927      BINDING AFFINITY PREDICTED BY RF-SCORE:    0.00 PKD
ROOT
HETATM    1  C   UNL     1      -8.488   6.133  66.344  1.00  0.00    -0.123 C  
HETATM    2  C   UNL     1      -7.505   7.210  66.850  1.00  0.00    -0.100 C  
ENDROOT
BRANCH   2   3
HETATM    3  C   UNL     1      -8.132   8.613  67.219  1.00  0.00    -0.101 C  
HETATM    4  C   UNL     1      -6.981   9.051  68.478  1.00  0.00    -0.064 C  
HETATM    5  C   UNL     1      -7.096   8.178  69.734  1.00  0.00    -0.060 C  
HETATM    6  C   UNL     1      -8.537   7.672  69.970  1.00  0.00    -0.138 C  
HETATM    7  C   UNL     1      -9.422   7.972  68.779  1.00  0.00    -0.147 C  
HETATM    8  C   UNL     1     -10.849   7.412  68.958  1.00  0.00    -0.108 C  
HETATM    9  C   UNL     1      -9.136   9.361  68.131  1.00  0.00    -0.129 C  
HETATM   10  C   UNL     1      -8.181  10.731  67.332  1.00  0.00    -0.116 C  
HETATM   11  C   UNL     1     -10.720   5.849  68.933  1.00  0.00    -0.370 C  
HETATM   12  C   UNL     1      -7.902  10.207  65.810  1.00  0.00    -0.139 C  
HETATM   13  C   UNL     1      -9.674   5.314  69.902  1.00  0.00    -0.260 C  
HETATM   14  C   UNL     1      -9.064   9.169  65.880  1.00  0.00    -0.205 C  
HETATM   15  C   UNL     1      -9.694   4.043  70.336  1.00  0.00    -0.263 C  
HETATM   16  C   UNL     1      -8.460   6.162  70.220  1.00  0.00    -0.126 C  
HETATM   17  O   UNL     1      -9.221   8.360  64.757  1.00  0.00    -0.329 OA 
HETATM   18  C   UNL     1      -8.599   3.499  71.201  1.00  0.00    -0.072 C  
HETATM   19  C   UNL     1      -7.975   5.883  71.649  1.00  0.00    -0.113 C  
HETATM   20  H   UNL     1      -9.734   8.667  64.018  1.00  0.00     0.000 HD 
HETATM   21  C   UNL     1      -7.520   4.449  71.703  1.00  0.00    -0.069 C  
HETATM   22  O   UNL     1      -8.568   2.310  71.447  1.00  0.00    -0.060 OA 
BRANCH  14  23
HETATM   23  C   UNL     1      -9.972  10.389  65.876  1.00  0.00    -0.317 C  
HETATM   24  C   UNL     1     -10.751  11.434  65.873  1.00  0.00    -0.311 C  
ENDBRANCH  14  23
ENDBRANCH   2   3
TORSDOF 2
ENDMDL
MODEL      105
REMARK 921   NORMALIZED FREE ENERGY PREDICTED BY IDOCK:   -2.85 KCAL/MOL
REMARK 922        TOTAL FREE ENERGY PREDICTED BY IDOCK:   -2.66 KCAL/MOL
REMARK 923 INTER-LIGAND FREE ENERGY PREDICTED BY IDOCK:   -3.73 KCAL/MOL
REMARK 924 INTRA-LIGAND FREE ENERGY PREDICTED BY IDOCK:    1.07 KCAL/MOL
REMARK 927      BINDING AFFINITY PREDICTED BY RF-SCORE:    0.00 PKD
ROOT
HETATM    1  C   UNL     1      -9.447   8.044  73.086  1.00  0.00    -0.349 C  
HETATM    2  C   UNL     1      -8.185   7.811  72.230  1.00  0.00    -0.149 C  
ENDROOT
BRANCH   2   3
HETATM    3  C   UNL     1      -8.127   6.454  71.421  1.00  0.00    -0.113 C  
HETATM    4  C   UNL     1      -7.012   6.987  70.165  1.00  0.00    -0.065 C  
HETATM    5  C   UNL     1      -7.620   8.033  69.221  1.00  0.00    -0.096 C  
HETATM    6  C   UNL     1      -9.146   7.860  69.053  1.00  0.00    -0.144 C  
HETATM    7  C   UNL     1      -9.692   6.852  70.042  1.00  0.00    -0.170 C  
HETATM    8  C   UNL     1     -11.226   6.715  69.946  1.00  0.00    -0.421 C  
HETATM    9  C   UNL     1      -8.748   5.631  70.265  1.00  0.00    -0.134 C  
HETATM   10  C   UNL     1      -7.208   4.691  70.681  1.00  0.00    -0.048 C  
HETATM   11  C   UNL     1     -11.827   8.076  70.444  1.00  0.00     0.075 C  
HETATM   12  C   UNL     1      -7.075   4.814  72.304  1.00  0.00    -0.078 C  
HETATM   13  C   UNL     1     -11.227   9.290  69.747  1.00  0.00    -0.104 C  
HETATM   14  C   UNL     1      -8.585   5.167  72.472  1.00  0.00    -0.121 C  
HETATM   15  C   UNL     1     -11.864  10.472  69.710  1.00  0.00    -0.329 C  
HETATM   16  C   UNL     1      -9.791   9.233  69.269  1.00  0.00    -0.172 C  
HETATM   17  O   UNL     1      -9.000   5.444  73.771  1.00  0.00    -0.124 OA 
HETATM   18  C   UNL     1     -11.217  11.686  69.117  1.00  0.00    -0.263 C  
HETATM   19  C   UNL     1      -9.609  10.109  68.022  1.00  0.00    -0.160 C  
HETATM   20  H   UNL     1      -9.252   4.734  74.351  1.00  0.00     0.000 HD 
HETATM   21  C   UNL     1      -9.868  11.535  68.426  1.00  0.00    -0.204 C  
HETATM   22  O   UNL     1     -11.755  12.769  69.238  1.00  0.00    -0.289 OA 
BRANCH  14  23
HETATM   23  C   UNL     1      -8.828   3.725  72.054  1.00  0.00    -0.131 C  
HETATM   24  C   UNL     1      -9.036   2.489  71.696  1.00  0.00    -0.139 C  
ENDBRANCH  14  23
ENDBRANCH   2   3
TORSDOF 2
ENDMDL
MODEL      106
REMARK 921   NORMALIZED FREE ENERGY PREDICTED BY IDOCK:   -2.61 KCAL/MOL
REMARK 922        TOTAL FREE ENERGY PREDICTED BY IDOCK:   -2.40 KCAL/MOL
REMARK 923 INTER-LIGAND FREE ENERGY PREDICTED BY IDOCK:   -2.93 KCAL/MOL
REMARK 924 INTRA-LIGAND FREE ENERGY PREDICTED BY IDOCK:    0.52 KCAL/MOL
REMARK 927      BINDING AFFINITY PREDICTED BY RF-SCORE:    0.00 PKD
ROOT
HETATM    1  C   UNL     1      -8.802   8.942  71.136  1.00  0.00    -0.297 C  
HETATM    2  C   UNL     1      -8.871   7.920  69.982  1.00  0.00    -0.141 C  
ENDROOT
BRANCH   2   3
HETATM    3  C   UNL     1      -8.326   6.470  70.296  1.00  0.00    -0.127 C  
HETATM    4  C   UNL     1      -6.629   6.903  70.486  1.00  0.00    -0.052 C  
HETATM    5  C   UNL     1      -5.967   7.343  69.173  1.00  0.00    -0.030 C  
HETATM    6  C   UNL     1      -6.586   6.649  67.939  1.00  0.00    -0.058 C  
HETATM    7  C   UNL     1      -7.840   5.888  68.313  1.00  0.00    -0.105 C  
HETATM    8  C   UNL     1      -8.519   5.246  67.085  1.00  0.00    -0.106 C  
HETATM    9  C   UNL     1      -7.738   5.170  69.693  1.00  0.00    -0.068 C  
HETATM   10  C   UNL     1      -7.477   4.954  71.513  1.00  0.00    -0.082 C  
HETATM   11  C   UNL     1      -9.058   6.428  66.205  1.00  0.00    -0.150 C  
HETATM   12  C   UNL     1      -8.799   5.621  72.202  1.00  0.00    -0.137 C  
HETATM   13  C   UNL     1      -8.002   7.483  65.900  1.00  0.00    -0.117 C  
HETATM   14  C   UNL     1      -9.629   5.507  70.886  1.00  0.00    -0.170 C  
HETATM   15  C   UNL     1      -8.120   8.323  64.859  1.00  0.00    -0.150 C  
HETATM   16  C   UNL     1      -6.901   7.738  66.908  1.00  0.00    -0.072 C  
HETATM   17  O   UNL     1     -10.917   6.035  70.936  1.00  0.00    -0.273 OA 
HETATM   18  C   UNL     1      -7.131   9.426  64.634  1.00  0.00    -0.100 C  
HETATM   19  C   UNL     1      -5.617   8.182  66.194  1.00  0.00    -0.036 C  
HETATM   20  H   UNL     1     -11.635   5.504  71.262  1.00  0.00     0.000 HD 
HETATM   21  C   UNL     1      -5.900   9.502  65.527  1.00  0.00    -0.059 C  
HETATM   22  O   UNL     1      -7.352  10.260  63.778  1.00  0.00    -0.134 OA 
BRANCH  14  23
HETATM   23  C   UNL     1      -9.579   4.010  71.144  1.00  0.00    -0.242 C  
HETATM   24  C   UNL     1      -9.536   2.726  71.367  1.00  0.00    -0.223 C  
ENDBRANCH  14  23
ENDBRANCH   2   3
TORSDOF 2
ENDMDL
MODEL      107
REMARK 921   NORMALIZED FREE ENERGY PREDICTED BY IDOCK:   -2.50 KCAL/MOL
REMARK 922        TOTAL FREE ENERGY PREDICTED BY IDOCK:   -2.28 KCAL/MOL
REMARK 923 INTER-LIGAND FREE ENERGY PREDICTED BY IDOCK:   -3.27 KCAL/MOL
REMARK 924 INTRA-LIGAND FREE ENERGY PREDICTED BY IDOCK:    0.99 KCAL/MOL
REMARK 927      BINDING AFFINITY PREDICTED BY RF-SCORE:    0.00 PKD
ROOT
HETATM    1  C   UNL     1     -10.017   6.204  70.348  1.00  0.00    -0.223 C  
HETATM    2  C   UNL     1      -8.475   6.160  70.345  1.00  0.00    -0.133 C  
ENDROOT
BRANCH   2   3
HETATM    3  C   UNL     1      -7.801   5.258  69.237  1.00  0.00    -0.088 C  
HETATM    4  C   UNL     1      -6.312   6.184  69.065  1.00  0.00    -0.041 C  
HETATM    5  C   UNL     1      -6.529   7.565  68.432  1.00  0.00    -0.045 C  
HETATM    6  C   UNL     1      -7.717   7.580  67.443  1.00  0.00    -0.117 C  
HETATM    7  C   UNL     1      -8.510   6.293  67.525  1.00  0.00    -0.108 C  
HETATM    8  C   UNL     1      -9.745   6.312  66.600  1.00  0.00    -0.195 C  
HETATM    9  C   UNL     1      -7.618   5.028  67.716  1.00  0.00    -0.083 C  
HETATM   10  C   UNL     1      -6.362   3.899  68.473  1.00  0.00    -0.036 C  
HETATM   11  C   UNL     1     -10.728   7.384  67.190  1.00  0.00    -0.400 C  
HETATM   12  C   UNL     1      -7.078   3.332  69.826  1.00  0.00    -0.041 C  
HETATM   13  C   UNL     1     -10.068   8.734  67.439  1.00  0.00    -0.289 C  
HETATM   14  C   UNL     1      -8.504   3.685  69.304  1.00  0.00    -0.065 C  
HETATM   15  C   UNL     1     -10.785   9.866  67.534  1.00  0.00    -0.333 C  
HETATM   16  C   UNL     1      -8.598   8.782  67.801  1.00  0.00    -0.129 C  
HETATM   17  O   UNL     1      -9.552   3.428  70.185  1.00  0.00    -0.181 OA 
HETATM   18  C   UNL     1     -10.136  11.169  67.887  1.00  0.00    -0.176 C  
HETATM   19  C   UNL     1      -7.964  10.079  67.282  1.00  0.00    -0.106 C  
HETATM   20  H   UNL     1      -9.939   2.561  70.222  1.00  0.00     0.000 HD 
HETATM   21  C   UNL     1      -8.619  11.227  68.004  1.00  0.00    -0.140 C  
HETATM   22  O   UNL     1     -10.831  12.139  68.116  1.00  0.00    -0.203 OA 
BRANCH  14  23
HETATM   23  C   UNL     1      -8.268   2.564  68.304  1.00  0.00    -0.072 C  
HETATM   24  C   UNL     1      -8.066   1.602  67.448  1.00  0.00    -0.066 C  
ENDBRANCH  14  23
ENDBRANCH   2   3
TORSDOF 2
ENDMDL
MODEL      108
REMARK 921   NORMALIZED FREE ENERGY PREDICTED BY IDOCK:   -2.10 KCAL/MOL
REMARK 922        TOTAL FREE ENERGY PREDICTED BY IDOCK:   -1.83 KCAL/MOL
REMARK 923 INTER-LIGAND FREE ENERGY PREDICTED BY IDOCK:   -2.81 KCAL/MOL
REMARK 924 INTRA-LIGAND FREE ENERGY PREDICTED BY IDOCK:    0.98 KCAL/MOL
REMARK 927      BINDING AFFINITY PREDICTED BY RF-SCORE:    0.00 PKD
ROOT
HETATM    1  C   UNL     1     -10.252   5.528  73.219  1.00  0.00    -0.216 C  
HETATM    2  C   UNL     1     -11.001   5.382  71.879  1.00  0.00    -0.219 C  
ENDROOT
BRANCH   2   3
HETATM    3  C   UNL     1     -10.934   6.621  70.899  1.00  0.00    -0.315 C  
HETATM    4  C   UNL     1     -11.023   5.719  69.388  1.00  0.00    -0.352 C  
HETATM    5  C   UNL     1      -9.771   4.877  69.112  1.00  0.00    -0.252 C  
HETATM    6  C   UNL     1      -8.493   5.507  69.709  1.00  0.00    -0.105 C  
HETATM    7  C   UNL     1      -8.831   6.673  70.613  1.00  0.00    -0.148 C  
HETATM    8  C   UNL     1      -7.577   7.274  71.281  1.00  0.00    -0.083 C  
HETATM    9  C   UNL     1     -10.005   7.549  70.078  1.00  0.00    -0.186 C  
HETATM   10  C   UNL     1     -11.696   7.982  69.461  1.00  0.00     0.768 C  
HETATM   11  C   UNL     1      -7.036   6.187  72.275  1.00  0.00    -0.084 C  
HETATM   12  C   UNL     1     -12.654   7.888  70.780  1.00  0.00     0.111 C  
HETATM   13  C   UNL     1      -6.850   4.820  71.630  1.00  0.00    -0.043 C  
HETATM   14  C   UNL     1     -11.445   8.028  71.755  1.00  0.00    -0.277 C  
HETATM   15  C   UNL     1      -6.034   3.893  72.157  1.00  0.00    -0.009 C  
HETATM   16  C   UNL     1      -7.762   4.410  70.491  1.00  0.00    -0.053 C  
HETATM   17  O   UNL     1     -11.749   7.945  73.111  1.00  0.00    -0.630 OA 
HETATM   18  C   UNL     1      -5.943   2.515  71.575  1.00  0.00    -0.014 C  
HETATM   19  C   UNL     1      -7.022   3.473  69.528  1.00  0.00    -0.042 C  
HETATM   20  H   UNL     1     -12.030   8.720  73.583  1.00  0.00     0.000 HD 
HETATM   21  C   UNL     1      -6.690   2.214  70.283  1.00  0.00    -0.033 C  
HETATM   22  O   UNL     1      -5.315   1.659  72.165  1.00  0.00     0.000 OA 
BRANCH  14  23
HETATM   23  C   UNL     1     -11.368   9.456  71.239  1.00  0.00    -0.436 C  
HETATM   24  C   UNL     1     -11.303  10.681  70.799  1.00  0.00    -0.195 C  
ENDBRANCH  14  23
ENDBRANCH   2   3
TORSDOF 2
ENDMDL
MODEL      109
REMARK 921   NORMALIZED FREE ENERGY PREDICTED BY IDOCK:   -2.09 KCAL/MOL
REMARK 922        TOTAL FREE ENERGY PREDICTED BY IDOCK:   -1.82 KCAL/MOL
REMARK 923 INTER-LIGAND FREE ENERGY PREDICTED BY IDOCK:   -3.85 KCAL/MOL
REMARK 924 INTRA-LIGAND FREE ENERGY PREDICTED BY IDOCK:    2.03 KCAL/MOL
REMARK 927      BINDING AFFINITY PREDICTED BY RF-SCORE:    0.00 PKD
ROOT
HETATM    1  C   UNL     1      -5.995   9.491  71.097  1.00  0.00    -0.078 C  
HETATM    2  C   UNL     1      -6.989   8.943  70.051  1.00  0.00    -0.044 C  
ENDROOT
BRANCH   2   3
HETATM    3  C   UNL     1      -7.585   7.507  70.336  1.00  0.00    -0.090 C  
HETATM    4  C   UNL     1      -7.490   6.891  68.689  1.00  0.00    -0.099 C  
HETATM    5  C   UNL     1      -8.464   7.585  67.727  1.00  0.00    -0.118 C  
HETATM    6  C   UNL     1      -9.751   8.064  68.435  1.00  0.00    -0.168 C  
HETATM    7  C   UNL     1      -9.626   7.937  69.938  1.00  0.00    -0.168 C  
HETATM    8  C   UNL     1     -10.870   8.478  70.674  1.00  0.00    -0.255 C  
HETATM    9  C   UNL     1      -8.873   6.648  70.389  1.00  0.00    -0.152 C  
HETATM   10  C   UNL     1      -7.517   5.394  70.514  1.00  0.00    -0.072 C  
HETATM   11  C   UNL     1     -10.887  10.030  70.439  1.00  0.00    -0.380 C  
HETATM   12  C   UNL     1      -6.365   6.120  71.416  1.00  0.00    -0.049 C  
HETATM   13  C   UNL     1     -10.766  10.418  68.971  1.00  0.00    -0.260 C  
HETATM   14  C   UNL     1      -7.378   7.147  72.010  1.00  0.00    -0.081 C  
HETATM   15  C   UNL     1     -11.169  11.618  68.521  1.00  0.00    -0.312 C  
HETATM   16  C   UNL     1      -9.981   9.525  68.033  1.00  0.00    -0.198 C  
HETATM   17  O   UNL     1      -6.838   8.104  72.865  1.00  0.00    -0.086 OA 
HETATM   18  C   UNL     1     -10.945  12.029  67.097  1.00  0.00    -0.270 C  
HETATM   19  C   UNL     1     -10.562   9.602  66.615  1.00  0.00    -0.173 C  
HETATM   20  H   UNL     1      -6.723   7.905  73.788  1.00  0.00     0.000 HD 
HETATM   21  C   UNL     1     -10.372  11.011  66.120  1.00  0.00    -0.306 C  
HETATM   22  O   UNL     1     -11.180  13.173  66.763  1.00  0.00    -0.282 OA 
BRANCH  14  23
HETATM   23  C   UNL     1      -7.961   5.946  72.737  1.00  0.00    -0.104 C  
HETATM   24  C   UNL     1      -8.460   4.916  73.362  1.00  0.00    -0.106 C  
ENDBRANCH  14  23
ENDBRANCH   2   3
TORSDOF 2
ENDMDL
MODEL      110
REMARK 921   NORMALIZED FREE ENERGY PREDICTED BY IDOCK:   -2.00 KCAL/MOL
REMARK 922        TOTAL FREE ENERGY PREDICTED BY IDOCK:   -1.72 KCAL/MOL
REMARK 923 INTER-LIGAND FREE ENERGY PREDICTED BY IDOCK:   -3.21 KCAL/MOL
REMARK 924 INTRA-LIGAND FREE ENERGY PREDICTED BY IDOCK:    1.49 KCAL/MOL
REMARK 927      BINDING AFFINITY PREDICTED BY RF-SCORE:    0.00 PKD
ROOT
HETATM    1  C   UNL     1     -11.204   9.781  70.673  1.00  0.00    -0.402 C  
HETATM    2  C   UNL     1     -10.383  10.209  69.438  1.00  0.00    -0.251 C  
ENDROOT
BRANCH   2   3
HETATM    3  C   UNL     1      -8.939   9.581  69.304  1.00  0.00    -0.160 C  
HETATM    4  C   UNL     1      -8.029  11.088  69.370  1.00  0.00     0.036 C  
HETATM    5  C   UNL     1      -8.236  11.974  68.134  1.00  0.00    -0.163 C  
HETATM    6  C   UNL     1      -8.519  11.149  66.858  1.00  0.00    -0.147 C  
HETATM    7  C   UNL     1      -8.751   9.691  67.192  1.00  0.00    -0.137 C  
HETATM    8  C   UNL     1      -9.109   8.858  65.943  1.00  0.00    -0.271 C  
HETATM    9  C   UNL     1      -7.817   9.160  68.322  1.00  0.00    -0.102 C  
HETATM   10  C   UNL     1      -6.998   9.053  69.979  1.00  0.00    -0.050 C  
HETATM   11  C   UNL     1     -10.520   9.353  65.467  1.00  0.00     0.757 C  
HETATM   12  C   UNL     1      -8.163   8.503  70.981  1.00  0.00    -0.163 C  
HETATM   13  C   UNL     1     -10.604  10.864  65.299  1.00  0.00    -0.259 C  
HETATM   14  C   UNL     1      -9.008   7.932  69.801  1.00  0.00    -0.146 C  
HETATM   15  C   UNL     1     -11.541  11.440  64.528  1.00  0.00    -0.044 C  
HETATM   16  C   UNL     1      -9.756  11.754  66.185  1.00  0.00    -0.250 C  
HETATM   17  O   UNL     1     -10.229   7.361  70.151  1.00  0.00    -0.199 OA 
HETATM   18  C   UNL     1     -11.681  12.931  64.457  1.00  0.00    -0.365 C  
HETATM   19  C   UNL     1      -9.381  13.043  65.441  1.00  0.00     0.353 C  
HETATM   20  H   UNL     1     -10.266   6.452  70.425  1.00  0.00     0.000 HD 
HETATM   21  C   UNL     1     -10.654  13.799  65.170  1.00  0.00    -0.385 C  
HETATM   22  O   UNL     1     -12.632  13.413  63.875  1.00  0.00    -0.673 OA 
BRANCH  14  23
HETATM   23  C   UNL     1      -7.884   6.917  69.666  1.00  0.00    -0.119 C  
HETATM   24  C   UNL     1      -6.920   6.046  69.551  1.00  0.00    -0.067 C  
ENDBRANCH  14  23
ENDBRANCH   2   3
TORSDOF 2
ENDMDL
MODEL      111
REMARK 921   NORMALIZED FREE ENERGY PREDICTED BY IDOCK:   -1.48 KCAL/MOL
REMARK 922        TOTAL FREE ENERGY PREDICTED BY IDOCK:   -1.14 KCAL/MOL
REMARK 923 INTER-LIGAND FREE ENERGY PREDICTED BY IDOCK:   -1.79 KCAL/MOL
REMARK 924 INTRA-LIGAND FREE ENERGY PREDICTED BY IDOCK:    0.65 KCAL/MOL
REMARK 927      BINDING AFFINITY PREDICTED BY RF-SCORE:    0.00 PKD
ROOT
HETATM    1  C   UNL     1      -9.959   7.176  73.098  1.00  0.00    -0.269 C  
HETATM    2  C   UNL     1      -8.957   6.469  72.160  1.00  0.00    -0.139 C  
ENDROOT
BRANCH   2   3
HETATM    3  C   UNL     1      -7.619   5.955  72.824  1.00  0.00    -0.096 C  
HETATM    4  C   UNL     1      -7.101   7.492  73.510  1.00  0.00    -0.096 C  
HETATM    5  C   UNL     1      -6.693   8.522  72.448  1.00  0.00    -0.090 C  
HETATM    6  C   UNL     1      -6.109   7.860  71.179  1.00  0.00    -0.034 C  
HETATM    7  C   UNL     1      -6.300   6.359  71.210  1.00  0.00    -0.049 C  
HETATM    8  C   UNL     1      -5.791   5.681  69.921  1.00  0.00    -0.020 C  
HETATM    9  C   UNL     1      -6.097   5.739  72.626  1.00  0.00    -0.041 C  
HETATM   10  C   UNL     1      -6.337   5.461  74.441  1.00  0.00    -0.069 C  
HETATM   11  C   UNL     1      -6.745   6.147  68.765  1.00  0.00    -0.061 C  
HETATM   12  C   UNL     1      -7.782   4.710  74.557  1.00  0.00    -0.085 C  
HETATM   13  C   UNL     1      -6.912   7.660  68.695  1.00  0.00    -0.075 C  
HETATM   14  C   UNL     1      -7.743   4.252  73.067  1.00  0.00    -0.082 C  
HETATM   15  C   UNL     1      -7.322   8.275  67.574  1.00  0.00    -0.093 C  
HETATM   16  C   UNL     1      -6.823   8.473  69.970  1.00  0.00    -0.042 C  
HETATM   17  O   UNL     1      -8.868   3.566  72.615  1.00  0.00    -0.085 OA 
HETATM   18  C   UNL     1      -7.587   9.750  67.549  1.00  0.00    -0.091 C  
HETATM   19  C   UNL     1      -6.264   9.870  69.672  1.00  0.00    -0.047 C  
HETATM   20  H   UNL     1      -8.936   2.627  72.750  1.00  0.00     0.000 HD 
HETATM   21  C   UNL     1      -7.253  10.576  68.784  1.00  0.00    -0.084 C  
HETATM   22  O   UNL     1      -8.103  10.247  66.568  1.00  0.00    -0.116 OA 
BRANCH  14  23
HETATM   23  C   UNL     1      -6.617   3.336  73.519  1.00  0.00    -0.030 C  
HETATM   24  C   UNL     1      -5.651   2.551  73.906  1.00  0.00     0.000 C  
ENDBRANCH  14  23
ENDBRANCH   2   3
TORSDOF 2
ENDMDL
MODEL      112
REMARK 921   NORMALIZED FREE ENERGY PREDICTED BY IDOCK:   -1.21 KCAL/MOL
REMARK 922        TOTAL FREE ENERGY PREDICTED BY IDOCK:   -0.84 KCAL/MOL
REMARK 923 INTER-LIGAND FREE ENERGY PREDICTED BY IDOCK:   -3.67 KCAL/MOL
REMARK 924 INTRA-LIGAND FREE ENERGY PREDICTED BY IDOCK:    2.83 KCAL/MOL
REMARK 927      BINDING AFFINITY PREDICTED BY RF-SCORE:    0.00 PKD
ROOT
HETATM    1  C   UNL     1     -10.675  13.529  65.821  1.00  0.00    -0.278 C  
HETATM    2  C   UNL     1      -9.837  12.284  66.179  1.00  0.00    -0.257 C  
ENDROOT
BRANCH   2   3
HETATM    3  C   UNL     1      -9.963  11.757  67.664  1.00  0.00    -0.204 C  
HETATM    4  C   UNL     1     -11.196  12.894  68.204  1.00  0.00    -0.305 C  
HETATM    5  C   UNL     1     -10.688  14.339  68.294  1.00  0.00    -0.253 C  
HETATM    6  C   UNL     1      -9.183  14.414  68.638  1.00  0.00    -0.181 C  
HETATM    7  C   UNL     1      -8.539  13.046  68.569  1.00  0.00    -0.049 C  
HETATM    8  C   UNL     1      -7.020  13.104  68.835  1.00  0.00    -0.093 C  
HETATM    9  C   UNL     1      -9.450  11.906  69.118  1.00  0.00     0.378 C  
HETATM   10  C   UNL     1     -10.937  10.818  69.298  1.00  0.00    -0.292 C  
HETATM   11  C   UNL     1      -6.383  13.869  67.623  1.00  0.00    -0.140 C  
HETATM   12  C   UNL     1     -10.916   9.866  67.971  1.00  0.00    -0.269 C  
HETATM   13  C   UNL     1      -7.055  15.205  67.333  1.00  0.00    -0.219 C  
HETATM   14  C   UNL     1      -9.399  10.129  67.721  1.00  0.00    -0.141 C  
HETATM   15  C   UNL     1      -6.432  16.177  66.646  1.00  0.00     0.346 C  
HETATM   16  C   UNL     1      -8.530  15.372  67.635  1.00  0.00    -0.173 C  
HETATM   17  O   UNL     1      -8.864   9.538  66.579  1.00  0.00    -0.135 OA 
HETATM   18  C   UNL     1      -7.141  17.443  66.274  1.00  0.00    -0.295 C  
HETATM   19  C   UNL     1      -8.835  16.827  68.013  1.00  0.00    -0.216 C  
HETATM   20  H   UNL     1      -8.553   8.641  66.610  1.00  0.00     0.000 HD 
HETATM   21  C   UNL     1      -8.548  17.680  66.806  1.00  0.00    -0.276 C  
HETATM   22  O   UNL     1      -6.601  18.231  65.523  1.00  0.00    -0.329 OA 
BRANCH  14  23
HETATM   23  C   UNL     1      -9.187   9.307  68.982  1.00  0.00    -0.144 C  
HETATM   24  C   UNL     1      -9.006   8.601  70.063  1.00  0.00    -0.148 C  
ENDBRANCH  14  23
ENDBRANCH   2   3
TORSDOF 2
ENDMDL
MODEL      113
REMARK 921   NORMALIZED FREE ENERGY PREDICTED BY IDOCK:   -0.62 KCAL/MOL
REMARK 922        TOTAL FREE ENERGY PREDICTED BY IDOCK:   -0.18 KCAL/MOL
REMARK 923 INTER-LIGAND FREE ENERGY PREDICTED BY IDOCK:   -2.07 KCAL/MOL
REMARK 924 INTRA-LIGAND FREE ENERGY PREDICTED BY IDOCK:    1.89 KCAL/MOL
REMARK 927      BINDING AFFINITY PREDICTED BY RF-SCORE:    0.00 PKD
ROOT
HETATM    1  C   UNL     1     -12.039   8.548  71.869  1.00  0.00    -0.411 C  
HETATM    2  C   UNL     1     -11.057   8.202  70.730  1.00  0.00    -0.275 C  
ENDROOT
BRANCH   2   3
HETATM    3  C   UNL     1     -10.847   9.312  69.624  1.00  0.00    -0.228 C  
HETATM    4  C   UNL     1     -11.029   8.268  68.217  1.00  0.00     0.161 C  
HETATM    5  C   UNL     1      -9.878   7.267  68.055  1.00  0.00    -0.167 C  
HETATM    6  C   UNL     1      -8.540   7.812  68.603  1.00  0.00    -0.129 C  
HETATM    7  C   UNL     1      -8.750   9.100  69.370  1.00  0.00    -0.140 C  
HETATM    8  C   UNL     1      -7.439   9.628  69.991  1.00  0.00    -0.142 C  
HETATM    9  C   UNL     1      -9.815  10.038  68.725  1.00  0.00    -0.173 C  
HETATM   10  C   UNL     1     -11.444  10.585  68.036  1.00  0.00    -0.230 C  
HETATM   11  C   UNL     1      -7.029   8.602  71.105  1.00  0.00    -0.078 C  
HETATM   12  C   UNL     1     -12.413  10.742  69.340  1.00  0.00     0.008 C  
HETATM   13  C   UNL     1      -6.993   7.161  70.613  1.00  0.00    -0.058 C  
HETATM   14  C   UNL     1     -11.201  10.852  70.315  1.00  0.00    -0.188 C  
HETATM   15  C   UNL     1      -6.289   6.212  71.251  1.00  0.00    -0.048 C  
HETATM   16  C   UNL     1      -7.939   6.733  69.510  1.00  0.00    -0.125 C  
HETATM   17  O   UNL     1     -11.519  10.951  71.667  1.00  0.00     0.413 OA 
HETATM   18  C   UNL     1      -6.349   4.777  70.822  1.00  0.00    -0.019 C  
HETATM   19  C   UNL     1      -7.304   5.620  68.666  1.00  0.00    -0.079 C  
HETATM   20  H   UNL     1     -11.714  11.799  72.048  1.00  0.00     0.000 HD 
HETATM   21  C   UNL     1      -7.119   4.422  69.557  1.00  0.00    -0.050 C  
HETATM   22  O   UNL     1      -5.825   3.926  71.511  1.00  0.00    -0.012 OA 
BRANCH  14  23
HETATM   23  C   UNL     1     -10.962  12.198  69.651  1.00  0.00     0.057 C  
HETATM   24  C   UNL     1     -10.758  13.352  69.080  1.00  0.00    -0.160 C  
ENDBRANCH  14  23
ENDBRANCH   2   3
TORSDOF 2
ENDMDL
MODEL      114
REMARK 921   NORMALIZED FREE ENERGY PREDICTED BY IDOCK:   -0.61 KCAL/MOL
REMARK 922        TOTAL FREE ENERGY PREDICTED BY IDOCK:   -0.17 KCAL/MOL
REMARK 923 INTER-LIGAND FREE ENERGY PREDICTED BY IDOCK:   -2.73 KCAL/MOL
REMARK 924 INTRA-LIGAND FREE ENERGY PREDICTED BY IDOCK:    2.56 KCAL/MOL
REMARK 927      BINDING AFFINITY PREDICTED BY RF-SCORE:    0.00 PKD
ROOT
HETATM    1  C   UNL     1     -10.549   8.230  67.053  1.00  0.00    -0.328 C  
HETATM    2  C   UNL     1      -9.534   8.886  68.012  1.00  0.00    -0.158 C  
ENDROOT
BRANCH   2   3
HETATM    3  C   UNL     1      -8.328   9.653  67.339  1.00  0.00    -0.114 C  
HETATM    4  C   UNL     1      -8.760   9.328  65.662  1.00  0.00    -0.193 C  
HETATM    5  C   UNL     1      -8.608   7.851  65.275  1.00  0.00    -0.084 C  
HETATM    6  C   UNL     1      -7.484   7.146  66.066  1.00  0.00    -0.080 C  
HETATM    7  C   UNL     1      -6.974   8.025  67.187  1.00  0.00    -0.075 C  
HETATM    8  C   UNL     1      -5.901   7.316  68.041  1.00  0.00    -0.030 C  
HETATM    9  C   UNL     1      -6.881   9.532  66.798  1.00  0.00    -0.080 C  
HETATM   10  C   UNL     1      -7.424  11.198  66.200  1.00  0.00    -0.022 C  
HETATM   11  C   UNL     1      -6.631   6.150  68.795  1.00  0.00    -0.055 C  
HETATM   12  C   UNL     1      -8.345  11.791  67.411  1.00  0.00    -0.159 C  
HETATM   13  C   UNL     1      -7.443   5.250  67.873  1.00  0.00    -0.076 C  
HETATM   14  C   UNL     1      -7.723  10.817  68.457  1.00  0.00    -0.118 C  
HETATM   15  C   UNL     1      -7.786   4.000  68.225  1.00  0.00    -0.066 C  
HETATM   16  C   UNL     1      -8.063   5.840  66.623  1.00  0.00    -0.102 C  
HETATM   17  O   UNL     1      -8.254  10.889  69.742  1.00  0.00    -0.347 OA 
HETATM   18  C   UNL     1      -8.676   3.164  67.356  1.00  0.00    -0.122 C  
HETATM   19  C   UNL     1      -8.145   4.780  65.517  1.00  0.00    -0.111 C  
HETATM   20  H   UNL     1      -7.921  11.531  70.359  1.00  0.00     0.000 HD 
HETATM   21  C   UNL     1      -9.082   3.701  65.990  1.00  0.00    -0.155 C  
HETATM   22  O   UNL     1      -9.091   2.102  67.774  1.00  0.00    -0.141 OA 
BRANCH  14  23
HETATM   23  C   UNL     1      -6.461  11.647  68.278  1.00  0.00    -0.051 C  
HETATM   24  C   UNL     1      -5.380  12.359  68.126  1.00  0.00    -0.065 C  
ENDBRANCH  14  23
ENDBRANCH   2   3
TORSDOF 2
ENDMDL
MODEL      115
REMARK 921   NORMALIZED FREE ENERGY PREDICTED BY IDOCK:   -0.28 KCAL/MOL
REMARK 922        TOTAL FREE ENERGY PREDICTED BY IDOCK:    0.21 KCAL/MOL
REMARK 923 INTER-LIGAND FREE ENERGY PREDICTED BY IDOCK:   -3.14 KCAL/MOL
REMARK 924 INTRA-LIGAND FREE ENERGY PREDICTED BY IDOCK:    3.35 KCAL/MOL
REMARK 927      BINDING AFFINITY PREDICTED BY RF-SCORE:    0.00 PKD
ROOT
HETATM    1  C   UNL     1     -11.241   7.872  67.960  1.00  0.00     0.499 C  
HETATM    2  C   UNL     1     -10.897   9.338  68.295  1.00  0.00    -0.132 C  
ENDROOT
BRANCH   2   3
HETATM    3  C   UNL     1      -9.494   9.863  67.790  1.00  0.00    -0.158 C  
HETATM    4  C   UNL     1      -9.136   8.530  66.695  1.00  0.00    -0.203 C  
HETATM    5  C   UNL     1      -8.870   7.205  67.422  1.00  0.00    -0.119 C  
HETATM    6  C   UNL     1      -8.245   7.414  68.819  1.00  0.00    -0.129 C  
HETATM    7  C   UNL     1      -8.267   8.875  69.213  1.00  0.00    -0.114 C  
HETATM    8  C   UNL     1      -7.715   9.103  70.636  1.00  0.00    -0.152 C  
HETATM    9  C   UNL     1      -7.964   9.840  68.027  1.00  0.00    -0.097 C  
HETATM   10  C   UNL     1      -8.129  10.640  66.365  1.00  0.00    -0.148 C  
HETATM   11  C   UNL     1      -8.742   8.443  71.623  1.00  0.00    -0.240 C  
HETATM   12  C   UNL     1      -9.478  11.553  66.478  1.00  0.00    -0.220 C  
HETATM   13  C   UNL     1      -9.078   7.001  71.267  1.00  0.00    -0.152 C  
HETATM   14  C   UNL     1      -9.423  11.568  68.036  1.00  0.00    -0.181 C  
HETATM   15  C   UNL     1      -9.580   6.146  72.174  1.00  0.00    -0.162 C  
HETATM   16  C   UNL     1      -9.051   6.573  69.814  1.00  0.00    -0.142 C  
HETATM   17  O   UNL     1     -10.474  12.223  68.673  1.00  0.00    -0.227 OA 
HETATM   18  C   UNL     1     -10.009   4.764  71.785  1.00  0.00    -0.190 C  
HETATM   19  C   UNL     1      -8.659   5.094  69.702  1.00  0.00    -0.100 C  
HETATM   20  H   UNL     1     -10.434  13.163  68.808  1.00  0.00     0.000 HD 
HETATM   21  C   UNL     1      -9.740   4.284  70.366  1.00  0.00    -0.280 C  
HETATM   22  O   UNL     1     -10.599   4.074  72.592  1.00  0.00    -0.172 OA 
BRANCH  14  23
HETATM   23  C   UNL     1      -8.192  12.440  67.849  1.00  0.00    -0.163 C  
HETATM   24  C   UNL     1      -7.136  13.189  67.690  1.00  0.00    -0.162 C  
ENDBRANCH  14  23
ENDBRANCH   2   3
TORSDOF 2
ENDMDL
MODEL      116
REMARK 921   NORMALIZED FREE ENERGY PREDICTED BY IDOCK:   -0.17 KCAL/MOL
REMARK 922        TOTAL FREE ENERGY PREDICTED BY IDOCK:    0.33 KCAL/MOL
REMARK 923 INTER-LIGAND FREE ENERGY PREDICTED BY IDOCK:   -1.72 KCAL/MOL
REMARK 924 INTRA-LIGAND FREE ENERGY PREDICTED BY IDOCK:    2.05 KCAL/MOL
REMARK 927      BINDING AFFINITY PREDICTED BY RF-SCORE:    0.00 PKD
ROOT
HETATM    1  C   UNL     1      -9.103  13.777  66.406  1.00  0.00    -0.083 C  
HETATM    2  C   UNL     1      -9.202  13.550  67.929  1.00  0.00    -0.211 C  
ENDROOT
BRANCH   2   3
HETATM    3  C   UNL     1     -10.658  13.383  68.521  1.00  0.00    -0.264 C  
HETATM    4  C   UNL     1     -10.442  11.772  69.200  1.00  0.00    -0.060 C  
HETATM    5  C   UNL     1     -10.278  10.683  68.131  1.00  0.00    -0.192 C  
HETATM    6  C   UNL     1     -11.039  11.015  66.828  1.00  0.00    -0.240 C  
HETATM    7  C   UNL     1     -11.561  12.436  66.850  1.00  0.00    -0.437 C  
HETATM    8  C   UNL     1     -12.262  12.818  65.529  1.00  0.00    -0.519 C  
HETATM    9  C   UNL     1     -12.096  12.877  68.246  1.00  0.00    -0.173 C  
HETATM   10  C   UNL     1     -12.100  13.213  70.067  1.00  0.00    -0.375 C  
HETATM   11  C   UNL     1     -11.146  12.857  64.427  1.00  0.00    -0.395 C  
HETATM   12  C   UNL     1     -11.170  14.543  70.244  1.00  0.00    -0.155 C  
HETATM   13  C   UNL     1     -10.298  11.592  64.383  1.00  0.00    -0.364 C  
HETATM   14  C   UNL     1     -11.343  14.949  68.748  1.00  0.00    -0.287 C  
HETATM   15  C   UNL     1      -9.596  11.247  63.291  1.00  0.00    -0.373 C  
HETATM   16  C   UNL     1     -10.064  10.815  65.662  1.00  0.00    -0.327 C  
HETATM   17  O   UNL     1     -10.640  16.081  68.344  1.00  0.00    -0.248 OA 
HETATM   18  C   UNL     1      -8.681  10.060  63.298  1.00  0.00    -0.221 C  
HETATM   19  C   UNL     1      -9.902   9.320  65.355  1.00  0.00    -0.060 C  
HETATM   20  H   UNL     1     -11.018  16.944  68.470  1.00  0.00     0.000 HD 
HETATM   21  C   UNL     1      -8.657   9.159  64.525  1.00  0.00    -0.198 C  
HETATM   22  O   UNL     1      -7.947   9.868  62.349  1.00  0.00    -0.113 OA 
BRANCH  14  23
HETATM   23  C   UNL     1     -12.784  15.239  69.134  1.00  0.00     0.348 C  
HETATM   24  C   UNL     1     -14.020  15.488  69.466  1.00  0.00     3.231 C  
ENDBRANCH  14  23
ENDBRANCH   2   3
TORSDOF 2
ENDMDL
MODEL      117
REMARK 921   NORMALIZED FREE ENERGY PREDICTED BY IDOCK:    0.83 KCAL/MOL
REMARK 922        TOTAL FREE ENERGY PREDICTED BY IDOCK:    1.44 KCAL/MOL
REMARK 923 INTER-LIGAND FREE ENERGY PREDICTED BY IDOCK:   -3.34 KCAL/MOL
REMARK 924 INTRA-LIGAND FREE ENERGY PREDICTED BY IDOCK:    4.79 KCAL/MOL
REMARK 927      BINDING AFFINITY PREDICTED BY RF-SCORE:    0.00 PKD
ROOT
HETATM    1  C   UNL     1      -8.614  12.064  67.998  1.00  0.00    -0.170 C  
HETATM    2  C   UNL     1      -7.716  10.993  67.343  1.00  0.00    -0.114 C  
ENDROOT
BRANCH   2   3
HETATM    3  C   UNL     1      -8.261  10.338  66.012  1.00  0.00    -0.141 C  
HETATM    4  C   UNL     1      -8.860  11.815  65.262  1.00  0.00     0.324 C  
HETATM    5  C   UNL     1     -10.076  12.410  65.985  1.00  0.00    -0.269 C  
HETATM    6  C   UNL     1     -10.947  11.328  66.663  1.00  0.00    -0.326 C  
HETATM    7  C   UNL     1     -10.257   9.981  66.641  1.00  0.00    -0.288 C  
HETATM    8  C   UNL     1     -11.073   8.897  67.377  1.00  0.00     0.303 C  
HETATM    9  C   UNL     1      -9.488   9.702  65.313  1.00  0.00    -0.342 C  
HETATM   10  C   UNL     1      -8.288   9.955  63.926  1.00  0.00    -0.172 C  
HETATM   11  C   UNL     1     -11.063   9.287  68.897  1.00  0.00     0.042 C  
HETATM   12  C   UNL     1      -6.825   9.648  64.584  1.00  0.00    -0.109 C  
HETATM   13  C   UNL     1     -11.493  10.726  69.152  1.00  0.00    -0.368 C  
HETATM   14  C   UNL     1      -7.447   8.839  65.763  1.00  0.00    -0.085 C  
HETATM   15  C   UNL     1     -11.947  11.127  70.351  1.00  0.00    -0.469 C  
HETATM   16  C   UNL     1     -11.204  11.781  68.104  1.00  0.00    -0.320 C  
HETATM   17  O   UNL     1      -6.546   8.370  66.716  1.00  0.00    -0.056 OA 
HETATM   18  C   UNL     1     -12.264  12.566  70.621  1.00  0.00    -0.276 C  
HETATM   19  C   UNL     1     -12.282  12.871  68.135  1.00  0.00    -0.006 C  
HETATM   20  H   UNL     1      -6.098   7.543  66.578  1.00  0.00     0.000 HD 
HETATM   21  C   UNL     1     -12.194  13.561  69.470  1.00  0.00    -0.289 C  
HETATM   22  O   UNL     1     -12.523  12.917  71.755  1.00  0.00    -0.089 OA 
BRANCH  14  23
HETATM   23  C   UNL     1      -7.790   7.810  64.698  1.00  0.00    -0.130 C  
HETATM   24  C   UNL     1      -8.086   6.928  63.784  1.00  0.00     0.007 C  
ENDBRANCH  14  23
ENDBRANCH   2   3
TORSDOF 2
ENDMDL
MODEL      118
REMARK 921   NORMALIZED FREE ENERGY PREDICTED BY IDOCK:    1.16 KCAL/MOL
REMARK 922        TOTAL FREE ENERGY PREDICTED BY IDOCK:    1.81 KCAL/MOL
REMARK 923 INTER-LIGAND FREE ENERGY PREDICTED BY IDOCK:   -2.17 KCAL/MOL
REMARK 924 INTRA-LIGAND FREE ENERGY PREDICTED BY IDOCK:    3.97 KCAL/MOL
REMARK 927      BINDING AFFINITY PREDICTED BY RF-SCORE:    0.00 PKD
ROOT
HETATM    1  C   UNL     1      -8.176   6.850  65.851  1.00  0.00    -0.129 C  
HETATM    2  C   UNL     1      -8.955   8.179  65.935  1.00  0.00    -0.195 C  
ENDROOT
BRANCH   2   3
HETATM    3  C   UNL     1      -8.145   9.435  66.447  1.00  0.00    -0.108 C  
HETATM    4  C   UNL     1      -6.540   8.873  65.986  1.00  0.00    -0.065 C  
HETATM    5  C   UNL     1      -6.058   7.675  66.815  1.00  0.00    -0.048 C  
HETATM    6  C   UNL     1      -6.630   7.682  68.250  1.00  0.00    -0.054 C  
HETATM    7  C   UNL     1      -7.703   8.739  68.404  1.00  0.00    -0.096 C  
HETATM    8  C   UNL     1      -8.344   8.718  69.807  1.00  0.00    -0.127 C  
HETATM    9  C   UNL     1      -7.382  10.061  67.642  1.00  0.00    -0.089 C  
HETATM   10  C   UNL     1      -6.962  11.183  66.231  1.00  0.00    -0.052 C  
HETATM   11  C   UNL     1      -9.140   7.370  69.914  1.00  0.00    -0.141 C  
HETATM   12  C   UNL     1      -8.329  11.257  65.340  1.00  0.00     0.198 C  
HETATM   13  C   UNL     1      -8.308   6.148  69.549  1.00  0.00    -0.120 C  
HETATM   14  C   UNL     1      -9.215  10.784  66.533  1.00  0.00    -0.168 C  
HETATM   15  C   UNL     1      -8.644   4.914  69.961  1.00  0.00    -0.106 C  
HETATM   16  C   UNL     1      -7.201   6.287  68.525  1.00  0.00    -0.085 C  
HETATM   17  O   UNL     1     -10.569  10.616  66.251  1.00  0.00    -0.229 OA 
HETATM   18  C   UNL     1      -7.880   3.708  69.506  1.00  0.00    -0.051 C  
HETATM   19  C   UNL     1      -6.068   5.298  68.828  1.00  0.00    -0.026 C  
HETATM   20  H   UNL     1     -11.159  11.360  66.298  1.00  0.00     0.000 HD 
HETATM   21  C   UNL     1      -6.622   3.908  68.671  1.00  0.00    -0.045 C  
HETATM   22  O   UNL     1      -8.302   2.600  69.772  1.00  0.00    -0.044 OA 
BRANCH  14  23
HETATM   23  C   UNL     1      -8.888  12.140  67.138  1.00  0.00    -0.191 C  
HETATM   24  C   UNL     1      -8.607  13.303  67.655  1.00  0.00    -0.196 C  
ENDBRANCH  14  23
ENDBRANCH   2   3
TORSDOF 2
ENDMDL
MODEL      119
REMARK 921   NORMALIZED FREE ENERGY PREDICTED BY IDOCK:    2.21 KCAL/MOL
REMARK 922        TOTAL FREE ENERGY PREDICTED BY IDOCK:    2.98 KCAL/MOL
REMARK 923 INTER-LIGAND FREE ENERGY PREDICTED BY IDOCK:    1.91 KCAL/MOL
REMARK 924 INTRA-LIGAND FREE ENERGY PREDICTED BY IDOCK:    1.07 KCAL/MOL
REMARK 927      BINDING AFFINITY PREDICTED BY RF-SCORE:    0.00 PKD
ROOT
HETATM    1  C   UNL     1      -8.111  10.081  66.416  1.00  0.00    -0.120 C  
HETATM    2  C   UNL     1      -8.024  11.296  67.363  1.00  0.00    -0.132 C  
ENDROOT
BRANCH   2   3
HETATM    3  C   UNL     1      -7.853  10.974  68.901  1.00  0.00    -0.138 C  
HETATM    4  C   UNL     1      -9.502  11.348  69.396  1.00  0.00     0.433 C  
HETATM    5  C   UNL     1      -9.838  12.842  69.297  1.00  0.00     0.651 C  
HETATM    6  C   UNL     1      -8.604  13.742  69.530  1.00  0.00     0.977 C  
HETATM    7  C   UNL     1      -7.332  12.922  69.566  1.00  0.00     0.486 C  
HETATM    8  C   UNL     1      -6.075  13.804  69.723  1.00  0.00    -0.127 C  
HETATM    9  C   UNL     1      -7.498  11.553  70.294  1.00  0.00     1.715 C  
HETATM   10  C   UNL     1      -8.181   9.878  70.687  1.00  0.00     0.281 C  
HETATM   11  C   UNL     1      -5.940  14.630  68.396  1.00  0.00    -0.103 C  
HETATM   12  C   UNL     1      -7.656   8.922  69.473  1.00  0.00    -0.080 C  
HETATM   13  C   UNL     1      -7.219  15.363  68.010  1.00  0.00    -0.135 C  
HETATM   14  C   UNL     1      -6.510   9.910  69.095  1.00  0.00    -0.048 C  
HETATM   15  C   UNL     1      -7.206  16.421  67.182  1.00  0.00    -0.233 C  
HETATM   16  C   UNL     1      -8.557  14.764  68.389  1.00  0.00    -0.166 C  
HETATM   17  O   UNL     1      -5.742   9.551  67.991  1.00  0.00    -0.041 OA 
HETATM   18  C   UNL     1      -8.479  17.065  66.724  1.00  0.00    -0.234 C  
HETATM   19  C   UNL     1      -9.589  15.874  68.627  1.00  0.00    -0.209 C  
HETATM   20  H   UNL     1      -5.002   8.964  68.098  1.00  0.00     0.000 HD 
HETATM   21  C   UNL     1      -9.798  16.590  67.319  1.00  0.00    -0.254 C  
HETATM   22  O   UNL     1      -8.438  17.917  65.858  1.00  0.00    -0.516 OA 
BRANCH  14  23
HETATM   23  C   UNL     1      -5.896   9.490  70.421  1.00  0.00    -0.048 C  
HETATM   24  C   UNL     1      -5.367   9.130  71.557  1.00  0.00    -0.050 C  
ENDBRANCH  14  23
ENDBRANCH   2   3
TORSDOF 2
ENDMDL
MODEL      120
REMARK 921   NORMALIZED FREE ENERGY PREDICTED BY IDOCK:    4.88 KCAL/MOL
REMARK 922        TOTAL FREE ENERGY PREDICTED BY IDOCK:    5.97 KCAL/MOL
REMARK 923 INTER-LIGAND FREE ENERGY PREDICTED BY IDOCK:    4.31 KCAL/MOL
REMARK 924 INTRA-LIGAND FREE ENERGY PREDICTED BY IDOCK:    1.66 KCAL/MOL
REMARK 927      BINDING AFFINITY PREDICTED BY RF-SCORE:    0.00 PKD
ROOT
HETATM    1  C   UNL     1     -13.909   9.566  69.868  1.00  0.00     2.103 C  
HETATM    2  C   UNL     1     -12.894  10.292  70.776  1.00  0.00    -0.427 C  
ENDROOT
BRANCH   2   3
HETATM    3  C   UNL     1     -12.184  11.562  70.158  1.00  0.00    -0.387 C  
HETATM    4  C   UNL     1     -12.436  11.159  68.461  1.00  0.00     0.679 C  
HETATM    5  C   UNL     1     -11.625   9.941  68.003  1.00  0.00     0.507 C  
HETATM    6  C   UNL     1     -10.294   9.794  68.774  1.00  0.00    -0.227 C  
HETATM    7  C   UNL     1     -10.234  10.752  69.944  1.00  0.00     0.100 C  
HETATM    8  C   UNL     1      -8.946  10.575  70.776  1.00  0.00     2.252 C  
HETATM    9  C   UNL     1     -10.851  12.149  69.632  1.00  0.00     0.185 C  
HETATM   10  C   UNL     1     -12.107  13.406  69.110  1.00  0.00    -0.306 C  
HETATM   11  C   UNL     1      -9.048   9.167  71.461  1.00  0.00    -0.118 C  
HETATM   12  C   UNL     1     -13.185  13.445  70.336  1.00  0.00     0.417 C  
HETATM   13  C   UNL     1      -9.363   8.042  70.484  1.00  0.00    -0.155 C  
HETATM   14  C   UNL     1     -12.172  12.816  71.341  1.00  0.00     0.248 C  
HETATM   15  C   UNL     1      -9.088   6.759  70.768  1.00  0.00    -0.151 C  
HETATM   16  C   UNL     1     -10.200   8.343  69.257  1.00  0.00    -0.211 C  
HETATM   17  O   UNL     1     -12.663  12.570  72.621  1.00  0.00     0.158 OA 
HETATM   18  C   UNL     1      -9.502   5.652  69.846  1.00  0.00    -0.156 C  
HETATM   19  C   UNL     1      -9.796   7.421  68.099  1.00  0.00    -0.174 C  
HETATM   20  H   UNL     1     -12.657  13.261  73.273  1.00  0.00     0.000 HD 
HETATM   21  C   UNL     1     -10.124   6.009  68.504  1.00  0.00    -0.197 C  
HETATM   22  O   UNL     1      -9.375   4.498  70.205  1.00  0.00    -0.121 OA 
BRANCH  14  23
HETATM   23  C   UNL     1     -11.438  14.142  71.221  1.00  0.00     0.425 C  
HETATM   24  C   UNL     1     -10.806  15.278  71.118  1.00  0.00    -0.134 C  
ENDBRANCH  14  23
ENDBRANCH   2   3
TORSDOF 2
ENDMDL
MODEL      121
REMARK 921   NORMALIZED FREE ENERGY PREDICTED BY IDOCK:    6.21 KCAL/MOL
REMARK 922        TOTAL FREE ENERGY PREDICTED BY IDOCK:    7.45 KCAL/MOL
REMARK 923 INTER-LIGAND FREE ENERGY PREDICTED BY IDOCK:    6.88 KCAL/MOL
REMARK 924 INTRA-LIGAND FREE ENERGY PREDICTED BY IDOCK:    0.57 KCAL/MOL
REMARK 927      BINDING AFFINITY PREDICTED BY RF-SCORE:    0.00 PKD
ROOT
HETATM    1  C   UNL     1      -7.206  17.712  71.612  1.00  0.00     6.898 C  
HETATM    2  C   UNL     1      -6.986  17.208  70.170  1.00  0.00     1.030 C  
ENDROOT
BRANCH   2   3
HETATM    3  C   UNL     1      -7.576  18.108  69.014  1.00  0.00    -0.155 C  
HETATM    4  C   UNL     1      -9.239  17.533  69.105  1.00  0.00     0.049 C  
HETATM    5  C   UNL     1      -9.401  16.077  68.650  1.00  0.00    -0.214 C  
HETATM    6  C   UNL     1      -8.370  15.678  67.570  1.00  0.00    -0.186 C  
HETATM    7  C   UNL     1      -7.315  16.751  67.403  1.00  0.00    -0.187 C  
HETATM    8  C   UNL     1      -6.230  16.346  66.382  1.00  0.00     0.653 C  
HETATM    9  C   UNL     1      -7.884  18.199  67.498  1.00  0.00    -0.223 C  
HETATM   10  C   UNL     1      -8.770  19.664  68.204  1.00  0.00    -0.359 C  
HETATM   11  C   UNL     1      -5.439  15.152  67.023  1.00  0.00     0.938 C  
HETATM   12  C   UNL     1      -7.793  20.202  69.396  1.00  0.00     0.343 C  
HETATM   13  C   UNL     1      -6.339  14.025  67.512  1.00  0.00    -0.036 C  
HETATM   14  C   UNL     1      -6.548  19.476  68.801  1.00  0.00    -0.295 C  
HETATM   15  C   UNL     1      -5.877  12.778  67.697  1.00  0.00    -0.141 C  
HETATM   16  C   UNL     1      -7.732  14.356  68.008  1.00  0.00    -0.140 C  
HETATM   17  O   UNL     1      -5.374  19.585  69.541  1.00  0.00    -0.190 OA 
HETATM   18  C   UNL     1      -6.745  11.705  68.281  1.00  0.00    -0.064 C  
HETATM   19  C   UNL     1      -8.687  13.187  67.731  1.00  0.00    -0.188 C  
HETATM   20  H   UNL     1      -4.807  20.339  69.424  1.00  0.00     0.000 HD 
HETATM   21  C   UNL     1      -8.214  12.010  68.541  1.00  0.00    -0.113 C  
HETATM   22  O   UNL     1      -6.252  10.635  68.577  1.00  0.00    -0.049 OA 
BRANCH  14  23
HETATM   23  C   UNL     1      -6.655  20.500  67.683  1.00  0.00    -0.336 C  
HETATM   24  C   UNL     1      -6.744  21.378  66.723  1.00  0.00    -0.152 C  
ENDBRANCH  14  23
ENDBRANCH   2   3
TORSDOF 2
ENDMDL
MODEL      122
REMARK 921   NORMALIZED FREE ENERGY PREDICTED BY IDOCK:    7.62 KCAL/MOL
REMARK 922        TOTAL FREE ENERGY PREDICTED BY IDOCK:    9.02 KCAL/MOL
REMARK 923 INTER-LIGAND FREE ENERGY PREDICTED BY IDOCK:    7.74 KCAL/MOL
REMARK 924 INTRA-LIGAND FREE ENERGY PREDICTED BY IDOCK:    1.28 KCAL/MOL
REMARK 927      BINDING AFFINITY PREDICTED BY RF-SCORE:    0.00 PKD
ROOT
HETATM    1  C   UNL     1     -12.488  14.441  66.918  1.00  0.00     0.008 C  
HETATM    2  C   UNL     1     -11.790  15.796  66.678  1.00  0.00     0.692 C  
ENDROOT
BRANCH   2   3
HETATM    3  C   UNL     1     -10.763  16.261  67.786  1.00  0.00    -0.325 C  
HETATM    4  C   UNL     1      -9.456  16.728  66.701  1.00  0.00    -0.275 C  
HETATM    5  C   UNL     1      -8.812  15.536  65.982  1.00  0.00    -0.160 C  
HETATM    6  C   UNL     1      -8.861  14.242  66.825  1.00  0.00    -0.207 C  
HETATM    7  C   UNL     1      -9.737  14.421  68.046  1.00  0.00    -0.221 C  
HETATM    8  C   UNL     1      -9.863  13.121  68.868  1.00  0.00     0.120 C  
HETATM    9  C   UNL     1      -9.597  15.826  68.708  1.00  0.00    -0.216 C  
HETATM   10  C   UNL     1      -9.598  17.671  68.861  1.00  0.00    -0.217 C  
HETATM   11  C   UNL     1     -10.674  12.110  67.982  1.00  0.00    -0.242 C  
HETATM   12  C   UNL     1     -11.176  18.088  68.820  1.00  0.00     1.101 C  
HETATM   13  C   UNL     1     -10.108  11.952  66.577  1.00  0.00    -0.229 C  
HETATM   14  C   UNL     1     -11.638  16.653  69.219  1.00  0.00     0.223 C  
HETATM   15  C   UNL     1     -10.375  10.873  65.823  1.00  0.00    -0.303 C  
HETATM   16  C   UNL     1      -9.407  13.127  65.926  1.00  0.00     0.062 C  
HETATM   17  O   UNL     1     -13.015  16.453  69.269  1.00  0.00     0.075 OA 
HETATM   18  C   UNL     1      -9.902  10.780  64.404  1.00  0.00    -0.315 C  
HETATM   19  C   UNL     1      -8.315  12.632  64.969  1.00  0.00     2.805 C  
HETATM   20  H   UNL     1     -13.498  16.669  70.059  1.00  0.00     0.000 HD 
HETATM   21  C   UNL     1      -8.991  11.872  63.860  1.00  0.00     0.572 C  
HETATM   22  O   UNL     1     -10.290   9.864  63.706  1.00  0.00     0.684 OA 
BRANCH  14  23
HETATM   23  C   UNL     1     -11.025  16.978  70.571  1.00  0.00     0.554 C  
HETATM   24  C   UNL     1     -10.498  17.255  71.731  1.00  0.00     3.556 C  
ENDBRANCH  14  23
ENDBRANCH   2   3
TORSDOF 2
ENDMDL
MODEL      123
REMARK 921   NORMALIZED FREE ENERGY PREDICTED BY IDOCK:    8.72 KCAL/MOL
REMARK 922        TOTAL FREE ENERGY PREDICTED BY IDOCK:   10.25 KCAL/MOL
REMARK 923 INTER-LIGAND FREE ENERGY PREDICTED BY IDOCK:    7.72 KCAL/MOL
REMARK 924 INTRA-LIGAND FREE ENERGY PREDICTED BY IDOCK:    2.53 KCAL/MOL
REMARK 927      BINDING AFFINITY PREDICTED BY RF-SCORE:    0.00 PKD
ROOT
HETATM    1  C   UNL     1      -8.844  14.884  69.361  1.00  0.00    -0.046 C  
HETATM    2  C   UNL     1      -8.594  15.365  67.917  1.00  0.00    -0.156 C  
ENDROOT
BRANCH   2   3
HETATM    3  C   UNL     1      -9.805  15.225  66.911  1.00  0.00    -0.242 C  
HETATM    4  C   UNL     1     -10.942  14.475  68.029  1.00  0.00    -0.269 C  
HETATM    5  C   UNL     1     -10.542  13.050  68.432  1.00  0.00    -0.264 C  
HETATM    6  C   UNL     1      -9.763  12.318  67.317  1.00  0.00    -0.195 C  
HETATM    7  C   UNL     1      -9.389  13.268  66.200  1.00  0.00    -0.081 C  
HETATM    8  C   UNL     1      -8.545  12.578  65.107  1.00  0.00     1.689 C  
HETATM    9  C   UNL     1     -10.503  14.309  65.874  1.00  0.00    -0.315 C  
HETATM   10  C   UNL     1     -11.736  15.663  66.149  1.00  0.00     0.451 C  
HETATM   11  C   UNL     1      -7.165  12.226  65.765  1.00  0.00     2.297 C  
HETATM   12  C   UNL     1     -10.834  17.011  66.338  1.00  0.00     0.048 C  
HETATM   13  C   UNL     1      -7.299  11.463  67.076  1.00  0.00    -0.144 C  
HETATM   14  C   UNL     1      -9.598  16.368  65.637  1.00  0.00    -0.076 C  
HETATM   15  C   UNL     1      -6.294  10.722  67.570  1.00  0.00    -0.057 C  
HETATM   16  C   UNL     1      -8.508  11.711  67.954  1.00  0.00    -0.148 C  
HETATM   17  O   UNL     1      -8.452  17.157  65.590  1.00  0.00    -0.460 OA 
HETATM   18  C   UNL     1      -6.400  10.065  68.913  1.00  0.00    -0.044 C  
HETATM   19  C   UNL     1      -8.869  10.439  68.734  1.00  0.00    -0.157 C  
HETATM   20  H   UNL     1      -8.338  17.787  64.887  1.00  0.00     0.000 HD 
HETATM   21  C   UNL     1      -7.724  10.133  69.661  1.00  0.00    -0.167 C  
HETATM   22  O   UNL     1      -5.420   9.533  69.395  1.00  0.00    -0.035 OA 
BRANCH  14  23
HETATM   23  C   UNL     1     -10.441  16.451  64.375  1.00  0.00     1.241 C  
HETATM   24  C   UNL     1     -11.166  16.523  63.293  1.00  0.00     4.846 C  
ENDBRANCH  14  23
ENDBRANCH   2   3
TORSDOF 2
ENDMDL
MODEL      124
REMARK 921   NORMALIZED FREE ENERGY PREDICTED BY IDOCK:   12.98 KCAL/MOL
REMARK 922        TOTAL FREE ENERGY PREDICTED BY IDOCK:   15.01 KCAL/MOL
REMARK 923 INTER-LIGAND FREE ENERGY PREDICTED BY IDOCK:   13.16 KCAL/MOL
REMARK 924 INTRA-LIGAND FREE ENERGY PREDICTED BY IDOCK:    1.85 KCAL/MOL
REMARK 927      BINDING AFFINITY PREDICTED BY RF-SCORE:    0.00 PKD
ROOT
HETATM    1  C   UNL     1      -8.838  14.897  69.340  1.00  0.00    -0.046 C  
HETATM    2  C   UNL     1      -8.466  15.452  67.949  1.00  0.00    -0.150 C  
ENDROOT
BRANCH   2   3
HETATM    3  C   UNL     1      -9.591  15.380  66.842  1.00  0.00    -0.239 C  
HETATM    4  C   UNL     1      -9.635  17.098  66.453  1.00  0.00    -0.296 C  
HETATM    5  C   UNL     1     -10.197  17.961  67.590  1.00  0.00    -0.369 C  
HETATM    6  C   UNL     1     -11.239  17.205  68.444  1.00  0.00     0.036 C  
HETATM    7  C   UNL     1     -11.272  15.734  68.088  1.00  0.00    -0.344 C  
HETATM    8  C   UNL     1     -12.253  14.942  68.978  1.00  0.00    -0.171 C  
HETATM    9  C   UNL     1     -11.112  15.464  66.561  1.00  0.00    -0.227 C  
HETATM   10  C   UNL     1     -10.361  15.504  64.869  1.00  0.00    -0.208 C  
HETATM   11  C   UNL     1     -11.650  14.954  70.427  1.00  0.00    -0.330 C  
HETATM   12  C   UNL     1      -9.080  14.496  64.961  1.00  0.00     1.908 C  
HETATM   13  C   UNL     1     -11.291  16.350  70.919  1.00  0.00    -0.215 C  
HETATM   14  C   UNL     1      -9.650  13.773  66.220  1.00  0.00    -0.249 C  
HETATM   15  C   UNL     1     -11.165  16.629  72.227  1.00  0.00     0.698 C  
HETATM   16  C   UNL     1     -10.856  17.398  69.915  1.00  0.00     0.649 C  
HETATM   17  O   UNL     1      -8.837  12.785  66.769  1.00  0.00    -0.273 OA 
HETATM   18  C   UNL     1     -10.706  17.977  72.693  1.00  0.00     3.591 C  
HETATM   19  C   UNL     1     -11.267  18.797  70.394  1.00  0.00     4.119 C  
HETATM   20  H   UNL     1      -8.870  11.899  66.426  1.00  0.00     0.000 HD 
HETATM   21  C   UNL     1     -10.512  19.083  71.664  1.00  0.00     3.274 C  
HETATM   22  O   UNL     1     -10.455  18.148  73.869  1.00  0.00     2.743 OA 
BRANCH  14  23
HETATM   23  C   UNL     1     -10.700  13.230  65.265  1.00  0.00    -0.322 C  
HETATM   24  C   UNL     1     -11.602  12.762  64.447  1.00  0.00    -0.415 C  
ENDBRANCH  14  23
ENDBRANCH   2   3
TORSDOF 2
ENDMDL
MODEL      125
REMARK 921   NORMALIZED FREE ENERGY PREDICTED BY IDOCK:   13.13 KCAL/MOL
REMARK 922        TOTAL FREE ENERGY PREDICTED BY IDOCK:   15.18 KCAL/MOL
REMARK 923 INTER-LIGAND FREE ENERGY PREDICTED BY IDOCK:   11.23 KCAL/MOL
REMARK 924 INTRA-LIGAND FREE ENERGY PREDICTED BY IDOCK:    3.95 KCAL/MOL
REMARK 927      BINDING AFFINITY PREDICTED BY RF-SCORE:    0.00 PKD
ROOT
HETATM    1  C   UNL     1     -11.519  11.801  67.901  1.00  0.00    -0.387 C  
HETATM    2  C   UNL     1     -10.473  12.887  68.227  1.00  0.00    -0.250 C  
ENDROOT
BRANCH   2   3
HETATM    3  C   UNL     1      -8.956  12.471  68.066  1.00  0.00    -0.192 C  
HETATM    4  C   UNL     1      -9.200  11.174  66.900  1.00  0.00    -0.179 C  
HETATM    5  C   UNL     1      -9.926   9.958  67.490  1.00  0.00    -0.229 C  
HETATM    6  C   UNL     1      -9.632   9.770  68.996  1.00  0.00    -0.177 C  
HETATM    7  C   UNL     1      -8.891  10.964  69.559  1.00  0.00     0.238 C  
HETATM    8  C   UNL     1      -8.650  10.835  71.078  1.00  0.00     4.257 C  
HETATM    9  C   UNL     1      -7.825  11.548  68.583  1.00  0.00    -0.137 C  
HETATM   10  C   UNL     1      -7.114  12.271  67.034  1.00  0.00    -0.040 C  
HETATM   11  C   UNL     1     -10.060  10.924  71.763  1.00  0.00     6.965 C  
HETATM   12  C   UNL     1      -7.666  13.808  67.004  1.00  0.00     0.163 C  
HETATM   13  C   UNL     1     -11.079   9.959  71.171  1.00  0.00    -0.359 C  
HETATM   14  C   UNL     1      -7.968  13.804  68.534  1.00  0.00    -0.131 C  
HETATM   15  C   UNL     1     -12.173   9.579  71.851  1.00  0.00    -0.432 C  
HETATM   16  C   UNL     1     -10.977   9.583  69.707  1.00  0.00    -0.245 C  
HETATM   17  O   UNL     1      -8.554  14.962  69.038  1.00  0.00    -0.180 OA 
HETATM   18  C   UNL     1     -13.222   8.716  71.218  1.00  0.00    -0.148 C  
HETATM   19  C   UNL     1     -11.502   8.158  69.486  1.00  0.00     0.425 C  
HETATM   20  H   UNL     1      -8.008  15.697  69.296  1.00  0.00     0.000 HD 
HETATM   21  C   UNL     1     -12.968   8.155  69.825  1.00  0.00     2.854 C  
HETATM   22  O   UNL     1     -14.267   8.520  71.805  1.00  0.00    -0.418 OA 
BRANCH  14  23
HETATM   23  C   UNL     1      -6.456  13.773  68.694  1.00  0.00    -0.093 C  
HETATM   24  C   UNL     1      -5.160  13.748  68.832  1.00  0.00    -0.072 C  
ENDBRANCH  14  23
ENDBRANCH   2   3
TORSDOF 2
ENDMDL
MODEL      126
REMARK 921   NORMALIZED FREE ENERGY PREDICTED BY IDOCK:   20.39 KCAL/MOL
REMARK 922        TOTAL FREE ENERGY PREDICTED BY IDOCK:   23.29 KCAL/MOL
REMARK 923 INTER-LIGAND FREE ENERGY PREDICTED BY IDOCK:   21.48 KCAL/MOL
REMARK 924 INTRA-LIGAND FREE ENERGY PREDICTED BY IDOCK:    1.81 KCAL/MOL
REMARK 927      BINDING AFFINITY PREDICTED BY RF-SCORE:    0.00 PKD
ROOT
HETATM    1  C   UNL     1     -11.180  11.406  67.734  1.00  0.00    -0.346 C  
HETATM    2  C   UNL     1     -10.892   9.967  67.258  1.00  0.00    -0.284 C  
ENDROOT
BRANCH   2   3
HETATM    3  C   UNL     1      -9.374   9.528  67.231  1.00  0.00    -0.161 C  
HETATM    4  C   UNL     1      -9.528   8.113  68.268  1.00  0.00    -0.148 C  
HETATM    5  C   UNL     1      -9.854   8.465  69.726  1.00  0.00    -0.187 C  
HETATM    6  C   UNL     1      -9.267   9.830  70.149  1.00  0.00    -0.253 C  
HETATM    7  C   UNL     1      -8.718  10.581  68.954  1.00  0.00    -0.154 C  
HETATM    8  C   UNL     1      -8.192  11.980  69.338  1.00  0.00     0.792 C  
HETATM    9  C   UNL     1      -7.995   9.660  67.924  1.00  0.00    -0.098 C  
HETATM   10  C   UNL     1      -7.743   8.267  66.731  1.00  0.00    -0.094 C  
HETATM   11  C   UNL     1      -9.444  12.827  69.758  1.00  0.00     2.287 C  
HETATM   12  C   UNL     1      -8.614   8.687  65.416  1.00  0.00    -0.206 C  
HETATM   13  C   UNL     1     -10.314  12.140  70.802  1.00  0.00     4.724 C  
HETATM   14  C   UNL     1      -8.634  10.192  65.822  1.00  0.00    -0.149 C  
HETATM   15  C   UNL     1     -11.162  12.830  71.583  1.00  0.00     4.344 C  
HETATM   16  C   UNL     1     -10.391  10.627  70.819  1.00  0.00     1.146 C  
HETATM   17  O   UNL     1      -9.362  11.035  64.986  1.00  0.00    -0.214 OA 
HETATM   18  C   UNL     1     -12.090  12.131  72.529  1.00  0.00     3.321 C  
HETATM   19  C   UNL     1     -10.622  10.122  72.249  1.00  0.00     3.677 C  
HETATM   20  H   UNL     1      -8.954  11.401  64.209  1.00  0.00     0.000 HD 
HETATM   21  C   UNL     1     -11.969  10.623  72.698  1.00  0.00     3.136 C  
HETATM   22  O   UNL     1     -12.947  12.771  73.105  1.00  0.00     0.591 OA 
BRANCH  14  23
HETATM   23  C   UNL     1      -7.149  10.159  65.500  1.00  0.00    -0.138 C  
HETATM   24  C   UNL     1      -5.875  10.128  65.224  1.00  0.00    -0.105 C  
ENDBRANCH  14  23
ENDBRANCH   2   3
TORSDOF 2
ENDMDL
MODEL      127
REMARK 921   NORMALIZED FREE ENERGY PREDICTED BY IDOCK:   23.64 KCAL/MOL
REMARK 922        TOTAL FREE ENERGY PREDICTED BY IDOCK:   26.91 KCAL/MOL
REMARK 923 INTER-LIGAND FREE ENERGY PREDICTED BY IDOCK:   25.75 KCAL/MOL
REMARK 924 INTRA-LIGAND FREE ENERGY PREDICTED BY IDOCK:    1.16 KCAL/MOL
REMARK 927      BINDING AFFINITY PREDICTED BY RF-SCORE:    0.00 PKD
ROOT
HETATM    1  C   UNL     1      -8.611  12.973  65.965  1.00  0.00     0.775 C  
HETATM    2  C   UNL     1      -7.988  13.005  67.376  1.00  0.00    -0.173 C  
ENDROOT
BRANCH   2   3
HETATM    3  C   UNL     1      -7.899  11.622  68.135  1.00  0.00    -0.133 C  
HETATM    4  C   UNL     1      -9.422  10.950  67.560  1.00  0.00    -0.168 C  
HETATM    5  C   UNL     1     -10.653  11.676  68.119  1.00  0.00    -0.230 C  
HETATM    6  C   UNL     1     -10.403  12.262  69.527  1.00  0.00     0.580 C  
HETATM    7  C   UNL     1      -8.939  12.174  69.902  1.00  0.00     2.750 C  
HETATM    8  C   UNL     1      -8.650  12.819  71.273  1.00  0.00    13.033 C  
HETATM    9  C   UNL     1      -8.259  10.852  69.430  1.00  0.00     0.025 C  
HETATM   10  C   UNL     1      -7.691   9.516  68.282  1.00  0.00    -0.086 C  
HETATM   11  C   UNL     1      -8.890  14.360  71.101  1.00  0.00     4.410 C  
HETATM   12  C   UNL     1      -6.471  10.192  67.432  1.00  0.00    -0.067 C  
HETATM   13  C   UNL     1     -10.243  14.694  70.486  1.00  0.00     0.717 C  
HETATM   14  C   UNL     1      -6.245  11.302  68.504  1.00  0.00    -0.046 C  
HETATM   15  C   UNL     1     -10.809  15.903  70.633  1.00  0.00    -0.234 C  
HETATM   16  C   UNL     1     -10.870  13.721  69.508  1.00  0.00    -0.003 C  
HETATM   17  O   UNL     1      -5.269  12.247  68.200  1.00  0.00    -0.053 OA 
HETATM   18  C   UNL     1     -12.087  16.253  69.934  1.00  0.00     0.243 C  
HETATM   19  C   UNL     1     -12.400  13.792  69.594  1.00  0.00    -0.284 C  
HETATM   20  H   UNL     1      -4.357  12.070  68.403  1.00  0.00     0.000 HD 
HETATM   21  C   UNL     1     -12.818  15.169  69.153  1.00  0.00     0.543 C  
HETATM   22  O   UNL     1     -12.489  17.399  69.965  1.00  0.00     4.218 OA 
BRANCH  14  23
HETATM   23  C   UNL     1      -5.735  10.166  69.377  1.00  0.00    -0.037 C  
HETATM   24  C   UNL     1      -5.299   9.192  70.126  1.00  0.00    -0.027 C  
ENDBRANCH  14  23
ENDBRANCH   2   3
TORSDOF 2
ENDMDL
MODEL      128
REMARK 921   NORMALIZED FREE ENERGY PREDICTED BY IDOCK:   25.42 KCAL/MOL
REMARK 922        TOTAL FREE ENERGY PREDICTED BY IDOCK:   28.91 KCAL/MOL
REMARK 923 INTER-LIGAND FREE ENERGY PREDICTED BY IDOCK:   25.93 KCAL/MOL
REMARK 924 INTRA-LIGAND FREE ENERGY PREDICTED BY IDOCK:    2.97 KCAL/MOL
REMARK 927      BINDING AFFINITY PREDICTED BY RF-SCORE:    0.00 PKD
ROOT
HETATM    1  C   UNL     1     -12.630  17.029  69.567  1.00  0.00     4.143 C  
HETATM    2  C   UNL     1     -12.420  17.041  71.095  1.00  0.00     3.758 C  
ENDROOT
BRANCH   2   3
HETATM    3  C   UNL     1     -11.613  15.825  71.702  1.00  0.00    -0.537 C  
HETATM    4  C   UNL     1     -10.147  16.710  72.116  1.00  0.00     5.635 C  
HETATM    5  C   UNL     1      -9.361  17.186  70.887  1.00  0.00     4.843 C  
HETATM    6  C   UNL     1      -9.529  16.239  69.677  1.00  0.00     0.061 C  
HETATM    7  C   UNL     1     -10.609  15.211  69.936  1.00  0.00    -0.253 C  
HETATM    8  C   UNL     1     -10.848  14.299  68.714  1.00  0.00    -0.265 C  
HETATM    9  C   UNL     1     -10.617  14.678  71.401  1.00  0.00     1.294 C  
HETATM   10  C   UNL     1     -10.685  14.711  73.251  1.00  0.00     3.031 C  
HETATM   11  C   UNL     1     -11.469  15.206  67.595  1.00  0.00    -0.319 C  
HETATM   12  C   UNL     1     -12.240  15.064  73.601  1.00  0.00    -0.593 C  
HETATM   13  C   UNL     1     -10.663  16.470  67.328  1.00  0.00    -0.243 C  
HETATM   14  C   UNL     1     -12.734  14.610  72.192  1.00  0.00    -0.334 C  
HETATM   15  C   UNL     1     -10.769  17.148  66.172  1.00  0.00    -0.094 C  
HETATM   16  C   UNL     1      -9.884  17.104  68.462  1.00  0.00    -0.297 C  
HETATM   17  O   UNL     1     -14.094  14.778  71.945  1.00  0.00    -0.419 OA 
HETATM   18  C   UNL     1     -10.054  18.448  65.965  1.00  0.00    -0.279 C  
HETATM   19  C   UNL     1      -8.631  17.804  67.922  1.00  0.00    -0.250 C  
HETATM   20  H   UNL     1     -14.711  14.108  72.215  1.00  0.00     0.000 HD 
HETATM   21  C   UNL     1      -9.086  18.932  67.035  1.00  0.00    -0.310 C  
HETATM   22  O   UNL     1     -10.293  19.108  64.973  1.00  0.00     0.187 OA 
BRANCH  14  23
HETATM   23  C   UNL     1     -12.374  13.211  72.666  1.00  0.00     1.056 C  
HETATM   24  C   UNL     1     -12.067  12.011  73.072  1.00  0.00     6.118 C  
ENDBRANCH  14  23
ENDBRANCH   2   3
TORSDOF 2
ENDMDL
MODEL      129
REMARK 921   NORMALIZED FREE ENERGY PREDICTED BY IDOCK:   30.97 KCAL/MOL
REMARK 922        TOTAL FREE ENERGY PREDICTED BY IDOCK:   35.11 KCAL/MOL
REMARK 923 INTER-LIGAND FREE ENERGY PREDICTED BY IDOCK:   32.95 KCAL/MOL
REMARK 924 INTRA-LIGAND FREE ENERGY PREDICTED BY IDOCK:    2.16 KCAL/MOL
REMARK 927      BINDING AFFINITY PREDICTED BY RF-SCORE:    0.00 PKD
ROOT
HETATM    1  C   UNL     1      -7.581  16.820  68.109  1.00  0.00    -0.177 C  
HETATM    2  C   UNL     1      -9.016  16.376  68.462  1.00  0.00    -0.224 C  
ENDROOT
BRANCH   2   3
HETATM    3  C   UNL     1      -9.811  17.306  69.464  1.00  0.00     0.149 C  
HETATM    4  C   UNL     1     -11.003  16.115  69.980  1.00  0.00    -0.364 C  
HETATM    5  C   UNL     1     -11.988  15.727  68.870  1.00  0.00    -0.268 C  
HETATM    6  C   UNL     1     -12.243  16.882  67.876  1.00  0.00     1.866 C  
HETATM    7  C   UNL     1     -11.281  18.026  68.113  1.00  0.00     0.462 C  
HETATM    8  C   UNL     1     -11.465  19.164  67.086  1.00  0.00     0.620 C  
HETATM    9  C   UNL     1     -10.995  18.291  69.622  1.00  0.00     1.754 C  
HETATM   10  C   UNL     1     -10.483  17.952  71.369  1.00  0.00     3.197 C  
HETATM   11  C   UNL     1     -11.013  18.588  65.698  1.00  0.00     0.209 C  
HETATM   12  C   UNL     1      -8.856  17.828  71.306  1.00  0.00     8.642 C  
HETATM   13  C   UNL     1     -11.683  17.266  65.347  1.00  0.00     2.025 C  
HETATM   14  C   UNL     1      -8.779  18.598  69.952  1.00  0.00     1.335 C  
HETATM   15  C   UNL     1     -11.765  16.828  64.079  1.00  0.00     1.492 C  
HETATM   16  C   UNL     1     -12.075  16.318  66.461  1.00  0.00     1.858 C  
HETATM   17  O   UNL     1      -7.508  18.720  69.398  1.00  0.00    -0.137 OA 
HETATM   18  C   UNL     1     -12.328  15.477  63.759  1.00  0.00     0.534 C  
HETATM   19  C   UNL     1     -13.315  15.509  66.060  1.00  0.00     3.115 C  
HETATM   20  H   UNL     1      -6.939  19.433  69.667  1.00  0.00     0.000 HD 
HETATM   21  C   UNL     1     -12.938  14.650  64.882  1.00  0.00     0.298 C  
HETATM   22  O   UNL     1     -12.246  15.051  62.624  1.00  0.00     2.023 OA 
BRANCH  14  23
HETATM   23  C   UNL     1      -9.200  19.807  70.772  1.00  0.00     1.841 C  
HETATM   24  C   UNL     1      -9.562  20.844  71.475  1.00  0.00     2.698 C  
ENDBRANCH  14  23
ENDBRANCH   2   3
TORSDOF 2
ENDMDL
MODEL      130
REMARK 921   NORMALIZED FREE ENERGY PREDICTED BY IDOCK:   34.54 KCAL/MOL
REMARK 922        TOTAL FREE ENERGY PREDICTED BY IDOCK:   39.10 KCAL/MOL
REMARK 923 INTER-LIGAND FREE ENERGY PREDICTED BY IDOCK:   38.56 KCAL/MOL
REMARK 924 INTRA-LIGAND FREE ENERGY PREDICTED BY IDOCK:    0.54 KCAL/MOL
REMARK 927      BINDING AFFINITY PREDICTED BY RF-SCORE:    0.00 PKD
ROOT
HETATM    1  C   UNL     1      -9.844  12.394  73.096  1.00  0.00    22.867 C  
HETATM    2  C   UNL     1     -10.339  12.504  71.639  1.00  0.00    10.203 C  
ENDROOT
BRANCH   2   3
HETATM    3  C   UNL     1     -10.698  11.146  70.915  1.00  0.00     1.955 C  
HETATM    4  C   UNL     1      -9.078  10.453  70.919  1.00  0.00     2.151 C  
HETATM    5  C   UNL     1      -8.101  11.193  69.997  1.00  0.00     1.224 C  
HETATM    6  C   UNL     1      -8.807  11.824  68.775  1.00  0.00     0.018 C  
HETATM    7  C   UNL     1     -10.312  11.750  68.917  1.00  0.00    -0.151 C  
HETATM    8  C   UNL     1     -11.042  12.439  67.744  1.00  0.00    -0.292 C  
HETATM    9  C   UNL     1     -10.809  10.416  69.553  1.00  0.00    -0.295 C  
HETATM   10  C   UNL     1     -10.969   9.045  70.787  1.00  0.00    -0.315 C  
HETATM   11  C   UNL     1     -10.738  13.973  67.869  1.00  0.00    -0.246 C  
HETATM   12  C   UNL     1     -11.820   9.697  72.020  1.00  0.00    -0.128 C  
HETATM   13  C   UNL     1      -9.252  14.284  67.997  1.00  0.00    -0.192 C  
HETATM   14  C   UNL     1     -12.382  10.840  71.121  1.00  0.00    -0.393 C  
HETATM   15  C   UNL     1      -8.754  15.496  67.701  1.00  0.00    -0.183 C  
HETATM   16  C   UNL     1      -8.343  13.281  68.676  1.00  0.00     0.004 C  
HETATM   17  O   UNL     1     -13.185  11.777  71.766  1.00  0.00    -0.457 OA 
HETATM   18  C   UNL     1      -7.311  15.822  67.935  1.00  0.00    -0.136 C  
HETATM   19  C   UNL     1      -6.932  13.351  68.077  1.00  0.00    -0.127 C  
HETATM   20  H   UNL     1     -14.114  11.609  71.879  1.00  0.00     0.000 HD 
HETATM   21  C   UNL     1      -6.372  14.712  68.389  1.00  0.00    -0.100 C  
HETATM   22  O   UNL     1      -6.929  16.968  67.802  1.00  0.00    -0.140 OA 
BRANCH  14  23
HETATM   23  C   UNL     1     -13.172   9.733  70.441  1.00  0.00     0.205 C  
HETATM   24  C   UNL     1     -13.850   8.784  69.860  1.00  0.00     3.087 C  
ENDBRANCH  14  23
ENDBRANCH   2   3
TORSDOF 2
ENDMDL
MODEL      131
REMARK 921   NORMALIZED FREE ENERGY PREDICTED BY IDOCK:   38.38 KCAL/MOL
REMARK 922        TOTAL FREE ENERGY PREDICTED BY IDOCK:   43.38 KCAL/MOL
REMARK 923 INTER-LIGAND FREE ENERGY PREDICTED BY IDOCK:   42.86 KCAL/MOL
REMARK 924 INTRA-LIGAND FREE ENERGY PREDICTED BY IDOCK:    0.52 KCAL/MOL
REMARK 927      BINDING AFFINITY PREDICTED BY RF-SCORE:    0.00 PKD
ROOT
HETATM    1  C   UNL     1     -10.471  12.094  73.876  1.00  0.00    22.595 C  
HETATM    2  C   UNL     1     -11.112  11.786  72.506  1.00  0.00     9.600 C  
ENDROOT
BRANCH   2   3
HETATM    3  C   UNL     1     -11.369  10.261  72.179  1.00  0.00     1.912 C  
HETATM    4  C   UNL     1      -9.683   9.775  72.026  1.00  0.00     2.229 C  
HETATM    5  C   UNL     1      -8.991  10.375  70.795  1.00  0.00     1.819 C  
HETATM    6  C   UNL     1      -9.970  10.607  69.622  1.00  0.00    -0.090 C  
HETATM    7  C   UNL     1     -11.404  10.403  70.061  1.00  0.00    -0.384 C  
HETATM    8  C   UNL     1     -12.408  10.700  68.928  1.00  0.00     0.328 C  
HETATM    9  C   UNL     1     -11.583   9.216  71.056  1.00  0.00    -0.370 C  
HETATM   10  C   UNL     1     -11.333   8.176  72.568  1.00  0.00    -0.469 C  
HETATM   11  C   UNL     1     -12.327  12.243  68.653  1.00  0.00     0.310 C  
HETATM   12  C   UNL     1     -12.066   9.007  73.767  1.00  0.00     4.916 C  
HETATM   13  C   UNL     1     -10.905  12.740  68.425  1.00  0.00    -0.272 C  
HETATM   14  C   UNL     1     -12.932   9.828  72.764  1.00  0.00     0.377 C  
HETATM   15  C   UNL     1     -10.653  13.892  67.781  1.00  0.00    -0.248 C  
HETATM   16  C   UNL     1      -9.757  12.039  69.121  1.00  0.00     0.344 C  
HETATM   17  O   UNL     1     -13.757  10.798  73.329  1.00  0.00     1.379 OA 
HETATM   18  C   UNL     1      -9.257  14.424  67.659  1.00  0.00    -0.196 C  
HETATM   19  C   UNL     1      -8.487  12.119  68.263  1.00  0.00    -0.176 C  
HETATM   20  H   UNL     1     -14.618  10.559  73.652  1.00  0.00     0.000 HD 
HETATM   21  C   UNL     1      -8.099  13.570  68.157  1.00  0.00    -0.154 C  
HETATM   22  O   UNL     1      -9.082  15.539  67.209  1.00  0.00    -0.193 OA 
BRANCH  14  23
HETATM   23  C   UNL     1     -13.642   8.508  72.506  1.00  0.00    -0.266 C  
HETATM   24  C   UNL     1     -14.250   7.377  72.286  1.00  0.00    -0.127 C  
ENDBRANCH  14  23
ENDBRANCH   2   3
TORSDOF 2
ENDMDL
MODEL      132
REMARK 921   NORMALIZED FREE ENERGY PREDICTED BY IDOCK:   41.81 KCAL/MOL
REMARK 922        TOTAL FREE ENERGY PREDICTED BY IDOCK:   47.21 KCAL/MOL
REMARK 923 INTER-LIGAND FREE ENERGY PREDICTED BY IDOCK:   45.48 KCAL/MOL
REMARK 924 INTRA-LIGAND FREE ENERGY PREDICTED BY IDOCK:    1.73 KCAL/MOL
REMARK 927      BINDING AFFINITY PREDICTED BY RF-SCORE:    0.00 PKD
ROOT
HETATM    1  C   UNL     1      -8.297   5.321  70.390  1.00  0.00    -0.111 C  
HETATM    2  C   UNL     1      -9.195   6.146  69.444  1.00  0.00    -0.137 C  
ENDROOT
BRANCH   2   3
HETATM    3  C   UNL     1     -10.118   5.324  68.459  1.00  0.00    -0.232 C  
HETATM    4  C   UNL     1      -9.604   6.103  66.965  1.00  0.00    -0.153 C  
HETATM    5  C   UNL     1     -10.051   7.567  66.862  1.00  0.00    -0.336 C  
HETATM    6  C   UNL     1     -11.381   7.832  67.603  1.00  0.00     0.724 C  
HETATM    7  C   UNL     1     -11.787   6.635  68.437  1.00  0.00     1.076 C  
HETATM    8  C   UNL     1     -13.075   6.900  69.245  1.00  0.00     5.359 C  
HETATM    9  C   UNL     1     -11.491   5.270  67.744  1.00  0.00     2.214 C  
HETATM   10  C   UNL     1     -10.522   3.929  66.914  1.00  0.00     1.025 C  
HETATM   11  C   UNL     1     -12.713   7.986  70.318  1.00  0.00     0.991 C  
HETATM   12  C   UNL     1      -9.617   3.275  68.104  1.00  0.00    -0.147 C  
HETATM   13  C   UNL     1     -12.040   9.218  69.725  1.00  0.00     0.644 C  
HETATM   14  C   UNL     1     -10.549   3.838  69.220  1.00  0.00     2.134 C  
HETATM   15  C   UNL     1     -12.031  10.398  70.366  1.00  0.00    -0.409 C  
HETATM   16  C   UNL     1     -11.178   9.065  68.489  1.00  0.00     0.314 C  
HETATM   17  O   UNL     1     -10.148   3.585  70.529  1.00  0.00     0.031 OA 
HETATM   18  C   UNL     1     -11.274  11.571  69.824  1.00  0.00    -0.161 C  
HETATM   19  C   UNL     1     -11.230  10.343  67.642  1.00  0.00    -0.287 C  
HETATM   20  H   UNL     1     -10.386   2.766  70.948  1.00  0.00     0.000 HD 
HETATM   21  C   UNL     1     -10.619  11.453  68.454  1.00  0.00    -0.230 C  
HETATM   22  O   UNL     1     -11.159  12.572  70.503  1.00  0.00     0.827 OA 
BRANCH  14  23
HETATM   23  C   UNL     1     -11.561   2.833  68.693  1.00  0.00    12.427 C  
HETATM   24  C   UNL     1     -12.429   1.971  68.242  1.00  0.00    19.919 C  
ENDBRANCH  14  23
ENDBRANCH   2   3
TORSDOF 2
ENDMDL
