MODEL        1
REMARK 921   NORMALIZED FREE ENERGY PREDICTED BY IDOCK:   -6.62 KCAL/MOL
REMARK 922        TOTAL FREE ENERGY PREDICTED BY IDOCK:   -7.98 KCAL/MOL
REMARK 923 INTER-LIGAND FREE ENERGY PREDICTED BY IDOCK:   -7.78 KCAL/MOL
REMARK 924 INTRA-LIGAND FREE ENERGY PREDICTED BY IDOCK:   -0.20 KCAL/MOL
REMARK 927      BINDING AFFINITY PREDICTED BY RF-SCORE:    0.00 PKD
ROOT
HETATM    1  C   UNL     1     -12.461  12.097  63.691  1.00  0.00    -0.549 C  
HETATM    2  N   UNL     1     -12.969  12.635  64.945  1.00  0.00    -0.850 NA 
HETATM    3  H   UNL     1     -12.643  12.092  65.744  1.00  0.00     0.000 HD 
ENDROOT
BRANCH   2   4
HETATM    4  C   UNL     1     -12.640  14.058  65.092  1.00  0.00    -0.428 C  
BRANCH   4   5
HETATM    5  C   UNL     1     -11.561  14.233  66.175  1.00  0.00    -0.374 C  
BRANCH   5   6
HETATM    6  C   UNL     1     -12.131  14.332  67.573  1.00  0.00    -0.347 C  
HETATM    7  C   UNL     1     -11.637  13.746  68.691  1.00  0.00    -0.369 C  
HETATM    8  C   UNL     1     -10.430  12.895  68.586  1.00  0.00    -0.231 A  
HETATM    9  C   UNL     1      -9.176  13.449  68.287  1.00  0.00    -0.198 A  
HETATM   10  C   UNL     1      -8.052  12.631  68.182  1.00  0.00    -0.164 A  
HETATM   11  C   UNL     1      -8.169  11.258  68.386  1.00  0.00    -0.149 A  
HETATM   12  C   UNL     1      -9.409  10.700  68.703  1.00  0.00    -0.177 A  
HETATM   13  C   UNL     1     -10.545  11.514  68.809  1.00  0.00    -0.241 A  
HETATM   14  C   UNL     1     -11.880  10.935  69.199  1.00  0.00    -0.389 C  
HETATM   15  C   UNL     1     -12.283  11.377  70.608  1.00  0.00    -0.484 C  
HETATM   16  C   UNL     1     -12.635  12.835  70.857  1.00  0.00    -0.342 A  
HETATM   17  C   UNL     1     -13.245  13.106  72.102  1.00  0.00    -0.561 A  
HETATM   18  C   UNL     1     -13.598  14.401  72.477  1.00  0.00    -0.598 A  
HETATM   19  C   UNL     1     -13.339  15.457  71.618  1.00  0.00    -0.578 A  
HETATM   20  C   UNL     1     -12.722  15.216  70.389  1.00  0.00    -0.378 A  
HETATM   21  C   UNL     1     -12.364  13.913  69.983  1.00  0.00    -0.378 A  
ENDBRANCH   5   6
ENDBRANCH   4   5
ENDBRANCH   2   4
TORSDOF 3
ENDMDL
MODEL        2
REMARK 921   NORMALIZED FREE ENERGY PREDICTED BY IDOCK:   -6.59 KCAL/MOL
REMARK 922        TOTAL FREE ENERGY PREDICTED BY IDOCK:   -7.94 KCAL/MOL
REMARK 923 INTER-LIGAND FREE ENERGY PREDICTED BY IDOCK:   -7.77 KCAL/MOL
REMARK 924 INTRA-LIGAND FREE ENERGY PREDICTED BY IDOCK:   -0.17 KCAL/MOL
REMARK 927      BINDING AFFINITY PREDICTED BY RF-SCORE:    0.00 PKD
ROOT
HETATM    1  C   UNL     1     -14.106  15.446  72.366  1.00  0.00    -0.549 C  
HETATM    2  N   UNL     1     -13.935  15.423  70.920  1.00  0.00    -0.857 NA 
HETATM    3  H   UNL     1     -14.526  16.117  70.463  1.00  0.00     0.000 HD 
ENDROOT
BRANCH   2   4
HETATM    4  C   UNL     1     -12.526  15.584  70.542  1.00  0.00    -0.427 C  
BRANCH   4   5
HETATM    5  C   UNL     1     -11.862  14.203  70.406  1.00  0.00    -0.367 C  
BRANCH   5   6
HETATM    6  C   UNL     1     -11.694  13.762  68.968  1.00  0.00    -0.372 C  
HETATM    7  C   UNL     1     -11.588  12.487  68.520  1.00  0.00    -0.364 C  
HETATM    8  C   UNL     1     -11.613  11.375  69.498  1.00  0.00    -0.399 A  
HETATM    9  C   UNL     1     -12.781  11.060  70.207  1.00  0.00    -0.256 A  
HETATM   10  C   UNL     1     -12.784  10.016  71.130  1.00  0.00    -0.484 A  
HETATM   11  C   UNL     1     -11.625   9.273  71.345  1.00  0.00    -0.437 A  
HETATM   12  C   UNL     1     -10.463   9.567  70.630  1.00  0.00    -0.374 A  
HETATM   13  C   UNL     1     -10.450  10.616  69.700  1.00  0.00    -0.219 A  
HETATM   14  C   UNL     1      -9.218  10.914  68.885  1.00  0.00    -0.168 C  
HETATM   15  C   UNL     1      -9.424  10.536  67.416  1.00  0.00    -0.172 C  
HETATM   16  C   UNL     1     -10.402  11.338  66.572  1.00  0.00    -0.284 A  
HETATM   17  C   UNL     1     -10.338  11.102  65.181  1.00  0.00    -0.354 A  
HETATM   18  C   UNL     1     -11.193  11.746  64.289  1.00  0.00    -0.414 A  
HETATM   19  C   UNL     1     -12.140  12.637  64.770  1.00  0.00    -0.495 A  
HETATM   20  C   UNL     1     -12.233  12.875  66.142  1.00  0.00    -0.385 A  
HETATM   21  C   UNL     1     -11.373  12.242  67.064  1.00  0.00    -0.395 A  
ENDBRANCH   5   6
ENDBRANCH   4   5
ENDBRANCH   2   4
TORSDOF 3
ENDMDL
MODEL        3
REMARK 921   NORMALIZED FREE ENERGY PREDICTED BY IDOCK:   -6.47 KCAL/MOL
REMARK 922        TOTAL FREE ENERGY PREDICTED BY IDOCK:   -7.80 KCAL/MOL
REMARK 923 INTER-LIGAND FREE ENERGY PREDICTED BY IDOCK:   -7.60 KCAL/MOL
REMARK 924 INTRA-LIGAND FREE ENERGY PREDICTED BY IDOCK:   -0.19 KCAL/MOL
REMARK 927      BINDING AFFINITY PREDICTED BY RF-SCORE:    0.00 PKD
ROOT
HETATM    1  C   UNL     1     -12.462  15.450  74.033  1.00  0.00    -0.642 C  
HETATM    2  N   UNL     1     -13.617  16.146  73.483  1.00  0.00    -0.866 NA 
HETATM    3  H   UNL     1     -13.368  17.079  73.155  1.00  0.00     0.000 HD 
ENDROOT
BRANCH   2   4
HETATM    4  C   UNL     1     -14.266  15.360  72.428  1.00  0.00    -0.492 C  
BRANCH   4   5
HETATM    5  C   UNL     1     -13.389  15.363  71.164  1.00  0.00    -0.580 C  
BRANCH   5   6
HETATM    6  C   UNL     1     -12.965  13.976  70.730  1.00  0.00    -0.298 C  
HETATM    7  C   UNL     1     -11.978  13.670  69.853  1.00  0.00    -0.415 C  
HETATM    8  C   UNL     1     -11.220  14.767  69.209  1.00  0.00    -0.303 A  
HETATM    9  C   UNL     1     -10.349  15.579  69.950  1.00  0.00    -0.322 A  
HETATM   10  C   UNL     1      -9.651  16.613  69.329  1.00  0.00    -0.148 A  
HETATM   11  C   UNL     1      -9.808  16.838  67.963  1.00  0.00    -0.265 A  
HETATM   12  C   UNL     1     -10.658  16.022  67.213  1.00  0.00    -0.313 A  
HETATM   13  C   UNL     1     -11.365  14.981  67.829  1.00  0.00    -0.340 A  
HETATM   14  C   UNL     1     -12.248  14.062  67.025  1.00  0.00    -0.387 C  
HETATM   15  C   UNL     1     -11.640  12.661  66.925  1.00  0.00    -0.438 C  
HETATM   16  C   UNL     1     -11.559  11.795  68.172  1.00  0.00    -0.391 A  
HETATM   17  C   UNL     1     -11.236  10.438  67.946  1.00  0.00    -0.332 A  
HETATM   18  C   UNL     1     -11.101   9.534  68.998  1.00  0.00    -0.060 A  
HETATM   19  C   UNL     1     -11.278   9.969  70.303  1.00  0.00    -0.379 A  
HETATM   20  C   UNL     1     -11.581  11.309  70.551  1.00  0.00    -0.233 A  
HETATM   21  C   UNL     1     -11.732  12.241  69.502  1.00  0.00    -0.398 A  
ENDBRANCH   5   6
ENDBRANCH   4   5
ENDBRANCH   2   4
TORSDOF 3
ENDMDL
MODEL        4
REMARK 921   NORMALIZED FREE ENERGY PREDICTED BY IDOCK:   -6.47 KCAL/MOL
REMARK 922        TOTAL FREE ENERGY PREDICTED BY IDOCK:   -7.80 KCAL/MOL
REMARK 923 INTER-LIGAND FREE ENERGY PREDICTED BY IDOCK:   -7.57 KCAL/MOL
REMARK 924 INTRA-LIGAND FREE ENERGY PREDICTED BY IDOCK:   -0.23 KCAL/MOL
REMARK 927      BINDING AFFINITY PREDICTED BY RF-SCORE:    0.00 PKD
ROOT
HETATM    1  C   UNL     1     -12.199  14.776  64.450  1.00  0.00    -0.428 C  
HETATM    2  N   UNL     1     -12.790  13.881  65.435  1.00  0.00    -0.722 NA 
HETATM    3  H   UNL     1     -13.809  13.902  65.395  1.00  0.00     0.000 HD 
ENDROOT
BRANCH   2   4
HETATM    4  C   UNL     1     -12.276  12.513  65.297  1.00  0.00    -0.433 C  
BRANCH   4   5
HETATM    5  C   UNL     1     -11.535  12.103  66.581  1.00  0.00    -0.426 C  
BRANCH   5   6
HETATM    6  C   UNL     1     -11.961  12.900  67.795  1.00  0.00    -0.336 C  
HETATM    7  C   UNL     1     -11.663  12.625  69.088  1.00  0.00    -0.375 C  
HETATM    8  C   UNL     1     -10.858  11.423  69.403  1.00  0.00    -0.214 A  
HETATM    9  C   UNL     1      -9.505  11.342  69.043  1.00  0.00    -0.030 A  
HETATM   10  C   UNL     1      -8.765  10.199  69.339  1.00  0.00    -0.186 A  
HETATM   11  C   UNL     1      -9.367   9.132  70.004  1.00  0.00    -0.218 A  
HETATM   12  C   UNL     1     -10.708   9.212  70.383  1.00  0.00    -0.282 A  
HETATM   13  C   UNL     1     -11.460  10.357  70.089  1.00  0.00    -0.396 A  
HETATM   14  C   UNL     1     -12.895  10.477  70.535  1.00  0.00    -0.339 C  
HETATM   15  C   UNL     1     -13.040  11.513  71.652  1.00  0.00    -0.478 C  
HETATM   16  C   UNL     1     -12.821  12.984  71.335  1.00  0.00    -0.385 A  
HETATM   17  C   UNL     1     -13.229  13.888  72.342  1.00  0.00    -0.587 A  
HETATM   18  C   UNL     1     -13.065  15.264  72.200  1.00  0.00    -0.471 A  
HETATM   19  C   UNL     1     -12.478  15.769  71.050  1.00  0.00    -0.473 A  
HETATM   20  C   UNL     1     -12.052  14.894  70.048  1.00  0.00    -0.387 A  
HETATM   21  C   UNL     1     -12.216  13.498  70.165  1.00  0.00    -0.400 A  
ENDBRANCH   5   6
ENDBRANCH   4   5
ENDBRANCH   2   4
TORSDOF 3
ENDMDL
MODEL        5
REMARK 921   NORMALIZED FREE ENERGY PREDICTED BY IDOCK:   -6.35 KCAL/MOL
REMARK 922        TOTAL FREE ENERGY PREDICTED BY IDOCK:   -7.66 KCAL/MOL
REMARK 923 INTER-LIGAND FREE ENERGY PREDICTED BY IDOCK:   -7.46 KCAL/MOL
REMARK 924 INTRA-LIGAND FREE ENERGY PREDICTED BY IDOCK:   -0.20 KCAL/MOL
REMARK 927      BINDING AFFINITY PREDICTED BY RF-SCORE:    0.00 PKD
ROOT
HETATM    1  C   UNL     1     -12.805  15.879  73.174  1.00  0.00    -0.537 C  
HETATM    2  N   UNL     1     -12.396  16.155  71.804  1.00  0.00    -0.587 NA 
HETATM    3  H   UNL     1     -11.383  16.102  71.699  1.00  0.00     0.000 HD 
ENDROOT
BRANCH   2   4
HETATM    4  C   UNL     1     -13.082  15.276  70.850  1.00  0.00    -0.464 C  
BRANCH   4   5
HETATM    5  C   UNL     1     -12.110  14.864  69.730  1.00  0.00    -0.357 C  
BRANCH   5   6
HETATM    6  C   UNL     1     -11.378  16.037  69.116  1.00  0.00    -0.352 C  
HETATM    7  C   UNL     1     -10.827  16.088  67.879  1.00  0.00    -0.333 C  
HETATM    8  C   UNL     1     -10.904  14.894  67.005  1.00  0.00    -0.315 A  
HETATM    9  C   UNL     1     -12.127  14.461  66.475  1.00  0.00    -0.395 A  
HETATM   10  C   UNL     1     -12.182  13.330  65.663  1.00  0.00    -0.514 A  
HETATM   11  C   UNL     1     -11.015  12.629  65.366  1.00  0.00    -0.320 A  
HETATM   12  C   UNL     1      -9.790  13.063  65.874  1.00  0.00    -0.243 A  
HETATM   13  C   UNL     1      -9.725  14.199  66.693  1.00  0.00    -0.297 A  
HETATM   14  C   UNL     1      -8.404  14.709  67.208  1.00  0.00    -0.234 C  
HETATM   15  C   UNL     1      -8.019  16.026  66.531  1.00  0.00    -0.271 C  
HETATM   16  C   UNL     1      -8.828  17.278  66.827  1.00  0.00    -0.269 A  
HETATM   17  C   UNL     1      -8.255  18.490  66.379  1.00  0.00    -0.289 A  
HETATM   18  C   UNL     1      -8.898  19.713  66.557  1.00  0.00    -0.410 A  
HETATM   19  C   UNL     1     -10.136  19.752  67.181  1.00  0.00    -0.553 A  
HETATM   20  C   UNL     1     -10.729  18.566  67.618  1.00  0.00    -0.405 A  
HETATM   21  C   UNL     1     -10.094  17.317  67.457  1.00  0.00    -0.315 A  
ENDBRANCH   5   6
ENDBRANCH   4   5
ENDBRANCH   2   4
TORSDOF 3
ENDMDL
MODEL        6
REMARK 921   NORMALIZED FREE ENERGY PREDICTED BY IDOCK:   -6.30 KCAL/MOL
REMARK 922        TOTAL FREE ENERGY PREDICTED BY IDOCK:   -7.60 KCAL/MOL
REMARK 923 INTER-LIGAND FREE ENERGY PREDICTED BY IDOCK:   -7.29 KCAL/MOL
REMARK 924 INTRA-LIGAND FREE ENERGY PREDICTED BY IDOCK:   -0.31 KCAL/MOL
REMARK 927      BINDING AFFINITY PREDICTED BY RF-SCORE:    0.00 PKD
ROOT
HETATM    1  C   UNL     1      -8.775   9.532  70.078  1.00  0.00    -0.221 C  
HETATM    2  N   UNL     1      -9.111  10.827  69.503  1.00  0.00    -0.402 NA 
HETATM    3  H   UNL     1      -8.300  11.444  69.473  1.00  0.00     0.000 HD 
ENDROOT
BRANCH   2   4
HETATM    4  C   UNL     1      -9.727  10.684  68.178  1.00  0.00    -0.156 C  
BRANCH   4   5
HETATM    5  C   UNL     1     -11.248  10.881  68.288  1.00  0.00    -0.347 C  
BRANCH   5   6
HETATM    6  C   UNL     1     -11.649  11.825  69.401  1.00  0.00    -0.386 C  
HETATM    7  C   UNL     1     -11.843  13.162  69.297  1.00  0.00    -0.377 C  
HETATM    8  C   UNL     1     -11.637  13.821  67.987  1.00  0.00    -0.368 A  
HETATM    9  C   UNL     1     -12.503  13.581  66.911  1.00  0.00    -0.162 A  
HETATM   10  C   UNL     1     -12.289  14.203  65.682  1.00  0.00    -0.473 A  
HETATM   11  C   UNL     1     -11.215  15.076  65.522  1.00  0.00    -0.344 A  
HETATM   12  C   UNL     1     -10.358  15.335  66.593  1.00  0.00    -0.281 A  
HETATM   13  C   UNL     1     -10.565  14.714  67.832  1.00  0.00    -0.244 A  
HETATM   14  C   UNL     1      -9.679  15.021  69.012  1.00  0.00    -0.229 C  
HETATM   15  C   UNL     1     -10.432  15.829  70.072  1.00  0.00    -0.313 C  
HETATM   16  C   UNL     1     -11.555  15.166  70.852  1.00  0.00    -0.380 A  
HETATM   17  C   UNL     1     -12.014  15.883  71.980  1.00  0.00    -0.602 A  
HETATM   18  C   UNL     1     -13.057  15.410  72.773  1.00  0.00    -0.568 A  
HETATM   19  C   UNL     1     -13.672  14.209  72.452  1.00  0.00    -0.645 A  
HETATM   20  C   UNL     1     -13.246  13.491  71.333  1.00  0.00    -0.348 A  
HETATM   21  C   UNL     1     -12.187  13.945  70.519  1.00  0.00    -0.443 A  
ENDBRANCH   5   6
ENDBRANCH   4   5
ENDBRANCH   2   4
TORSDOF 3
ENDMDL
MODEL        7
REMARK 921   NORMALIZED FREE ENERGY PREDICTED BY IDOCK:   -6.26 KCAL/MOL
REMARK 922        TOTAL FREE ENERGY PREDICTED BY IDOCK:   -7.55 KCAL/MOL
REMARK 923 INTER-LIGAND FREE ENERGY PREDICTED BY IDOCK:   -7.22 KCAL/MOL
REMARK 924 INTRA-LIGAND FREE ENERGY PREDICTED BY IDOCK:   -0.33 KCAL/MOL
REMARK 927      BINDING AFFINITY PREDICTED BY RF-SCORE:    0.00 PKD
ROOT
HETATM    1  C   UNL     1      -9.184  10.446  64.581  1.00  0.00    -0.240 C  
HETATM    2  N   UNL     1      -9.653   9.272  65.304  1.00  0.00    -0.455 NA 
HETATM    3  H   UNL     1      -9.289   8.411  64.895  1.00  0.00     0.000 HD 
ENDROOT
BRANCH   2   4
HETATM    4  C   UNL     1      -9.339   9.360  66.735  1.00  0.00    -0.158 C  
BRANCH   4   5
HETATM    5  C   UNL     1      -9.243  10.836  67.156  1.00  0.00    -0.160 C  
BRANCH   5   6
HETATM    6  C   UNL     1     -10.097  11.169  68.360  1.00  0.00    -0.193 C  
HETATM    7  C   UNL     1     -11.112  12.066  68.408  1.00  0.00    -0.290 C  
HETATM    8  C   UNL     1     -11.449  12.840  67.192  1.00  0.00    -0.394 A  
HETATM    9  C   UNL     1     -12.013  12.217  66.069  1.00  0.00    -0.342 A  
HETATM   10  C   UNL     1     -12.315  12.959  64.929  1.00  0.00    -0.532 A  
HETATM   11  C   UNL     1     -12.065  14.330  64.904  1.00  0.00    -0.442 A  
HETATM   12  C   UNL     1     -11.522  14.962  66.024  1.00  0.00    -0.275 A  
HETATM   13  C   UNL     1     -11.214  14.224  67.174  1.00  0.00    -0.333 A  
HETATM   14  C   UNL     1     -10.673  14.899  68.408  1.00  0.00    -0.245 C  
HETATM   15  C   UNL     1     -11.712  14.909  69.533  1.00  0.00    -0.353 C  
HETATM   16  C   UNL     1     -12.101  13.598  70.196  1.00  0.00    -0.431 A  
HETATM   17  C   UNL     1     -12.854  13.721  71.385  1.00  0.00    -0.449 A  
HETATM   18  C   UNL     1     -13.302  12.603  72.086  1.00  0.00    -0.570 A  
HETATM   19  C   UNL     1     -13.015  11.334  71.607  1.00  0.00    -0.537 A  
HETATM   20  C   UNL     1     -12.287  11.187  70.425  1.00  0.00    -0.430 A  
HETATM   21  C   UNL     1     -11.815  12.303  69.703  1.00  0.00    -0.393 A  
ENDBRANCH   5   6
ENDBRANCH   4   5
ENDBRANCH   2   4
TORSDOF 3
ENDMDL
MODEL        8
REMARK 921   NORMALIZED FREE ENERGY PREDICTED BY IDOCK:   -6.18 KCAL/MOL
REMARK 922        TOTAL FREE ENERGY PREDICTED BY IDOCK:   -7.46 KCAL/MOL
REMARK 923 INTER-LIGAND FREE ENERGY PREDICTED BY IDOCK:   -7.23 KCAL/MOL
REMARK 924 INTRA-LIGAND FREE ENERGY PREDICTED BY IDOCK:   -0.24 KCAL/MOL
REMARK 927      BINDING AFFINITY PREDICTED BY RF-SCORE:    0.00 PKD
ROOT
HETATM    1  C   UNL     1     -10.360  10.796  64.285  1.00  0.00    -0.331 C  
HETATM    2  N   UNL     1      -9.838   9.780  65.189  1.00  0.00    -0.405 NA 
HETATM    3  H   UNL     1      -8.960   9.390  64.845  1.00  0.00     0.000 HD 
ENDROOT
BRANCH   2   4
HETATM    4  C   UNL     1      -9.699  10.296  66.556  1.00  0.00    -0.193 C  
BRANCH   4   5
HETATM    5  C   UNL     1     -10.868   9.796  67.422  1.00  0.00    -0.265 C  
BRANCH   5   6
HETATM    6  C   UNL     1     -11.466  10.876  68.296  1.00  0.00    -0.376 C  
HETATM    7  C   UNL     1     -11.417  10.941  69.649  1.00  0.00    -0.377 C  
HETATM    8  C   UNL     1     -10.738   9.860  70.399  1.00  0.00    -0.379 A  
HETATM    9  C   UNL     1      -9.348   9.690  70.327  1.00  0.00    -0.292 A  
HETATM   10  C   UNL     1      -8.726   8.661  71.032  1.00  0.00    -0.227 A  
HETATM   11  C   UNL     1      -9.486   7.799  71.821  1.00  0.00    -0.191 A  
HETATM   12  C   UNL     1     -10.868   7.972  71.913  1.00  0.00    -0.316 A  
HETATM   13  C   UNL     1     -11.501   9.004  71.207  1.00  0.00    -0.390 A  
HETATM   14  C   UNL     1     -12.986   9.233  71.336  1.00  0.00    -0.394 C  
HETATM   15  C   UNL     1     -13.280  10.520  72.111  1.00  0.00    -0.398 C  
HETATM   16  C   UNL     1     -12.939  11.861  71.481  1.00  0.00    -0.427 A  
HETATM   17  C   UNL     1     -13.478  12.992  72.135  1.00  0.00    -0.638 A  
HETATM   18  C   UNL     1     -13.226  14.286  71.685  1.00  0.00    -0.429 A  
HETATM   19  C   UNL     1     -12.421  14.481  70.573  1.00  0.00    -0.408 A  
HETATM   20  C   UNL     1     -11.864  13.380  69.920  1.00  0.00    -0.385 A  
HETATM   21  C   UNL     1     -12.112  12.060  70.351  1.00  0.00    -0.407 A  
ENDBRANCH   5   6
ENDBRANCH   4   5
ENDBRANCH   2   4
TORSDOF 3
ENDMDL
MODEL        9
REMARK 921   NORMALIZED FREE ENERGY PREDICTED BY IDOCK:   -6.17 KCAL/MOL
REMARK 922        TOTAL FREE ENERGY PREDICTED BY IDOCK:   -7.45 KCAL/MOL
REMARK 923 INTER-LIGAND FREE ENERGY PREDICTED BY IDOCK:   -7.16 KCAL/MOL
REMARK 924 INTRA-LIGAND FREE ENERGY PREDICTED BY IDOCK:   -0.29 KCAL/MOL
REMARK 927      BINDING AFFINITY PREDICTED BY RF-SCORE:    0.00 PKD
ROOT
HETATM    1  C   UNL     1     -10.108  11.758  63.239  1.00  0.00    -0.420 C  
HETATM    2  N   UNL     1     -11.530  11.459  63.140  1.00  0.00    -0.873 NA 
HETATM    3  H   UNL     1     -11.787  10.666  63.728  1.00  0.00     0.000 HD 
ENDROOT
BRANCH   2   4
HETATM    4  C   UNL     1     -12.349  12.639  63.441  1.00  0.00    -0.456 C  
BRANCH   4   5
HETATM    5  C   UNL     1     -12.593  12.730  64.958  1.00  0.00    -0.538 C  
BRANCH   5   6
HETATM    6  C   UNL     1     -12.061  14.007  65.571  1.00  0.00    -0.423 C  
HETATM    7  C   UNL     1     -11.303  14.112  66.689  1.00  0.00    -0.352 C  
HETATM    8  C   UNL     1     -10.947  12.885  67.437  1.00  0.00    -0.288 A  
HETATM    9  C   UNL     1     -10.068  11.935  66.896  1.00  0.00    -0.229 A  
HETATM   10  C   UNL     1      -9.752  10.781  67.610  1.00  0.00    -0.185 A  
HETATM   11  C   UNL     1     -10.301  10.571  68.873  1.00  0.00    -0.226 A  
HETATM   12  C   UNL     1     -11.162  11.520  69.428  1.00  0.00    -0.324 A  
HETATM   13  C   UNL     1     -11.487  12.683  68.717  1.00  0.00    -0.349 A  
HETATM   14  C   UNL     1     -12.375  13.739  69.323  1.00  0.00    -0.185 C  
HETATM   15  C   UNL     1     -11.578  15.001  69.663  1.00  0.00    -0.333 C  
HETATM   16  C   UNL     1     -11.019  15.854  68.535  1.00  0.00    -0.324 A  
HETATM   17  C   UNL     1     -10.534  17.124  68.919  1.00  0.00    -0.346 A  
HETATM   18  C   UNL     1      -9.969  18.001  67.996  1.00  0.00    -0.346 A  
HETATM   19  C   UNL     1      -9.869  17.624  66.665  1.00  0.00    -0.309 A  
HETATM   20  C   UNL     1     -10.327  16.368  66.265  1.00  0.00    -0.337 A  
HETATM   21  C   UNL     1     -10.910  15.466  67.179  1.00  0.00    -0.321 A  
ENDBRANCH   5   6
ENDBRANCH   4   5
ENDBRANCH   2   4
TORSDOF 3
ENDMDL
MODEL       10
REMARK 921   NORMALIZED FREE ENERGY PREDICTED BY IDOCK:   -6.16 KCAL/MOL
REMARK 922        TOTAL FREE ENERGY PREDICTED BY IDOCK:   -7.44 KCAL/MOL
REMARK 923 INTER-LIGAND FREE ENERGY PREDICTED BY IDOCK:   -7.12 KCAL/MOL
REMARK 924 INTRA-LIGAND FREE ENERGY PREDICTED BY IDOCK:   -0.32 KCAL/MOL
REMARK 927      BINDING AFFINITY PREDICTED BY RF-SCORE:    0.00 PKD
ROOT
HETATM    1  C   UNL     1     -10.236  11.940  63.428  1.00  0.00    -0.449 C  
HETATM    2  N   UNL     1     -11.201  13.002  63.676  1.00  0.00    -0.583 NA 
HETATM    3  H   UNL     1     -11.470  13.472  62.811  1.00  0.00     0.000 HD 
ENDROOT
BRANCH   2   4
HETATM    4  C   UNL     1     -12.374  12.504  64.404  1.00  0.00    -0.455 C  
BRANCH   4   5
HETATM    5  C   UNL     1     -12.759  13.498  65.513  1.00  0.00    -0.493 C  
BRANCH   5   6
HETATM    6  C   UNL     1     -11.657  14.482  65.840  1.00  0.00    -0.349 C  
HETATM    7  C   UNL     1     -10.980  14.578  67.010  1.00  0.00    -0.312 C  
HETATM    8  C   UNL     1     -11.328  13.663  68.122  1.00  0.00    -0.321 A  
HETATM    9  C   UNL     1     -11.056  12.290  68.043  1.00  0.00    -0.285 A  
HETATM   10  C   UNL     1     -11.399  11.443  69.095  1.00  0.00    -0.353 A  
HETATM   11  C   UNL     1     -12.006  11.961  70.237  1.00  0.00    -0.416 A  
HETATM   12  C   UNL     1     -12.264  13.330  70.332  1.00  0.00    -0.404 A  
HETATM   13  C   UNL     1     -11.923  14.189  69.279  1.00  0.00    -0.382 A  
HETATM   14  C   UNL     1     -12.149  15.675  69.387  1.00  0.00    -0.287 C  
HETATM   15  C   UNL     1     -10.822  16.428  69.512  1.00  0.00    -0.338 C  
HETATM   16  C   UNL     1      -9.878  16.471  68.322  1.00  0.00    -0.243 A  
HETATM   17  C   UNL     1      -8.814  17.395  68.426  1.00  0.00    -0.271 A  
HETATM   18  C   UNL     1      -7.856  17.524  67.423  1.00  0.00    -0.217 A  
HETATM   19  C   UNL     1      -7.935  16.724  66.293  1.00  0.00    -0.352 A  
HETATM   20  C   UNL     1      -8.968  15.792  66.175  1.00  0.00    -0.372 A  
HETATM   21  C   UNL     1      -9.954  15.649  67.173  1.00  0.00    -0.240 A  
ENDBRANCH   5   6
ENDBRANCH   4   5
ENDBRANCH   2   4
TORSDOF 3
ENDMDL
MODEL       11
REMARK 921   NORMALIZED FREE ENERGY PREDICTED BY IDOCK:   -6.16 KCAL/MOL
REMARK 922        TOTAL FREE ENERGY PREDICTED BY IDOCK:   -7.43 KCAL/MOL
REMARK 923 INTER-LIGAND FREE ENERGY PREDICTED BY IDOCK:   -7.14 KCAL/MOL
REMARK 924 INTRA-LIGAND FREE ENERGY PREDICTED BY IDOCK:   -0.29 KCAL/MOL
REMARK 927      BINDING AFFINITY PREDICTED BY RF-SCORE:    0.00 PKD
ROOT
HETATM    1  C   UNL     1     -10.760   7.099  67.057  1.00  0.00    -0.350 C  
HETATM    2  N   UNL     1     -10.562   8.482  67.467  1.00  0.00    -0.413 NA 
HETATM    3  H   UNL     1     -10.076   8.539  68.362  1.00  0.00     0.000 HD 
ENDROOT
BRANCH   2   4
HETATM    4  C   UNL     1      -9.870   9.257  66.430  1.00  0.00    -0.277 C  
BRANCH   4   5
HETATM    5  C   UNL     1      -9.431  10.615  67.002  1.00  0.00    -0.187 C  
BRANCH   5   6
HETATM    6  C   UNL     1     -10.236  11.042  68.210  1.00  0.00    -0.192 C  
HETATM    7  C   UNL     1     -11.130  12.059  68.268  1.00  0.00    -0.290 C  
HETATM    8  C   UNL     1     -11.366  12.881  67.059  1.00  0.00    -0.355 A  
HETATM    9  C   UNL     1     -12.004  12.346  65.931  1.00  0.00    -0.434 A  
HETATM   10  C   UNL     1     -12.210  13.131  64.798  1.00  0.00    -0.477 A  
HETATM   11  C   UNL     1     -11.789  14.460  64.787  1.00  0.00    -0.439 A  
HETATM   12  C   UNL     1     -11.170  15.007  65.912  1.00  0.00    -0.313 A  
HETATM   13  C   UNL     1     -10.958  14.224  67.055  1.00  0.00    -0.305 A  
HETATM   14  C   UNL     1     -10.336  14.814  68.294  1.00  0.00    -0.238 C  
HETATM   15  C   UNL     1     -11.365  14.944  69.420  1.00  0.00    -0.312 C  
HETATM   16  C   UNL     1     -11.917  13.686  70.071  1.00  0.00    -0.413 A  
HETATM   17  C   UNL     1     -12.648  13.892  71.263  1.00  0.00    -0.450 A  
HETATM   18  C   UNL     1     -13.234  12.833  71.953  1.00  0.00    -0.511 A  
HETATM   19  C   UNL     1     -13.110  11.543  71.462  1.00  0.00    -0.429 A  
HETATM   20  C   UNL     1     -12.406  11.317  70.278  1.00  0.00    -0.389 A  
HETATM   21  C   UNL     1     -11.797  12.371  69.566  1.00  0.00    -0.368 A  
ENDBRANCH   5   6
ENDBRANCH   4   5
ENDBRANCH   2   4
TORSDOF 3
ENDMDL
MODEL       12
REMARK 921   NORMALIZED FREE ENERGY PREDICTED BY IDOCK:   -6.14 KCAL/MOL
REMARK 922        TOTAL FREE ENERGY PREDICTED BY IDOCK:   -7.41 KCAL/MOL
REMARK 923 INTER-LIGAND FREE ENERGY PREDICTED BY IDOCK:   -6.97 KCAL/MOL
REMARK 924 INTRA-LIGAND FREE ENERGY PREDICTED BY IDOCK:   -0.44 KCAL/MOL
REMARK 927      BINDING AFFINITY PREDICTED BY RF-SCORE:    0.00 PKD
ROOT
HETATM    1  C   UNL     1      -7.446  13.877  67.499  1.00  0.00    -0.169 C  
HETATM    2  N   UNL     1      -7.891  12.686  66.790  1.00  0.00    -0.396 NA 
HETATM    3  H   UNL     1      -7.346  12.531  65.941  1.00  0.00     0.000 HD 
ENDROOT
BRANCH   2   4
HETATM    4  C   UNL     1      -7.876  11.505  67.661  1.00  0.00    -0.125 C  
BRANCH   4   5
HETATM    5  C   UNL     1      -9.255  10.823  67.637  1.00  0.00    -0.152 C  
BRANCH   5   6
HETATM    6  C   UNL     1     -10.155  11.259  68.773  1.00  0.00    -0.204 C  
HETATM    7  C   UNL     1     -11.167  12.157  68.703  1.00  0.00    -0.318 C  
HETATM    8  C   UNL     1     -11.452  12.824  67.412  1.00  0.00    -0.396 A  
HETATM    9  C   UNL     1     -11.973  12.108  66.325  1.00  0.00    -0.213 A  
HETATM   10  C   UNL     1     -12.227  12.750  65.115  1.00  0.00    -0.530 A  
HETATM   11  C   UNL     1     -11.971  14.113  64.983  1.00  0.00    -0.412 A  
HETATM   12  C   UNL     1     -11.470  14.839  66.066  1.00  0.00    -0.316 A  
HETATM   13  C   UNL     1     -11.211  14.201  67.286  1.00  0.00    -0.330 A  
HETATM   14  C   UNL     1     -10.717  14.980  68.478  1.00  0.00    -0.244 C  
HETATM   15  C   UNL     1     -11.799  15.086  69.555  1.00  0.00    -0.360 C  
HETATM   16  C   UNL     1     -12.220  13.836  70.312  1.00  0.00    -0.429 A  
HETATM   17  C   UNL     1     -13.019  14.062  71.456  1.00  0.00    -0.427 A  
HETATM   18  C   UNL     1     -13.499  13.008  72.231  1.00  0.00    -0.645 A  
HETATM   19  C   UNL     1     -13.199  11.702  71.875  1.00  0.00    -0.475 A  
HETATM   20  C   UNL     1     -12.425  11.455  70.740  1.00  0.00    -0.460 A  
HETATM   21  C   UNL     1     -11.919  12.505  69.944  1.00  0.00    -0.371 A  
ENDBRANCH   5   6
ENDBRANCH   4   5
ENDBRANCH   2   4
TORSDOF 3
ENDMDL
MODEL       13
REMARK 921   NORMALIZED FREE ENERGY PREDICTED BY IDOCK:   -6.11 KCAL/MOL
REMARK 922        TOTAL FREE ENERGY PREDICTED BY IDOCK:   -7.38 KCAL/MOL
REMARK 923 INTER-LIGAND FREE ENERGY PREDICTED BY IDOCK:   -6.94 KCAL/MOL
REMARK 924 INTRA-LIGAND FREE ENERGY PREDICTED BY IDOCK:   -0.44 KCAL/MOL
REMARK 927      BINDING AFFINITY PREDICTED BY RF-SCORE:    0.00 PKD
ROOT
HETATM    1  C   UNL     1     -10.053  11.177  64.610  1.00  0.00    -0.302 C  
HETATM    2  N   UNL     1      -9.113  11.858  65.488  1.00  0.00    -0.424 NA 
HETATM    3  H   UNL     1      -9.248  12.869  65.468  1.00  0.00     0.000 HD 
ENDROOT
BRANCH   2   4
HETATM    4  C   UNL     1      -9.179  11.334  66.857  1.00  0.00    -0.175 C  
BRANCH   4   5
HETATM    5  C   UNL     1     -10.649  11.193  67.289  1.00  0.00    -0.279 C  
BRANCH   5   6
HETATM    6  C   UNL     1     -11.008  12.060  68.476  1.00  0.00    -0.280 C  
HETATM    7  C   UNL     1     -11.363  13.367  68.445  1.00  0.00    -0.329 C  
HETATM    8  C   UNL     1     -11.402  14.073  67.144  1.00  0.00    -0.348 A  
HETATM    9  C   UNL     1     -12.366  13.757  66.176  1.00  0.00    -0.496 A  
HETATM   10  C   UNL     1     -12.382  14.424  64.952  1.00  0.00    -0.414 A  
HETATM   11  C   UNL     1     -11.442  15.419  64.690  1.00  0.00    -0.339 A  
HETATM   12  C   UNL     1     -10.490  15.754  65.655  1.00  0.00    -0.402 A  
HETATM   13  C   UNL     1     -10.466  15.087  66.887  1.00  0.00    -0.279 A  
HETATM   14  C   UNL     1      -9.476  15.470  67.957  1.00  0.00    -0.194 C  
HETATM   15  C   UNL     1     -10.174  16.164  69.131  1.00  0.00    -0.255 C  
HETATM   16  C   UNL     1     -11.106  15.359  70.021  1.00  0.00    -0.317 A  
HETATM   17  C   UNL     1     -11.495  15.995  71.222  1.00  0.00    -0.475 A  
HETATM   18  C   UNL     1     -12.368  15.387  72.122  1.00  0.00    -0.458 A  
HETATM   19  C   UNL     1     -12.880  14.130  71.837  1.00  0.00    -0.425 A  
HETATM   20  C   UNL     1     -12.523  13.489  70.650  1.00  0.00    -0.405 A  
HETATM   21  C   UNL     1     -11.634  14.080  69.727  1.00  0.00    -0.344 A  
ENDBRANCH   5   6
ENDBRANCH   4   5
ENDBRANCH   2   4
TORSDOF 3
ENDMDL
MODEL       14
REMARK 921   NORMALIZED FREE ENERGY PREDICTED BY IDOCK:   -6.11 KCAL/MOL
REMARK 922        TOTAL FREE ENERGY PREDICTED BY IDOCK:   -7.37 KCAL/MOL
REMARK 923 INTER-LIGAND FREE ENERGY PREDICTED BY IDOCK:   -7.17 KCAL/MOL
REMARK 924 INTRA-LIGAND FREE ENERGY PREDICTED BY IDOCK:   -0.21 KCAL/MOL
REMARK 927      BINDING AFFINITY PREDICTED BY RF-SCORE:    0.00 PKD
ROOT
HETATM    1  C   UNL     1     -12.343  12.527  63.858  1.00  0.00    -0.485 C  
HETATM    2  N   UNL     1     -12.230  13.968  63.680  1.00  0.00    -1.021 NA 
HETATM    3  H   UNL     1     -12.812  14.295  62.908  1.00  0.00     0.000 HD 
ENDROOT
BRANCH   2   4
HETATM    4  C   UNL     1     -12.532  14.689  64.922  1.00  0.00    -0.257 C  
BRANCH   4   5
HETATM    5  C   UNL     1     -11.414  14.443  65.950  1.00  0.00    -0.341 C  
BRANCH   5   6
HETATM    6  C   UNL     1     -11.936  14.054  67.316  1.00  0.00    -0.448 C  
HETATM    7  C   UNL     1     -11.321  13.253  68.219  1.00  0.00    -0.335 C  
HETATM    8  C   UNL     1     -10.010  12.655  67.877  1.00  0.00    -0.228 A  
HETATM    9  C   UNL     1      -8.861  13.449  67.753  1.00  0.00    -0.199 A  
HETATM   10  C   UNL     1      -7.637  12.870  67.421  1.00  0.00    -0.150 A  
HETATM   11  C   UNL     1      -7.549  11.494  67.219  1.00  0.00    -0.143 A  
HETATM   12  C   UNL     1      -8.685  10.693  67.359  1.00  0.00    -0.125 A  
HETATM   13  C   UNL     1      -9.919  11.266  67.691  1.00  0.00    -0.197 A  
HETATM   14  C   UNL     1     -11.142  10.410  67.894  1.00  0.00    -0.363 C  
HETATM   15  C   UNL     1     -11.548  10.366  69.370  1.00  0.00    -0.272 C  
HETATM   16  C   UNL     1     -12.092  11.624  70.027  1.00  0.00    -0.395 A  
HETATM   17  C   UNL     1     -12.685  11.435  71.296  1.00  0.00    -0.498 A  
HETATM   18  C   UNL     1     -13.202  12.503  72.028  1.00  0.00    -0.524 A  
HETATM   19  C   UNL     1     -13.130  13.787  71.510  1.00  0.00    -0.435 A  
HETATM   20  C   UNL     1     -12.534  14.000  70.266  1.00  0.00    -0.403 A  
HETATM   21  C   UNL     1     -12.012  12.935  69.503  1.00  0.00    -0.346 A  
ENDBRANCH   5   6
ENDBRANCH   4   5
ENDBRANCH   2   4
TORSDOF 3
ENDMDL
MODEL       15
REMARK 921   NORMALIZED FREE ENERGY PREDICTED BY IDOCK:   -6.10 KCAL/MOL
REMARK 922        TOTAL FREE ENERGY PREDICTED BY IDOCK:   -7.37 KCAL/MOL
REMARK 923 INTER-LIGAND FREE ENERGY PREDICTED BY IDOCK:   -7.12 KCAL/MOL
REMARK 924 INTRA-LIGAND FREE ENERGY PREDICTED BY IDOCK:   -0.25 KCAL/MOL
REMARK 927      BINDING AFFINITY PREDICTED BY RF-SCORE:    0.00 PKD
ROOT
HETATM    1  C   UNL     1     -10.278  17.555  68.426  1.00  0.00    -0.372 C  
HETATM    2  N   UNL     1     -11.255  16.486  68.276  1.00  0.00    -0.328 NA 
HETATM    3  H   UNL     1     -10.918  15.759  67.644  1.00  0.00     0.000 HD 
ENDROOT
BRANCH   2   4
HETATM    4  C   UNL     1     -11.647  15.929  69.576  1.00  0.00    -0.335 C  
BRANCH   4   5
HETATM    5  C   UNL     1     -11.904  14.418  69.439  1.00  0.00    -0.369 C  
BRANCH   5   6
HETATM    6  C   UNL     1     -11.825  13.928  68.009  1.00  0.00    -0.411 C  
HETATM    7  C   UNL     1     -11.507  12.675  67.601  1.00  0.00    -0.390 C  
HETATM    8  C   UNL     1     -11.177  11.648  68.615  1.00  0.00    -0.308 A  
HETATM    9  C   UNL     1     -12.156  11.148  69.486  1.00  0.00    -0.396 A  
HETATM   10  C   UNL     1     -11.825  10.188  70.441  1.00  0.00    -0.373 A  
HETATM   11  C   UNL     1     -10.518   9.713  70.527  1.00  0.00    -0.367 A  
HETATM   12  C   UNL     1      -9.541  10.191  69.652  1.00  0.00    -0.237 A  
HETATM   13  C   UNL     1      -9.864  11.157  68.689  1.00  0.00    -0.207 A  
HETATM   14  C   UNL     1      -8.833  11.646  67.705  1.00  0.00    -0.159 C  
HETATM   15  C   UNL     1      -9.134  11.139  66.292  1.00  0.00    -0.207 C  
HETATM   16  C   UNL     1     -10.355  11.667  65.558  1.00  0.00    -0.309 A  
HETATM   17  C   UNL     1     -10.414  11.357  64.180  1.00  0.00    -0.421 A  
HETATM   18  C   UNL     1     -11.489  11.753  63.387  1.00  0.00    -0.424 A  
HETATM   19  C   UNL     1     -12.536  12.462  63.956  1.00  0.00    -0.554 A  
HETATM   20  C   UNL     1     -12.508  12.765  65.318  1.00  0.00    -0.528 A  
HETATM   21  C   UNL     1     -11.427  12.383  66.140  1.00  0.00    -0.430 A  
ENDBRANCH   5   6
ENDBRANCH   4   5
ENDBRANCH   2   4
TORSDOF 3
ENDMDL
MODEL       16
REMARK 921   NORMALIZED FREE ENERGY PREDICTED BY IDOCK:   -6.09 KCAL/MOL
REMARK 922        TOTAL FREE ENERGY PREDICTED BY IDOCK:   -7.36 KCAL/MOL
REMARK 923 INTER-LIGAND FREE ENERGY PREDICTED BY IDOCK:   -7.01 KCAL/MOL
REMARK 924 INTRA-LIGAND FREE ENERGY PREDICTED BY IDOCK:   -0.35 KCAL/MOL
REMARK 927      BINDING AFFINITY PREDICTED BY RF-SCORE:    0.00 PKD
ROOT
HETATM    1  C   UNL     1      -8.533  15.206  67.075  1.00  0.00    -0.229 C  
HETATM    2  N   UNL     1      -8.471  13.815  66.646  1.00  0.00    -0.429 NA 
HETATM    3  H   UNL     1      -7.980  13.721  65.757  1.00  0.00     0.000 HD 
ENDROOT
BRANCH   2   4
HETATM    4  C   UNL     1      -7.880  12.959  67.681  1.00  0.00    -0.168 C  
BRANCH   4   5
HETATM    5  C   UNL     1      -8.433  11.529  67.551  1.00  0.00    -0.143 C  
BRANCH   5   6
HETATM    6  C   UNL     1      -9.376  11.150  68.672  1.00  0.00    -0.186 C  
HETATM    7  C   UNL     1     -10.683  11.489  68.779  1.00  0.00    -0.247 C  
HETATM    8  C   UNL     1     -11.297  12.333  67.728  1.00  0.00    -0.362 A  
HETATM    9  C   UNL     1     -11.500  11.841  66.431  1.00  0.00    -0.309 A  
HETATM   10  C   UNL     1     -12.071  12.652  65.451  1.00  0.00    -0.516 A  
HETATM   11  C   UNL     1     -12.453  13.956  65.763  1.00  0.00    -0.530 A  
HETATM   12  C   UNL     1     -12.272  14.448  67.057  1.00  0.00    -0.274 A  
HETATM   13  C   UNL     1     -11.698  13.640  68.047  1.00  0.00    -0.387 A  
HETATM   14  C   UNL     1     -11.541  14.139  69.461  1.00  0.00    -0.349 C  
HETATM   15  C   UNL     1     -12.505  13.421  70.409  1.00  0.00    -0.322 C  
HETATM   16  C   UNL     1     -12.290  11.946  70.709  1.00  0.00    -0.416 A  
HETATM   17  C   UNL     1     -13.049  11.430  71.785  1.00  0.00    -0.523 A  
HETATM   18  C   UNL     1     -12.974  10.090  72.155  1.00  0.00    -0.460 A  
HETATM   19  C   UNL     1     -12.144   9.229  71.453  1.00  0.00    -0.424 A  
HETATM   20  C   UNL     1     -11.398   9.712  70.376  1.00  0.00    -0.337 A  
HETATM   21  C   UNL     1     -11.449  11.067  69.988  1.00  0.00    -0.398 A  
ENDBRANCH   5   6
ENDBRANCH   4   5
ENDBRANCH   2   4
TORSDOF 3
ENDMDL
MODEL       17
REMARK 921   NORMALIZED FREE ENERGY PREDICTED BY IDOCK:   -6.06 KCAL/MOL
REMARK 922        TOTAL FREE ENERGY PREDICTED BY IDOCK:   -7.32 KCAL/MOL
REMARK 923 INTER-LIGAND FREE ENERGY PREDICTED BY IDOCK:   -7.14 KCAL/MOL
REMARK 924 INTRA-LIGAND FREE ENERGY PREDICTED BY IDOCK:   -0.18 KCAL/MOL
REMARK 927      BINDING AFFINITY PREDICTED BY RF-SCORE:    0.00 PKD
ROOT
HETATM    1  C   UNL     1     -10.523   5.754  66.852  1.00  0.00    -0.285 C  
HETATM    2  N   UNL     1     -11.391   6.916  66.988  1.00  0.00    -0.719 NA 
HETATM    3  H   UNL     1     -11.953   6.864  67.838  1.00  0.00     0.000 HD 
ENDROOT
BRANCH   2   4
HETATM    4  C   UNL     1     -10.628   8.168  66.924  1.00  0.00    -0.241 C  
BRANCH   4   5
HETATM    5  C   UNL     1     -10.157   8.563  68.334  1.00  0.00    -0.221 C  
BRANCH   5   6
HETATM    6  C   UNL     1     -10.888   9.766  68.891  1.00  0.00    -0.220 C  
HETATM    7  C   UNL     1     -11.040  10.086  70.199  1.00  0.00    -0.371 C  
HETATM    8  C   UNL     1     -10.468   9.191  71.231  1.00  0.00    -0.398 A  
HETATM    9  C   UNL     1      -9.082   9.063  71.393  1.00  0.00    -0.271 A  
HETATM   10  C   UNL     1      -8.561   8.208  72.363  1.00  0.00    -0.245 A  
HETATM   11  C   UNL     1      -9.421   7.483  73.186  1.00  0.00    -0.272 A  
HETATM   12  C   UNL     1     -10.803   7.618  73.045  1.00  0.00    -0.457 A  
HETATM   13  C   UNL     1     -11.335   8.474  72.071  1.00  0.00    -0.425 A  
HETATM   14  C   UNL     1     -12.824   8.669  71.939  1.00  0.00    -0.411 C  
HETATM   15  C   UNL     1     -13.241  10.067  72.403  1.00  0.00    -0.263 C  
HETATM   16  C   UNL     1     -12.824  11.277  71.583  1.00  0.00    -0.510 A  
HETATM   17  C   UNL     1     -13.464  12.489  71.925  1.00  0.00    -0.392 A  
HETATM   18  C   UNL     1     -13.161  13.684  71.276  1.00  0.00    -0.357 A  
HETATM   19  C   UNL     1     -12.202  13.696  70.274  1.00  0.00    -0.423 A  
HETATM   20  C   UNL     1     -11.545  12.513  69.930  1.00  0.00    -0.242 A  
HETATM   21  C   UNL     1     -11.841  11.290  70.567  1.00  0.00    -0.421 A  
ENDBRANCH   5   6
ENDBRANCH   4   5
ENDBRANCH   2   4
TORSDOF 3
ENDMDL
MODEL       18
REMARK 921   NORMALIZED FREE ENERGY PREDICTED BY IDOCK:   -5.97 KCAL/MOL
REMARK 922        TOTAL FREE ENERGY PREDICTED BY IDOCK:   -7.21 KCAL/MOL
REMARK 923 INTER-LIGAND FREE ENERGY PREDICTED BY IDOCK:   -6.95 KCAL/MOL
REMARK 924 INTRA-LIGAND FREE ENERGY PREDICTED BY IDOCK:   -0.26 KCAL/MOL
REMARK 927      BINDING AFFINITY PREDICTED BY RF-SCORE:    0.00 PKD
ROOT
HETATM    1  C   UNL     1      -9.642  17.754  66.703  1.00  0.00    -0.307 C  
HETATM    2  N   UNL     1     -10.457  16.595  67.037  1.00  0.00    -0.303 NA 
HETATM    3  H   UNL     1     -11.344  16.871  67.457  1.00  0.00     0.000 HD 
ENDROOT
BRANCH   2   4
HETATM    4  C   UNL     1     -10.662  15.727  65.871  1.00  0.00    -0.313 C  
BRANCH   4   5
HETATM    5  C   UNL     1     -11.452  14.475  66.287  1.00  0.00    -0.358 C  
BRANCH   5   6
HETATM    6  C   UNL     1     -12.017  14.564  67.688  1.00  0.00    -0.355 C  
HETATM    7  C   UNL     1     -11.566  13.908  68.784  1.00  0.00    -0.370 C  
HETATM    8  C   UNL     1     -10.419  12.981  68.650  1.00  0.00    -0.236 A  
HETATM    9  C   UNL     1      -9.131  13.458  68.369  1.00  0.00    -0.142 A  
HETATM   10  C   UNL     1      -8.064  12.570  68.236  1.00  0.00    -0.165 A  
HETATM   11  C   UNL     1      -8.274  11.202  68.392  1.00  0.00    -0.144 A  
HETATM   12  C   UNL     1      -9.550  10.719  68.689  1.00  0.00    -0.187 A  
HETATM   13  C   UNL     1     -10.628  11.604  68.824  1.00  0.00    -0.241 A  
HETATM   14  C   UNL     1     -12.001  11.103  69.194  1.00  0.00    -0.413 C  
HETATM   15  C   UNL     1     -12.376  11.522  70.618  1.00  0.00    -0.457 C  
HETATM   16  C   UNL     1     -12.628  12.991  70.918  1.00  0.00    -0.364 A  
HETATM   17  C   UNL     1     -13.221  13.259  72.172  1.00  0.00    -0.562 A  
HETATM   18  C   UNL     1     -13.486  14.561  72.592  1.00  0.00    -0.590 A  
HETATM   19  C   UNL     1     -13.154  15.627  71.770  1.00  0.00    -0.546 A  
HETATM   20  C   UNL     1     -12.552  15.388  70.533  1.00  0.00    -0.471 A  
HETATM   21  C   UNL     1     -12.283  14.078  70.082  1.00  0.00    -0.425 A  
ENDBRANCH   5   6
ENDBRANCH   4   5
ENDBRANCH   2   4
TORSDOF 3
ENDMDL
MODEL       19
REMARK 921   NORMALIZED FREE ENERGY PREDICTED BY IDOCK:   -5.94 KCAL/MOL
REMARK 922        TOTAL FREE ENERGY PREDICTED BY IDOCK:   -7.18 KCAL/MOL
REMARK 923 INTER-LIGAND FREE ENERGY PREDICTED BY IDOCK:   -6.95 KCAL/MOL
REMARK 924 INTRA-LIGAND FREE ENERGY PREDICTED BY IDOCK:   -0.23 KCAL/MOL
REMARK 927      BINDING AFFINITY PREDICTED BY RF-SCORE:    0.00 PKD
ROOT
HETATM    1  C   UNL     1      -9.693  19.576  66.350  1.00  0.00    -0.401 C  
HETATM    2  N   UNL     1     -10.435  18.469  65.762  1.00  0.00    -0.628 NA 
HETATM    3  H   UNL     1     -10.106  18.258  64.820  1.00  0.00     0.000 HD 
ENDROOT
BRANCH   2   4
HETATM    4  C   UNL     1     -10.400  17.281  66.623  1.00  0.00    -0.305 C  
BRANCH   4   5
HETATM    5  C   UNL     1      -9.949  17.678  68.039  1.00  0.00    -0.326 C  
BRANCH   5   6
HETATM    6  C   UNL     1     -10.780  17.039  69.131  1.00  0.00    -0.253 C  
HETATM    7  C   UNL     1     -10.599  15.809  69.669  1.00  0.00    -0.295 C  
HETATM    8  C   UNL     1      -9.502  14.953  69.161  1.00  0.00    -0.158 A  
HETATM    9  C   UNL     1      -8.159  15.284  69.390  1.00  0.00    -0.230 A  
HETATM   10  C   UNL     1      -7.139  14.472  68.896  1.00  0.00    -0.118 A  
HETATM   11  C   UNL     1      -7.453  13.320  68.179  1.00  0.00    -0.128 A  
HETATM   12  C   UNL     1      -8.787  12.972  67.962  1.00  0.00    -0.191 A  
HETATM   13  C   UNL     1      -9.819  13.783  68.454  1.00  0.00    -0.227 A  
HETATM   14  C   UNL     1     -11.264  13.396  68.271  1.00  0.00    -0.310 C  
HETATM   15  C   UNL     1     -11.896  12.977  69.601  1.00  0.00    -0.385 C  
HETATM   16  C   UNL     1     -12.121  14.025  70.679  1.00  0.00    -0.424 A  
HETATM   17  C   UNL     1     -12.940  13.619  71.756  1.00  0.00    -0.441 A  
HETATM   18  C   UNL     1     -13.211  14.466  72.829  1.00  0.00    -0.611 A  
HETATM   19  C   UNL     1     -12.660  15.738  72.853  1.00  0.00    -0.571 A  
HETATM   20  C   UNL     1     -11.834  16.156  71.808  1.00  0.00    -0.581 A  
HETATM   21  C   UNL     1     -11.553  15.320  70.707  1.00  0.00    -0.371 A  
ENDBRANCH   5   6
ENDBRANCH   4   5
ENDBRANCH   2   4
TORSDOF 3
ENDMDL
MODEL       20
REMARK 921   NORMALIZED FREE ENERGY PREDICTED BY IDOCK:   -5.90 KCAL/MOL
REMARK 922        TOTAL FREE ENERGY PREDICTED BY IDOCK:   -7.13 KCAL/MOL
REMARK 923 INTER-LIGAND FREE ENERGY PREDICTED BY IDOCK:   -6.97 KCAL/MOL
REMARK 924 INTRA-LIGAND FREE ENERGY PREDICTED BY IDOCK:   -0.17 KCAL/MOL
REMARK 927      BINDING AFFINITY PREDICTED BY RF-SCORE:    0.00 PKD
ROOT
HETATM    1  C   UNL     1     -13.553   9.113  72.034  1.00  0.00    -0.459 C  
HETATM    2  N   UNL     1     -13.350   9.651  70.695  1.00  0.00    -0.586 NA 
HETATM    3  H   UNL     1     -14.041  10.367  70.472  1.00  0.00     0.000 HD 
ENDROOT
BRANCH   2   4
HETATM    4  C   UNL     1     -11.982  10.149  70.518  1.00  0.00    -0.311 C  
BRANCH   4   5
HETATM    5  C   UNL     1     -11.990  11.371  69.583  1.00  0.00    -0.416 C  
BRANCH   5   6
HETATM    6  C   UNL     1     -11.529  11.050  68.178  1.00  0.00    -0.374 C  
HETATM    7  C   UNL     1     -10.998  11.919  67.284  1.00  0.00    -0.319 C  
HETATM    8  C   UNL     1     -10.851  13.343  67.661  1.00  0.00    -0.273 A  
HETATM    9  C   UNL     1      -9.929  13.742  68.639  1.00  0.00    -0.175 A  
HETATM   10  C   UNL     1      -9.810  15.086  68.989  1.00  0.00    -0.236 A  
HETATM   11  C   UNL     1     -10.603  16.042  68.358  1.00  0.00    -0.270 A  
HETATM   12  C   UNL     1     -11.511  15.657  67.369  1.00  0.00    -0.086 A  
HETATM   13  C   UNL     1     -11.637  14.308  67.012  1.00  0.00    -0.406 A  
HETATM   14  C   UNL     1     -12.576  13.882  65.913  1.00  0.00    -0.498 C  
HETATM   15  C   UNL     1     -11.803  13.420  64.674  1.00  0.00    -0.430 C  
HETATM   16  C   UNL     1     -10.997  12.132  64.739  1.00  0.00    -0.356 A  
HETATM   17  C   UNL     1     -10.538  11.643  63.496  1.00  0.00    -0.496 A  
HETATM   18  C   UNL     1      -9.765  10.487  63.406  1.00  0.00    -0.368 A  
HETATM   19  C   UNL     1      -9.426   9.797  64.560  1.00  0.00    -0.269 A  
HETATM   20  C   UNL     1      -9.855  10.270  65.801  1.00  0.00    -0.320 A  
HETATM   21  C   UNL     1     -10.646  11.433  65.917  1.00  0.00    -0.317 A  
ENDBRANCH   5   6
ENDBRANCH   4   5
ENDBRANCH   2   4
TORSDOF 3
ENDMDL
MODEL       21
REMARK 921   NORMALIZED FREE ENERGY PREDICTED BY IDOCK:   -5.87 KCAL/MOL
REMARK 922        TOTAL FREE ENERGY PREDICTED BY IDOCK:   -7.09 KCAL/MOL
REMARK 923 INTER-LIGAND FREE ENERGY PREDICTED BY IDOCK:   -6.81 KCAL/MOL
REMARK 924 INTRA-LIGAND FREE ENERGY PREDICTED BY IDOCK:   -0.28 KCAL/MOL
REMARK 927      BINDING AFFINITY PREDICTED BY RF-SCORE:    0.00 PKD
ROOT
HETATM    1  C   UNL     1      -9.281  19.290  67.315  1.00  0.00    -0.303 C  
HETATM    2  N   UNL     1      -8.711  17.954  67.418  1.00  0.00    -0.235 NA 
HETATM    3  H   UNL     1      -7.860  17.868  66.863  1.00  0.00     0.000 HD 
ENDROOT
BRANCH   2   4
HETATM    4  C   UNL     1      -8.482  17.573  68.817  1.00  0.00    -0.213 C  
BRANCH   4   5
HETATM    5  C   UNL     1      -8.969  16.133  69.051  1.00  0.00    -0.247 C  
BRANCH   5   6
HETATM    6  C   UNL     1      -9.623  15.520  67.832  1.00  0.00    -0.206 C  
HETATM    7  C   UNL     1     -10.784  14.822  67.802  1.00  0.00    -0.268 C  
HETATM    8  C   UNL     1     -11.519  14.591  69.067  1.00  0.00    -0.318 A  
HETATM    9  C   UNL     1     -12.137  15.648  69.751  1.00  0.00    -0.346 A  
HETATM   10  C   UNL     1     -12.816  15.414  70.945  1.00  0.00    -0.536 A  
HETATM   11  C   UNL     1     -12.892  14.121  71.460  1.00  0.00    -0.430 A  
HETATM   12  C   UNL     1     -12.296  13.059  70.777  1.00  0.00    -0.394 A  
HETATM   13  C   UNL     1     -11.610  13.286  69.576  1.00  0.00    -0.349 A  
HETATM   14  C   UNL     1     -11.005  12.144  68.802  1.00  0.00    -0.274 C  
HETATM   15  C   UNL     1     -11.778  11.884  67.506  1.00  0.00    -0.335 C  
HETATM   16  C   UNL     1     -11.723  12.914  66.389  1.00  0.00    -0.454 A  
HETATM   17  C   UNL     1     -12.235  12.485  65.144  1.00  0.00    -0.509 A  
HETATM   18  C   UNL     1     -12.274  13.331  64.038  1.00  0.00    -0.475 A  
HETATM   19  C   UNL     1     -11.808  14.632  64.154  1.00  0.00    -0.263 A  
HETATM   20  C   UNL     1     -11.311  15.084  65.378  1.00  0.00    -0.328 A  
HETATM   21  C   UNL     1     -11.254  14.243  66.510  1.00  0.00    -0.333 A  
ENDBRANCH   5   6
ENDBRANCH   4   5
ENDBRANCH   2   4
TORSDOF 3
ENDMDL
MODEL       22
REMARK 921   NORMALIZED FREE ENERGY PREDICTED BY IDOCK:   -5.82 KCAL/MOL
REMARK 922        TOTAL FREE ENERGY PREDICTED BY IDOCK:   -7.04 KCAL/MOL
REMARK 923 INTER-LIGAND FREE ENERGY PREDICTED BY IDOCK:   -6.84 KCAL/MOL
REMARK 924 INTRA-LIGAND FREE ENERGY PREDICTED BY IDOCK:   -0.20 KCAL/MOL
REMARK 927      BINDING AFFINITY PREDICTED BY RF-SCORE:    0.00 PKD
ROOT
HETATM    1  C   UNL     1     -12.183  12.657  63.456  1.00  0.00    -0.547 C  
HETATM    2  N   UNL     1     -12.078  14.108  63.393  1.00  0.00    -0.959 NA 
HETATM    3  H   UNL     1     -12.785  14.507  62.776  1.00  0.00     0.000 HD 
ENDROOT
BRANCH   2   4
HETATM    4  C   UNL     1     -12.131  14.710  64.731  1.00  0.00    -0.421 C  
BRANCH   4   5
HETATM    5  C   UNL     1     -10.988  15.727  64.890  1.00  0.00    -0.443 C  
BRANCH   5   6
HETATM    6  C   UNL     1      -9.830  15.199  65.707  1.00  0.00    -0.384 C  
HETATM    7  C   UNL     1      -9.067  15.903  66.579  1.00  0.00    -0.320 C  
HETATM    8  C   UNL     1      -9.341  17.345  66.774  1.00  0.00    -0.279 A  
HETATM    9  C   UNL     1     -10.516  17.782  67.403  1.00  0.00    -0.367 A  
HETATM   10  C   UNL     1     -10.761  19.144  67.569  1.00  0.00    -0.555 A  
HETATM   11  C   UNL     1      -9.832  20.079  67.118  1.00  0.00    -0.563 A  
HETATM   12  C   UNL     1      -8.651  19.653  66.508  1.00  0.00    -0.387 A  
HETATM   13  C   UNL     1      -8.396  18.286  66.335  1.00  0.00    -0.267 A  
HETATM   14  C   UNL     1      -7.104  17.810  65.723  1.00  0.00    -0.179 C  
HETATM   15  C   UNL     1      -6.212  17.136  66.770  1.00  0.00    -0.244 C  
HETATM   16  C   UNL     1      -6.640  15.803  67.362  1.00  0.00    -0.215 A  
HETATM   17  C   UNL     1      -5.649  15.128  68.110  1.00  0.00    -0.130 A  
HETATM   18  C   UNL     1      -5.907  13.909  68.733  1.00  0.00    -0.084 A  
HETATM   19  C   UNL     1      -7.167  13.339  68.629  1.00  0.00    -0.106 A  
HETATM   20  C   UNL     1      -8.166  13.995  67.909  1.00  0.00    -0.158 A  
HETATM   21  C   UNL     1      -7.927  15.226  67.262  1.00  0.00    -0.231 A  
ENDBRANCH   5   6
ENDBRANCH   4   5
ENDBRANCH   2   4
TORSDOF 3
ENDMDL
MODEL       23
REMARK 921   NORMALIZED FREE ENERGY PREDICTED BY IDOCK:   -5.78 KCAL/MOL
REMARK 922        TOTAL FREE ENERGY PREDICTED BY IDOCK:   -6.98 KCAL/MOL
REMARK 923 INTER-LIGAND FREE ENERGY PREDICTED BY IDOCK:   -6.87 KCAL/MOL
REMARK 924 INTRA-LIGAND FREE ENERGY PREDICTED BY IDOCK:   -0.11 KCAL/MOL
REMARK 927      BINDING AFFINITY PREDICTED BY RF-SCORE:    0.00 PKD
ROOT
HETATM    1  C   UNL     1      -9.317   9.091  70.261  1.00  0.00    -0.198 C  
HETATM    2  N   UNL     1      -8.553  10.219  69.749  1.00  0.00    -0.369 NA 
HETATM    3  H   UNL     1      -7.612  10.243  70.143  1.00  0.00     0.000 HD 
ENDROOT
BRANCH   2   4
HETATM    4  C   UNL     1      -8.521  10.226  68.282  1.00  0.00    -0.121 C  
BRANCH   4   5
HETATM    5  C   UNL     1      -9.325  11.425  67.749  1.00  0.00    -0.162 C  
BRANCH   5   6
HETATM    6  C   UNL     1     -10.224  12.050  68.793  1.00  0.00    -0.145 C  
HETATM    7  C   UNL     1     -11.210  12.954  68.574  1.00  0.00    -0.310 C  
HETATM    8  C   UNL     1     -11.461  13.426  67.193  1.00  0.00    -0.373 A  
HETATM    9  C   UNL     1     -11.991  12.569  66.218  1.00  0.00    -0.410 A  
HETATM   10  C   UNL     1     -12.212  13.028  64.921  1.00  0.00    -0.490 A  
HETATM   11  C   UNL     1     -11.916  14.349  64.590  1.00  0.00    -0.475 A  
HETATM   12  C   UNL     1     -11.406  15.215  65.559  1.00  0.00    -0.274 A  
HETATM   13  C   UNL     1     -11.180  14.762  66.865  1.00  0.00    -0.347 A  
HETATM   14  C   UNL     1     -10.677  15.698  67.935  1.00  0.00    -0.294 C  
HETATM   15  C   UNL     1     -11.768  15.994  68.967  1.00  0.00    -0.322 C  
HETATM   16  C   UNL     1     -12.232  14.884  69.896  1.00  0.00    -0.354 A  
HETATM   17  C   UNL     1     -13.037  15.300  70.981  1.00  0.00    -0.544 A  
HETATM   18  C   UNL     1     -13.556  14.388  71.898  1.00  0.00    -0.491 A  
HETATM   19  C   UNL     1     -13.289  13.036  71.746  1.00  0.00    -0.468 A  
HETATM   20  C   UNL     1     -12.510  12.600  70.673  1.00  0.00    -0.323 A  
HETATM   21  C   UNL     1     -11.966  13.504  69.737  1.00  0.00    -0.405 A  
ENDBRANCH   5   6
ENDBRANCH   4   5
ENDBRANCH   2   4
TORSDOF 3
ENDMDL
MODEL       24
REMARK 921   NORMALIZED FREE ENERGY PREDICTED BY IDOCK:   -5.75 KCAL/MOL
REMARK 922        TOTAL FREE ENERGY PREDICTED BY IDOCK:   -6.96 KCAL/MOL
REMARK 923 INTER-LIGAND FREE ENERGY PREDICTED BY IDOCK:   -6.76 KCAL/MOL
REMARK 924 INTRA-LIGAND FREE ENERGY PREDICTED BY IDOCK:   -0.19 KCAL/MOL
REMARK 927      BINDING AFFINITY PREDICTED BY RF-SCORE:    0.00 PKD
ROOT
HETATM    1  C   UNL     1     -13.036  10.544  71.582  1.00  0.00    -0.476 C  
HETATM    2  N   UNL     1     -12.479  10.321  70.256  1.00  0.00    -0.495 NA 
HETATM    3  H   UNL     1     -13.213  10.187  69.560  1.00  0.00     0.000 HD 
ENDROOT
BRANCH   2   4
HETATM    4  C   UNL     1     -11.563  11.400  69.868  1.00  0.00    -0.323 C  
BRANCH   4   5
HETATM    5  C   UNL     1     -11.909  11.894  68.453  1.00  0.00    -0.352 C  
BRANCH   5   6
HETATM    6  C   UNL     1     -11.189  11.131  67.362  1.00  0.00    -0.363 C  
HETATM    7  C   UNL     1     -10.529  11.663  66.305  1.00  0.00    -0.286 C  
HETATM    8  C   UNL     1     -10.496  13.134  66.141  1.00  0.00    -0.287 A  
HETATM    9  C   UNL     1      -9.782  13.948  67.033  1.00  0.00    -0.250 A  
HETATM   10  C   UNL     1      -9.770  15.332  66.869  1.00  0.00    -0.243 A  
HETATM   11  C   UNL     1     -10.462  15.913  65.809  1.00  0.00    -0.386 A  
HETATM   12  C   UNL     1     -11.160  15.111  64.905  1.00  0.00    -0.425 A  
HETATM   13  C   UNL     1     -11.179  13.718  65.062  1.00  0.00    -0.339 A  
HETATM   14  C   UNL     1     -11.887  12.835  64.067  1.00  0.00    -0.506 C  
HETATM   15  C   UNL     1     -10.886  12.032  63.232  1.00  0.00    -0.400 C  
HETATM   16  C   UNL     1     -10.068  10.939  63.900  1.00  0.00    -0.422 A  
HETATM   17  C   UNL     1      -9.373  10.079  63.020  1.00  0.00    -0.297 A  
HETATM   18  C   UNL     1      -8.563   9.049  63.493  1.00  0.00    -0.146 A  
HETATM   19  C   UNL     1      -8.421   8.860  64.859  1.00  0.00    -0.195 A  
HETATM   20  C   UNL     1      -9.085   9.708  65.748  1.00  0.00    -0.230 A  
HETATM   21  C   UNL     1      -9.918  10.752  65.294  1.00  0.00    -0.342 A  
ENDBRANCH   5   6
ENDBRANCH   4   5
ENDBRANCH   2   4
TORSDOF 3
ENDMDL
MODEL       25
REMARK 921   NORMALIZED FREE ENERGY PREDICTED BY IDOCK:   -5.75 KCAL/MOL
REMARK 922        TOTAL FREE ENERGY PREDICTED BY IDOCK:   -6.95 KCAL/MOL
REMARK 923 INTER-LIGAND FREE ENERGY PREDICTED BY IDOCK:   -6.78 KCAL/MOL
REMARK 924 INTRA-LIGAND FREE ENERGY PREDICTED BY IDOCK:   -0.17 KCAL/MOL
REMARK 927      BINDING AFFINITY PREDICTED BY RF-SCORE:    0.00 PKD
ROOT
HETATM    1  C   UNL     1     -12.959   9.204  72.096  1.00  0.00    -0.425 C  
HETATM    2  N   UNL     1     -12.722   9.242  70.660  1.00  0.00    -0.495 NA 
HETATM    3  H   UNL     1     -13.530   9.610  70.158  1.00  0.00     0.000 HD 
ENDROOT
BRANCH   2   4
HETATM    4  C   UNL     1     -11.502   9.990  70.336  1.00  0.00    -0.314 C  
BRANCH   4   5
HETATM    5  C   UNL     1     -11.778  10.956  69.171  1.00  0.00    -0.397 C  
BRANCH   5   6
HETATM    6  C   UNL     1     -11.147  10.515  67.868  1.00  0.00    -0.367 C  
HETATM    7  C   UNL     1     -10.649  11.319  66.898  1.00  0.00    -0.300 C  
HETATM    8  C   UNL     1     -10.722  12.788  67.071  1.00  0.00    -0.272 A  
HETATM    9  C   UNL     1      -9.956  13.442  68.046  1.00  0.00    -0.239 A  
HETATM   10  C   UNL     1     -10.044  14.824  68.201  1.00  0.00    -0.221 A  
HETATM   11  C   UNL     1     -10.889  15.565  67.377  1.00  0.00    -0.312 A  
HETATM   12  C   UNL     1     -11.641  14.925  66.391  1.00  0.00    -0.238 A  
HETATM   13  C   UNL     1     -11.560  13.535  66.228  1.00  0.00    -0.374 A  
HETATM   14  C   UNL     1     -12.327  12.836  65.136  1.00  0.00    -0.555 C  
HETATM   15  C   UNL     1     -11.387  12.323  64.042  1.00  0.00    -0.469 C  
HETATM   16  C   UNL     1     -10.433  11.182  64.358  1.00  0.00    -0.418 A  
HETATM   17  C   UNL     1      -9.798  10.597  63.239  1.00  0.00    -0.364 A  
HETATM   18  C   UNL     1      -8.879   9.559  63.379  1.00  0.00    -0.236 A  
HETATM   19  C   UNL     1      -8.567   9.087  64.645  1.00  0.00    -0.190 A  
HETATM   20  C   UNL     1      -9.169   9.661  65.767  1.00  0.00    -0.264 A  
HETATM   21  C   UNL     1     -10.109  10.706  65.649  1.00  0.00    -0.335 A  
ENDBRANCH   5   6
ENDBRANCH   4   5
ENDBRANCH   2   4
TORSDOF 3
ENDMDL
MODEL       26
REMARK 921   NORMALIZED FREE ENERGY PREDICTED BY IDOCK:   -5.73 KCAL/MOL
REMARK 922        TOTAL FREE ENERGY PREDICTED BY IDOCK:   -6.94 KCAL/MOL
REMARK 923 INTER-LIGAND FREE ENERGY PREDICTED BY IDOCK:   -6.61 KCAL/MOL
REMARK 924 INTRA-LIGAND FREE ENERGY PREDICTED BY IDOCK:   -0.33 KCAL/MOL
REMARK 927      BINDING AFFINITY PREDICTED BY RF-SCORE:    0.00 PKD
ROOT
HETATM    1  C   UNL     1     -10.362  11.220  62.936  1.00  0.00    -0.078 C  
HETATM    2  N   UNL     1     -10.516  12.654  63.137  1.00  0.00    -0.514 NA 
HETATM    3  H   UNL     1     -10.224  13.180  62.313  1.00  0.00     0.000 HD 
ENDROOT
BRANCH   2   4
HETATM    4  C   UNL     1     -11.885  12.998  63.537  1.00  0.00    -0.516 C  
BRANCH   4   5
HETATM    5  C   UNL     1     -12.262  12.232  64.816  1.00  0.00    -0.438 C  
BRANCH   5   6
HETATM    6  C   UNL     1     -12.254  13.101  66.055  1.00  0.00    -0.478 C  
HETATM    7  C   UNL     1     -11.546  12.884  67.190  1.00  0.00    -0.421 C  
HETATM    8  C   UNL     1     -10.693  11.678  67.289  1.00  0.00    -0.281 A  
HETATM    9  C   UNL     1      -9.537  11.541  66.507  1.00  0.00    -0.225 A  
HETATM   10  C   UNL     1      -8.751  10.395  66.606  1.00  0.00    -0.141 A  
HETATM   11  C   UNL     1      -9.107   9.380  67.493  1.00  0.00    -0.136 A  
HETATM   12  C   UNL     1     -10.246   9.515  68.289  1.00  0.00    -0.225 A  
HETATM   13  C   UNL     1     -11.043  10.664  68.195  1.00  0.00    -0.343 A  
HETATM   14  C   UNL     1     -12.247  10.847  69.083  1.00  0.00    -0.181 C  
HETATM   15  C   UNL     1     -12.004  11.942  70.125  1.00  0.00    -0.413 C  
HETATM   16  C   UNL     1     -11.889  13.388  69.670  1.00  0.00    -0.394 A  
HETATM   17  C   UNL     1     -11.932  14.352  70.702  1.00  0.00    -0.393 A  
HETATM   18  C   UNL     1     -11.811  15.714  70.435  1.00  0.00    -0.395 A  
HETATM   19  C   UNL     1     -11.636  16.144  69.128  1.00  0.00    -0.285 A  
HETATM   20  C   UNL     1     -11.574  15.208  68.094  1.00  0.00    -0.358 A  
HETATM   21  C   UNL     1     -11.702  13.825  68.338  1.00  0.00    -0.393 A  
ENDBRANCH   5   6
ENDBRANCH   4   5
ENDBRANCH   2   4
TORSDOF 3
ENDMDL
MODEL       27
REMARK 921   NORMALIZED FREE ENERGY PREDICTED BY IDOCK:   -5.68 KCAL/MOL
REMARK 922        TOTAL FREE ENERGY PREDICTED BY IDOCK:   -6.87 KCAL/MOL
REMARK 923 INTER-LIGAND FREE ENERGY PREDICTED BY IDOCK:   -6.51 KCAL/MOL
REMARK 924 INTRA-LIGAND FREE ENERGY PREDICTED BY IDOCK:   -0.36 KCAL/MOL
REMARK 927      BINDING AFFINITY PREDICTED BY RF-SCORE:    0.00 PKD
ROOT
HETATM    1  C   UNL     1     -11.474  12.277  64.316  1.00  0.00    -0.362 C  
HETATM    2  N   UNL     1     -12.673  12.633  65.061  1.00  0.00    -0.771 NA 
HETATM    3  H   UNL     1     -12.799  12.031  65.875  1.00  0.00     0.000 HD 
ENDROOT
BRANCH   2   4
HETATM    4  C   UNL     1     -12.672  14.052  65.437  1.00  0.00    -0.471 C  
BRANCH   4   5
HETATM    5  C   UNL     1     -11.742  14.270  66.642  1.00  0.00    -0.417 C  
BRANCH   5   6
HETATM    6  C   UNL     1     -12.101  13.411  67.835  1.00  0.00    -0.289 C  
HETATM    7  C   UNL     1     -11.265  12.600  68.528  1.00  0.00    -0.315 C  
HETATM    8  C   UNL     1      -9.850  12.491  68.105  1.00  0.00    -0.221 A  
HETATM    9  C   UNL     1      -8.966  13.571  68.245  1.00  0.00    -0.180 A  
HETATM   10  C   UNL     1      -7.640  13.454  67.832  1.00  0.00    -0.151 A  
HETATM   11  C   UNL     1      -7.184  12.256  67.286  1.00  0.00    -0.138 A  
HETATM   12  C   UNL     1      -8.052  11.170  67.160  1.00  0.00    -0.138 A  
HETATM   13  C   UNL     1      -9.387  11.278  67.571  1.00  0.00    -0.166 A  
HETATM   14  C   UNL     1     -10.322  10.100  67.487  1.00  0.00    -0.279 C  
HETATM   15  C   UNL     1     -10.661   9.563  68.880  1.00  0.00    -0.239 C  
HETATM   16  C   UNL     1     -11.512  10.409  69.815  1.00  0.00    -0.348 A  
HETATM   17  C   UNL     1     -11.996   9.741  70.962  1.00  0.00    -0.440 A  
HETATM   18  C   UNL     1     -12.766  10.397  71.920  1.00  0.00    -0.459 A  
HETATM   19  C   UNL     1     -13.063  11.742  71.756  1.00  0.00    -0.480 A  
HETATM   20  C   UNL     1     -12.582  12.427  70.639  1.00  0.00    -0.237 A  
HETATM   21  C   UNL     1     -11.808  11.782  69.651  1.00  0.00    -0.407 A  
ENDBRANCH   5   6
ENDBRANCH   4   5
ENDBRANCH   2   4
TORSDOF 3
ENDMDL
MODEL       28
REMARK 921   NORMALIZED FREE ENERGY PREDICTED BY IDOCK:   -5.61 KCAL/MOL
REMARK 922        TOTAL FREE ENERGY PREDICTED BY IDOCK:   -6.79 KCAL/MOL
REMARK 923 INTER-LIGAND FREE ENERGY PREDICTED BY IDOCK:   -6.65 KCAL/MOL
REMARK 924 INTRA-LIGAND FREE ENERGY PREDICTED BY IDOCK:   -0.14 KCAL/MOL
REMARK 927      BINDING AFFINITY PREDICTED BY RF-SCORE:    0.00 PKD
ROOT
HETATM    1  C   UNL     1     -12.486  11.889  63.494  1.00  0.00    -0.492 C  
HETATM    2  N   UNL     1     -13.138  12.589  64.592  1.00  0.00    -0.837 NA 
HETATM    3  H   UNL     1     -13.150  12.023  65.440  1.00  0.00     0.000 HD 
ENDROOT
BRANCH   2   4
HETATM    4  C   UNL     1     -12.529  13.902  64.831  1.00  0.00    -0.391 C  
BRANCH   4   5
HETATM    5  C   UNL     1     -11.017  13.832  64.555  1.00  0.00    -0.399 C  
BRANCH   5   6
HETATM    6  C   UNL     1     -10.244  14.976  65.175  1.00  0.00    -0.399 C  
HETATM    7  C   UNL     1      -9.930  15.124  66.484  1.00  0.00    -0.279 C  
HETATM    8  C   UNL     1     -10.380  14.100  67.455  1.00  0.00    -0.256 A  
HETATM    9  C   UNL     1      -9.845  12.804  67.442  1.00  0.00    -0.210 A  
HETATM   10  C   UNL     1     -10.288  11.850  68.356  1.00  0.00    -0.216 A  
HETATM   11  C   UNL     1     -11.260  12.185  69.296  1.00  0.00    -0.288 A  
HETATM   12  C   UNL     1     -11.786  13.479  69.329  1.00  0.00    -0.382 A  
HETATM   13  C   UNL     1     -11.347  14.444  68.413  1.00  0.00    -0.312 A  
HETATM   14  C   UNL     1     -11.868  15.857  68.467  1.00  0.00    -0.197 C  
HETATM   15  C   UNL     1     -10.786  16.826  68.950  1.00  0.00    -0.333 C  
HETATM   16  C   UNL     1      -9.586  17.105  68.058  1.00  0.00    -0.267 A  
HETATM   17  C   UNL     1      -8.780  18.196  68.453  1.00  0.00    -0.302 A  
HETATM   18  C   UNL     1      -7.633  18.551  67.745  1.00  0.00    -0.243 A  
HETATM   19  C   UNL     1      -7.261  17.816  66.630  1.00  0.00    -0.256 A  
HETATM   20  C   UNL     1      -8.033  16.724  66.231  1.00  0.00    -0.352 A  
HETATM   21  C   UNL     1      -9.203  16.350  66.926  1.00  0.00    -0.237 A  
ENDBRANCH   5   6
ENDBRANCH   4   5
ENDBRANCH   2   4
TORSDOF 3
ENDMDL
MODEL       29
REMARK 921   NORMALIZED FREE ENERGY PREDICTED BY IDOCK:   -5.59 KCAL/MOL
REMARK 922        TOTAL FREE ENERGY PREDICTED BY IDOCK:   -6.76 KCAL/MOL
REMARK 923 INTER-LIGAND FREE ENERGY PREDICTED BY IDOCK:   -6.57 KCAL/MOL
REMARK 924 INTRA-LIGAND FREE ENERGY PREDICTED BY IDOCK:   -0.19 KCAL/MOL
REMARK 927      BINDING AFFINITY PREDICTED BY RF-SCORE:    0.00 PKD
ROOT
HETATM    1  C   UNL     1     -13.658  13.051  72.284  1.00  0.00    -0.547 C  
HETATM    2  N   UNL     1     -13.522  14.486  72.489  1.00  0.00    -0.446 NA 
HETATM    3  H   UNL     1     -12.672  14.710  73.006  1.00  0.00     0.000 HD 
ENDROOT
BRANCH   2   4
HETATM    4  C   UNL     1     -13.587  15.219  71.219  1.00  0.00    -0.507 C  
BRANCH   4   5
HETATM    5  C   UNL     1     -12.483  14.719  70.272  1.00  0.00    -0.393 C  
BRANCH   5   6
HETATM    6  C   UNL     1     -11.527  15.810  69.842  1.00  0.00    -0.347 C  
HETATM    7  C   UNL     1     -10.757  15.817  68.727  1.00  0.00    -0.253 C  
HETATM    8  C   UNL     1     -10.803  14.655  67.811  1.00  0.00    -0.268 A  
HETATM    9  C   UNL     1     -11.949  14.373  67.054  1.00  0.00    -0.424 A  
HETATM   10  C   UNL     1     -11.978  13.269  66.204  1.00  0.00    -0.470 A  
HETATM   11  C   UNL     1     -10.860  12.443  66.097  1.00  0.00    -0.308 A  
HETATM   12  C   UNL     1      -9.708  12.727  66.833  1.00  0.00    -0.234 A  
HETATM   13  C   UNL     1      -9.670  13.834  67.690  1.00  0.00    -0.227 A  
HETATM   14  C   UNL     1      -8.418  14.181  68.454  1.00  0.00    -0.170 C  
HETATM   15  C   UNL     1      -7.773  15.457  67.905  1.00  0.00    -0.144 C  
HETATM   16  C   UNL     1      -8.482  16.789  68.096  1.00  0.00    -0.213 A  
HETATM   17  C   UNL     1      -7.707  17.934  67.803  1.00  0.00    -0.220 A  
HETATM   18  C   UNL     1      -8.234  19.219  67.908  1.00  0.00    -0.340 A  
HETATM   19  C   UNL     1      -9.553  19.389  68.300  1.00  0.00    -0.454 A  
HETATM   20  C   UNL     1     -10.342  18.273  68.579  1.00  0.00    -0.341 A  
HETATM   21  C   UNL     1      -9.829  16.962  68.489  1.00  0.00    -0.267 A  
ENDBRANCH   5   6
ENDBRANCH   4   5
ENDBRANCH   2   4
TORSDOF 3
ENDMDL
MODEL       30
REMARK 921   NORMALIZED FREE ENERGY PREDICTED BY IDOCK:   -5.57 KCAL/MOL
REMARK 922        TOTAL FREE ENERGY PREDICTED BY IDOCK:   -6.75 KCAL/MOL
REMARK 923 INTER-LIGAND FREE ENERGY PREDICTED BY IDOCK:   -6.42 KCAL/MOL
REMARK 924 INTRA-LIGAND FREE ENERGY PREDICTED BY IDOCK:   -0.33 KCAL/MOL
REMARK 927      BINDING AFFINITY PREDICTED BY RF-SCORE:    0.00 PKD
ROOT
HETATM    1  C   UNL     1     -12.609  10.532  70.879  1.00  0.00    -0.398 C  
HETATM    2  N   UNL     1     -11.337  11.031  70.374  1.00  0.00    -0.467 NA 
HETATM    3  H   UNL     1     -10.958  11.762  70.976  1.00  0.00     0.000 HD 
ENDROOT
BRANCH   2   4
HETATM    4  C   UNL     1     -10.373   9.943  70.177  1.00  0.00    -0.282 C  
BRANCH   4   5
HETATM    5  C   UNL     1      -9.360  10.337  69.087  1.00  0.00    -0.214 C  
BRANCH   5   6
HETATM    6  C   UNL     1     -10.011  10.678  67.764  1.00  0.00    -0.192 C  
HETATM    7  C   UNL     1     -10.113  11.909  67.207  1.00  0.00    -0.213 C  
HETATM    8  C   UNL     1      -9.565  13.077  67.934  1.00  0.00    -0.215 A  
HETATM    9  C   UNL     1      -8.184  13.239  68.111  1.00  0.00    -0.160 A  
HETATM   10  C   UNL     1      -7.686  14.340  68.806  1.00  0.00    -0.134 A  
HETATM   11  C   UNL     1      -8.564  15.292  69.321  1.00  0.00    -0.236 A  
HETATM   12  C   UNL     1      -9.940  15.149  69.134  1.00  0.00    -0.238 A  
HETATM   13  C   UNL     1     -10.449  14.045  68.437  1.00  0.00    -0.254 A  
HETATM   14  C   UNL     1     -11.928  13.902  68.184  1.00  0.00    -0.385 C  
HETATM   15  C   UNL     1     -12.257  14.113  66.704  1.00  0.00    -0.450 C  
HETATM   16  C   UNL     1     -11.795  13.082  65.686  1.00  0.00    -0.445 A  
HETATM   17  C   UNL     1     -12.360  13.208  64.397  1.00  0.00    -0.426 A  
HETATM   18  C   UNL     1     -12.009  12.350  63.357  1.00  0.00    -0.595 A  
HETATM   19  C   UNL     1     -11.076  11.349  63.581  1.00  0.00    -0.411 A  
HETATM   20  C   UNL     1     -10.492  11.214  64.842  1.00  0.00    -0.372 A  
HETATM   21  C   UNL     1     -10.838  12.065  65.912  1.00  0.00    -0.329 A  
ENDBRANCH   5   6
ENDBRANCH   4   5
ENDBRANCH   2   4
TORSDOF 3
ENDMDL
MODEL       31
REMARK 921   NORMALIZED FREE ENERGY PREDICTED BY IDOCK:   -5.56 KCAL/MOL
REMARK 922        TOTAL FREE ENERGY PREDICTED BY IDOCK:   -6.73 KCAL/MOL
REMARK 923 INTER-LIGAND FREE ENERGY PREDICTED BY IDOCK:   -6.35 KCAL/MOL
REMARK 924 INTRA-LIGAND FREE ENERGY PREDICTED BY IDOCK:   -0.39 KCAL/MOL
REMARK 927      BINDING AFFINITY PREDICTED BY RF-SCORE:    0.00 PKD
ROOT
HETATM    1  C   UNL     1     -11.270  10.404  67.923  1.00  0.00    -0.263 C  
HETATM    2  N   UNL     1     -12.182  10.908  68.941  1.00  0.00    -0.764 NA 
HETATM    3  H   UNL     1     -12.502  10.162  69.558  1.00  0.00     0.000 HD 
ENDROOT
BRANCH   2   4
HETATM    4  C   UNL     1     -11.583  12.012  69.700  1.00  0.00    -0.301 C  
BRANCH   4   5
HETATM    5  C   UNL     1     -12.407  13.294  69.491  1.00  0.00    -0.122 C  
BRANCH   5   6
HETATM    6  C   UNL     1     -11.552  14.525  69.282  1.00  0.00    -0.339 C  
HETATM    7  C   UNL     1     -10.979  14.923  68.120  1.00  0.00    -0.276 C  
HETATM    8  C   UNL     1     -11.160  14.095  66.906  1.00  0.00    -0.312 A  
HETATM    9  C   UNL     1     -12.412  13.984  66.284  1.00  0.00    -0.439 A  
HETATM   10  C   UNL     1     -12.566  13.192  65.147  1.00  0.00    -0.525 A  
HETATM   11  C   UNL     1     -11.470  12.515  64.617  1.00  0.00    -0.377 A  
HETATM   12  C   UNL     1     -10.216  12.635  65.218  1.00  0.00    -0.302 A  
HETATM   13  C   UNL     1     -10.052  13.427  66.361  1.00  0.00    -0.292 A  
HETATM   14  C   UNL     1      -8.695  13.607  66.992  1.00  0.00    -0.204 C  
HETATM   15  C   UNL     1      -8.169  15.028  66.777  1.00  0.00    -0.124 C  
HETATM   16  C   UNL     1      -8.855  16.188  67.481  1.00  0.00    -0.198 A  
HETATM   17  C   UNL     1      -8.157  17.416  67.444  1.00  0.00    -0.213 A  
HETATM   18  C   UNL     1      -8.678  18.571  68.024  1.00  0.00    -0.313 A  
HETATM   19  C   UNL     1      -9.915  18.526  68.649  1.00  0.00    -0.419 A  
HETATM   20  C   UNL     1     -10.631  17.328  68.684  1.00  0.00    -0.329 A  
HETATM   21  C   UNL     1     -10.120  16.144  68.111  1.00  0.00    -0.237 A  
ENDBRANCH   5   6
ENDBRANCH   4   5
ENDBRANCH   2   4
TORSDOF 3
ENDMDL
MODEL       32
REMARK 921   NORMALIZED FREE ENERGY PREDICTED BY IDOCK:   -5.53 KCAL/MOL
REMARK 922        TOTAL FREE ENERGY PREDICTED BY IDOCK:   -6.70 KCAL/MOL
REMARK 923 INTER-LIGAND FREE ENERGY PREDICTED BY IDOCK:   -6.49 KCAL/MOL
REMARK 924 INTRA-LIGAND FREE ENERGY PREDICTED BY IDOCK:   -0.21 KCAL/MOL
REMARK 927      BINDING AFFINITY PREDICTED BY RF-SCORE:    0.00 PKD
ROOT
HETATM    1  C   UNL     1     -13.546  13.833  72.428  1.00  0.00    -0.588 C  
HETATM    2  N   UNL     1     -13.111  14.424  71.170  1.00  0.00    -0.345 NA 
HETATM    3  H   UNL     1     -13.844  14.376  70.462  1.00  0.00     0.000 HD 
ENDROOT
BRANCH   2   4
HETATM    4  C   UNL     1     -12.637  15.800  71.359  1.00  0.00    -0.455 C  
BRANCH   4   5
HETATM    5  C   UNL     1     -11.556  16.125  70.314  1.00  0.00    -0.271 C  
BRANCH   5   6
HETATM    6  C   UNL     1     -11.766  15.411  68.996  1.00  0.00    -0.380 C  
HETATM    7  C   UNL     1     -10.896  15.355  67.959  1.00  0.00    -0.292 C  
HETATM    8  C   UNL     1      -9.600  16.064  68.065  1.00  0.00    -0.215 A  
HETATM    9  C   UNL     1      -8.609  15.633  68.958  1.00  0.00    -0.232 A  
HETATM   10  C   UNL     1      -7.399  16.318  69.052  1.00  0.00    -0.214 A  
HETATM   11  C   UNL     1      -7.166  17.432  68.248  1.00  0.00    -0.214 A  
HETATM   12  C   UNL     1      -8.139  17.858  67.342  1.00  0.00    -0.217 A  
HETATM   13  C   UNL     1      -9.359  17.175  67.242  1.00  0.00    -0.242 A  
HETATM   14  C   UNL     1     -10.400  17.592  66.235  1.00  0.00    -0.335 C  
HETATM   15  C   UNL     1     -10.523  16.561  65.110  1.00  0.00    -0.169 C  
HETATM   16  C   UNL     1     -11.104  15.190  65.420  1.00  0.00    -0.371 A  
HETATM   17  C   UNL     1     -11.428  14.401  64.293  1.00  0.00    -0.226 A  
HETATM   18  C   UNL     1     -11.943  13.114  64.425  1.00  0.00    -0.454 A  
HETATM   19  C   UNL     1     -12.138  12.580  65.690  1.00  0.00    -0.464 A  
HETATM   20  C   UNL     1     -11.810  13.334  66.818  1.00  0.00    -0.448 A  
HETATM   21  C   UNL     1     -11.296  14.643  66.710  1.00  0.00    -0.360 A  
ENDBRANCH   5   6
ENDBRANCH   4   5
ENDBRANCH   2   4
TORSDOF 3
ENDMDL
MODEL       33
REMARK 921   NORMALIZED FREE ENERGY PREDICTED BY IDOCK:   -5.53 KCAL/MOL
REMARK 922        TOTAL FREE ENERGY PREDICTED BY IDOCK:   -6.69 KCAL/MOL
REMARK 923 INTER-LIGAND FREE ENERGY PREDICTED BY IDOCK:   -6.53 KCAL/MOL
REMARK 924 INTRA-LIGAND FREE ENERGY PREDICTED BY IDOCK:   -0.16 KCAL/MOL
REMARK 927      BINDING AFFINITY PREDICTED BY RF-SCORE:    0.00 PKD
ROOT
HETATM    1  C   UNL     1     -12.248  15.633  72.307  1.00  0.00    -0.439 C  
HETATM    2  N   UNL     1     -11.397  14.848  71.424  1.00  0.00    -0.549 NA 
HETATM    3  H   UNL     1     -10.621  14.425  71.933  1.00  0.00     0.000 HD 
ENDROOT
BRANCH   2   4
HETATM    4  C   UNL     1     -12.170  13.840  70.689  1.00  0.00    -0.363 C  
BRANCH   4   5
HETATM    5  C   UNL     1     -11.993  14.051  69.175  1.00  0.00    -0.400 C  
BRANCH   5   6
HETATM    6  C   UNL     1     -11.294  12.898  68.490  1.00  0.00    -0.324 C  
HETATM    7  C   UNL     1     -10.767  12.898  67.241  1.00  0.00    -0.260 C  
HETATM    8  C   UNL     1     -10.876  14.121  66.413  1.00  0.00    -0.304 A  
HETATM    9  C   UNL     1     -10.170  15.286  66.743  1.00  0.00    -0.273 A  
HETATM   10  C   UNL     1     -10.292  16.431  65.958  1.00  0.00    -0.365 A  
HETATM   11  C   UNL     1     -11.112  16.417  64.831  1.00  0.00    -0.249 A  
HETATM   12  C   UNL     1     -11.805  15.256  64.484  1.00  0.00    -0.298 A  
HETATM   13  C   UNL     1     -11.689  14.101  65.268  1.00  0.00    -0.353 A  
HETATM   14  C   UNL     1     -12.390  12.825  64.879  1.00  0.00    -0.551 C  
HETATM   15  C   UNL     1     -11.390  11.767  64.406  1.00  0.00    -0.373 C  
HETATM   16  C   UNL     1     -10.430  11.151  65.411  1.00  0.00    -0.321 A  
HETATM   17  C   UNL     1      -9.732  10.008  64.958  1.00  0.00    -0.386 A  
HETATM   18  C   UNL     1      -8.800   9.355  65.762  1.00  0.00    -0.204 A  
HETATM   19  C   UNL     1      -8.538   9.836  67.036  1.00  0.00    -0.127 A  
HETATM   20  C   UNL     1      -9.203  10.972  67.499  1.00  0.00    -0.149 A  
HETATM   21  C   UNL     1     -10.157  11.646  66.707  1.00  0.00    -0.242 A  
ENDBRANCH   5   6
ENDBRANCH   4   5
ENDBRANCH   2   4
TORSDOF 3
ENDMDL
MODEL       34
REMARK 921   NORMALIZED FREE ENERGY PREDICTED BY IDOCK:   -5.43 KCAL/MOL
REMARK 922        TOTAL FREE ENERGY PREDICTED BY IDOCK:   -6.58 KCAL/MOL
REMARK 923 INTER-LIGAND FREE ENERGY PREDICTED BY IDOCK:   -6.40 KCAL/MOL
REMARK 924 INTRA-LIGAND FREE ENERGY PREDICTED BY IDOCK:   -0.19 KCAL/MOL
REMARK 927      BINDING AFFINITY PREDICTED BY RF-SCORE:    0.00 PKD
ROOT
HETATM    1  C   UNL     1     -11.346  16.066  68.579  1.00  0.00    -0.382 C  
HETATM    2  N   UNL     1     -12.389  15.424  69.367  1.00  0.00    -0.592 NA 
HETATM    3  H   UNL     1     -12.940  14.778  68.802  1.00  0.00     0.000 HD 
ENDROOT
BRANCH   2   4
HETATM    4  C   UNL     1     -11.834  14.760  70.553  1.00  0.00    -0.302 C  
BRANCH   4   5
HETATM    5  C   UNL     1     -12.177  13.261  70.518  1.00  0.00    -0.416 C  
BRANCH   5   6
HETATM    6  C   UNL     1     -11.585  12.542  69.324  1.00  0.00    -0.378 C  
HETATM    7  C   UNL     1     -11.439  11.203  69.178  1.00  0.00    -0.366 C  
HETATM    8  C   UNL     1     -11.867  10.306  70.276  1.00  0.00    -0.372 A  
HETATM    9  C   UNL     1     -13.222  10.152  70.600  1.00  0.00    -0.197 A  
HETATM   10  C   UNL     1     -13.606   9.311  71.643  1.00  0.00    -0.448 A  
HETATM   11  C   UNL     1     -12.641   8.610  72.363  1.00  0.00    -0.426 A  
HETATM   12  C   UNL     1     -11.290   8.743  72.035  1.00  0.00    -0.441 A  
HETATM   13  C   UNL     1     -10.895   9.587  70.989  1.00  0.00    -0.423 A  
HETATM   14  C   UNL     1      -9.446   9.703  70.591  1.00  0.00    -0.190 C  
HETATM   15  C   UNL     1      -9.193   9.045  69.232  1.00  0.00    -0.145 C  
HETATM   16  C   UNL     1      -9.779   9.677  67.980  1.00  0.00    -0.167 A  
HETATM   17  C   UNL     1      -9.285   9.169  66.758  1.00  0.00    -0.195 A  
HETATM   18  C   UNL     1      -9.751   9.636  65.530  1.00  0.00    -0.372 A  
HETATM   19  C   UNL     1     -10.731  10.617  65.497  1.00  0.00    -0.105 A  
HETATM   20  C   UNL     1     -11.246  11.122  66.692  1.00  0.00    -0.186 A  
HETATM   21  C   UNL     1     -10.783  10.672  67.947  1.00  0.00    -0.292 A  
ENDBRANCH   5   6
ENDBRANCH   4   5
ENDBRANCH   2   4
TORSDOF 3
ENDMDL
MODEL       35
REMARK 921   NORMALIZED FREE ENERGY PREDICTED BY IDOCK:   -5.36 KCAL/MOL
REMARK 922        TOTAL FREE ENERGY PREDICTED BY IDOCK:   -6.50 KCAL/MOL
REMARK 923 INTER-LIGAND FREE ENERGY PREDICTED BY IDOCK:   -6.24 KCAL/MOL
REMARK 924 INTRA-LIGAND FREE ENERGY PREDICTED BY IDOCK:   -0.26 KCAL/MOL
REMARK 927      BINDING AFFINITY PREDICTED BY RF-SCORE:    0.00 PKD
ROOT
HETATM    1  C   UNL     1      -5.741  15.081  70.428  1.00  0.00    -0.143 C  
HETATM    2  N   UNL     1      -6.762  15.518  69.486  1.00  0.00    -0.168 NA 
HETATM    3  H   UNL     1      -7.658  15.668  69.950  1.00  0.00     0.000 HD 
ENDROOT
BRANCH   2   4
HETATM    4  C   UNL     1      -6.335  16.711  68.745  1.00  0.00    -0.152 C  
BRANCH   4   5
HETATM    5  C   UNL     1      -6.515  16.477  67.235  1.00  0.00    -0.216 C  
BRANCH   5   6
HETATM    6  C   UNL     1      -7.720  15.624  66.903  1.00  0.00    -0.238 C  
HETATM    7  C   UNL     1      -9.009  16.036  66.841  1.00  0.00    -0.253 C  
HETATM    8  C   UNL     1      -9.330  17.450  67.138  1.00  0.00    -0.246 A  
HETATM    9  C   UNL     1      -8.928  18.481  66.277  1.00  0.00    -0.219 A  
HETATM   10  C   UNL     1      -9.230  19.808  66.577  1.00  0.00    -0.466 A  
HETATM   11  C   UNL     1      -9.944  20.115  67.734  1.00  0.00    -0.549 A  
HETATM   12  C   UNL     1     -10.364  19.094  68.588  1.00  0.00    -0.311 A  
HETATM   13  C   UNL     1     -10.064  17.757  68.295  1.00  0.00    -0.371 A  
HETATM   14  C   UNL     1     -10.553  16.640  69.180  1.00  0.00    -0.340 C  
HETATM   15  C   UNL     1     -11.647  15.824  68.486  1.00  0.00    -0.367 C  
HETATM   16  C   UNL     1     -11.283  14.963  67.287  1.00  0.00    -0.348 A  
HETATM   17  C   UNL     1     -12.278  14.048  66.875  1.00  0.00    -0.415 A  
HETATM   18  C   UNL     1     -12.093  13.214  65.774  1.00  0.00    -0.502 A  
HETATM   19  C   UNL     1     -10.910  13.282  65.053  1.00  0.00    -0.335 A  
HETATM   20  C   UNL     1      -9.920  14.190  65.432  1.00  0.00    -0.321 A  
HETATM   21  C   UNL     1     -10.080  15.038  66.548  1.00  0.00    -0.286 A  
ENDBRANCH   5   6
ENDBRANCH   4   5
ENDBRANCH   2   4
TORSDOF 3
ENDMDL
MODEL       36
REMARK 921   NORMALIZED FREE ENERGY PREDICTED BY IDOCK:   -5.33 KCAL/MOL
REMARK 922        TOTAL FREE ENERGY PREDICTED BY IDOCK:   -6.46 KCAL/MOL
REMARK 923 INTER-LIGAND FREE ENERGY PREDICTED BY IDOCK:   -6.07 KCAL/MOL
REMARK 924 INTRA-LIGAND FREE ENERGY PREDICTED BY IDOCK:   -0.39 KCAL/MOL
REMARK 927      BINDING AFFINITY PREDICTED BY RF-SCORE:    0.00 PKD
ROOT
HETATM    1  C   UNL     1     -10.537  15.628  65.230  1.00  0.00    -0.426 C  
HETATM    2  N   UNL     1     -10.918  14.403  64.541  1.00  0.00    -0.600 NA 
HETATM    3  H   UNL     1     -10.111  13.801  64.376  1.00  0.00     0.000 HD 
ENDROOT
BRANCH   2   4
HETATM    4  C   UNL     1     -11.982  13.690  65.259  1.00  0.00    -0.376 C  
BRANCH   4   5
HETATM    5  C   UNL     1     -12.073  14.211  66.703  1.00  0.00    -0.480 C  
BRANCH   5   6
HETATM    6  C   UNL     1     -12.016  13.109  67.739  1.00  0.00    -0.352 C  
HETATM    7  C   UNL     1     -10.920  12.696  68.420  1.00  0.00    -0.284 C  
HETATM    8  C   UNL     1      -9.616  13.342  68.148  1.00  0.00    -0.227 A  
HETATM    9  C   UNL     1      -9.376  14.674  68.513  1.00  0.00    -0.201 A  
HETATM   10  C   UNL     1      -8.146  15.269  68.240  1.00  0.00    -0.137 A  
HETATM   11  C   UNL     1      -7.142  14.536  67.611  1.00  0.00    -0.202 A  
HETATM   12  C   UNL     1      -7.364  13.203  67.261  1.00  0.00    -0.057 A  
HETATM   13  C   UNL     1      -8.599  12.597  67.531  1.00  0.00    -0.185 A  
HETATM   14  C   UNL     1      -8.837  11.145  67.204  1.00  0.00    -0.143 C  
HETATM   15  C   UNL     1      -8.928  10.300  68.478  1.00  0.00    -0.134 C  
HETATM   16  C   UNL     1     -10.120  10.480  69.404  1.00  0.00    -0.233 A  
HETATM   17  C   UNL     1     -10.264   9.491  70.404  1.00  0.00    -0.337 A  
HETATM   18  C   UNL     1     -11.295   9.542  71.339  1.00  0.00    -0.462 A  
HETATM   19  C   UNL     1     -12.202  10.589  71.303  1.00  0.00    -0.472 A  
HETATM   20  C   UNL     1     -12.071  11.587  70.335  1.00  0.00    -0.471 A  
HETATM   21  C   UNL     1     -11.041  11.552  69.372  1.00  0.00    -0.287 A  
ENDBRANCH   5   6
ENDBRANCH   4   5
ENDBRANCH   2   4
TORSDOF 3
ENDMDL
MODEL       37
REMARK 921   NORMALIZED FREE ENERGY PREDICTED BY IDOCK:   -5.32 KCAL/MOL
REMARK 922        TOTAL FREE ENERGY PREDICTED BY IDOCK:   -6.45 KCAL/MOL
REMARK 923 INTER-LIGAND FREE ENERGY PREDICTED BY IDOCK:   -6.24 KCAL/MOL
REMARK 924 INTRA-LIGAND FREE ENERGY PREDICTED BY IDOCK:   -0.21 KCAL/MOL
REMARK 927      BINDING AFFINITY PREDICTED BY RF-SCORE:    0.00 PKD
ROOT
HETATM    1  C   UNL     1      -9.432   9.642  65.703  1.00  0.00    -0.255 C  
HETATM    2  N   UNL     1      -9.676  11.078  65.710  1.00  0.00    -0.213 NA 
HETATM    3  H   UNL     1      -9.267  11.530  64.892  1.00  0.00     0.000 HD 
ENDROOT
BRANCH   2   4
HETATM    4  C   UNL     1     -11.107  11.380  65.832  1.00  0.00    -0.162 C  
BRANCH   4   5
HETATM    5  C   UNL     1     -11.598  11.011  67.242  1.00  0.00    -0.021 C  
BRANCH   5   6
HETATM    6  C   UNL     1     -11.721  12.205  68.163  1.00  0.00    -0.402 C  
HETATM    7  C   UNL     1     -11.525  12.216  69.504  1.00  0.00    -0.334 C  
HETATM    8  C   UNL     1     -11.172  10.954  70.191  1.00  0.00    -0.317 A  
HETATM    9  C   UNL     1      -9.929  10.338  69.985  1.00  0.00    -0.123 A  
HETATM   10  C   UNL     1      -9.618   9.144  70.633  1.00  0.00    -0.312 A  
HETATM   11  C   UNL     1     -10.540   8.561  71.500  1.00  0.00    -0.333 A  
HETATM   12  C   UNL     1     -11.773   9.176  71.726  1.00  0.00    -0.456 A  
HETATM   13  C   UNL     1     -12.095  10.376  71.078  1.00  0.00    -0.488 A  
HETATM   14  C   UNL     1     -13.401  11.078  71.349  1.00  0.00    -0.176 C  
HETATM   15  C   UNL     1     -13.180  12.370  72.139  1.00  0.00    -0.491 C  
HETATM   16  C   UNL     1     -12.477  13.540  71.468  1.00  0.00    -0.289 A  
HETATM   17  C   UNL     1     -12.549  14.768  72.163  1.00  0.00    -0.410 A  
HETATM   18  C   UNL     1     -11.929  15.919  71.681  1.00  0.00    -0.553 A  
HETATM   19  C   UNL     1     -11.214  15.865  70.494  1.00  0.00    -0.395 A  
HETATM   20  C   UNL     1     -11.116  14.659  69.798  1.00  0.00    -0.268 A  
HETATM   21  C   UNL     1     -11.742  13.483  70.262  1.00  0.00    -0.244 A  
ENDBRANCH   5   6
ENDBRANCH   4   5
ENDBRANCH   2   4
TORSDOF 3
ENDMDL
MODEL       38
REMARK 921   NORMALIZED FREE ENERGY PREDICTED BY IDOCK:   -5.32 KCAL/MOL
REMARK 922        TOTAL FREE ENERGY PREDICTED BY IDOCK:   -6.44 KCAL/MOL
REMARK 923 INTER-LIGAND FREE ENERGY PREDICTED BY IDOCK:   -6.24 KCAL/MOL
REMARK 924 INTRA-LIGAND FREE ENERGY PREDICTED BY IDOCK:   -0.21 KCAL/MOL
REMARK 927      BINDING AFFINITY PREDICTED BY RF-SCORE:    0.00 PKD
ROOT
HETATM    1  C   UNL     1     -11.464  12.286  63.610  1.00  0.00    -0.490 C  
HETATM    2  N   UNL     1     -12.716  12.799  64.147  1.00  0.00    -0.702 NA 
HETATM    3  H   UNL     1     -13.178  12.109  64.739  1.00  0.00     0.000 HD 
ENDROOT
BRANCH   2   4
HETATM    4  C   UNL     1     -12.517  14.069  64.856  1.00  0.00    -0.396 C  
BRANCH   4   5
HETATM    5  C   UNL     1     -11.217  14.736  64.374  1.00  0.00    -0.184 C  
BRANCH   5   6
HETATM    6  C   UNL     1     -10.871  15.992  65.144  1.00  0.00    -0.411 C  
HETATM    7  C   UNL     1     -10.241  16.057  66.342  1.00  0.00    -0.315 C  
HETATM    8  C   UNL     1      -9.848  14.801  67.020  1.00  0.00    -0.240 A  
HETATM    9  C   UNL     1      -8.836  13.982  66.500  1.00  0.00    -0.048 A  
HETATM   10  C   UNL     1      -8.485  12.799  67.146  1.00  0.00    -0.181 A  
HETATM   11  C   UNL     1      -9.135  12.428  68.322  1.00  0.00    -0.183 A  
HETATM   12  C   UNL     1     -10.132  13.246  68.858  1.00  0.00     0.012 A  
HETATM   13  C   UNL     1     -10.491  14.438  68.214  1.00  0.00    -0.245 A  
HETATM   14  C   UNL     1     -11.530  15.356  68.806  1.00  0.00    -0.352 C  
HETATM   15  C   UNL     1     -10.892  16.644  69.332  1.00  0.00    -0.295 C  
HETATM   16  C   UNL     1     -10.306  17.640  68.344  1.00  0.00    -0.375 A  
HETATM   17  C   UNL     1      -9.982  18.906  68.882  1.00  0.00    -0.437 A  
HETATM   18  C   UNL     1      -9.413  19.909  68.099  1.00  0.00    -0.431 A  
HETATM   19  C   UNL     1      -9.146  19.665  66.761  1.00  0.00    -0.424 A  
HETATM   20  C   UNL     1      -9.442  18.417  66.211  1.00  0.00    -0.246 A  
HETATM   21  C   UNL     1     -10.027  17.389  66.981  1.00  0.00    -0.295 A  
ENDBRANCH   5   6
ENDBRANCH   4   5
ENDBRANCH   2   4
TORSDOF 3
ENDMDL
MODEL       39
REMARK 921   NORMALIZED FREE ENERGY PREDICTED BY IDOCK:   -5.30 KCAL/MOL
REMARK 922        TOTAL FREE ENERGY PREDICTED BY IDOCK:   -6.42 KCAL/MOL
REMARK 923 INTER-LIGAND FREE ENERGY PREDICTED BY IDOCK:   -6.17 KCAL/MOL
REMARK 924 INTRA-LIGAND FREE ENERGY PREDICTED BY IDOCK:   -0.25 KCAL/MOL
REMARK 927      BINDING AFFINITY PREDICTED BY RF-SCORE:    0.00 PKD
ROOT
HETATM    1  C   UNL     1      -9.653  10.447  63.321  1.00  0.00    -0.308 C  
HETATM    2  N   UNL     1      -9.393  10.702  64.731  1.00  0.00    -0.215 NA 
HETATM    3  H   UNL     1     -10.083  11.339  65.128  1.00  0.00     0.000 HD 
ENDROOT
BRANCH   2   4
HETATM    4  C   UNL     1      -9.310   9.453  65.497  1.00  0.00    -0.251 C  
BRANCH   4   5
HETATM    5  C   UNL     1     -10.271   9.513  66.696  1.00  0.00    -0.310 C  
BRANCH   5   6
HETATM    6  C   UNL     1     -10.563  10.926  67.155  1.00  0.00    -0.302 C  
HETATM    7  C   UNL     1     -10.544  11.381  68.431  1.00  0.00    -0.230 C  
HETATM    8  C   UNL     1     -10.230  10.439  69.529  1.00  0.00    -0.258 A  
HETATM    9  C   UNL     1      -8.946   9.895  69.673  1.00  0.00    -0.232 A  
HETATM   10  C   UNL     1      -8.670   9.002  70.707  1.00  0.00    -0.269 A  
HETATM   11  C   UNL     1      -9.672   8.652  71.610  1.00  0.00    -0.348 A  
HETATM   12  C   UNL     1     -10.949   9.204  71.486  1.00  0.00    -0.434 A  
HETATM   13  C   UNL     1     -11.235  10.102  70.450  1.00  0.00    -0.402 A  
HETATM   14  C   UNL     1     -12.594  10.743  70.332  1.00  0.00    -0.395 C  
HETATM   15  C   UNL     1     -12.532  12.234  70.674  1.00  0.00    -0.323 C  
HETATM   16  C   UNL     1     -11.799  13.181  69.737  1.00  0.00    -0.386 A  
HETATM   17  C   UNL     1     -12.012  14.557  69.979  1.00  0.00    -0.388 A  
HETATM   18  C   UNL     1     -11.384  15.539  69.216  1.00  0.00    -0.330 A  
HETATM   19  C   UNL     1     -10.520  15.168  68.198  1.00  0.00    -0.245 A  
HETATM   20  C   UNL     1     -10.281  13.815  67.951  1.00  0.00    -0.245 A  
HETATM   21  C   UNL     1     -10.911  12.802  68.704  1.00  0.00    -0.295 A  
ENDBRANCH   5   6
ENDBRANCH   4   5
ENDBRANCH   2   4
TORSDOF 3
ENDMDL
MODEL       40
REMARK 921   NORMALIZED FREE ENERGY PREDICTED BY IDOCK:   -5.27 KCAL/MOL
REMARK 922        TOTAL FREE ENERGY PREDICTED BY IDOCK:   -6.38 KCAL/MOL
REMARK 923 INTER-LIGAND FREE ENERGY PREDICTED BY IDOCK:   -6.17 KCAL/MOL
REMARK 924 INTRA-LIGAND FREE ENERGY PREDICTED BY IDOCK:   -0.22 KCAL/MOL
REMARK 927      BINDING AFFINITY PREDICTED BY RF-SCORE:    0.00 PKD
ROOT
HETATM    1  C   UNL     1     -12.215  12.177  63.628  1.00  0.00    -0.562 C  
HETATM    2  N   UNL     1     -13.112  12.499  64.730  1.00  0.00    -0.814 NA 
HETATM    3  H   UNL     1     -13.069  11.792  65.464  1.00  0.00     0.000 HD 
ENDROOT
BRANCH   2   4
HETATM    4  C   UNL     1     -12.851  13.842  65.261  1.00  0.00    -0.384 C  
BRANCH   4   5
HETATM    5  C   UNL     1     -12.397  13.742  66.728  1.00  0.00    -0.365 C  
BRANCH   5   6
HETATM    6  C   UNL     1     -10.895  13.642  66.881  1.00  0.00    -0.286 C  
HETATM    7  C   UNL     1     -10.183  13.850  68.014  1.00  0.00    -0.246 C  
HETATM    8  C   UNL     1     -10.895  14.237  69.253  1.00  0.00    -0.241 A  
HETATM    9  C   UNL     1     -11.740  13.335  69.916  1.00  0.00    -0.330 A  
HETATM   10  C   UNL     1     -12.410  13.719  71.076  1.00  0.00    -0.452 A  
HETATM   11  C   UNL     1     -12.235  15.002  71.589  1.00  0.00    -0.411 A  
HETATM   12  C   UNL     1     -11.381  15.901  70.947  1.00  0.00    -0.428 A  
HETATM   13  C   UNL     1     -10.703  15.524  69.780  1.00  0.00    -0.301 A  
HETATM   14  C   UNL     1      -9.740  16.466  69.103  1.00  0.00    -0.260 C  
HETATM   15  C   UNL     1      -8.295  15.989  69.267  1.00  0.00    -0.217 C  
HETATM   16  C   UNL     1      -7.845  14.722  68.557  1.00  0.00    -0.130 A  
HETATM   17  C   UNL     1      -6.450  14.500  68.542  1.00  0.00    -0.094 A  
HETATM   18  C   UNL     1      -5.896  13.366  67.950  1.00  0.00    -0.135 A  
HETATM   19  C   UNL     1      -6.728  12.423  67.365  1.00  0.00    -0.152 A  
HETATM   20  C   UNL     1      -8.111  12.614  67.382  1.00  0.00    -0.182 A  
HETATM   21  C   UNL     1      -8.694  13.757  67.967  1.00  0.00    -0.181 A  
ENDBRANCH   5   6
ENDBRANCH   4   5
ENDBRANCH   2   4
TORSDOF 3
ENDMDL
MODEL       41
REMARK 921   NORMALIZED FREE ENERGY PREDICTED BY IDOCK:   -5.26 KCAL/MOL
REMARK 922        TOTAL FREE ENERGY PREDICTED BY IDOCK:   -6.38 KCAL/MOL
REMARK 923 INTER-LIGAND FREE ENERGY PREDICTED BY IDOCK:   -6.06 KCAL/MOL
REMARK 924 INTRA-LIGAND FREE ENERGY PREDICTED BY IDOCK:   -0.32 KCAL/MOL
REMARK 927      BINDING AFFINITY PREDICTED BY RF-SCORE:    0.00 PKD
ROOT
HETATM    1  C   UNL     1      -6.978  11.501  67.100  1.00  0.00    -0.138 C  
HETATM    2  N   UNL     1      -7.503  12.858  67.033  1.00  0.00    -0.379 NA 
HETATM    3  H   UNL     1      -8.483  12.894  67.313  1.00  0.00     0.000 HD 
ENDROOT
BRANCH   2   4
HETATM    4  C   UNL     1      -6.685  13.790  67.818  1.00  0.00    -0.172 C  
BRANCH   4   5
HETATM    5  C   UNL     1      -7.570  14.525  68.840  1.00  0.00    -0.138 C  
BRANCH   5   6
HETATM    6  C   UNL     1      -8.064  15.867  68.344  1.00  0.00    -0.149 C  
HETATM    7  C   UNL     1      -9.316  16.162  67.919  1.00  0.00    -0.212 C  
HETATM    8  C   UNL     1     -10.340  15.092  67.898  1.00  0.00    -0.241 A  
HETATM    9  C   UNL     1     -10.842  14.544  69.087  1.00  0.00    -0.278 A  
HETATM   10  C   UNL     1     -11.798  13.532  69.048  1.00  0.00    -0.385 A  
HETATM   11  C   UNL     1     -12.270  13.066  67.822  1.00  0.00    -0.079 A  
HETATM   12  C   UNL     1     -11.790  13.619  66.633  1.00  0.00    -0.447 A  
HETATM   13  C   UNL     1     -10.827  14.636  66.663  1.00  0.00    -0.312 A  
HETATM   14  C   UNL     1     -10.337  15.277  65.390  1.00  0.00    -0.421 C  
HETATM   15  C   UNL     1     -10.848  16.714  65.263  1.00  0.00    -0.194 C  
HETATM   16  C   UNL     1     -10.325  17.776  66.217  1.00  0.00    -0.358 A  
HETATM   17  C   UNL     1     -10.637  19.109  65.869  1.00  0.00    -0.495 A  
HETATM   18  C   UNL     1     -10.246  20.183  66.666  1.00  0.00    -0.556 A  
HETATM   19  C   UNL     1      -9.539  19.948  67.835  1.00  0.00    -0.490 A  
HETATM   20  C   UNL     1      -9.233  18.638  68.208  1.00  0.00    -0.350 A  
HETATM   21  C   UNL     1      -9.611  17.534  67.414  1.00  0.00    -0.265 A  
ENDBRANCH   5   6
ENDBRANCH   4   5
ENDBRANCH   2   4
TORSDOF 3
ENDMDL
MODEL       42
REMARK 921   NORMALIZED FREE ENERGY PREDICTED BY IDOCK:   -5.26 KCAL/MOL
REMARK 922        TOTAL FREE ENERGY PREDICTED BY IDOCK:   -6.38 KCAL/MOL
REMARK 923 INTER-LIGAND FREE ENERGY PREDICTED BY IDOCK:   -6.00 KCAL/MOL
REMARK 924 INTRA-LIGAND FREE ENERGY PREDICTED BY IDOCK:   -0.38 KCAL/MOL
REMARK 927      BINDING AFFINITY PREDICTED BY RF-SCORE:    0.00 PKD
ROOT
HETATM    1  C   UNL     1      -9.972  19.184  68.296  1.00  0.00    -0.403 C  
HETATM    2  N   UNL     1      -8.724  18.680  67.739  1.00  0.00    -0.276 NA 
HETATM    3  H   UNL     1      -8.328  17.942  68.320  1.00  0.00     0.000 HD 
ENDROOT
BRANCH   2   4
HETATM    4  C   UNL     1      -8.895  18.237  66.350  1.00  0.00    -0.240 C  
BRANCH   4   5
HETATM    5  C   UNL     1     -10.384  17.974  66.067  1.00  0.00    -0.333 C  
BRANCH   5   6
HETATM    6  C   UNL     1     -10.639  16.634  65.412  1.00  0.00    -0.254 C  
HETATM    7  C   UNL     1     -10.791  15.443  66.040  1.00  0.00    -0.315 C  
HETATM    8  C   UNL     1     -10.686  15.388  67.516  1.00  0.00    -0.295 A  
HETATM    9  C   UNL     1     -11.660  15.977  68.335  1.00  0.00    -0.279 A  
HETATM   10  C   UNL     1     -11.540  15.923  69.722  1.00  0.00    -0.340 A  
HETATM   11  C   UNL     1     -10.453  15.273  70.303  1.00  0.00    -0.217 A  
HETATM   12  C   UNL     1      -9.488  14.667  69.496  1.00  0.00     0.167 A  
HETATM   13  C   UNL     1      -9.600  14.717  68.100  1.00  0.00    -0.213 A  
HETATM   14  C   UNL     1      -8.593  14.026  67.216  1.00  0.00    -0.228 C  
HETATM   15  C   UNL     1      -9.209  12.804  66.529  1.00  0.00    -0.190 C  
HETATM   16  C   UNL     1     -10.277  13.009  65.467  1.00  0.00    -0.296 A  
HETATM   17  C   UNL     1     -10.598  11.864  64.703  1.00  0.00    -0.353 A  
HETATM   18  C   UNL     1     -11.578  11.898  63.712  1.00  0.00    -0.555 A  
HETATM   19  C   UNL     1     -12.267  13.076  63.469  1.00  0.00    -0.580 A  
HETATM   20  C   UNL     1     -11.978  14.215  64.223  1.00  0.00    -0.460 A  
HETATM   21  C   UNL     1     -10.985  14.209  65.225  1.00  0.00    -0.339 A  
ENDBRANCH   5   6
ENDBRANCH   4   5
ENDBRANCH   2   4
TORSDOF 3
ENDMDL
MODEL       43
REMARK 921   NORMALIZED FREE ENERGY PREDICTED BY IDOCK:   -5.22 KCAL/MOL
REMARK 922        TOTAL FREE ENERGY PREDICTED BY IDOCK:   -6.33 KCAL/MOL
REMARK 923 INTER-LIGAND FREE ENERGY PREDICTED BY IDOCK:   -6.13 KCAL/MOL
REMARK 924 INTRA-LIGAND FREE ENERGY PREDICTED BY IDOCK:   -0.20 KCAL/MOL
REMARK 927      BINDING AFFINITY PREDICTED BY RF-SCORE:    0.00 PKD
ROOT
HETATM    1  C   UNL     1     -11.889  12.077  63.924  1.00  0.00    -0.448 C  
HETATM    2  N   UNL     1     -12.798  12.592  64.938  1.00  0.00    -0.800 NA 
HETATM    3  H   UNL     1     -12.673  12.112  65.829  1.00  0.00     0.000 HD 
ENDROOT
BRANCH   2   4
HETATM    4  C   UNL     1     -12.668  14.046  65.087  1.00  0.00    -0.389 C  
BRANCH   4   5
HETATM    5  C   UNL     1     -11.857  14.369  66.354  1.00  0.00    -0.402 C  
BRANCH   5   6
HETATM    6  C   UNL     1     -11.769  13.206  67.318  1.00  0.00    -0.425 C  
HETATM    7  C   UNL     1     -10.743  12.928  68.158  1.00  0.00    -0.258 C  
HETATM    8  C   UNL     1      -9.552  13.809  68.158  1.00  0.00    -0.216 A  
HETATM    9  C   UNL     1      -9.625  15.125  68.635  1.00  0.00    -0.213 A  
HETATM   10  C   UNL     1      -8.497  15.943  68.620  1.00  0.00    -0.200 A  
HETATM   11  C   UNL     1      -7.286  15.451  68.137  1.00  0.00    -0.124 A  
HETATM   12  C   UNL     1      -7.199  14.135  67.677  1.00  0.00    -0.195 A  
HETATM   13  C   UNL     1      -8.329  13.306  67.689  1.00  0.00    -0.181 A  
HETATM   14  C   UNL     1      -8.240  11.869  67.242  1.00  0.00    -0.170 C  
HETATM   15  C   UNL     1      -8.382  10.912  68.429  1.00  0.00    -0.136 C  
HETATM   16  C   UNL     1      -9.722  10.803  69.139  1.00  0.00    -0.181 A  
HETATM   17  C   UNL     1      -9.844   9.720  70.038  1.00  0.00    -0.295 A  
HETATM   18  C   UNL     1     -11.006   9.511  70.778  1.00  0.00    -0.389 A  
HETATM   19  C   UNL     1     -12.072  10.388  70.642  1.00  0.00    -0.443 A  
HETATM   20  C   UNL     1     -11.969  11.474  69.772  1.00  0.00    -0.415 A  
HETATM   21  C   UNL     1     -10.806  11.701  69.005  1.00  0.00    -0.247 A  
ENDBRANCH   5   6
ENDBRANCH   4   5
ENDBRANCH   2   4
TORSDOF 3
ENDMDL
MODEL       44
REMARK 921   NORMALIZED FREE ENERGY PREDICTED BY IDOCK:   -5.17 KCAL/MOL
REMARK 922        TOTAL FREE ENERGY PREDICTED BY IDOCK:   -6.27 KCAL/MOL
REMARK 923 INTER-LIGAND FREE ENERGY PREDICTED BY IDOCK:   -6.01 KCAL/MOL
REMARK 924 INTRA-LIGAND FREE ENERGY PREDICTED BY IDOCK:   -0.27 KCAL/MOL
REMARK 927      BINDING AFFINITY PREDICTED BY RF-SCORE:    0.00 PKD
ROOT
HETATM    1  C   UNL     1     -10.204  19.599  66.292  1.00  0.00    -0.498 C  
HETATM    2  N   UNL     1     -10.882  19.217  67.523  1.00  0.00    -0.461 NA 
HETATM    3  H   UNL     1     -11.804  18.823  67.334  1.00  0.00     0.000 HD 
ENDROOT
BRANCH   2   4
HETATM    4  C   UNL     1     -10.062  18.304  68.327  1.00  0.00    -0.386 C  
BRANCH   4   5
HETATM    5  C   UNL     1     -10.843  17.008  68.601  1.00  0.00    -0.284 C  
BRANCH   5   6
HETATM    6  C   UNL     1      -9.950  15.799  68.778  1.00  0.00    -0.214 C  
HETATM    7  C   UNL     1      -9.830  14.751  67.927  1.00  0.00    -0.212 C  
HETATM    8  C   UNL     1     -10.649  14.726  66.694  1.00  0.00    -0.299 A  
HETATM    9  C   UNL     1     -10.419  15.635  65.652  1.00  0.00    -0.402 A  
HETATM   10  C   UNL     1     -11.206  15.604  64.502  1.00  0.00    -0.337 A  
HETATM   11  C   UNL     1     -12.222  14.658  64.380  1.00  0.00    -0.473 A  
HETATM   12  C   UNL     1     -12.447  13.736  65.404  1.00  0.00    -0.532 A  
HETATM   13  C   UNL     1     -11.661  13.761  66.564  1.00  0.00    -0.386 A  
HETATM   14  C   UNL     1     -11.858  12.742  67.657  1.00  0.00    -0.396 C  
HETATM   15  C   UNL     1     -10.683  11.762  67.716  1.00  0.00    -0.244 C  
HETATM   16  C   UNL     1      -9.322  12.261  68.172  1.00  0.00    -0.205 A  
HETATM   17  C   UNL     1      -8.371  11.254  68.452  1.00  0.00    -0.152 A  
HETATM   18  C   UNL     1      -7.073  11.565  68.854  1.00  0.00    -0.111 A  
HETATM   19  C   UNL     1      -6.694  12.893  68.978  1.00  0.00    -0.095 A  
HETATM   20  C   UNL     1      -7.612  13.905  68.691  1.00  0.00    -0.130 A  
HETATM   21  C   UNL     1      -8.933  13.615  68.291  1.00  0.00    -0.187 A  
ENDBRANCH   5   6
ENDBRANCH   4   5
ENDBRANCH   2   4
TORSDOF 3
ENDMDL
MODEL       45
REMARK 921   NORMALIZED FREE ENERGY PREDICTED BY IDOCK:   -5.14 KCAL/MOL
REMARK 922        TOTAL FREE ENERGY PREDICTED BY IDOCK:   -6.24 KCAL/MOL
REMARK 923 INTER-LIGAND FREE ENERGY PREDICTED BY IDOCK:   -6.03 KCAL/MOL
REMARK 924 INTRA-LIGAND FREE ENERGY PREDICTED BY IDOCK:   -0.21 KCAL/MOL
REMARK 927      BINDING AFFINITY PREDICTED BY RF-SCORE:    0.00 PKD
ROOT
HETATM    1  C   UNL     1      -9.598  18.082  68.946  1.00  0.00    -0.231 C  
HETATM    2  N   UNL     1      -9.068  16.915  68.254  1.00  0.00    -0.228 NA 
HETATM    3  H   UNL     1      -8.242  17.151  67.704  1.00  0.00     0.000 HD 
ENDROOT
BRANCH   2   4
HETATM    4  C   UNL     1      -8.796  15.815  69.187  1.00  0.00    -0.250 C  
BRANCH   4   5
HETATM    5  C   UNL     1      -9.952  14.801  69.146  1.00  0.00    -0.184 C  
BRANCH   5   6
HETATM    6  C   UNL     1     -10.183  14.215  67.770  1.00  0.00    -0.242 C  
HETATM    7  C   UNL     1     -10.552  12.943  67.484  1.00  0.00    -0.234 C  
HETATM    8  C   UNL     1     -10.743  11.981  68.594  1.00  0.00    -0.266 A  
HETATM    9  C   UNL     1     -11.806  12.117  69.497  1.00  0.00    -0.386 A  
HETATM   10  C   UNL     1     -11.965  11.208  70.541  1.00  0.00    -0.475 A  
HETATM   11  C   UNL     1     -11.069  10.150  70.685  1.00  0.00    -0.397 A  
HETATM   12  C   UNL     1     -10.018   9.995  69.779  1.00  0.00    -0.276 A  
HETATM   13  C   UNL     1      -9.851  10.905  68.727  1.00  0.00    -0.203 A  
HETATM   14  C   UNL     1      -8.751  10.723  67.713  1.00  0.00    -0.130 C  
HETATM   15  C   UNL     1      -9.319  10.316  66.351  1.00  0.00    -0.201 C  
HETATM   16  C   UNL     1     -10.139  11.320  65.557  1.00  0.00    -0.306 A  
HETATM   17  C   UNL     1     -10.396  10.964  64.214  1.00  0.00    -0.436 A  
HETATM   18  C   UNL     1     -11.157  11.777  63.375  1.00  0.00    -0.448 A  
HETATM   19  C   UNL     1     -11.686  12.962  63.864  1.00  0.00    -0.526 A  
HETATM   20  C   UNL     1     -11.458  13.326  65.192  1.00  0.00    -0.319 A  
HETATM   21  C   UNL     1     -10.684  12.525  66.058  1.00  0.00    -0.292 A  
ENDBRANCH   5   6
ENDBRANCH   4   5
ENDBRANCH   2   4
TORSDOF 3
ENDMDL
MODEL       46
REMARK 921   NORMALIZED FREE ENERGY PREDICTED BY IDOCK:   -5.13 KCAL/MOL
REMARK 922        TOTAL FREE ENERGY PREDICTED BY IDOCK:   -6.23 KCAL/MOL
REMARK 923 INTER-LIGAND FREE ENERGY PREDICTED BY IDOCK:   -6.01 KCAL/MOL
REMARK 924 INTRA-LIGAND FREE ENERGY PREDICTED BY IDOCK:   -0.22 KCAL/MOL
REMARK 927      BINDING AFFINITY PREDICTED BY RF-SCORE:    0.00 PKD
ROOT
HETATM    1  C   UNL     1      -9.884  19.025  66.435  1.00  0.00    -0.378 C  
HETATM    2  N   UNL     1     -10.372  17.806  65.806  1.00  0.00    -0.609 NA 
HETATM    3  H   UNL     1      -9.942  17.659  64.893  1.00  0.00     0.000 HD 
ENDROOT
BRANCH   2   4
HETATM    4  C   UNL     1     -10.191  16.640  66.679  1.00  0.00    -0.303 C  
BRANCH   4   5
HETATM    5  C   UNL     1      -9.101  15.722  66.101  1.00  0.00    -0.377 C  
BRANCH   5   6
HETATM    6  C   UNL     1      -8.799  14.528  66.981  1.00  0.00    -0.256 C  
HETATM    7  C   UNL     1      -9.335  13.289  66.875  1.00  0.00    -0.244 C  
HETATM    8  C   UNL     1     -10.339  13.026  65.819  1.00  0.00    -0.296 A  
HETATM    9  C   UNL     1      -9.981  13.019  64.463  1.00  0.00    -0.148 A  
HETATM   10  C   UNL     1     -10.941  12.779  63.482  1.00  0.00    -0.325 A  
HETATM   11  C   UNL     1     -12.263  12.534  63.846  1.00  0.00    -0.590 A  
HETATM   12  C   UNL     1     -12.626  12.519  65.195  1.00  0.00    -0.358 A  
HETATM   13  C   UNL     1     -11.667  12.761  66.188  1.00  0.00    -0.458 A  
HETATM   14  C   UNL     1     -12.033  12.700  67.649  1.00  0.00    -0.309 C  
HETATM   15  C   UNL     1     -11.412  11.472  68.322  1.00  0.00    -0.368 C  
HETATM   16  C   UNL     1      -9.905  11.409  68.506  1.00  0.00    -0.200 A  
HETATM   17  C   UNL     1      -9.442  10.384  69.361  1.00  0.00    -0.204 A  
HETATM   18  C   UNL     1      -8.083  10.189  69.601  1.00  0.00    -0.178 A  
HETATM   19  C   UNL     1      -7.154  11.011  68.983  1.00  0.00    -0.106 A  
HETATM   20  C   UNL     1      -7.586  12.020  68.121  1.00  0.00    -0.120 A  
HETATM   21  C   UNL     1      -8.956  12.242  67.869  1.00  0.00    -0.186 A  
ENDBRANCH   5   6
ENDBRANCH   4   5
ENDBRANCH   2   4
TORSDOF 3
ENDMDL
MODEL       47
REMARK 921   NORMALIZED FREE ENERGY PREDICTED BY IDOCK:   -5.11 KCAL/MOL
REMARK 922        TOTAL FREE ENERGY PREDICTED BY IDOCK:   -6.20 KCAL/MOL
REMARK 923 INTER-LIGAND FREE ENERGY PREDICTED BY IDOCK:   -6.03 KCAL/MOL
REMARK 924 INTRA-LIGAND FREE ENERGY PREDICTED BY IDOCK:   -0.17 KCAL/MOL
REMARK 927      BINDING AFFINITY PREDICTED BY RF-SCORE:    0.00 PKD
ROOT
HETATM    1  C   UNL     1     -13.939  15.257  71.531  1.00  0.00    -0.532 C  
HETATM    2  N   UNL     1     -13.327  15.837  70.344  1.00  0.00    -0.724 NA 
HETATM    3  H   UNL     1     -13.525  16.835  70.272  1.00  0.00     0.000 HD 
ENDROOT
BRANCH   2   4
HETATM    4  C   UNL     1     -11.884  15.571  70.298  1.00  0.00    -0.357 C  
BRANCH   4   5
HETATM    5  C   UNL     1     -11.436  15.382  68.839  1.00  0.00    -0.354 C  
BRANCH   5   6
HETATM    6  C   UNL     1     -10.214  14.499  68.701  1.00  0.00    -0.243 C  
HETATM    7  C   UNL     1      -9.885  13.738  67.629  1.00  0.00    -0.234 C  
HETATM    8  C   UNL     1     -10.787  13.715  66.456  1.00  0.00    -0.283 A  
HETATM    9  C   UNL     1     -10.945  14.845  65.640  1.00  0.00    -0.347 A  
HETATM   10  C   UNL     1     -11.806  14.809  64.545  1.00  0.00    -0.428 A  
HETATM   11  C   UNL     1     -12.507  13.642  64.249  1.00  0.00    -0.304 A  
HETATM   12  C   UNL     1     -12.342  12.506  65.044  1.00  0.00    -0.522 A  
HETATM   13  C   UNL     1     -11.479  12.533  66.148  1.00  0.00    -0.426 A  
HETATM   14  C   UNL     1     -11.252  11.301  66.986  1.00  0.00    -0.324 C  
HETATM   15  C   UNL     1      -9.843  10.742  66.774  1.00  0.00    -0.233 C  
HETATM   16  C   UNL     1      -8.647  11.532  67.280  1.00  0.00    -0.150 A  
HETATM   17  C   UNL     1      -7.418  10.834  67.285  1.00  0.00    -0.101 A  
HETATM   18  C   UNL     1      -6.234  11.440  67.697  1.00  0.00    -0.062 A  
HETATM   19  C   UNL     1      -6.249  12.765  68.106  1.00  0.00    -0.088 A  
HETATM   20  C   UNL     1      -7.448  13.481  68.094  1.00  0.00    -0.132 A  
HETATM   21  C   UNL     1      -8.661  12.886  67.690  1.00  0.00    -0.185 A  
ENDBRANCH   5   6
ENDBRANCH   4   5
ENDBRANCH   2   4
TORSDOF 3
ENDMDL
MODEL       48
REMARK 921   NORMALIZED FREE ENERGY PREDICTED BY IDOCK:   -5.09 KCAL/MOL
REMARK 922        TOTAL FREE ENERGY PREDICTED BY IDOCK:   -6.18 KCAL/MOL
REMARK 923 INTER-LIGAND FREE ENERGY PREDICTED BY IDOCK:   -5.97 KCAL/MOL
REMARK 924 INTRA-LIGAND FREE ENERGY PREDICTED BY IDOCK:   -0.21 KCAL/MOL
REMARK 927      BINDING AFFINITY PREDICTED BY RF-SCORE:    0.00 PKD
ROOT
HETATM    1  C   UNL     1     -12.819  10.265  70.803  1.00  0.00    -0.344 C  
HETATM    2  N   UNL     1     -11.860  10.349  69.710  1.00  0.00    -0.412 NA 
HETATM    3  H   UNL     1     -11.663  11.318  69.460  1.00  0.00     0.000 HD 
ENDROOT
BRANCH   2   4
HETATM    4  C   UNL     1     -10.629   9.612  70.018  1.00  0.00    -0.260 C  
BRANCH   4   5
HETATM    5  C   UNL     1      -9.491  10.096  69.103  1.00  0.00    -0.215 C  
BRANCH   5   6
HETATM    6  C   UNL     1      -9.985  10.814  67.866  1.00  0.00    -0.196 C  
HETATM    7  C   UNL     1     -10.173  10.273  66.638  1.00  0.00    -0.294 C  
HETATM    8  C   UNL     1      -9.861   8.841  66.425  1.00  0.00    -0.352 A  
HETATM    9  C   UNL     1     -10.634   7.834  67.021  1.00  0.00    -0.396 A  
HETATM   10  C   UNL     1     -10.320   6.492  66.817  1.00  0.00    -0.279 A  
HETATM   11  C   UNL     1      -9.239   6.144  66.011  1.00  0.00    -0.116 A  
HETATM   12  C   UNL     1      -8.474   7.139  65.399  1.00  0.00    -0.090 A  
HETATM   13  C   UNL     1      -8.782   8.492  65.598  1.00  0.00    -0.213 A  
HETATM   14  C   UNL     1      -7.998   9.576  64.905  1.00  0.00    -0.121 C  
HETATM   15  C   UNL     1      -8.838  10.259  63.823  1.00  0.00    -0.234 C  
HETATM   16  C   UNL     1     -10.021  11.121  64.235  1.00  0.00    -0.359 A  
HETATM   17  C   UNL     1     -10.574  11.920  63.209  1.00  0.00    -0.420 A  
HETATM   18  C   UNL     1     -11.677  12.740  63.435  1.00  0.00    -0.556 A  
HETATM   19  C   UNL     1     -12.260  12.773  64.693  1.00  0.00    -0.510 A  
HETATM   20  C   UNL     1     -11.742  11.980  65.718  1.00  0.00    -0.313 A  
HETATM   21  C   UNL     1     -10.620  11.149  65.516  1.00  0.00    -0.289 A  
ENDBRANCH   5   6
ENDBRANCH   4   5
ENDBRANCH   2   4
TORSDOF 3
ENDMDL
MODEL       49
REMARK 921   NORMALIZED FREE ENERGY PREDICTED BY IDOCK:   -5.04 KCAL/MOL
REMARK 922        TOTAL FREE ENERGY PREDICTED BY IDOCK:   -6.12 KCAL/MOL
REMARK 923 INTER-LIGAND FREE ENERGY PREDICTED BY IDOCK:   -5.89 KCAL/MOL
REMARK 924 INTRA-LIGAND FREE ENERGY PREDICTED BY IDOCK:   -0.23 KCAL/MOL
REMARK 927      BINDING AFFINITY PREDICTED BY RF-SCORE:    0.00 PKD
ROOT
HETATM    1  C   UNL     1     -12.012  14.340  66.627  1.00  0.00    -0.430 C  
HETATM    2  N   UNL     1     -12.332  14.535  68.034  1.00  0.00    -0.594 NA 
HETATM    3  H   UNL     1     -13.340  14.564  68.187  1.00  0.00     0.000 HD 
ENDROOT
BRANCH   2   4
HETATM    4  C   UNL     1     -11.690  13.519  68.877  1.00  0.00    -0.339 C  
BRANCH   4   5
HETATM    5  C   UNL     1     -11.762  12.147  68.186  1.00  0.00    -0.402 C  
BRANCH   5   6
HETATM    6  C   UNL     1     -11.731  10.988  69.157  1.00  0.00    -0.403 C  
HETATM    7  C   UNL     1     -10.797  10.007  69.215  1.00  0.00    -0.261 C  
HETATM    8  C   UNL     1      -9.684  10.012  68.239  1.00  0.00    -0.155 A  
HETATM    9  C   UNL     1      -8.690  11.001  68.277  1.00  0.00    -0.144 A  
HETATM   10  C   UNL     1      -7.655  10.996  67.344  1.00  0.00    -0.110 A  
HETATM   11  C   UNL     1      -7.598   9.998  66.372  1.00  0.00    -0.104 A  
HETATM   12  C   UNL     1      -8.573   8.999  66.338  1.00  0.00    -0.136 A  
HETATM   13  C   UNL     1      -9.618   8.997  67.271  1.00  0.00    -0.206 A  
HETATM   14  C   UNL     1     -10.649   7.898  67.278  1.00  0.00    -0.365 C  
HETATM   15  C   UNL     1     -10.481   6.991  68.500  1.00  0.00    -0.226 C  
HETATM   16  C   UNL     1     -10.790   7.543  69.882  1.00  0.00    -0.250 A  
HETATM   17  C   UNL     1     -10.867   6.580  70.915  1.00  0.00    -0.302 A  
HETATM   18  C   UNL     1     -11.116   6.944  72.236  1.00  0.00    -0.284 A  
HETATM   19  C   UNL     1     -11.286   8.282  72.558  1.00  0.00    -0.455 A  
HETATM   20  C   UNL     1     -11.198   9.252  71.558  1.00  0.00    -0.457 A  
HETATM   21  C   UNL     1     -10.956   8.908  70.212  1.00  0.00    -0.266 A  
ENDBRANCH   5   6
ENDBRANCH   4   5
ENDBRANCH   2   4
TORSDOF 3
ENDMDL
MODEL       50
REMARK 921   NORMALIZED FREE ENERGY PREDICTED BY IDOCK:   -5.03 KCAL/MOL
REMARK 922        TOTAL FREE ENERGY PREDICTED BY IDOCK:   -6.11 KCAL/MOL
REMARK 923 INTER-LIGAND FREE ENERGY PREDICTED BY IDOCK:   -5.86 KCAL/MOL
REMARK 924 INTRA-LIGAND FREE ENERGY PREDICTED BY IDOCK:   -0.25 KCAL/MOL
REMARK 927      BINDING AFFINITY PREDICTED BY RF-SCORE:    0.00 PKD
ROOT
HETATM    1  C   UNL     1     -12.838  10.242  71.460  1.00  0.00    -0.452 C  
HETATM    2  N   UNL     1     -12.275   9.279  70.524  1.00  0.00    -0.483 NA 
HETATM    3  H   UNL     1     -12.972   8.964  69.849  1.00  0.00     0.000 HD 
ENDROOT
BRANCH   2   4
HETATM    4  C   UNL     1     -11.083   9.813  69.855  1.00  0.00    -0.254 C  
BRANCH   4   5
HETATM    5  C   UNL     1     -11.236  11.330  69.650  1.00  0.00    -0.321 C  
BRANCH   5   6
HETATM    6  C   UNL     1     -11.545  11.710  68.218  1.00  0.00    -0.378 C  
HETATM    7  C   UNL     1     -10.848  12.575  67.443  1.00  0.00    -0.272 C  
HETATM    8  C   UNL     1      -9.665  13.260  68.011  1.00  0.00    -0.223 A  
HETATM    9  C   UNL     1      -8.496  12.551  68.323  1.00  0.00    -0.165 A  
HETATM   10  C   UNL     1      -7.395  13.211  68.866  1.00  0.00    -0.019 A  
HETATM   11  C   UNL     1      -7.449  14.585  69.092  1.00  0.00    -0.118 A  
HETATM   12  C   UNL     1      -8.602  15.302  68.768  1.00  0.00    -0.190 A  
HETATM   13  C   UNL     1      -9.714  14.647  68.222  1.00  0.00    -0.215 A  
HETATM   14  C   UNL     1     -10.947  15.415  67.821  1.00  0.00    -0.311 C  
HETATM   15  C   UNL     1     -11.097  15.462  66.298  1.00  0.00    -0.226 C  
HETATM   16  C   UNL     1     -11.422  14.182  65.544  1.00  0.00    -0.324 A  
HETATM   17  C   UNL     1     -11.803  14.355  64.194  1.00  0.00    -0.316 A  
HETATM   18  C   UNL     1     -12.104  13.270  63.375  1.00  0.00    -0.508 A  
HETATM   19  C   UNL     1     -12.023  11.983  63.884  1.00  0.00    -0.542 A  
HETATM   20  C   UNL     1     -11.634  11.786  65.211  1.00  0.00    -0.193 A  
HETATM   21  C   UNL     1     -11.332  12.870  66.062  1.00  0.00    -0.354 A  
ENDBRANCH   5   6
ENDBRANCH   4   5
ENDBRANCH   2   4
TORSDOF 3
ENDMDL
MODEL       51
REMARK 921   NORMALIZED FREE ENERGY PREDICTED BY IDOCK:   -5.03 KCAL/MOL
REMARK 922        TOTAL FREE ENERGY PREDICTED BY IDOCK:   -6.11 KCAL/MOL
REMARK 923 INTER-LIGAND FREE ENERGY PREDICTED BY IDOCK:   -5.93 KCAL/MOL
REMARK 924 INTRA-LIGAND FREE ENERGY PREDICTED BY IDOCK:   -0.18 KCAL/MOL
REMARK 927      BINDING AFFINITY PREDICTED BY RF-SCORE:    0.00 PKD
ROOT
HETATM    1  C   UNL     1     -10.605   4.049  64.491  1.00  0.00    -0.180 C  
HETATM    2  N   UNL     1     -10.973   4.603  65.786  1.00  0.00    -0.812 NA 
HETATM    3  H   UNL     1     -11.243   3.870  66.442  1.00  0.00     0.000 HD 
ENDROOT
BRANCH   2   4
HETATM    4  C   UNL     1      -9.906   5.447  66.334  1.00  0.00    -0.176 C  
BRANCH   4   5
HETATM    5  C   UNL     1     -10.440   6.251  67.532  1.00  0.00    -0.295 C  
BRANCH   5   6
HETATM    6  C   UNL     1     -10.710   7.703  67.203  1.00  0.00    -0.361 C  
HETATM    7  C   UNL     1     -10.375   8.778  67.957  1.00  0.00    -0.273 C  
HETATM    8  C   UNL     1      -9.692   8.566  69.253  1.00  0.00    -0.173 A  
HETATM    9  C   UNL     1      -8.378   8.080  69.310  1.00  0.00    -0.134 A  
HETATM   10  C   UNL     1      -7.754   7.877  70.539  1.00  0.00    -0.086 A  
HETATM   11  C   UNL     1      -8.433   8.166  71.721  1.00  0.00    -0.186 A  
HETATM   12  C   UNL     1      -9.735   8.668  71.674  1.00  0.00    -0.348 A  
HETATM   13  C   UNL     1     -10.371   8.874  70.443  1.00  0.00    -0.240 A  
HETATM   14  C   UNL     1     -11.757   9.462  70.374  1.00  0.00    -0.195 C  
HETATM   15  C   UNL     1     -11.726  10.885  69.812  1.00  0.00    -0.413 C  
HETATM   16  C   UNL     1     -11.363  11.099  68.351  1.00  0.00    -0.357 A  
HETATM   17  C   UNL     1     -11.614  12.396  67.849  1.00  0.00    -0.415 A  
HETATM   18  C   UNL     1     -11.305  12.744  66.536  1.00  0.00    -0.369 A  
HETATM   19  C   UNL     1     -10.729  11.803  65.695  1.00  0.00    -0.328 A  
HETATM   20  C   UNL     1     -10.457  10.521  66.174  1.00  0.00    -0.237 A  
HETATM   21  C   UNL     1     -10.768  10.142  67.497  1.00  0.00    -0.347 A  
ENDBRANCH   5   6
ENDBRANCH   4   5
ENDBRANCH   2   4
TORSDOF 3
ENDMDL
MODEL       52
REMARK 921   NORMALIZED FREE ENERGY PREDICTED BY IDOCK:   -5.02 KCAL/MOL
REMARK 922        TOTAL FREE ENERGY PREDICTED BY IDOCK:   -6.10 KCAL/MOL
REMARK 923 INTER-LIGAND FREE ENERGY PREDICTED BY IDOCK:   -5.92 KCAL/MOL
REMARK 924 INTRA-LIGAND FREE ENERGY PREDICTED BY IDOCK:   -0.17 KCAL/MOL
REMARK 927      BINDING AFFINITY PREDICTED BY RF-SCORE:    0.00 PKD
ROOT
HETATM    1  C   UNL     1     -13.651  13.559  72.468  1.00  0.00    -0.569 C  
HETATM    2  N   UNL     1     -13.711  14.067  71.104  1.00  0.00    -0.167 NA 
HETATM    3  H   UNL     1     -14.668  14.074  70.751  1.00  0.00     0.000 HD 
ENDROOT
BRANCH   2   4
HETATM    4  C   UNL     1     -13.088  15.391  70.996  1.00  0.00    -0.501 C  
BRANCH   4   5
HETATM    5  C   UNL     1     -11.772  15.284  70.206  1.00  0.00    -0.341 C  
BRANCH   5   6
HETATM    6  C   UNL     1     -11.483  13.881  69.718  1.00  0.00    -0.281 C  
HETATM    7  C   UNL     1     -10.920  13.537  68.534  1.00  0.00    -0.291 C  
HETATM    8  C   UNL     1     -10.550  14.603  67.575  1.00  0.00    -0.257 A  
HETATM    9  C   UNL     1      -9.501  15.492  67.848  1.00  0.00    -0.201 A  
HETATM   10  C   UNL     1      -9.172  16.495  66.938  1.00  0.00    -0.244 A  
HETATM   11  C   UNL     1      -9.881  16.612  65.744  1.00  0.00    -0.241 A  
HETATM   12  C   UNL     1     -10.915  15.719  65.455  1.00  0.00    -0.317 A  
HETATM   13  C   UNL     1     -11.253  14.708  66.364  1.00  0.00    -0.336 A  
HETATM   14  C   UNL     1     -12.333  13.707  66.044  1.00  0.00    -0.493 C  
HETATM   15  C   UNL     1     -11.740  12.319  65.786  1.00  0.00    -0.445 C  
HETATM   16  C   UNL     1     -11.113  11.553  66.939  1.00  0.00    -0.366 A  
HETATM   17  C   UNL     1     -10.834  10.192  66.680  1.00  0.00    -0.084 A  
HETATM   18  C   UNL     1     -10.235   9.374  67.636  1.00  0.00    -0.281 A  
HETATM   19  C   UNL     1      -9.892   9.901  68.872  1.00  0.00    -0.179 A  
HETATM   20  C   UNL     1     -10.144  11.247  69.145  1.00  0.00    -0.093 A  
HETATM   21  C   UNL     1     -10.757  12.093  68.197  1.00  0.00    -0.238 A  
ENDBRANCH   5   6
ENDBRANCH   4   5
ENDBRANCH   2   4
TORSDOF 3
ENDMDL
MODEL       53
REMARK 921   NORMALIZED FREE ENERGY PREDICTED BY IDOCK:   -4.96 KCAL/MOL
REMARK 922        TOTAL FREE ENERGY PREDICTED BY IDOCK:   -6.03 KCAL/MOL
REMARK 923 INTER-LIGAND FREE ENERGY PREDICTED BY IDOCK:   -5.73 KCAL/MOL
REMARK 924 INTRA-LIGAND FREE ENERGY PREDICTED BY IDOCK:   -0.29 KCAL/MOL
REMARK 927      BINDING AFFINITY PREDICTED BY RF-SCORE:    0.00 PKD
ROOT
HETATM    1  C   UNL     1      -6.476  14.953  69.813  1.00  0.00    -0.164 C  
HETATM    2  N   UNL     1      -7.531  14.135  69.231  1.00  0.00    -0.309 NA 
HETATM    3  H   UNL     1      -8.454  14.520  69.430  1.00  0.00     0.000 HD 
ENDROOT
BRANCH   2   4
HETATM    4  C   UNL     1      -7.328  13.939  67.791  1.00  0.00    -0.162 C  
BRANCH   4   5
HETATM    5  C   UNL     1      -7.506  12.453  67.437  1.00  0.00    -0.157 C  
BRANCH   5   6
HETATM    6  C   UNL     1      -8.282  11.681  68.482  1.00  0.00    -0.144 C  
HETATM    7  C   UNL     1      -9.593  11.343  68.430  1.00  0.00    -0.197 C  
HETATM    8  C   UNL     1     -10.400  11.766  67.262  1.00  0.00    -0.231 A  
HETATM    9  C   UNL     1     -10.178  11.218  65.991  1.00  0.00    -0.295 A  
HETATM   10  C   UNL     1     -10.941  11.634  64.901  1.00  0.00    -0.345 A  
HETATM   11  C   UNL     1     -11.938  12.593  65.075  1.00  0.00    -0.467 A  
HETATM   12  C   UNL     1     -12.179  13.130  66.341  1.00  0.00    -0.396 A  
HETATM   13  C   UNL     1     -11.416  12.718  67.442  1.00  0.00    -0.396 A  
HETATM   14  C   UNL     1     -11.697  13.251  68.823  1.00  0.00    -0.366 C  
HETATM   15  C   UNL     1     -12.306  12.170  69.719  1.00  0.00    -0.091 C  
HETATM   16  C   UNL     1     -11.448  10.990  70.147  1.00  0.00    -0.383 A  
HETATM   17  C   UNL     1     -11.993  10.188  71.175  1.00  0.00    -0.480 A  
HETATM   18  C   UNL     1     -11.330   9.058  71.649  1.00  0.00    -0.430 A  
HETATM   19  C   UNL     1     -10.109   8.699  71.100  1.00  0.00    -0.290 A  
HETATM   20  C   UNL     1      -9.558   9.467  70.073  1.00  0.00    -0.272 A  
HETATM   21  C   UNL     1     -10.206  10.620  69.582  1.00  0.00    -0.156 A  
ENDBRANCH   5   6
ENDBRANCH   4   5
ENDBRANCH   2   4
TORSDOF 3
ENDMDL
MODEL       54
REMARK 921   NORMALIZED FREE ENERGY PREDICTED BY IDOCK:   -4.95 KCAL/MOL
REMARK 922        TOTAL FREE ENERGY PREDICTED BY IDOCK:   -6.02 KCAL/MOL
REMARK 923 INTER-LIGAND FREE ENERGY PREDICTED BY IDOCK:   -5.85 KCAL/MOL
REMARK 924 INTRA-LIGAND FREE ENERGY PREDICTED BY IDOCK:   -0.17 KCAL/MOL
REMARK 927      BINDING AFFINITY PREDICTED BY RF-SCORE:    0.00 PKD
ROOT
HETATM    1  C   UNL     1     -12.091  13.433  64.223  1.00  0.00    -0.424 C  
HETATM    2  N   UNL     1     -12.539  12.427  65.175  1.00  0.00    -0.599 NA 
HETATM    3  H   UNL     1     -12.493  11.489  64.776  1.00  0.00     0.000 HD 
ENDROOT
BRANCH   2   4
HETATM    4  C   UNL     1     -11.796  12.511  66.438  1.00  0.00    -0.381 C  
BRANCH   4   5
HETATM    5  C   UNL     1     -10.843  11.310  66.562  1.00  0.00    -0.319 C  
BRANCH   5   6
HETATM    6  C   UNL     1     -11.045  10.518  67.835  1.00  0.00    -0.367 C  
HETATM    7  C   UNL     1     -10.415   9.369  68.181  1.00  0.00    -0.267 C  
HETATM    8  C   UNL     1      -9.433   8.775  67.245  1.00  0.00    -0.200 A  
HETATM    9  C   UNL     1      -8.207   9.403  66.984  1.00  0.00    -0.116 A  
HETATM   10  C   UNL     1      -7.299   8.835  66.093  1.00  0.00    -0.086 A  
HETATM   11  C   UNL     1      -7.604   7.629  65.464  1.00  0.00    -0.092 A  
HETATM   12  C   UNL     1      -8.814   6.987  65.731  1.00  0.00    -0.088 A  
HETATM   13  C   UNL     1      -9.733   7.552  66.625  1.00  0.00    -0.273 A  
HETATM   14  C   UNL     1     -11.021   6.846  66.962  1.00  0.00    -0.404 C  
HETATM   15  C   UNL     1     -11.001   6.317  68.399  1.00  0.00    -0.409 C  
HETATM   16  C   UNL     1     -11.024   7.305  69.554  1.00  0.00    -0.182 A  
HETATM   17  C   UNL     1     -11.270   6.742  70.827  1.00  0.00    -0.352 A  
HETATM   18  C   UNL     1     -11.293   7.524  71.980  1.00  0.00    -0.314 A  
HETATM   19  C   UNL     1     -11.061   8.888  71.888  1.00  0.00    -0.442 A  
HETATM   20  C   UNL     1     -10.799   9.464  70.644  1.00  0.00    -0.346 A  
HETATM   21  C   UNL     1     -10.780   8.695  69.461  1.00  0.00    -0.189 A  
ENDBRANCH   5   6
ENDBRANCH   4   5
ENDBRANCH   2   4
TORSDOF 3
ENDMDL
MODEL       55
REMARK 921   NORMALIZED FREE ENERGY PREDICTED BY IDOCK:   -4.94 KCAL/MOL
REMARK 922        TOTAL FREE ENERGY PREDICTED BY IDOCK:   -6.00 KCAL/MOL
REMARK 923 INTER-LIGAND FREE ENERGY PREDICTED BY IDOCK:   -5.70 KCAL/MOL
REMARK 924 INTRA-LIGAND FREE ENERGY PREDICTED BY IDOCK:   -0.31 KCAL/MOL
REMARK 927      BINDING AFFINITY PREDICTED BY RF-SCORE:    0.00 PKD
ROOT
HETATM    1  C   UNL     1     -10.887   3.322  73.728  1.00  0.00    -0.223 C  
HETATM    2  N   UNL     1     -11.221   4.738  73.796  1.00  0.00    -0.329 NA 
HETATM    3  H   UNL     1     -12.145   4.885  74.202  1.00  0.00     0.000 HD 
ENDROOT
BRANCH   2   4
HETATM    4  C   UNL     1     -10.192   5.500  74.513  1.00  0.00    -0.269 C  
BRANCH   4   5
HETATM    5  C   UNL     1      -9.399   6.366  73.520  1.00  0.00    -0.145 C  
BRANCH   5   6
HETATM    6  C   UNL     1     -10.171   7.573  73.032  1.00  0.00    -0.360 C  
HETATM    7  C   UNL     1     -10.437   7.896  71.743  1.00  0.00    -0.272 C  
HETATM    8  C   UNL     1      -9.925   7.024  70.661  1.00  0.00    -0.194 A  
HETATM    9  C   UNL     1     -10.432   5.731  70.471  1.00  0.00    -0.331 A  
HETATM   10  C   UNL     1      -9.932   4.920  69.454  1.00  0.00    -0.282 A  
HETATM   11  C   UNL     1      -8.930   5.399  68.612  1.00  0.00    -0.115 A  
HETATM   12  C   UNL     1      -8.433   6.692  68.781  1.00  0.00    -0.123 A  
HETATM   13  C   UNL     1      -8.929   7.514  69.802  1.00  0.00    -0.141 A  
HETATM   14  C   UNL     1      -8.438   8.929  69.966  1.00  0.00    -0.141 C  
HETATM   15  C   UNL     1      -9.521   9.938  69.575  1.00  0.00    -0.239 C  
HETATM   16  C   UNL     1     -10.761  10.070  70.445  1.00  0.00    -0.369 A  
HETATM   17  C   UNL     1     -11.575  11.193  70.171  1.00  0.00    -0.410 A  
HETATM   18  C   UNL     1     -12.756  11.427  70.871  1.00  0.00    -0.397 A  
HETATM   19  C   UNL     1     -13.157  10.538  71.857  1.00  0.00    -0.567 A  
HETATM   20  C   UNL     1     -12.377   9.414  72.134  1.00  0.00    -0.368 A  
HETATM   21  C   UNL     1     -11.173   9.160  71.445  1.00  0.00    -0.419 A  
ENDBRANCH   5   6
ENDBRANCH   4   5
ENDBRANCH   2   4
TORSDOF 3
ENDMDL
MODEL       56
REMARK 921   NORMALIZED FREE ENERGY PREDICTED BY IDOCK:   -4.92 KCAL/MOL
REMARK 922        TOTAL FREE ENERGY PREDICTED BY IDOCK:   -5.98 KCAL/MOL
REMARK 923 INTER-LIGAND FREE ENERGY PREDICTED BY IDOCK:   -5.69 KCAL/MOL
REMARK 924 INTRA-LIGAND FREE ENERGY PREDICTED BY IDOCK:   -0.29 KCAL/MOL
REMARK 927      BINDING AFFINITY PREDICTED BY RF-SCORE:    0.00 PKD
ROOT
HETATM    1  C   UNL     1     -12.135  13.891  67.062  1.00  0.00    -0.415 C  
HETATM    2  N   UNL     1     -12.231  14.770  68.218  1.00  0.00    -0.591 NA 
HETATM    3  H   UNL     1     -13.200  15.022  68.416  1.00  0.00     0.000 HD 
ENDROOT
BRANCH   2   4
HETATM    4  C   UNL     1     -11.577  14.185  69.395  1.00  0.00    -0.304 C  
BRANCH   4   5
HETATM    5  C   UNL     1     -10.671  15.234  70.062  1.00  0.00    -0.297 C  
BRANCH   5   6
HETATM    6  C   UNL     1     -10.488  16.482  69.225  1.00  0.00    -0.326 C  
HETATM    7  C   UNL     1      -9.439  16.766  68.416  1.00  0.00    -0.241 C  
HETATM    8  C   UNL     1      -8.321  15.801  68.319  1.00  0.00    -0.163 A  
HETATM    9  C   UNL     1      -8.493  14.551  67.706  1.00  0.00    -0.176 A  
HETATM   10  C   UNL     1      -7.432  13.651  67.632  1.00  0.00    -0.191 A  
HETATM   11  C   UNL     1      -6.189  13.994  68.160  1.00  0.00    -0.132 A  
HETATM   12  C   UNL     1      -6.003  15.244  68.756  1.00  0.00    -0.088 A  
HETATM   13  C   UNL     1      -7.064  16.155  68.836  1.00  0.00    -0.166 A  
HETATM   14  C   UNL     1      -6.867  17.525  69.431  1.00  0.00    -0.140 C  
HETATM   15  C   UNL     1      -6.928  18.610  68.352  1.00  0.00    -0.278 C  
HETATM   16  C   UNL     1      -8.252  18.897  67.662  1.00  0.00    -0.290 A  
HETATM   17  C   UNL     1      -8.284  20.075  66.882  1.00  0.00    -0.368 A  
HETATM   18  C   UNL     1      -9.422  20.450  66.171  1.00  0.00    -0.255 A  
HETATM   19  C   UNL     1     -10.554  19.650  66.217  1.00  0.00    -0.585 A  
HETATM   20  C   UNL     1     -10.540  18.473  66.968  1.00  0.00    -0.421 A  
HETATM   21  C   UNL     1      -9.403  18.077  67.703  1.00  0.00    -0.259 A  
ENDBRANCH   5   6
ENDBRANCH   4   5
ENDBRANCH   2   4
TORSDOF 3
ENDMDL
MODEL       57
REMARK 921   NORMALIZED FREE ENERGY PREDICTED BY IDOCK:   -4.88 KCAL/MOL
REMARK 922        TOTAL FREE ENERGY PREDICTED BY IDOCK:   -5.93 KCAL/MOL
REMARK 923 INTER-LIGAND FREE ENERGY PREDICTED BY IDOCK:   -5.76 KCAL/MOL
REMARK 924 INTRA-LIGAND FREE ENERGY PREDICTED BY IDOCK:   -0.17 KCAL/MOL
REMARK 927      BINDING AFFINITY PREDICTED BY RF-SCORE:    0.00 PKD
ROOT
HETATM    1  C   UNL     1      -5.721  11.129  70.687  1.00  0.00    -0.125 C  
HETATM    2  N   UNL     1      -6.920  11.296  69.877  1.00  0.00    -0.349 NA 
HETATM    3  H   UNL     1      -7.571  11.953  70.307  1.00  0.00     0.000 HD 
ENDROOT
BRANCH   2   4
HETATM    4  C   UNL     1      -6.590  11.688  68.502  1.00  0.00    -0.061 C  
BRANCH   4   5
HETATM    5  C   UNL     1      -7.413  12.925  68.102  1.00  0.00    -0.126 C  
BRANCH   5   6
HETATM    6  C   UNL     1      -8.464  12.628  67.055  1.00  0.00    -0.150 C  
HETATM    7  C   UNL     1      -9.363  13.503  66.541  1.00  0.00    -0.227 C  
HETATM    8  C   UNL     1      -9.373  14.899  67.033  1.00  0.00    -0.240 A  
HETATM    9  C   UNL     1      -8.314  15.775  66.751  1.00  0.00    -0.309 A  
HETATM   10  C   UNL     1      -8.336  17.084  67.230  1.00  0.00    -0.204 A  
HETATM   11  C   UNL     1      -9.418  17.531  67.986  1.00  0.00    -0.280 A  
HETATM   12  C   UNL     1     -10.485  16.671  68.256  1.00  0.00    -0.321 A  
HETATM   13  C   UNL     1     -10.471  15.354  67.779  1.00  0.00    -0.266 A  
HETATM   14  C   UNL     1     -11.638  14.430  68.020  1.00  0.00    -0.357 C  
HETATM   15  C   UNL     1     -12.403  14.158  66.722  1.00  0.00    -0.333 C  
HETATM   16  C   UNL     1     -11.741  13.338  65.627  1.00  0.00    -0.389 A  
HETATM   17  C   UNL     1     -12.598  12.912  64.587  1.00  0.00    -0.459 A  
HETATM   18  C   UNL     1     -12.124  12.175  63.504  1.00  0.00    -0.649 A  
HETATM   19  C   UNL     1     -10.777  11.855  63.430  1.00  0.00    -0.476 A  
HETATM   20  C   UNL     1      -9.907  12.279  64.436  1.00  0.00    -0.136 A  
HETATM   21  C   UNL     1     -10.365  13.018  65.548  1.00  0.00    -0.304 A  
ENDBRANCH   5   6
ENDBRANCH   4   5
ENDBRANCH   2   4
TORSDOF 3
ENDMDL
MODEL       58
REMARK 921   NORMALIZED FREE ENERGY PREDICTED BY IDOCK:   -4.85 KCAL/MOL
REMARK 922        TOTAL FREE ENERGY PREDICTED BY IDOCK:   -5.90 KCAL/MOL
REMARK 923 INTER-LIGAND FREE ENERGY PREDICTED BY IDOCK:   -5.74 KCAL/MOL
REMARK 924 INTRA-LIGAND FREE ENERGY PREDICTED BY IDOCK:   -0.16 KCAL/MOL
REMARK 927      BINDING AFFINITY PREDICTED BY RF-SCORE:    0.00 PKD
ROOT
HETATM    1  C   UNL     1     -13.417   9.586  72.091  1.00  0.00    -0.456 C  
HETATM    2  N   UNL     1     -12.937   9.750  70.726  1.00  0.00    -0.563 NA 
HETATM    3  H   UNL     1     -13.679   9.585  70.047  1.00  0.00     0.000 HD 
ENDROOT
BRANCH   2   4
HETATM    4  C   UNL     1     -12.311  11.063  70.530  1.00  0.00    -0.373 C  
BRANCH   4   5
HETATM    5  C   UNL     1     -11.980  11.265  69.042  1.00  0.00    -0.393 C  
BRANCH   5   6
HETATM    6  C   UNL     1     -10.493  11.276  68.758  1.00  0.00    -0.232 C  
HETATM    7  C   UNL     1      -9.891  11.688  67.616  1.00  0.00    -0.195 C  
HETATM    8  C   UNL     1     -10.727  12.168  66.492  1.00  0.00    -0.290 A  
HETATM    9  C   UNL     1     -11.444  13.369  66.583  1.00  0.00    -0.376 A  
HETATM   10  C   UNL     1     -12.234  13.801  65.519  1.00  0.00    -0.470 A  
HETATM   11  C   UNL     1     -12.306  13.041  64.353  1.00  0.00    -0.442 A  
HETATM   12  C   UNL     1     -11.581  11.853  64.246  1.00  0.00    -0.405 A  
HETATM   13  C   UNL     1     -10.786  11.411  65.312  1.00  0.00    -0.326 A  
HETATM   14  C   UNL     1      -9.959  10.156  65.193  1.00  0.00    -0.379 C  
HETATM   15  C   UNL     1      -8.465  10.484  65.121  1.00  0.00    -0.170 C  
HETATM   16  C   UNL     1      -7.769  11.050  66.349  1.00  0.00    -0.146 A  
HETATM   17  C   UNL     1      -6.357  11.074  66.286  1.00  0.00    -0.119 A  
HETATM   18  C   UNL     1      -5.588  11.589  67.327  1.00  0.00    -0.085 A  
HETATM   19  C   UNL     1      -6.214  12.101  68.454  1.00  0.00    -0.052 A  
HETATM   20  C   UNL     1      -7.608  12.103  68.531  1.00  0.00    -0.124 A  
HETATM   21  C   UNL     1      -8.408  11.579  67.494  1.00  0.00    -0.143 A  
ENDBRANCH   5   6
ENDBRANCH   4   5
ENDBRANCH   2   4
TORSDOF 3
ENDMDL
MODEL       59
REMARK 921   NORMALIZED FREE ENERGY PREDICTED BY IDOCK:   -4.85 KCAL/MOL
REMARK 922        TOTAL FREE ENERGY PREDICTED BY IDOCK:   -5.90 KCAL/MOL
REMARK 923 INTER-LIGAND FREE ENERGY PREDICTED BY IDOCK:   -5.69 KCAL/MOL
REMARK 924 INTRA-LIGAND FREE ENERGY PREDICTED BY IDOCK:   -0.21 KCAL/MOL
REMARK 927      BINDING AFFINITY PREDICTED BY RF-SCORE:    0.00 PKD
ROOT
HETATM    1  C   UNL     1     -10.758  14.871  65.022  1.00  0.00    -0.431 C  
HETATM    2  N   UNL     1      -9.929  13.681  65.160  1.00  0.00    -0.564 NA 
HETATM    3  H   UNL     1      -8.985  13.842  64.810  1.00  0.00     0.000 HD 
ENDROOT
BRANCH   2   4
HETATM    4  C   UNL     1      -9.914  13.194  66.544  1.00  0.00    -0.268 C  
BRANCH   4   5
HETATM    5  C   UNL     1     -10.395  11.733  66.587  1.00  0.00    -0.251 C  
BRANCH   5   6
HETATM    6  C   UNL     1     -11.161  11.395  67.847  1.00  0.00    -0.352 C  
HETATM    7  C   UNL     1     -10.710  10.665  68.896  1.00  0.00    -0.254 C  
HETATM    8  C   UNL     1      -9.342  10.102  68.848  1.00  0.00    -0.179 A  
HETATM    9  C   UNL     1      -8.213  10.933  68.902  1.00  0.00    -0.141 A  
HETATM   10  C   UNL     1      -6.933  10.386  68.846  1.00  0.00    -0.067 A  
HETATM   11  C   UNL     1      -6.769   9.006  68.745  1.00  0.00    -0.054 A  
HETATM   12  C   UNL     1      -7.886   8.169  68.709  1.00  0.00    -0.113 A  
HETATM   13  C   UNL     1      -9.177   8.710  68.764  1.00  0.00    -0.142 A  
HETATM   14  C   UNL     1     -10.392   7.818  68.776  1.00  0.00    -0.219 C  
HETATM   15  C   UNL     1     -11.075   7.835  70.146  1.00  0.00    -0.216 C  
HETATM   16  C   UNL     1     -11.773   9.102  70.613  1.00  0.00    -0.256 A  
HETATM   17  C   UNL     1     -12.595   8.956  71.752  1.00  0.00    -0.420 A  
HETATM   18  C   UNL     1     -13.275  10.038  72.308  1.00  0.00    -0.401 A  
HETATM   19  C   UNL     1     -13.140  11.296  71.740  1.00  0.00    -0.527 A  
HETATM   20  C   UNL     1     -12.320  11.468  70.624  1.00  0.00    -0.457 A  
HETATM   21  C   UNL     1     -11.629  10.387  70.039  1.00  0.00    -0.378 A  
ENDBRANCH   5   6
ENDBRANCH   4   5
ENDBRANCH   2   4
TORSDOF 3
ENDMDL
MODEL       60
REMARK 921   NORMALIZED FREE ENERGY PREDICTED BY IDOCK:   -4.83 KCAL/MOL
REMARK 922        TOTAL FREE ENERGY PREDICTED BY IDOCK:   -5.88 KCAL/MOL
REMARK 923 INTER-LIGAND FREE ENERGY PREDICTED BY IDOCK:   -5.44 KCAL/MOL
REMARK 924 INTRA-LIGAND FREE ENERGY PREDICTED BY IDOCK:   -0.44 KCAL/MOL
REMARK 927      BINDING AFFINITY PREDICTED BY RF-SCORE:    0.00 PKD
ROOT
HETATM    1  C   UNL     1      -6.595   8.471  68.792  1.00  0.00    -0.054 C  
HETATM    2  N   UNL     1      -7.779   8.712  69.605  1.00  0.00    -0.087 NA 
HETATM    3  H   UNL     1      -7.633   8.422  70.572  1.00  0.00     0.000 HD 
ENDROOT
BRANCH   2   4
HETATM    4  C   UNL     1      -8.213  10.111  69.522  1.00  0.00    -0.168 C  
BRANCH   4   5
HETATM    5  C   UNL     1      -9.745  10.174  69.392  1.00  0.00    -0.247 C  
BRANCH   5   6
HETATM    6  C   UNL     1     -10.208  10.914  68.156  1.00  0.00    -0.197 C  
HETATM    7  C   UNL     1     -10.361  10.396  66.913  1.00  0.00    -0.297 C  
HETATM    8  C   UNL     1     -10.037   8.969  66.681  1.00  0.00    -0.355 A  
HETATM    9  C   UNL     1     -10.822   7.948  67.236  1.00  0.00    -0.189 A  
HETATM   10  C   UNL     1     -10.497   6.611  67.015  1.00  0.00    -0.369 A  
HETATM   11  C   UNL     1      -9.392   6.283  66.232  1.00  0.00    -0.155 A  
HETATM   12  C   UNL     1      -8.615   7.293  65.660  1.00  0.00    -0.123 A  
HETATM   13  C   UNL     1      -8.934   8.640  65.877  1.00  0.00    -0.245 A  
HETATM   14  C   UNL     1      -8.136   9.741  65.227  1.00  0.00    -0.126 C  
HETATM   15  C   UNL     1      -8.949  10.442  64.136  1.00  0.00    -0.251 C  
HETATM   16  C   UNL     1     -10.146  11.291  64.532  1.00  0.00    -0.348 A  
HETATM   17  C   UNL     1     -10.674  12.108  63.507  1.00  0.00    -0.509 A  
HETATM   18  C   UNL     1     -11.787  12.919  63.718  1.00  0.00    -0.571 A  
HETATM   19  C   UNL     1     -12.404  12.926  64.960  1.00  0.00    -0.541 A  
HETATM   20  C   UNL     1     -11.910  12.115  65.983  1.00  0.00    -0.328 A  
HETATM   21  C   UNL     1     -10.780  11.292  65.796  1.00  0.00    -0.284 A  
ENDBRANCH   5   6
ENDBRANCH   4   5
ENDBRANCH   2   4
TORSDOF 3
ENDMDL
MODEL       61
REMARK 921   NORMALIZED FREE ENERGY PREDICTED BY IDOCK:   -4.82 KCAL/MOL
REMARK 922        TOTAL FREE ENERGY PREDICTED BY IDOCK:   -5.87 KCAL/MOL
REMARK 923 INTER-LIGAND FREE ENERGY PREDICTED BY IDOCK:   -5.60 KCAL/MOL
REMARK 924 INTRA-LIGAND FREE ENERGY PREDICTED BY IDOCK:   -0.26 KCAL/MOL
REMARK 927      BINDING AFFINITY PREDICTED BY RF-SCORE:    0.00 PKD
ROOT
HETATM    1  C   UNL     1     -10.912   6.417  68.024  1.00  0.00    -0.311 C  
HETATM    2  N   UNL     1     -10.470   6.711  66.668  1.00  0.00    -0.461 NA 
HETATM    3  H   UNL     1     -11.260   6.788  66.026  1.00  0.00     0.000 HD 
ENDROOT
BRANCH   2   4
HETATM    4  C   UNL     1      -9.625   7.910  66.625  1.00  0.00    -0.226 C  
BRANCH   4   5
HETATM    5  C   UNL     1     -10.498   9.168  66.769  1.00  0.00    -0.266 C  
BRANCH   5   6
HETATM    6  C   UNL     1      -9.692  10.438  66.932  1.00  0.00    -0.223 C  
HETATM    7  C   UNL     1      -9.669  11.246  68.020  1.00  0.00    -0.185 C  
HETATM    8  C   UNL     1     -10.515  10.909  69.187  1.00  0.00    -0.248 A  
HETATM    9  C   UNL     1     -10.242   9.786  69.980  1.00  0.00    -0.308 A  
HETATM   10  C   UNL     1     -11.055   9.478  71.070  1.00  0.00    -0.433 A  
HETATM   11  C   UNL     1     -12.140  10.295  71.382  1.00  0.00    -0.457 A  
HETATM   12  C   UNL     1     -12.408  11.426  70.609  1.00  0.00    -0.466 A  
HETATM   13  C   UNL     1     -11.597  11.743  69.511  1.00  0.00    -0.398 A  
HETATM   14  C   UNL     1     -11.844  12.987  68.698  1.00  0.00    -0.353 C  
HETATM   15  C   UNL     1     -10.744  14.026  68.930  1.00  0.00    -0.265 C  
HETATM   16  C   UNL     1      -9.339  13.747  68.418  1.00  0.00    -0.190 A  
HETATM   17  C   UNL     1      -8.459  14.851  68.435  1.00  0.00    -0.153 A  
HETATM   18  C   UNL     1      -7.134  14.736  68.020  1.00  0.00    -0.147 A  
HETATM   19  C   UNL     1      -6.655  13.509  67.587  1.00  0.00    -0.177 A  
HETATM   20  C   UNL     1      -7.502  12.400  67.577  1.00  0.00    -0.150 A  
HETATM   21  C   UNL     1      -8.850  12.493  67.984  1.00  0.00    -0.187 A  
ENDBRANCH   5   6
ENDBRANCH   4   5
ENDBRANCH   2   4
TORSDOF 3
ENDMDL
MODEL       62
REMARK 921   NORMALIZED FREE ENERGY PREDICTED BY IDOCK:   -4.81 KCAL/MOL
REMARK 922        TOTAL FREE ENERGY PREDICTED BY IDOCK:   -5.85 KCAL/MOL
REMARK 923 INTER-LIGAND FREE ENERGY PREDICTED BY IDOCK:   -5.68 KCAL/MOL
REMARK 924 INTRA-LIGAND FREE ENERGY PREDICTED BY IDOCK:   -0.17 KCAL/MOL
REMARK 927      BINDING AFFINITY PREDICTED BY RF-SCORE:    0.00 PKD
ROOT
HETATM    1  C   UNL     1     -13.214   7.152  71.529  1.00  0.00    -0.360 C  
HETATM    2  N   UNL     1     -14.036   8.285  71.128  1.00  0.00    -0.612 NA 
HETATM    3  H   UNL     1     -15.022   8.122  71.332  1.00  0.00     0.000 HD 
ENDROOT
BRANCH   2   4
HETATM    4  C   UNL     1     -13.561   9.535  71.733  1.00  0.00    -0.369 C  
BRANCH   4   5
HETATM    5  C   UNL     1     -12.904  10.417  70.658  1.00  0.00    -0.393 C  
BRANCH   5   6
HETATM    6  C   UNL     1     -11.471  10.031  70.364  1.00  0.00    -0.389 C  
HETATM    7  C   UNL     1     -10.634  10.636  69.487  1.00  0.00    -0.265 C  
HETATM    8  C   UNL     1     -11.128  11.786  68.696  1.00  0.00    -0.289 A  
HETATM    9  C   UNL     1     -11.423  13.013  69.306  1.00  0.00    -0.348 A  
HETATM   10  C   UNL     1     -11.896  14.082  68.548  1.00  0.00    -0.399 A  
HETATM   11  C   UNL     1     -12.068  13.938  67.172  1.00  0.00    -0.422 A  
HETATM   12  C   UNL     1     -11.759  12.726  66.552  1.00  0.00    -0.463 A  
HETATM   13  C   UNL     1     -11.284  11.645  67.308  1.00  0.00    -0.365 A  
HETATM   14  C   UNL     1     -10.899  10.347  66.647  1.00  0.00    -0.140 C  
HETATM   15  C   UNL     1      -9.382  10.140  66.677  1.00  0.00    -0.195 C  
HETATM   16  C   UNL     1      -8.695   9.881  68.009  1.00  0.00    -0.125 A  
HETATM   17  C   UNL     1      -7.354   9.442  67.922  1.00  0.00    -0.083 A  
HETATM   18  C   UNL     1      -6.592   9.190  69.061  1.00  0.00    -0.047 A  
HETATM   19  C   UNL     1      -7.151   9.382  70.315  1.00  0.00    -0.097 A  
HETATM   20  C   UNL     1      -8.468   9.831  70.426  1.00  0.00    -0.102 A  
HETATM   21  C   UNL     1      -9.263  10.083  69.288  1.00  0.00    -0.212 A  
ENDBRANCH   5   6
ENDBRANCH   4   5
ENDBRANCH   2   4
TORSDOF 3
ENDMDL
MODEL       63
REMARK 921   NORMALIZED FREE ENERGY PREDICTED BY IDOCK:   -4.73 KCAL/MOL
REMARK 922        TOTAL FREE ENERGY PREDICTED BY IDOCK:   -5.76 KCAL/MOL
REMARK 923 INTER-LIGAND FREE ENERGY PREDICTED BY IDOCK:   -5.50 KCAL/MOL
REMARK 924 INTRA-LIGAND FREE ENERGY PREDICTED BY IDOCK:   -0.26 KCAL/MOL
REMARK 927      BINDING AFFINITY PREDICTED BY RF-SCORE:    0.00 PKD
ROOT
HETATM    1  C   UNL     1     -14.080   8.929  72.453  1.00  0.00    -0.420 C  
HETATM    2  N   UNL     1     -13.279  10.119  72.202  1.00  0.00    -0.535 NA 
HETATM    3  H   UNL     1     -12.390  10.083  72.701  1.00  0.00     0.000 HD 
ENDROOT
BRANCH   2   4
HETATM    4  C   UNL     1     -13.080  10.340  70.765  1.00  0.00    -0.287 C  
BRANCH   4   5
HETATM    5  C   UNL     1     -11.578  10.480  70.463  1.00  0.00    -0.441 C  
BRANCH   5   6
HETATM    6  C   UNL     1     -10.712   9.581  71.318  1.00  0.00    -0.386 C  
HETATM    7  C   UNL     1     -10.065   8.461  70.915  1.00  0.00    -0.234 C  
HETATM    8  C   UNL     1     -10.201   8.015  69.509  1.00  0.00    -0.209 A  
HETATM    9  C   UNL     1      -9.641   8.753  68.457  1.00  0.00    -0.158 A  
HETATM   10  C   UNL     1      -9.787   8.324  67.139  1.00  0.00    -0.281 A  
HETATM   11  C   UNL     1     -10.486   7.150  66.863  1.00  0.00    -0.364 A  
HETATM   12  C   UNL     1     -11.031   6.399  67.905  1.00  0.00    -0.416 A  
HETATM   13  C   UNL     1     -10.890   6.823  69.233  1.00  0.00    -0.303 A  
HETATM   14  C   UNL     1     -11.430   5.998  70.373  1.00  0.00    -0.234 C  
HETATM   15  C   UNL     1     -10.295   5.365  71.182  1.00  0.00    -0.304 C  
HETATM   16  C   UNL     1      -9.388   6.258  72.014  1.00  0.00    -0.155 A  
HETATM   17  C   UNL     1      -8.547   5.583  72.928  1.00  0.00    -0.119 A  
HETATM   18  C   UNL     1      -7.645   6.271  73.736  1.00  0.00    -0.090 A  
HETATM   19  C   UNL     1      -7.557   7.652  73.644  1.00  0.00    -0.152 A  
HETATM   20  C   UNL     1      -8.366   8.339  72.737  1.00  0.00    -0.235 A  
HETATM   21  C   UNL     1      -9.293   7.665  71.914  1.00  0.00    -0.181 A  
ENDBRANCH   5   6
ENDBRANCH   4   5
ENDBRANCH   2   4
TORSDOF 3
ENDMDL
MODEL       64
REMARK 921   NORMALIZED FREE ENERGY PREDICTED BY IDOCK:   -4.72 KCAL/MOL
REMARK 922        TOTAL FREE ENERGY PREDICTED BY IDOCK:   -5.75 KCAL/MOL
REMARK 923 INTER-LIGAND FREE ENERGY PREDICTED BY IDOCK:   -5.48 KCAL/MOL
REMARK 924 INTRA-LIGAND FREE ENERGY PREDICTED BY IDOCK:   -0.27 KCAL/MOL
REMARK 927      BINDING AFFINITY PREDICTED BY RF-SCORE:    0.00 PKD
ROOT
HETATM    1  C   UNL     1      -8.176   6.836  65.719  1.00  0.00    -0.135 C  
HETATM    2  N   UNL     1      -8.442   8.096  65.039  1.00  0.00    -0.299 NA 
HETATM    3  H   UNL     1      -8.898   7.946  64.139  1.00  0.00     0.000 HD 
ENDROOT
BRANCH   2   4
HETATM    4  C   UNL     1      -9.215   9.012  65.887  1.00  0.00    -0.230 C  
BRANCH   4   5
HETATM    5  C   UNL     1     -10.172   8.208  66.783  1.00  0.00    -0.372 C  
BRANCH   5   6
HETATM    6  C   UNL     1     -10.881   9.061  67.813  1.00  0.00    -0.125 C  
HETATM    7  C   UNL     1     -10.777   8.955  69.160  1.00  0.00    -0.162 C  
HETATM    8  C   UNL     1      -9.910   7.901  69.736  1.00  0.00    -0.179 A  
HETATM    9  C   UNL     1      -8.515   7.957  69.603  1.00  0.00    -0.132 A  
HETATM   10  C   UNL     1      -7.715   6.952  70.143  1.00  0.00    -0.101 A  
HETATM   11  C   UNL     1      -8.300   5.889  70.828  1.00  0.00    -0.125 A  
HETATM   12  C   UNL     1      -9.687   5.834  70.981  1.00  0.00    -0.213 A  
HETATM   13  C   UNL     1     -10.499   6.840  70.441  1.00  0.00    -0.236 A  
HETATM   14  C   UNL     1     -11.993   6.821  70.641  1.00  0.00    -0.418 C  
HETATM   15  C   UNL     1     -12.436   7.936  71.592  1.00  0.00    -0.344 C  
HETATM   16  C   UNL     1     -12.328   9.384  71.142  1.00  0.00    -0.386 A  
HETATM   17  C   UNL     1     -12.996  10.323  71.959  1.00  0.00    -0.503 A  
HETATM   18  C   UNL     1     -12.961  11.688  71.683  1.00  0.00    -0.483 A  
HETATM   19  C   UNL     1     -12.248  12.147  70.586  1.00  0.00    -0.392 A  
HETATM   20  C   UNL     1     -11.566  11.240  69.774  1.00  0.00    -0.408 A  
HETATM   21  C   UNL     1     -11.594   9.852  70.027  1.00  0.00    -0.235 A  
ENDBRANCH   5   6
ENDBRANCH   4   5
ENDBRANCH   2   4
TORSDOF 3
ENDMDL
MODEL       65
REMARK 921   NORMALIZED FREE ENERGY PREDICTED BY IDOCK:   -4.70 KCAL/MOL
REMARK 922        TOTAL FREE ENERGY PREDICTED BY IDOCK:   -5.72 KCAL/MOL
REMARK 923 INTER-LIGAND FREE ENERGY PREDICTED BY IDOCK:   -5.57 KCAL/MOL
REMARK 924 INTRA-LIGAND FREE ENERGY PREDICTED BY IDOCK:   -0.16 KCAL/MOL
REMARK 927      BINDING AFFINITY PREDICTED BY RF-SCORE:    0.00 PKD
ROOT
HETATM    1  C   UNL     1     -13.690   8.863  71.904  1.00  0.00    -0.439 C  
HETATM    2  N   UNL     1     -13.501   9.742  70.759  1.00  0.00    -0.588 NA 
HETATM    3  H   UNL     1     -14.294  10.373  70.638  1.00  0.00     0.000 HD 
ENDROOT
BRANCH   2   4
HETATM    4  C   UNL     1     -12.237  10.481  70.851  1.00  0.00    -0.388 C  
BRANCH   4   5
HETATM    5  C   UNL     1     -11.738  10.836  69.440  1.00  0.00    -0.378 C  
BRANCH   5   6
HETATM    6  C   UNL     1     -11.403  12.303  69.277  1.00  0.00    -0.317 C  
HETATM    7  C   UNL     1     -10.598  12.849  68.334  1.00  0.00    -0.267 C  
HETATM    8  C   UNL     1      -9.938  11.963  67.348  1.00  0.00    -0.201 A  
HETATM    9  C   UNL     1     -10.680  11.289  66.368  1.00  0.00    -0.320 A  
HETATM   10  C   UNL     1     -10.044  10.451  65.454  1.00  0.00    -0.354 A  
HETATM   11  C   UNL     1      -8.661  10.287  65.506  1.00  0.00    -0.173 A  
HETATM   12  C   UNL     1      -7.911  10.968  66.467  1.00  0.00    -0.158 A  
HETATM   13  C   UNL     1      -8.543  11.812  67.390  1.00  0.00    -0.160 A  
HETATM   14  C   UNL     1      -7.743  12.593  68.401  1.00  0.00    -0.133 C  
HETATM   15  C   UNL     1      -7.751  14.089  68.075  1.00  0.00    -0.149 C  
HETATM   16  C   UNL     1      -9.046  14.873  68.219  1.00  0.00    -0.179 A  
HETATM   17  C   UNL     1      -8.912  16.278  68.159  1.00  0.00    -0.187 A  
HETATM   18  C   UNL     1     -10.016  17.123  68.249  1.00  0.00    -0.300 A  
HETATM   19  C   UNL     1     -11.284  16.580  68.393  1.00  0.00    -0.280 A  
HETATM   20  C   UNL     1     -11.443  15.193  68.438  1.00  0.00    -0.347 A  
HETATM   21  C   UNL     1     -10.340  14.318  68.358  1.00  0.00    -0.247 A  
ENDBRANCH   5   6
ENDBRANCH   4   5
ENDBRANCH   2   4
TORSDOF 3
ENDMDL
MODEL       66
REMARK 921   NORMALIZED FREE ENERGY PREDICTED BY IDOCK:   -4.69 KCAL/MOL
REMARK 922        TOTAL FREE ENERGY PREDICTED BY IDOCK:   -5.71 KCAL/MOL
REMARK 923 INTER-LIGAND FREE ENERGY PREDICTED BY IDOCK:   -5.53 KCAL/MOL
REMARK 924 INTRA-LIGAND FREE ENERGY PREDICTED BY IDOCK:   -0.17 KCAL/MOL
REMARK 927      BINDING AFFINITY PREDICTED BY RF-SCORE:    0.00 PKD
ROOT
HETATM    1  C   UNL     1     -12.712  12.210  63.560  1.00  0.00    -0.431 C  
HETATM    2  N   UNL     1     -12.377  13.625  63.641  1.00  0.00    -0.864 NA 
HETATM    3  H   UNL     1     -13.137  14.165  64.055  1.00  0.00     0.000 HD 
ENDROOT
BRANCH   2   4
HETATM    4  C   UNL     1     -11.114  13.838  64.358  1.00  0.00    -0.345 C  
BRANCH   4   5
HETATM    5  C   UNL     1     -11.155  15.188  65.094  1.00  0.00    -0.410 C  
BRANCH   5   6
HETATM    6  C   UNL     1     -11.481  15.056  66.565  1.00  0.00    -0.239 C  
HETATM    7  C   UNL     1     -11.028  15.846  67.568  1.00  0.00    -0.280 C  
HETATM    8  C   UNL     1     -10.100  16.955  67.249  1.00  0.00    -0.286 A  
HETATM    9  C   UNL     1     -10.530  18.074  66.522  1.00  0.00    -0.341 A  
HETATM   10  C   UNL     1      -9.640  19.104  66.223  1.00  0.00    -0.386 A  
HETATM   11  C   UNL     1      -8.317  19.030  66.655  1.00  0.00    -0.310 A  
HETATM   12  C   UNL     1      -7.885  17.928  67.396  1.00  0.00    -0.217 A  
HETATM   13  C   UNL     1      -8.772  16.887  67.700  1.00  0.00    -0.212 A  
HETATM   14  C   UNL     1      -8.333  15.715  68.541  1.00  0.00    -0.166 C  
HETATM   15  C   UNL     1      -8.990  15.751  69.923  1.00  0.00     0.231 C  
HETATM   16  C   UNL     1     -10.487  15.513  70.041  1.00  0.00    -0.322 A  
HETATM   17  C   UNL     1     -10.964  15.299  71.354  1.00  0.00    -0.179 A  
HETATM   18  C   UNL     1     -12.317  15.094  71.616  1.00  0.00    -0.415 A  
HETATM   19  C   UNL     1     -13.227  15.107  70.570  1.00  0.00    -0.268 A  
HETATM   20  C   UNL     1     -12.781  15.332  69.266  1.00  0.00     0.267 A  
HETATM   21  C   UNL     1     -11.415  15.533  68.975  1.00  0.00    -0.361 A  
ENDBRANCH   5   6
ENDBRANCH   4   5
ENDBRANCH   2   4
TORSDOF 3
ENDMDL
MODEL       67
REMARK 921   NORMALIZED FREE ENERGY PREDICTED BY IDOCK:   -4.68 KCAL/MOL
REMARK 922        TOTAL FREE ENERGY PREDICTED BY IDOCK:   -5.70 KCAL/MOL
REMARK 923 INTER-LIGAND FREE ENERGY PREDICTED BY IDOCK:   -5.54 KCAL/MOL
REMARK 924 INTRA-LIGAND FREE ENERGY PREDICTED BY IDOCK:   -0.17 KCAL/MOL
REMARK 927      BINDING AFFINITY PREDICTED BY RF-SCORE:    0.00 PKD
ROOT
HETATM    1  C   UNL     1      -5.905  11.434  70.363  1.00  0.00    -0.153 C  
HETATM    2  N   UNL     1      -7.184  11.467  69.668  1.00  0.00    -0.349 NA 
HETATM    3  H   UNL     1      -7.936  11.774  70.285  1.00  0.00     0.000 HD 
ENDROOT
BRANCH   2   4
HETATM    4  C   UNL     1      -7.116  12.289  68.454  1.00  0.00    -0.094 C  
BRANCH   4   5
HETATM    5  C   UNL     1      -8.150  13.425  68.536  1.00  0.00    -0.105 C  
BRANCH   5   6
HETATM    6  C   UNL     1      -9.026  13.525  67.307  1.00  0.00    -0.222 C  
HETATM    7  C   UNL     1      -9.974  12.639  66.916  1.00  0.00    -0.232 C  
HETATM    8  C   UNL     1     -10.203  11.422  67.729  1.00  0.00    -0.202 A  
HETATM    9  C   UNL     1     -10.764  11.502  69.011  1.00  0.00    -0.233 A  
HETATM   10  C   UNL     1     -10.964  10.348  69.766  1.00  0.00    -0.345 A  
HETATM   11  C   UNL     1     -10.615   9.105  69.243  1.00  0.00    -0.229 A  
HETATM   12  C   UNL     1     -10.073   9.013  67.959  1.00  0.00    -0.234 A  
HETATM   13  C   UNL     1      -9.868  10.169  67.194  1.00  0.00    -0.231 A  
HETATM   14  C   UNL     1      -9.330  10.082  65.788  1.00  0.00    -0.241 C  
HETATM   15  C   UNL     1     -10.411  10.431  64.761  1.00  0.00    -0.221 C  
HETATM   16  C   UNL     1     -10.921  11.860  64.677  1.00  0.00    -0.370 A  
HETATM   17  C   UNL     1     -11.711  12.154  63.542  1.00  0.00    -0.579 A  
HETATM   18  C   UNL     1     -12.268  13.416  63.347  1.00  0.00    -0.419 A  
HETATM   19  C   UNL     1     -12.055  14.413  64.287  1.00  0.00    -0.461 A  
HETATM   20  C   UNL     1     -11.292  14.141  65.424  1.00  0.00    -0.322 A  
HETATM   21  C   UNL     1     -10.710  12.874  65.639  1.00  0.00    -0.295 A  
ENDBRANCH   5   6
ENDBRANCH   4   5
ENDBRANCH   2   4
TORSDOF 3
ENDMDL
MODEL       68
REMARK 921   NORMALIZED FREE ENERGY PREDICTED BY IDOCK:   -4.64 KCAL/MOL
REMARK 922        TOTAL FREE ENERGY PREDICTED BY IDOCK:   -5.65 KCAL/MOL
REMARK 923 INTER-LIGAND FREE ENERGY PREDICTED BY IDOCK:   -5.45 KCAL/MOL
REMARK 924 INTRA-LIGAND FREE ENERGY PREDICTED BY IDOCK:   -0.21 KCAL/MOL
REMARK 927      BINDING AFFINITY PREDICTED BY RF-SCORE:    0.00 PKD
ROOT
HETATM    1  C   UNL     1     -11.620   7.817  72.818  1.00  0.00    -0.314 C  
HETATM    2  N   UNL     1     -12.893   8.523  72.779  1.00  0.00    -0.626 NA 
HETATM    3  H   UNL     1     -13.041   9.073  73.625  1.00  0.00     0.000 HD 
ENDROOT
BRANCH   2   4
HETATM    4  C   UNL     1     -13.012   9.351  71.573  1.00  0.00    -0.371 C  
BRANCH   4   5
HETATM    5  C   UNL     1     -11.632   9.507  70.911  1.00  0.00    -0.398 C  
BRANCH   5   6
HETATM    6  C   UNL     1     -11.514  10.757  70.066  1.00  0.00    -0.412 C  
HETATM    7  C   UNL     1     -10.830  10.886  68.904  1.00  0.00    -0.262 C  
HETATM    8  C   UNL     1     -10.089   9.720  68.371  1.00  0.00    -0.189 A  
HETATM    9  C   UNL     1     -10.764   8.593  67.882  1.00  0.00    -0.158 A  
HETATM   10  C   UNL     1     -10.050   7.501  67.393  1.00  0.00    -0.282 A  
HETATM   11  C   UNL     1      -8.657   7.530  67.378  1.00  0.00    -0.118 A  
HETATM   12  C   UNL     1      -7.976   8.656  67.844  1.00  0.00    -0.107 A  
HETATM   13  C   UNL     1      -8.686   9.758  68.339  1.00  0.00    -0.120 A  
HETATM   14  C   UNL     1      -7.967  11.000  68.800  1.00  0.00    -0.144 C  
HETATM   15  C   UNL     1      -8.199  12.163  67.832  1.00  0.00    -0.155 C  
HETATM   16  C   UNL     1      -9.585  12.779  67.729  1.00  0.00    -0.204 A  
HETATM   17  C   UNL     1      -9.653  14.002  67.023  1.00  0.00    -0.253 A  
HETATM   18  C   UNL     1     -10.861  14.666  66.827  1.00  0.00    -0.312 A  
HETATM   19  C   UNL     1     -12.033  14.119  67.325  1.00  0.00    -0.449 A  
HETATM   20  C   UNL     1     -11.993  12.904  68.012  1.00  0.00    -0.323 A  
HETATM   21  C   UNL     1     -10.781  12.217  68.231  1.00  0.00    -0.248 A  
ENDBRANCH   5   6
ENDBRANCH   4   5
ENDBRANCH   2   4
TORSDOF 3
ENDMDL
MODEL       69
REMARK 921   NORMALIZED FREE ENERGY PREDICTED BY IDOCK:   -4.61 KCAL/MOL
REMARK 922        TOTAL FREE ENERGY PREDICTED BY IDOCK:   -5.61 KCAL/MOL
REMARK 923 INTER-LIGAND FREE ENERGY PREDICTED BY IDOCK:   -5.40 KCAL/MOL
REMARK 924 INTRA-LIGAND FREE ENERGY PREDICTED BY IDOCK:   -0.21 KCAL/MOL
REMARK 927      BINDING AFFINITY PREDICTED BY RF-SCORE:    0.00 PKD
ROOT
HETATM    1  C   UNL     1      -6.327  11.439  69.743  1.00  0.00    -0.139 C  
HETATM    2  N   UNL     1      -7.001  10.351  70.438  1.00  0.00    -0.372 NA 
HETATM    3  H   UNL     1      -7.821  10.684  70.946  1.00  0.00     0.000 HD 
ENDROOT
BRANCH   2   4
HETATM    4  C   UNL     1      -7.344   9.257  69.522  1.00  0.00    -0.070 C  
BRANCH   4   5
HETATM    5  C   UNL     1      -8.592   9.634  68.706  1.00  0.00    -0.125 C  
BRANCH   5   6
HETATM    6  C   UNL     1      -9.704  10.216  69.551  1.00  0.00    -0.251 C  
HETATM    7  C   UNL     1     -10.620  11.135  69.162  1.00  0.00    -0.238 C  
HETATM    8  C   UNL     1     -10.561  11.673  67.784  1.00  0.00    -0.227 A  
HETATM    9  C   UNL     1     -10.856  10.866  66.676  1.00  0.00    -0.258 A  
HETATM   10  C   UNL     1     -10.785  11.387  65.385  1.00  0.00    -0.313 A  
HETATM   11  C   UNL     1     -10.429  12.720  65.191  1.00  0.00    -0.320 A  
HETATM   12  C   UNL     1     -10.151  13.537  66.289  1.00  0.00    -0.298 A  
HETATM   13  C   UNL     1     -10.219  13.021  67.590  1.00  0.00    -0.216 A  
HETATM   14  C   UNL     1      -9.970  13.902  68.787  1.00  0.00    -0.139 C  
HETATM   15  C   UNL     1     -11.265  14.157  69.564  1.00  0.00    -0.267 C  
HETATM   16  C   UNL     1     -11.919  13.007  70.313  1.00  0.00    -0.360 A  
HETATM   17  C   UNL     1     -12.947  13.377  71.210  1.00  0.00    -0.368 A  
HETATM   18  C   UNL     1     -13.653  12.426  71.944  1.00  0.00    -0.230 A  
HETATM   19  C   UNL     1     -13.353  11.081  71.792  1.00  0.00    -0.400 A  
HETATM   20  C   UNL     1     -12.353  10.691  70.900  1.00  0.00    -0.502 A  
HETATM   21  C   UNL     1     -11.618  11.635  70.152  1.00  0.00    -0.303 A  
ENDBRANCH   5   6
ENDBRANCH   4   5
ENDBRANCH   2   4
TORSDOF 3
ENDMDL
MODEL       70
REMARK 921   NORMALIZED FREE ENERGY PREDICTED BY IDOCK:   -4.60 KCAL/MOL
REMARK 922        TOTAL FREE ENERGY PREDICTED BY IDOCK:   -5.61 KCAL/MOL
REMARK 923 INTER-LIGAND FREE ENERGY PREDICTED BY IDOCK:   -5.38 KCAL/MOL
REMARK 924 INTRA-LIGAND FREE ENERGY PREDICTED BY IDOCK:   -0.23 KCAL/MOL
REMARK 927      BINDING AFFINITY PREDICTED BY RF-SCORE:    0.00 PKD
ROOT
HETATM    1  C   UNL     1      -9.915  18.316  68.342  1.00  0.00    -0.382 C  
HETATM    2  N   UNL     1     -10.702  17.456  69.214  1.00  0.00    -0.352 NA 
HETATM    3  H   UNL     1     -11.667  17.382  68.893  1.00  0.00     0.000 HD 
ENDROOT
BRANCH   2   4
HETATM    4  C   UNL     1     -10.084  16.134  69.367  1.00  0.00    -0.256 C  
BRANCH   4   5
HETATM    5  C   UNL     1      -9.084  15.892  68.224  1.00  0.00    -0.185 C  
BRANCH   5   6
HETATM    6  C   UNL     1      -8.648  14.448  68.109  1.00  0.00    -0.166 C  
HETATM    7  C   UNL     1      -9.157  13.514  67.269  1.00  0.00    -0.225 C  
HETATM    8  C   UNL     1     -10.268  13.887  66.364  1.00  0.00    -0.292 A  
HETATM    9  C   UNL     1     -10.068  14.778  65.300  1.00  0.00    -0.388 A  
HETATM   10  C   UNL     1     -11.127  15.126  64.464  1.00  0.00    -0.252 A  
HETATM   11  C   UNL     1     -12.391  14.579  64.677  1.00  0.00    -0.419 A  
HETATM   12  C   UNL     1     -12.595  13.677  65.723  1.00  0.00    -0.511 A  
HETATM   13  C   UNL     1     -11.536  13.322  66.569  1.00  0.00    -0.392 A  
HETATM   14  C   UNL     1     -11.729  12.312  67.671  1.00  0.00    -0.403 C  
HETATM   15  C   UNL     1     -11.000  11.004  67.354  1.00  0.00    -0.349 C  
HETATM   16  C   UNL     1      -9.480  10.983  67.347  1.00  0.00    -0.173 A  
HETATM   17  C   UNL     1      -8.892   9.698  67.310  1.00  0.00    -0.139 A  
HETATM   18  C   UNL     1      -7.510   9.527  67.274  1.00  0.00    -0.091 A  
HETATM   19  C   UNL     1      -6.682  10.639  67.264  1.00  0.00    -0.078 A  
HETATM   20  C   UNL     1      -7.240  11.918  67.284  1.00  0.00    -0.147 A  
HETATM   21  C   UNL     1      -8.636  12.117  67.330  1.00  0.00    -0.175 A  
ENDBRANCH   5   6
ENDBRANCH   4   5
ENDBRANCH   2   4
TORSDOF 3
ENDMDL
MODEL       71
REMARK 921   NORMALIZED FREE ENERGY PREDICTED BY IDOCK:   -4.60 KCAL/MOL
REMARK 922        TOTAL FREE ENERGY PREDICTED BY IDOCK:   -5.61 KCAL/MOL
REMARK 923 INTER-LIGAND FREE ENERGY PREDICTED BY IDOCK:   -5.33 KCAL/MOL
REMARK 924 INTRA-LIGAND FREE ENERGY PREDICTED BY IDOCK:   -0.28 KCAL/MOL
REMARK 927      BINDING AFFINITY PREDICTED BY RF-SCORE:    0.00 PKD
ROOT
HETATM    1  C   UNL     1      -7.798   7.651  68.020  1.00  0.00    -0.121 C  
HETATM    2  N   UNL     1      -9.103   7.447  67.406  1.00  0.00    -0.121 NA 
HETATM    3  H   UNL     1      -9.220   6.484  67.091  1.00  0.00     0.000 HD 
ENDROOT
BRANCH   2   4
HETATM    4  C   UNL     1     -10.190   7.855  68.303  1.00  0.00    -0.203 C  
BRANCH   4   5
HETATM    5  C   UNL     1     -11.081   6.644  68.626  1.00  0.00    -0.288 C  
BRANCH   5   6
HETATM    6  C   UNL     1     -10.602   5.854  69.825  1.00  0.00    -0.374 C  
HETATM    7  C   UNL     1     -11.033   5.984  71.103  1.00  0.00    -0.341 C  
HETATM    8  C   UNL     1     -12.061   7.002  71.418  1.00  0.00    -0.396 A  
HETATM    9  C   UNL     1     -13.379   6.867  70.957  1.00  0.00     0.001 A  
HETATM   10  C   UNL     1     -14.332   7.840  71.254  1.00  0.00    -0.425 A  
HETATM   11  C   UNL     1     -13.980   8.948  72.022  1.00  0.00    -0.497 A  
HETATM   12  C   UNL     1     -12.675   9.081  72.502  1.00  0.00    -0.373 A  
HETATM   13  C   UNL     1     -11.710   8.108  72.206  1.00  0.00    -0.439 A  
HETATM   14  C   UNL     1     -10.311   8.212  72.757  1.00  0.00    -0.384 C  
HETATM   15  C   UNL     1     -10.058   7.145  73.825  1.00  0.00    -0.391 C  
HETATM   16  C   UNL     1      -9.986   5.684  73.412  1.00  0.00    -0.186 A  
HETATM   17  C   UNL     1      -9.491   4.800  74.398  1.00  0.00    -0.139 A  
HETATM   18  C   UNL     1      -9.394   3.429  74.168  1.00  0.00    -0.109 A  
HETATM   19  C   UNL     1      -9.799   2.908  72.949  1.00  0.00    -0.187 A  
HETATM   20  C   UNL     1     -10.307   3.759  71.966  1.00  0.00    -0.083 A  
HETATM   21  C   UNL     1     -10.406   5.152  72.171  1.00  0.00    -0.272 A  
ENDBRANCH   5   6
ENDBRANCH   4   5
ENDBRANCH   2   4
TORSDOF 3
ENDMDL
MODEL       72
REMARK 921   NORMALIZED FREE ENERGY PREDICTED BY IDOCK:   -4.58 KCAL/MOL
REMARK 922        TOTAL FREE ENERGY PREDICTED BY IDOCK:   -5.58 KCAL/MOL
REMARK 923 INTER-LIGAND FREE ENERGY PREDICTED BY IDOCK:   -5.31 KCAL/MOL
REMARK 924 INTRA-LIGAND FREE ENERGY PREDICTED BY IDOCK:   -0.27 KCAL/MOL
REMARK 927      BINDING AFFINITY PREDICTED BY RF-SCORE:    0.00 PKD
ROOT
HETATM    1  C   UNL     1     -12.584  14.056  65.925  1.00  0.00    -0.449 C  
HETATM    2  N   UNL     1     -11.378  14.533  66.587  1.00  0.00    -0.347 NA 
HETATM    3  H   UNL     1     -11.092  15.445  66.230  1.00  0.00     0.000 HD 
ENDROOT
BRANCH   2   4
HETATM    4  C   UNL     1     -11.537  14.553  68.046  1.00  0.00    -0.336 C  
BRANCH   4   5
HETATM    5  C   UNL     1     -10.447  13.687  68.700  1.00  0.00    -0.242 C  
BRANCH   5   6
HETATM    6  C   UNL     1      -9.922  12.600  67.788  1.00  0.00    -0.218 C  
HETATM    7  C   UNL     1     -10.081  11.264  67.947  1.00  0.00    -0.195 C  
HETATM    8  C   UNL     1     -10.820  10.762  69.128  1.00  0.00    -0.281 A  
HETATM    9  C   UNL     1     -12.199  10.972  69.264  1.00  0.00    -0.280 A  
HETATM   10  C   UNL     1     -12.877  10.500  70.387  1.00  0.00    -0.274 A  
HETATM   11  C   UNL     1     -12.185   9.807  71.377  1.00  0.00    -0.486 A  
HETATM   12  C   UNL     1     -10.815   9.576  71.242  1.00  0.00    -0.413 A  
HETATM   13  C   UNL     1     -10.125  10.047  70.117  1.00  0.00    -0.266 A  
HETATM   14  C   UNL     1      -8.656   9.763  69.932  1.00  0.00    -0.236 C  
HETATM   15  C   UNL     1      -8.426   8.764  68.795  1.00  0.00    -0.129 C  
HETATM   16  C   UNL     1      -8.713   9.188  67.364  1.00  0.00    -0.118 A  
HETATM   17  C   UNL     1      -8.229   8.314  66.365  1.00  0.00    -0.107 A  
HETATM   18  C   UNL     1      -8.442   8.562  65.011  1.00  0.00    -0.183 A  
HETATM   19  C   UNL     1      -9.154   9.687  64.624  1.00  0.00    -0.286 A  
HETATM   20  C   UNL     1      -9.656  10.557  65.593  1.00  0.00    -0.278 A  
HETATM   21  C   UNL     1      -9.446  10.332  66.970  1.00  0.00    -0.191 A  
ENDBRANCH   5   6
ENDBRANCH   4   5
ENDBRANCH   2   4
TORSDOF 3
ENDMDL
MODEL       73
REMARK 921   NORMALIZED FREE ENERGY PREDICTED BY IDOCK:   -4.58 KCAL/MOL
REMARK 922        TOTAL FREE ENERGY PREDICTED BY IDOCK:   -5.58 KCAL/MOL
REMARK 923 INTER-LIGAND FREE ENERGY PREDICTED BY IDOCK:   -5.31 KCAL/MOL
REMARK 924 INTRA-LIGAND FREE ENERGY PREDICTED BY IDOCK:   -0.27 KCAL/MOL
REMARK 927      BINDING AFFINITY PREDICTED BY RF-SCORE:    0.00 PKD
ROOT
HETATM    1  C   UNL     1     -12.191  12.213  70.704  1.00  0.00    -0.300 C  
HETATM    2  N   UNL     1     -13.190  11.715  71.638  1.00  0.00    -0.365 NA 
HETATM    3  H   UNL     1     -14.114  11.671  71.208  1.00  0.00     0.000 HD 
ENDROOT
BRANCH   2   4
HETATM    4  C   UNL     1     -12.799  10.419  72.204  1.00  0.00    -0.223 C  
BRANCH   4   5
HETATM    5  C   UNL     1     -12.952   9.319  71.140  1.00  0.00    -0.264 C  
BRANCH   5   6
HETATM    6  C   UNL     1     -12.384   7.985  71.575  1.00  0.00    -0.335 C  
HETATM    7  C   UNL     1     -11.206   7.442  71.184  1.00  0.00    -0.279 C  
HETATM    8  C   UNL     1     -10.357   8.178  70.219  1.00  0.00    -0.209 A  
HETATM    9  C   UNL     1      -9.720   9.374  70.578  1.00  0.00    -0.331 A  
HETATM   10  C   UNL     1      -8.933  10.059  69.653  1.00  0.00    -0.221 A  
HETATM   11  C   UNL     1      -8.768   9.549  68.367  1.00  0.00    -0.124 A  
HETATM   12  C   UNL     1      -9.383   8.349  68.006  1.00  0.00    -0.146 A  
HETATM   13  C   UNL     1     -10.177   7.654  68.929  1.00  0.00    -0.217 A  
HETATM   14  C   UNL     1     -10.807   6.333  68.570  1.00  0.00    -0.394 C  
HETATM   15  C   UNL     1     -10.139   5.180  69.325  1.00  0.00    -0.283 C  
HETATM   16  C   UNL     1     -10.326   5.072  70.830  1.00  0.00    -0.260 A  
HETATM   17  C   UNL     1      -9.907   3.851  71.405  1.00  0.00    -0.243 A  
HETATM   18  C   UNL     1      -9.994   3.620  72.776  1.00  0.00    -0.215 A  
HETATM   19  C   UNL     1     -10.493   4.612  73.607  1.00  0.00    -0.281 A  
HETATM   20  C   UNL     1     -10.898   5.832  73.064  1.00  0.00    -0.306 A  
HETATM   21  C   UNL     1     -10.828   6.085  71.678  1.00  0.00    -0.314 A  
ENDBRANCH   5   6
ENDBRANCH   4   5
ENDBRANCH   2   4
TORSDOF 3
ENDMDL
MODEL       74
REMARK 921   NORMALIZED FREE ENERGY PREDICTED BY IDOCK:   -4.56 KCAL/MOL
REMARK 922        TOTAL FREE ENERGY PREDICTED BY IDOCK:   -5.56 KCAL/MOL
REMARK 923 INTER-LIGAND FREE ENERGY PREDICTED BY IDOCK:   -5.32 KCAL/MOL
REMARK 924 INTRA-LIGAND FREE ENERGY PREDICTED BY IDOCK:   -0.24 KCAL/MOL
REMARK 927      BINDING AFFINITY PREDICTED BY RF-SCORE:    0.00 PKD
ROOT
HETATM    1  C   UNL     1     -10.543   7.697  73.054  1.00  0.00    -0.375 C  
HETATM    2  N   UNL     1     -11.920   8.102  72.811  1.00  0.00    -0.582 NA 
HETATM    3  H   UNL     1     -12.128   9.000  73.248  1.00  0.00     0.000 HD 
ENDROOT
BRANCH   2   4
HETATM    4  C   UNL     1     -12.231   8.118  71.377  1.00  0.00    -0.297 C  
BRANCH   4   5
HETATM    5  C   UNL     1     -10.932   8.260  70.565  1.00  0.00    -0.253 C  
BRANCH   5   6
HETATM    6  C   UNL     1     -10.926   9.471  69.658  1.00  0.00    -0.233 C  
HETATM    7  C   UNL     1     -10.622   9.491  68.338  1.00  0.00    -0.261 C  
HETATM    8  C   UNL     1     -10.230   8.229  67.669  1.00  0.00    -0.294 A  
HETATM    9  C   UNL     1     -11.156   7.196  67.469  1.00  0.00    -0.170 A  
HETATM   10  C   UNL     1     -10.767   6.011  66.847  1.00  0.00    -0.407 A  
HETATM   11  C   UNL     1      -9.454   5.854  66.409  1.00  0.00    -0.174 A  
HETATM   12  C   UNL     1      -8.529   6.884  66.586  1.00  0.00    -0.121 A  
HETATM   13  C   UNL     1      -8.911   8.078  67.212  1.00  0.00    -0.135 A  
HETATM   14  C   UNL     1      -7.938   9.219  67.366  1.00  0.00    -0.106 C  
HETATM   15  C   UNL     1      -8.310  10.389  66.452  1.00  0.00    -0.139 C  
HETATM   16  C   UNL     1      -9.573  11.184  66.740  1.00  0.00    -0.215 A  
HETATM   17  C   UNL     1      -9.703  12.395  66.023  1.00  0.00    -0.253 A  
HETATM   18  C   UNL     1     -10.822  13.213  66.166  1.00  0.00    -0.293 A  
HETATM   19  C   UNL     1     -11.842  12.834  67.025  1.00  0.00    -0.428 A  
HETATM   20  C   UNL     1     -11.744  11.634  67.731  1.00  0.00    -0.315 A  
HETATM   21  C   UNL     1     -10.617  10.794  67.610  1.00  0.00    -0.271 A  
ENDBRANCH   5   6
ENDBRANCH   4   5
ENDBRANCH   2   4
TORSDOF 3
ENDMDL
MODEL       75
REMARK 921   NORMALIZED FREE ENERGY PREDICTED BY IDOCK:   -4.56 KCAL/MOL
REMARK 922        TOTAL FREE ENERGY PREDICTED BY IDOCK:   -5.55 KCAL/MOL
REMARK 923 INTER-LIGAND FREE ENERGY PREDICTED BY IDOCK:   -5.28 KCAL/MOL
REMARK 924 INTRA-LIGAND FREE ENERGY PREDICTED BY IDOCK:   -0.27 KCAL/MOL
REMARK 927      BINDING AFFINITY PREDICTED BY RF-SCORE:    0.00 PKD
ROOT
HETATM    1  C   UNL     1     -10.873   4.534  73.302  1.00  0.00    -0.269 C  
HETATM    2  N   UNL     1     -11.404   5.870  73.071  1.00  0.00    -0.460 NA 
HETATM    3  H   UNL     1     -12.353   5.962  73.433  1.00  0.00     0.000 HD 
ENDROOT
BRANCH   2   4
HETATM    4  C   UNL     1     -10.517   6.904  73.620  1.00  0.00    -0.369 C  
BRANCH   4   5
HETATM    5  C   UNL     1      -9.570   7.413  72.520  1.00  0.00    -0.199 C  
BRANCH   5   6
HETATM    6  C   UNL     1     -10.066   8.671  71.841  1.00  0.00    -0.398 C  
HETATM    7  C   UNL     1     -10.333   8.827  70.522  1.00  0.00    -0.241 C  
HETATM    8  C   UNL     1     -10.115   7.687  69.603  1.00  0.00    -0.194 A  
HETATM    9  C   UNL     1     -10.925   6.543  69.662  1.00  0.00    -0.394 A  
HETATM   10  C   UNL     1     -10.700   5.475  68.795  1.00  0.00    -0.195 A  
HETATM   11  C   UNL     1      -9.672   5.545  67.857  1.00  0.00    -0.155 A  
HETATM   12  C   UNL     1      -8.873   6.687  67.778  1.00  0.00    -0.114 A  
HETATM   13  C   UNL     1      -9.091   7.765  68.646  1.00  0.00    -0.136 A  
HETATM   14  C   UNL     1      -8.269   9.024  68.541  1.00  0.00    -0.112 C  
HETATM   15  C   UNL     1      -9.107  10.186  68.000  1.00  0.00    -0.131 C  
HETATM   16  C   UNL     1     -10.220  10.763  68.861  1.00  0.00    -0.219 A  
HETATM   17  C   UNL     1     -10.761  11.987  68.409  1.00  0.00    -0.255 A  
HETATM   18  C   UNL     1     -11.805  12.619  69.084  1.00  0.00    -0.349 A  
HETATM   19  C   UNL     1     -12.337  12.034  70.223  1.00  0.00    -0.275 A  
HETATM   20  C   UNL     1     -11.829  10.817  70.679  1.00  0.00    -0.460 A  
HETATM   21  C   UNL     1     -10.767  10.163  70.019  1.00  0.00    -0.356 A  
ENDBRANCH   5   6
ENDBRANCH   4   5
ENDBRANCH   2   4
TORSDOF 3
ENDMDL
MODEL       76
REMARK 921   NORMALIZED FREE ENERGY PREDICTED BY IDOCK:   -4.52 KCAL/MOL
REMARK 922        TOTAL FREE ENERGY PREDICTED BY IDOCK:   -5.51 KCAL/MOL
REMARK 923 INTER-LIGAND FREE ENERGY PREDICTED BY IDOCK:   -5.26 KCAL/MOL
REMARK 924 INTRA-LIGAND FREE ENERGY PREDICTED BY IDOCK:   -0.25 KCAL/MOL
REMARK 927      BINDING AFFINITY PREDICTED BY RF-SCORE:    0.00 PKD
ROOT
HETATM    1  C   UNL     1     -12.427  10.690  70.457  1.00  0.00    -0.358 C  
HETATM    2  N   UNL     1     -12.367  10.584  69.006  1.00  0.00    -0.762 NA 
HETATM    3  H   UNL     1     -12.796  11.392  68.555  1.00  0.00     0.000 HD 
ENDROOT
BRANCH   2   4
HETATM    4  C   UNL     1     -10.993  10.374  68.537  1.00  0.00    -0.254 C  
BRANCH   4   5
HETATM    5  C   UNL     1     -10.351   9.211  69.313  1.00  0.00    -0.223 C  
BRANCH   5   6
HETATM    6  C   UNL     1     -10.128   7.978  68.464  1.00  0.00    -0.218 C  
HETATM    7  C   UNL     1     -10.299   6.690  68.849  1.00  0.00    -0.216 C  
HETATM    8  C   UNL     1     -10.728   6.403  70.236  1.00  0.00    -0.322 A  
HETATM    9  C   UNL     1     -12.014   6.737  70.682  1.00  0.00    -0.418 A  
HETATM   10  C   UNL     1     -12.397   6.468  71.995  1.00  0.00    -0.308 A  
HETATM   11  C   UNL     1     -11.503   5.853  72.869  1.00  0.00    -0.223 A  
HETATM   12  C   UNL     1     -10.226   5.499  72.429  1.00  0.00    -0.238 A  
HETATM   13  C   UNL     1      -9.832   5.767  71.111  1.00  0.00    -0.227 A  
HETATM   14  C   UNL     1      -8.475   5.347  70.607  1.00  0.00    -0.119 C  
HETATM   15  C   UNL     1      -8.592   4.196  69.604  1.00  0.00    -0.106 C  
HETATM   16  C   UNL     1      -9.222   4.456  68.245  1.00  0.00    -0.182 A  
HETATM   17  C   UNL     1      -9.052   3.426  67.293  1.00  0.00    -0.200 A  
HETATM   18  C   UNL     1      -9.598   3.515  66.014  1.00  0.00    -0.105 A  
HETATM   19  C   UNL     1     -10.335   4.635  65.660  1.00  0.00    -0.266 A  
HETATM   20  C   UNL     1     -10.530   5.658  66.590  1.00  0.00    -0.340 A  
HETATM   21  C   UNL     1      -9.980   5.594  67.887  1.00  0.00    -0.174 A  
ENDBRANCH   5   6
ENDBRANCH   4   5
ENDBRANCH   2   4
TORSDOF 3
ENDMDL
MODEL       77
REMARK 921   NORMALIZED FREE ENERGY PREDICTED BY IDOCK:   -4.51 KCAL/MOL
REMARK 922        TOTAL FREE ENERGY PREDICTED BY IDOCK:   -5.49 KCAL/MOL
REMARK 923 INTER-LIGAND FREE ENERGY PREDICTED BY IDOCK:   -5.19 KCAL/MOL
REMARK 924 INTRA-LIGAND FREE ENERGY PREDICTED BY IDOCK:   -0.30 KCAL/MOL
REMARK 927      BINDING AFFINITY PREDICTED BY RF-SCORE:    0.00 PKD
ROOT
HETATM    1  C   UNL     1     -10.398   6.879  73.917  1.00  0.00    -0.365 C  
HETATM    2  N   UNL     1     -11.578   6.754  73.072  1.00  0.00    -0.486 NA 
HETATM    3  H   UNL     1     -12.395   6.467  73.612  1.00  0.00     0.000 HD 
ENDROOT
BRANCH   2   4
HETATM    4  C   UNL     1     -11.837   7.989  72.322  1.00  0.00    -0.369 C  
BRANCH   4   5
HETATM    5  C   UNL     1     -12.128   7.652  70.850  1.00  0.00    -0.226 C  
BRANCH   5   6
HETATM    6  C   UNL     1     -11.468   6.370  70.390  1.00  0.00    -0.458 C  
HETATM    7  C   UNL     1     -10.501   6.253  69.447  1.00  0.00    -0.298 C  
HETATM    8  C   UNL     1     -10.021   7.468  68.751  1.00  0.00    -0.175 A  
HETATM    9  C   UNL     1      -9.281   8.447  69.429  1.00  0.00    -0.154 A  
HETATM   10  C   UNL     1      -8.844   9.590  68.761  1.00  0.00    -0.132 A  
HETATM   11  C   UNL     1      -9.135   9.759  67.409  1.00  0.00    -0.148 A  
HETATM   12  C   UNL     1      -9.855   8.780  66.720  1.00  0.00    -0.316 A  
HETATM   13  C   UNL     1     -10.298   7.629  67.385  1.00  0.00    -0.347 A  
HETATM   14  C   UNL     1     -11.033   6.542  66.644  1.00  0.00    -0.163 C  
HETATM   15  C   UNL     1     -10.167   5.287  66.503  1.00  0.00    -0.293 C  
HETATM   16  C   UNL     1      -9.832   4.473  67.743  1.00  0.00    -0.169 A  
HETATM   17  C   UNL     1      -9.263   3.203  67.497  1.00  0.00    -0.233 A  
HETATM   18  C   UNL     1      -8.881   2.359  68.538  1.00  0.00    -0.153 A  
HETATM   19  C   UNL     1      -9.052   2.770  69.851  1.00  0.00    -0.190 A  
HETATM   20  C   UNL     1      -9.598   4.027  70.119  1.00  0.00    -0.270 A  
HETATM   21  C   UNL     1     -10.000   4.895  69.082  1.00  0.00    -0.252 A  
ENDBRANCH   5   6
ENDBRANCH   4   5
ENDBRANCH   2   4
TORSDOF 3
ENDMDL
MODEL       78
REMARK 921   NORMALIZED FREE ENERGY PREDICTED BY IDOCK:   -4.50 KCAL/MOL
REMARK 922        TOTAL FREE ENERGY PREDICTED BY IDOCK:   -5.49 KCAL/MOL
REMARK 923 INTER-LIGAND FREE ENERGY PREDICTED BY IDOCK:   -5.28 KCAL/MOL
REMARK 924 INTRA-LIGAND FREE ENERGY PREDICTED BY IDOCK:   -0.21 KCAL/MOL
REMARK 927      BINDING AFFINITY PREDICTED BY RF-SCORE:    0.00 PKD
ROOT
HETATM    1  C   UNL     1     -10.781  11.195  67.504  1.00  0.00    -0.236 C  
HETATM    2  N   UNL     1     -12.073  10.877  68.096  1.00  0.00    -0.790 NA 
HETATM    3  H   UNL     1     -12.455  10.011  67.716  1.00  0.00     0.000 HD 
ENDROOT
BRANCH   2   4
HETATM    4  C   UNL     1     -11.996  10.833  69.561  1.00  0.00    -0.292 C  
BRANCH   4   5
HETATM    5  C   UNL     1     -10.597  10.366  69.996  1.00  0.00    -0.282 C  
BRANCH   5   6
HETATM    6  C   UNL     1     -10.630   9.250  71.017  1.00  0.00    -0.386 C  
HETATM    7  C   UNL     1      -9.956   8.077  70.956  1.00  0.00    -0.208 C  
HETATM    8  C   UNL     1      -9.099   7.798  69.781  1.00  0.00    -0.147 A  
HETATM    9  C   UNL     1      -7.919   8.522  69.555  1.00  0.00    -0.106 A  
HETATM   10  C   UNL     1      -7.130   8.253  68.439  1.00  0.00    -0.081 A  
HETATM   11  C   UNL     1      -7.506   7.253  67.544  1.00  0.00    -0.101 A  
HETATM   12  C   UNL     1      -8.669   6.515  67.770  1.00  0.00    -0.115 A  
HETATM   13  C   UNL     1      -9.470   6.779  68.890  1.00  0.00    -0.128 A  
HETATM   14  C   UNL     1     -10.701   5.958  69.174  1.00  0.00    -0.394 C  
HETATM   15  C   UNL     1     -10.495   5.059  70.397  1.00  0.00    -0.237 C  
HETATM   16  C   UNL     1     -10.375   5.695  71.773  1.00  0.00    -0.268 A  
HETATM   17  C   UNL     1     -10.455   4.798  72.862  1.00  0.00    -0.257 A  
HETATM   18  C   UNL     1     -10.334   5.235  74.179  1.00  0.00    -0.308 A  
HETATM   19  C   UNL     1     -10.122   6.581  74.438  1.00  0.00    -0.371 A  
HETATM   20  C   UNL     1     -10.024   7.483  73.377  1.00  0.00    -0.378 A  
HETATM   21  C   UNL     1     -10.151   7.066  72.036  1.00  0.00    -0.201 A  
ENDBRANCH   5   6
ENDBRANCH   4   5
ENDBRANCH   2   4
TORSDOF 3
ENDMDL
MODEL       79
REMARK 921   NORMALIZED FREE ENERGY PREDICTED BY IDOCK:   -4.46 KCAL/MOL
REMARK 922        TOTAL FREE ENERGY PREDICTED BY IDOCK:   -5.43 KCAL/MOL
REMARK 923 INTER-LIGAND FREE ENERGY PREDICTED BY IDOCK:   -5.32 KCAL/MOL
REMARK 924 INTRA-LIGAND FREE ENERGY PREDICTED BY IDOCK:   -0.11 KCAL/MOL
REMARK 927      BINDING AFFINITY PREDICTED BY RF-SCORE:    0.00 PKD
ROOT
HETATM    1  C   UNL     1      -7.878  18.215  66.050  1.00  0.00    -0.139 C  
HETATM    2  N   UNL     1      -8.929  17.232  65.827  1.00  0.00    -0.502 NA 
HETATM    3  H   UNL     1      -9.154  17.145  64.836  1.00  0.00     0.000 HD 
ENDROOT
BRANCH   2   4
HETATM    4  C   UNL     1      -8.584  15.932  66.416  1.00  0.00    -0.328 C  
BRANCH   4   5
HETATM    5  C   UNL     1      -9.573  14.861  65.926  1.00  0.00    -0.343 C  
BRANCH   5   6
HETATM    6  C   UNL     1     -10.368  14.226  67.046  1.00  0.00    -0.267 C  
HETATM    7  C   UNL     1     -10.072  13.073  67.694  1.00  0.00    -0.217 C  
HETATM    8  C   UNL     1      -8.871  12.307  67.292  1.00  0.00    -0.190 A  
HETATM    9  C   UNL     1      -7.581  12.805  67.527  1.00  0.00    -0.162 A  
HETATM   10  C   UNL     1      -6.462  12.074  67.132  1.00  0.00    -0.142 A  
HETATM   11  C   UNL     1      -6.621  10.838  66.510  1.00  0.00    -0.119 A  
HETATM   12  C   UNL     1      -7.901  10.326  66.289  1.00  0.00    -0.118 A  
HETATM   13  C   UNL     1      -9.032  11.054  66.681  1.00  0.00    -0.176 A  
HETATM   14  C   UNL     1     -10.418  10.492  66.494  1.00  0.00    -0.276 C  
HETATM   15  C   UNL     1     -11.048  10.118  67.838  1.00  0.00    -0.303 C  
HETATM   16  C   UNL     1     -11.425  11.220  68.815  1.00  0.00    -0.359 A  
HETATM   17  C   UNL     1     -12.233  10.816  69.902  1.00  0.00    -0.384 A  
HETATM   18  C   UNL     1     -12.633  11.714  70.889  1.00  0.00    -0.409 A  
HETATM   19  C   UNL     1     -12.226  13.038  70.817  1.00  0.00    -0.359 A  
HETATM   20  C   UNL     1     -11.414  13.457  69.762  1.00  0.00    -0.236 A  
HETATM   21  C   UNL     1     -11.004  12.569  68.745  1.00  0.00    -0.294 A  
ENDBRANCH   5   6
ENDBRANCH   4   5
ENDBRANCH   2   4
TORSDOF 3
ENDMDL
MODEL       80
REMARK 921   NORMALIZED FREE ENERGY PREDICTED BY IDOCK:   -4.44 KCAL/MOL
REMARK 922        TOTAL FREE ENERGY PREDICTED BY IDOCK:   -5.41 KCAL/MOL
REMARK 923 INTER-LIGAND FREE ENERGY PREDICTED BY IDOCK:   -5.24 KCAL/MOL
REMARK 924 INTRA-LIGAND FREE ENERGY PREDICTED BY IDOCK:   -0.17 KCAL/MOL
REMARK 927      BINDING AFFINITY PREDICTED BY RF-SCORE:    0.00 PKD
ROOT
HETATM    1  C   UNL     1     -11.468   8.609  71.690  1.00  0.00    -0.305 C  
HETATM    2  N   UNL     1     -10.606   9.484  70.908  1.00  0.00    -0.309 NA 
HETATM    3  H   UNL     1      -9.872   8.958  70.434  1.00  0.00     0.000 HD 
ENDROOT
BRANCH   2   4
HETATM    4  C   UNL     1     -11.380  10.297  69.962  1.00  0.00    -0.301 C  
BRANCH   4   5
HETATM    5  C   UNL     1     -10.821  10.116  68.541  1.00  0.00    -0.278 C  
BRANCH   5   6
HETATM    6  C   UNL     1     -11.193  11.246  67.605  1.00  0.00    -0.357 C  
HETATM    7  C   UNL     1     -10.343  11.989  66.856  1.00  0.00    -0.238 C  
HETATM    8  C   UNL     1      -8.889  11.723  66.938  1.00  0.00    -0.191 A  
HETATM    9  C   UNL     1      -8.339  10.535  66.437  1.00  0.00    -0.145 A  
HETATM   10  C   UNL     1      -6.969  10.297  66.531  1.00  0.00    -0.107 A  
HETATM   11  C   UNL     1      -6.136  11.247  67.118  1.00  0.00    -0.091 A  
HETATM   12  C   UNL     1      -6.672  12.442  67.604  1.00  0.00    -0.132 A  
HETATM   13  C   UNL     1      -8.048  12.689  67.514  1.00  0.00    -0.178 A  
HETATM   14  C   UNL     1      -8.634  13.994  67.988  1.00  0.00    -0.179 C  
HETATM   15  C   UNL     1      -9.106  14.848  66.809  1.00  0.00    -0.295 C  
HETATM   16  C   UNL     1     -10.306  14.392  65.994  1.00  0.00    -0.319 A  
HETATM   17  C   UNL     1     -10.835  15.354  65.105  1.00  0.00    -0.447 A  
HETATM   18  C   UNL     1     -11.918  15.067  64.276  1.00  0.00    -0.310 A  
HETATM   19  C   UNL     1     -12.492  13.805  64.312  1.00  0.00    -0.308 A  
HETATM   20  C   UNL     1     -11.976  12.833  65.171  1.00  0.00    -0.466 A  
HETATM   21  C   UNL     1     -10.887  13.103  66.025  1.00  0.00    -0.287 A  
ENDBRANCH   5   6
ENDBRANCH   4   5
ENDBRANCH   2   4
TORSDOF 3
ENDMDL
MODEL       81
REMARK 921   NORMALIZED FREE ENERGY PREDICTED BY IDOCK:   -4.43 KCAL/MOL
REMARK 922        TOTAL FREE ENERGY PREDICTED BY IDOCK:   -5.41 KCAL/MOL
REMARK 923 INTER-LIGAND FREE ENERGY PREDICTED BY IDOCK:   -5.17 KCAL/MOL
REMARK 924 INTRA-LIGAND FREE ENERGY PREDICTED BY IDOCK:   -0.23 KCAL/MOL
REMARK 927      BINDING AFFINITY PREDICTED BY RF-SCORE:    0.00 PKD
ROOT
HETATM    1  C   UNL     1      -7.907   9.946  65.068  1.00  0.00    -0.131 C  
HETATM    2  N   UNL     1      -8.591  11.196  65.367  1.00  0.00    -0.367 NA 
HETATM    3  H   UNL     1      -9.305  11.407  64.670  1.00  0.00     0.000 HD 
ENDROOT
BRANCH   2   4
HETATM    4  C   UNL     1      -9.148  11.194  66.724  1.00  0.00    -0.166 C  
BRANCH   4   5
HETATM    5  C   UNL     1      -9.777   9.823  67.026  1.00  0.00    -0.233 C  
BRANCH   5   6
HETATM    6  C   UNL     1     -10.734   9.850  68.198  1.00  0.00    -0.279 C  
HETATM    7  C   UNL     1     -10.570   9.226  69.390  1.00  0.00    -0.234 C  
HETATM    8  C   UNL     1      -9.359   8.405  69.614  1.00  0.00    -0.161 A  
HETATM    9  C   UNL     1      -8.091   8.994  69.716  1.00  0.00    -0.109 A  
HETATM   10  C   UNL     1      -6.961   8.205  69.917  1.00  0.00    -0.048 A  
HETATM   11  C   UNL     1      -7.088   6.822  70.028  1.00  0.00    -0.071 A  
HETATM   12  C   UNL     1      -8.349   6.227  69.947  1.00  0.00    -0.129 A  
HETATM   13  C   UNL     1      -9.491   7.013  69.743  1.00  0.00    -0.145 A  
HETATM   14  C   UNL     1     -10.863   6.391  69.703  1.00  0.00    -0.380 C  
HETATM   15  C   UNL     1     -11.675   6.764  70.946  1.00  0.00    -0.424 C  
HETATM   16  C   UNL     1     -12.129   8.202  71.133  1.00  0.00    -0.281 A  
HETATM   17  C   UNL     1     -13.086   8.407  72.153  1.00  0.00    -0.357 A  
HETATM   18  C   UNL     1     -13.573   9.677  72.454  1.00  0.00    -0.397 A  
HETATM   19  C   UNL     1     -13.107  10.775  71.747  1.00  0.00    -0.573 A  
HETATM   20  C   UNL     1     -12.150  10.600  70.746  1.00  0.00    -0.474 A  
HETATM   21  C   UNL     1     -11.649   9.323  70.417  1.00  0.00    -0.215 A  
ENDBRANCH   5   6
ENDBRANCH   4   5
ENDBRANCH   2   4
TORSDOF 3
ENDMDL
MODEL       82
REMARK 921   NORMALIZED FREE ENERGY PREDICTED BY IDOCK:   -4.43 KCAL/MOL
REMARK 922        TOTAL FREE ENERGY PREDICTED BY IDOCK:   -5.40 KCAL/MOL
REMARK 923 INTER-LIGAND FREE ENERGY PREDICTED BY IDOCK:   -5.18 KCAL/MOL
REMARK 924 INTRA-LIGAND FREE ENERGY PREDICTED BY IDOCK:   -0.22 KCAL/MOL
REMARK 927      BINDING AFFINITY PREDICTED BY RF-SCORE:    0.00 PKD
ROOT
HETATM    1  C   UNL     1      -5.910  10.731  70.396  1.00  0.00    -0.118 C  
HETATM    2  N   UNL     1      -6.392   9.909  71.497  1.00  0.00    -0.313 NA 
HETATM    3  H   UNL     1      -7.260  10.279  71.886  1.00  0.00     0.000 HD 
ENDROOT
BRANCH   2   4
HETATM    4  C   UNL     1      -6.539   8.505  71.096  1.00  0.00    -0.055 C  
BRANCH   4   5
HETATM    5  C   UNL     1      -7.681   8.373  70.074  1.00  0.00    -0.090 C  
BRANCH   5   6
HETATM    6  C   UNL     1      -9.052   8.578  70.681  1.00  0.00    -0.184 C  
HETATM    7  C   UNL     1     -10.183   8.930  70.024  1.00  0.00    -0.214 C  
HETATM    8  C   UNL     1     -10.124   9.170  68.564  1.00  0.00    -0.212 A  
HETATM    9  C   UNL     1      -9.893   8.118  67.665  1.00  0.00    -0.216 A  
HETATM   10  C   UNL     1      -9.831   8.364  66.294  1.00  0.00    -0.257 A  
HETATM   11  C   UNL     1     -10.008   9.659  65.810  1.00  0.00    -0.342 A  
HETATM   12  C   UNL     1     -10.257  10.709  66.696  1.00  0.00    -0.284 A  
HETATM   13  C   UNL     1     -10.320  10.471  68.076  1.00  0.00    -0.212 A  
HETATM   14  C   UNL     1     -10.637  11.585  69.040  1.00  0.00    -0.207 C  
HETATM   15  C   UNL     1     -12.031  11.410  69.647  1.00  0.00    -0.416 C  
HETATM   16  C   UNL     1     -12.285  10.257  70.605  1.00  0.00    -0.422 A  
HETATM   17  C   UNL     1     -13.503  10.320  71.318  1.00  0.00    -0.267 A  
HETATM   18  C   UNL     1     -13.881   9.319  72.212  1.00  0.00    -0.492 A  
HETATM   19  C   UNL     1     -13.050   8.226  72.406  1.00  0.00    -0.200 A  
HETATM   20  C   UNL     1     -11.849   8.134  71.701  1.00  0.00    -0.334 A  
HETATM   21  C   UNL     1     -11.442   9.139  70.798  1.00  0.00    -0.337 A  
ENDBRANCH   5   6
ENDBRANCH   4   5
ENDBRANCH   2   4
TORSDOF 3
ENDMDL
MODEL       83
REMARK 921   NORMALIZED FREE ENERGY PREDICTED BY IDOCK:   -4.41 KCAL/MOL
REMARK 922        TOTAL FREE ENERGY PREDICTED BY IDOCK:   -5.38 KCAL/MOL
REMARK 923 INTER-LIGAND FREE ENERGY PREDICTED BY IDOCK:   -5.18 KCAL/MOL
REMARK 924 INTRA-LIGAND FREE ENERGY PREDICTED BY IDOCK:   -0.20 KCAL/MOL
REMARK 927      BINDING AFFINITY PREDICTED BY RF-SCORE:    0.00 PKD
ROOT
HETATM    1  C   UNL     1     -12.081  16.030  72.096  1.00  0.00    -0.526 C  
HETATM    2  N   UNL     1     -11.805  14.710  71.546  1.00  0.00    -0.417 NA 
HETATM    3  H   UNL     1     -11.710  14.011  72.283  1.00  0.00     0.000 HD 
ENDROOT
BRANCH   2   4
HETATM    4  C   UNL     1     -12.818  14.316  70.559  1.00  0.00    -0.275 C  
BRANCH   4   5
HETATM    5  C   UNL     1     -12.150  14.082  69.193  1.00  0.00    -0.375 C  
BRANCH   5   6
HETATM    6  C   UNL     1     -10.673  14.411  69.188  1.00  0.00    -0.254 C  
HETATM    7  C   UNL     1      -9.844  14.388  68.117  1.00  0.00    -0.223 C  
HETATM    8  C   UNL     1     -10.382  13.988  66.796  1.00  0.00    -0.271 A  
HETATM    9  C   UNL     1     -11.295  14.801  66.109  1.00  0.00    -0.330 A  
HETATM   10  C   UNL     1     -11.798  14.405  64.872  1.00  0.00    -0.419 A  
HETATM   11  C   UNL     1     -11.387  13.199  64.306  1.00  0.00    -0.427 A  
HETATM   12  C   UNL     1     -10.465  12.392  64.974  1.00  0.00    -0.324 A  
HETATM   13  C   UNL     1      -9.954  12.782  66.219  1.00  0.00    -0.269 A  
HETATM   14  C   UNL     1      -8.920  11.946  66.930  1.00  0.00    -0.196 C  
HETATM   15  C   UNL     1      -7.555  12.639  66.929  1.00  0.00     0.113 C  
HETATM   16  C   UNL     1      -7.364  13.905  67.749  1.00  0.00    -0.170 A  
HETATM   17  C   UNL     1      -6.024  14.327  67.907  1.00  0.00    -0.145 A  
HETATM   18  C   UNL     1      -5.701  15.485  68.611  1.00  0.00    -0.099 A  
HETATM   19  C   UNL     1      -6.712  16.254  69.167  1.00  0.00    -0.196 A  
HETATM   20  C   UNL     1      -8.044  15.866  69.010  1.00  0.00    -0.229 A  
HETATM   21  C   UNL     1      -8.396  14.693  68.309  1.00  0.00    -0.148 A  
ENDBRANCH   5   6
ENDBRANCH   4   5
ENDBRANCH   2   4
TORSDOF 3
ENDMDL
MODEL       84
REMARK 921   NORMALIZED FREE ENERGY PREDICTED BY IDOCK:   -4.40 KCAL/MOL
REMARK 922        TOTAL FREE ENERGY PREDICTED BY IDOCK:   -5.37 KCAL/MOL
REMARK 923 INTER-LIGAND FREE ENERGY PREDICTED BY IDOCK:   -5.13 KCAL/MOL
REMARK 924 INTRA-LIGAND FREE ENERGY PREDICTED BY IDOCK:   -0.24 KCAL/MOL
REMARK 927      BINDING AFFINITY PREDICTED BY RF-SCORE:    0.00 PKD
ROOT
HETATM    1  C   UNL     1      -6.279   6.362  73.569  1.00  0.00    -0.064 C  
HETATM    2  N   UNL     1      -6.796   7.620  73.049  1.00  0.00    -0.067 NA 
HETATM    3  H   UNL     1      -7.141   7.515  72.094  1.00  0.00     0.000 HD 
ENDROOT
BRANCH   2   4
HETATM    4  C   UNL     1      -7.822   8.187  73.932  1.00  0.00    -0.204 C  
BRANCH   4   5
HETATM    5  C   UNL     1      -9.106   8.458  73.130  1.00  0.00    -0.225 C  
BRANCH   5   6
HETATM    6  C   UNL     1      -8.889   8.438  71.632  1.00  0.00    -0.246 C  
HETATM    7  C   UNL     1      -9.849   8.378  70.677  1.00  0.00    -0.208 C  
HETATM    8  C   UNL     1     -11.270   8.302  71.087  1.00  0.00    -0.296 A  
HETATM    9  C   UNL     1     -11.907   9.391  71.699  1.00  0.00    -0.464 A  
HETATM   10  C   UNL     1     -13.242   9.299  72.087  1.00  0.00    -0.535 A  
HETATM   11  C   UNL     1     -13.955   8.124  71.856  1.00  0.00    -0.451 A  
HETATM   12  C   UNL     1     -13.335   7.042  71.230  1.00  0.00    -0.282 A  
HETATM   13  C   UNL     1     -11.992   7.125  70.838  1.00  0.00    -0.375 A  
HETATM   14  C   UNL     1     -11.323   5.983  70.116  1.00  0.00    -0.351 C  
HETATM   15  C   UNL     1     -11.052   6.339  68.652  1.00  0.00    -0.409 C  
HETATM   16  C   UNL     1     -10.012   7.399  68.325  1.00  0.00    -0.182 A  
HETATM   17  C   UNL     1      -9.635   7.477  66.966  1.00  0.00    -0.221 A  
HETATM   18  C   UNL     1      -8.712   8.419  66.516  1.00  0.00    -0.151 A  
HETATM   19  C   UNL     1      -8.151   9.312  67.416  1.00  0.00    -0.110 A  
HETATM   20  C   UNL     1      -8.520   9.264  68.762  1.00  0.00    -0.129 A  
HETATM   21  C   UNL     1      -9.446   8.314  69.242  1.00  0.00    -0.155 A  
ENDBRANCH   5   6
ENDBRANCH   4   5
ENDBRANCH   2   4
TORSDOF 3
ENDMDL
MODEL       85
REMARK 921   NORMALIZED FREE ENERGY PREDICTED BY IDOCK:   -4.38 KCAL/MOL
REMARK 922        TOTAL FREE ENERGY PREDICTED BY IDOCK:   -5.35 KCAL/MOL
REMARK 923 INTER-LIGAND FREE ENERGY PREDICTED BY IDOCK:   -5.22 KCAL/MOL
REMARK 924 INTRA-LIGAND FREE ENERGY PREDICTED BY IDOCK:   -0.13 KCAL/MOL
REMARK 927      BINDING AFFINITY PREDICTED BY RF-SCORE:    0.00 PKD
ROOT
HETATM    1  C   UNL     1      -8.924  11.070  62.371  1.00  0.00    -0.297 C  
HETATM    2  N   UNL     1     -10.234  10.551  62.740  1.00  0.00    -0.697 NA 
HETATM    3  H   UNL     1     -10.164   9.853  63.481  1.00  0.00     0.000 HD 
ENDROOT
BRANCH   2   4
HETATM    4  C   UNL     1     -11.157  11.632  63.107  1.00  0.00    -0.121 C  
BRANCH   4   5
HETATM    5  C   UNL     1     -10.861  12.104  64.541  1.00  0.00    -0.356 C  
BRANCH   5   6
HETATM    6  C   UNL     1     -10.459  10.978  65.469  1.00  0.00    -0.302 C  
HETATM    7  C   UNL     1     -10.299  11.056  66.812  1.00  0.00    -0.284 C  
HETATM    8  C   UNL     1     -10.507  12.356  67.489  1.00  0.00    -0.229 A  
HETATM    9  C   UNL     1     -11.783  12.931  67.579  1.00  0.00    -0.422 A  
HETATM   10  C   UNL     1     -11.959  14.160  68.212  1.00  0.00    -0.367 A  
HETATM   11  C   UNL     1     -10.866  14.819  68.769  1.00  0.00    -0.259 A  
HETATM   12  C   UNL     1      -9.594  14.246  68.701  1.00  0.00    -0.192 A  
HETATM   13  C   UNL     1      -9.408  13.011  68.066  1.00  0.00    -0.213 A  
HETATM   14  C   UNL     1      -8.051  12.356  68.028  1.00  0.00    -0.162 C  
HETATM   15  C   UNL     1      -8.011  11.116  68.927  1.00  0.00    -0.126 C  
HETATM   16  C   UNL     1      -8.820   9.890  68.536  1.00  0.00    -0.122 A  
HETATM   17  C   UNL     1      -8.524   8.714  69.262  1.00  0.00    -0.123 A  
HETATM   18  C   UNL     1      -9.205   7.521  69.030  1.00  0.00    -0.146 A  
HETATM   19  C   UNL     1     -10.206   7.478  68.071  1.00  0.00    -0.239 A  
HETATM   20  C   UNL     1     -10.526   8.631  67.352  1.00  0.00    -0.351 A  
HETATM   21  C   UNL     1      -9.845   9.849  67.563  1.00  0.00    -0.209 A  
ENDBRANCH   5   6
ENDBRANCH   4   5
ENDBRANCH   2   4
TORSDOF 3
ENDMDL
MODEL       86
REMARK 921   NORMALIZED FREE ENERGY PREDICTED BY IDOCK:   -4.36 KCAL/MOL
REMARK 922        TOTAL FREE ENERGY PREDICTED BY IDOCK:   -5.33 KCAL/MOL
REMARK 923 INTER-LIGAND FREE ENERGY PREDICTED BY IDOCK:   -5.16 KCAL/MOL
REMARK 924 INTRA-LIGAND FREE ENERGY PREDICTED BY IDOCK:   -0.16 KCAL/MOL
REMARK 927      BINDING AFFINITY PREDICTED BY RF-SCORE:    0.00 PKD
ROOT
HETATM    1  C   UNL     1     -12.288  13.021  63.238  1.00  0.00    -0.306 C  
HETATM    2  N   UNL     1     -12.336  14.238  64.037  1.00  0.00    -0.878 NA 
HETATM    3  H   UNL     1     -12.734  15.015  63.510  1.00  0.00     0.000 HD 
ENDROOT
BRANCH   2   4
HETATM    4  C   UNL     1     -13.050  14.023  65.301  1.00  0.00    -0.136 C  
BRANCH   4   5
HETATM    5  C   UNL     1     -12.191  13.166  66.246  1.00  0.00    -0.423 C  
BRANCH   5   6
HETATM    6  C   UNL     1     -10.900  13.841  66.654  1.00  0.00    -0.288 C  
HETATM    7  C   UNL     1      -9.654  13.313  66.584  1.00  0.00    -0.262 C  
HETATM    8  C   UNL     1      -9.484  11.931  66.082  1.00  0.00    -0.243 A  
HETATM    9  C   UNL     1      -9.726  11.612  64.739  1.00  0.00    -0.217 A  
HETATM   10  C   UNL     1      -9.570  10.303  64.286  1.00  0.00    -0.375 A  
HETATM   11  C   UNL     1      -9.162   9.305  65.168  1.00  0.00    -0.264 A  
HETATM   12  C   UNL     1      -8.900   9.616  66.503  1.00  0.00    -0.158 A  
HETATM   13  C   UNL     1      -9.055  10.929  66.968  1.00  0.00    -0.158 A  
HETATM   14  C   UNL     1      -8.728  11.291  68.394  1.00  0.00    -0.159 C  
HETATM   15  C   UNL     1      -7.463  12.150  68.470  1.00  0.00    -0.117 C  
HETATM   16  C   UNL     1      -7.494  13.568  67.922  1.00  0.00    -0.153 A  
HETATM   17  C   UNL     1      -6.386  14.374  68.266  1.00  0.00    -0.118 A  
HETATM   18  C   UNL     1      -6.267  15.686  67.812  1.00  0.00    -0.179 A  
HETATM   19  C   UNL     1      -7.252  16.220  66.995  1.00  0.00    -0.262 A  
HETATM   20  C   UNL     1      -8.348  15.438  66.629  1.00  0.00    -0.255 A  
HETATM   21  C   UNL     1      -8.495  14.110  67.083  1.00  0.00    -0.214 A  
ENDBRANCH   5   6
ENDBRANCH   4   5
ENDBRANCH   2   4
TORSDOF 3
ENDMDL
MODEL       87
REMARK 921   NORMALIZED FREE ENERGY PREDICTED BY IDOCK:   -4.35 KCAL/MOL
REMARK 922        TOTAL FREE ENERGY PREDICTED BY IDOCK:   -5.31 KCAL/MOL
REMARK 923 INTER-LIGAND FREE ENERGY PREDICTED BY IDOCK:   -5.15 KCAL/MOL
REMARK 924 INTRA-LIGAND FREE ENERGY PREDICTED BY IDOCK:   -0.16 KCAL/MOL
REMARK 927      BINDING AFFINITY PREDICTED BY RF-SCORE:    0.00 PKD
ROOT
HETATM    1  C   UNL     1     -11.746  12.938  63.789  1.00  0.00    -0.492 C  
HETATM    2  N   UNL     1     -11.274  11.629  64.218  1.00  0.00    -0.338 NA 
HETATM    3  H   UNL     1     -10.728  11.172  63.488  1.00  0.00     0.000 HD 
ENDROOT
BRANCH   2   4
HETATM    4  C   UNL     1     -10.525  11.712  65.477  1.00  0.00    -0.273 C  
BRANCH   4   5
HETATM    5  C   UNL     1     -10.227  10.297  66.000  1.00  0.00    -0.298 C  
BRANCH   5   6
HETATM    6  C   UNL     1     -10.817  10.030  67.368  1.00  0.00    -0.313 C  
HETATM    7  C   UNL     1     -10.395   9.106  68.264  1.00  0.00    -0.256 C  
HETATM    8  C   UNL     1      -9.256   8.227  67.912  1.00  0.00    -0.140 A  
HETATM    9  C   UNL     1      -7.957   8.739  67.784  1.00  0.00    -0.106 A  
HETATM   10  C   UNL     1      -6.899   7.900  67.443  1.00  0.00    -0.070 A  
HETATM   11  C   UNL     1      -7.127   6.541  67.236  1.00  0.00    -0.077 A  
HETATM   12  C   UNL     1      -8.414   6.018  67.379  1.00  0.00    -0.104 A  
HETATM   13  C   UNL     1      -9.484   6.855  67.721  1.00  0.00    -0.128 A  
HETATM   14  C   UNL     1     -10.869   6.298  67.928  1.00  0.00    -0.417 C  
HETATM   15  C   UNL     1     -11.267   6.341  69.406  1.00  0.00    -0.489 C  
HETATM   16  C   UNL     1     -11.508   7.686  70.071  1.00  0.00    -0.012 A  
HETATM   17  C   UNL     1     -12.122   7.631  71.343  1.00  0.00    -0.342 A  
HETATM   18  C   UNL     1     -12.379   8.784  72.081  1.00  0.00    -0.458 A  
HETATM   19  C   UNL     1     -12.020  10.021  71.567  1.00  0.00    -0.438 A  
HETATM   20  C   UNL     1     -11.397  10.100  70.320  1.00  0.00    -0.387 A  
HETATM   21  C   UNL     1     -11.134   8.947  69.550  1.00  0.00    -0.015 A  
ENDBRANCH   5   6
ENDBRANCH   4   5
ENDBRANCH   2   4
TORSDOF 3
ENDMDL
MODEL       88
REMARK 921   NORMALIZED FREE ENERGY PREDICTED BY IDOCK:   -4.33 KCAL/MOL
REMARK 922        TOTAL FREE ENERGY PREDICTED BY IDOCK:   -5.28 KCAL/MOL
REMARK 923 INTER-LIGAND FREE ENERGY PREDICTED BY IDOCK:   -5.10 KCAL/MOL
REMARK 924 INTRA-LIGAND FREE ENERGY PREDICTED BY IDOCK:   -0.18 KCAL/MOL
REMARK 927      BINDING AFFINITY PREDICTED BY RF-SCORE:    0.00 PKD
ROOT
HETATM    1  C   UNL     1      -9.085   6.619  69.046  1.00  0.00    -0.133 C  
HETATM    2  N   UNL     1      -9.639   6.178  67.773  1.00  0.00    -0.114 NA 
HETATM    3  H   UNL     1     -10.202   5.334  67.884  1.00  0.00     0.000 HD 
ENDROOT
BRANCH   2   4
HETATM    4  C   UNL     1     -10.399   7.248  67.117  1.00  0.00    -0.297 C  
BRANCH   4   5
HETATM    5  C   UNL     1      -9.434   8.321  66.586  1.00  0.00    -0.271 C  
BRANCH   5   6
HETATM    6  C   UNL     1     -10.142   9.507  65.968  1.00  0.00    -0.319 C  
HETATM    7  C   UNL     1      -9.615  10.734  65.738  1.00  0.00    -0.254 C  
HETATM    8  C   UNL     1      -8.213  11.001  66.130  1.00  0.00    -0.155 A  
HETATM    9  C   UNL     1      -7.143  10.385  65.465  1.00  0.00    -0.133 A  
HETATM   10  C   UNL     1      -5.830  10.641  65.855  1.00  0.00    -0.133 A  
HETATM   11  C   UNL     1      -5.573  11.521  66.903  1.00  0.00    -0.129 A  
HETATM   12  C   UNL     1      -6.631  12.155  67.559  1.00  0.00    -0.132 A  
HETATM   13  C   UNL     1      -7.955  11.902  67.175  1.00  0.00    -0.172 A  
HETATM   14  C   UNL     1      -9.104  12.615  67.840  1.00  0.00    -0.200 C  
HETATM   15  C   UNL     1      -9.751  13.626  66.889  1.00  0.00    -0.262 C  
HETATM   16  C   UNL     1     -10.522  13.120  65.681  1.00  0.00    -0.290 A  
HETATM   17  C   UNL     1     -11.303  14.089  65.012  1.00  0.00    -0.342 A  
HETATM   18  C   UNL     1     -12.041  13.774  63.872  1.00  0.00    -0.423 A  
HETATM   19  C   UNL     1     -12.008  12.483  63.370  1.00  0.00    -0.602 A  
HETATM   20  C   UNL     1     -11.231  11.512  64.004  1.00  0.00    -0.414 A  
HETATM   21  C   UNL     1     -10.482  11.804  65.164  1.00  0.00    -0.330 A  
ENDBRANCH   5   6
ENDBRANCH   4   5
ENDBRANCH   2   4
TORSDOF 3
ENDMDL
MODEL       89
REMARK 921   NORMALIZED FREE ENERGY PREDICTED BY IDOCK:   -4.33 KCAL/MOL
REMARK 922        TOTAL FREE ENERGY PREDICTED BY IDOCK:   -5.28 KCAL/MOL
REMARK 923 INTER-LIGAND FREE ENERGY PREDICTED BY IDOCK:   -5.00 KCAL/MOL
REMARK 924 INTRA-LIGAND FREE ENERGY PREDICTED BY IDOCK:   -0.28 KCAL/MOL
REMARK 927      BINDING AFFINITY PREDICTED BY RF-SCORE:    0.00 PKD
ROOT
HETATM    1  C   UNL     1      -6.430  15.240  69.444  1.00  0.00    -0.141 C  
HETATM    2  N   UNL     1      -7.686  14.709  69.954  1.00  0.00    -0.391 NA 
HETATM    3  H   UNL     1      -7.687  14.665  70.973  1.00  0.00     0.000 HD 
ENDROOT
BRANCH   2   4
HETATM    4  C   UNL     1      -8.836  15.470  69.449  1.00  0.00    -0.257 C  
BRANCH   4   5
HETATM    5  C   UNL     1      -9.963  14.504  69.048  1.00  0.00    -0.162 C  
BRANCH   5   6
HETATM    6  C   UNL     1      -9.470  13.297  68.280  1.00  0.00    -0.209 C  
HETATM    7  C   UNL     1      -9.569  13.093  66.944  1.00  0.00    -0.248 C  
HETATM    8  C   UNL     1     -10.238  14.115  66.106  1.00  0.00    -0.313 A  
HETATM    9  C   UNL     1      -9.659  15.376  65.900  1.00  0.00    -0.386 A  
HETATM   10  C   UNL     1     -10.307  16.328  65.116  1.00  0.00    -0.154 A  
HETATM   11  C   UNL     1     -11.532  16.027  64.524  1.00  0.00    -0.274 A  
HETATM   12  C   UNL     1     -12.106  14.768  64.708  1.00  0.00    -0.387 A  
HETATM   13  C   UNL     1     -11.463  13.804  65.495  1.00  0.00    -0.319 A  
HETATM   14  C   UNL     1     -12.046  12.424  65.663  1.00  0.00    -0.396 C  
HETATM   15  C   UNL     1     -11.207  11.377  64.924  1.00  0.00    -0.180 C  
HETATM   16  C   UNL     1      -9.812  11.051  65.430  1.00  0.00    -0.301 A  
HETATM   17  C   UNL     1      -9.216   9.902  64.864  1.00  0.00    -0.301 A  
HETATM   18  C   UNL     1      -7.929   9.497  65.214  1.00  0.00    -0.112 A  
HETATM   19  C   UNL     1      -7.204  10.240  66.134  1.00  0.00    -0.121 A  
HETATM   20  C   UNL     1      -7.766  11.388  66.694  1.00  0.00    -0.129 A  
HETATM   21  C   UNL     1      -9.069  11.813  66.363  1.00  0.00    -0.215 A  
ENDBRANCH   5   6
ENDBRANCH   4   5
ENDBRANCH   2   4
TORSDOF 3
ENDMDL
MODEL       90
REMARK 921   NORMALIZED FREE ENERGY PREDICTED BY IDOCK:   -4.30 KCAL/MOL
REMARK 922        TOTAL FREE ENERGY PREDICTED BY IDOCK:   -5.25 KCAL/MOL
REMARK 923 INTER-LIGAND FREE ENERGY PREDICTED BY IDOCK:   -4.93 KCAL/MOL
REMARK 924 INTRA-LIGAND FREE ENERGY PREDICTED BY IDOCK:   -0.32 KCAL/MOL
REMARK 927      BINDING AFFINITY PREDICTED BY RF-SCORE:    0.00 PKD
ROOT
HETATM    1  C   UNL     1     -12.236  10.992  70.861  1.00  0.00    -0.367 C  
HETATM    2  N   UNL     1     -11.735  12.070  70.020  1.00  0.00    -0.477 NA 
HETATM    3  H   UNL     1     -11.991  11.931  69.043  1.00  0.00     0.000 HD 
ENDROOT
BRANCH   2   4
HETATM    4  C   UNL     1     -12.174  13.383  70.509  1.00  0.00    -0.352 C  
BRANCH   4   5
HETATM    5  C   UNL     1     -12.146  14.403  69.358  1.00  0.00    -0.338 C  
BRANCH   5   6
HETATM    6  C   UNL     1     -10.794  15.058  69.175  1.00  0.00    -0.251 C  
HETATM    7  C   UNL     1      -9.870  14.755  68.231  1.00  0.00    -0.222 C  
HETATM    8  C   UNL     1     -10.153  13.667  67.268  1.00  0.00    -0.239 A  
HETATM    9  C   UNL     1     -11.149  13.804  66.290  1.00  0.00    -0.302 A  
HETATM   10  C   UNL     1     -11.408  12.766  65.398  1.00  0.00    -0.339 A  
HETATM   11  C   UNL     1     -10.668  11.587  65.467  1.00  0.00    -0.328 A  
HETATM   12  C   UNL     1      -9.662  11.448  66.425  1.00  0.00    -0.231 A  
HETATM   13  C   UNL     1      -9.395  12.486  67.327  1.00  0.00    -0.190 A  
HETATM   14  C   UNL     1      -8.280  12.371  68.334  1.00  0.00    -0.144 C  
HETATM   15  C   UNL     1      -7.121  13.309  67.984  1.00  0.00    -0.122 C  
HETATM   16  C   UNL     1      -7.321  14.812  68.100  1.00  0.00    -0.122 A  
HETATM   17  C   UNL     1      -6.142  15.587  68.019  1.00  0.00    -0.150 A  
HETATM   18  C   UNL     1      -6.176  16.978  68.083  1.00  0.00    -0.132 A  
HETATM   19  C   UNL     1      -7.393  17.628  68.221  1.00  0.00    -0.234 A  
HETATM   20  C   UNL     1      -8.572  16.884  68.287  1.00  0.00    -0.230 A  
HETATM   21  C   UNL     1      -8.563  15.475  68.234  1.00  0.00    -0.161 A  
ENDBRANCH   5   6
ENDBRANCH   4   5
ENDBRANCH   2   4
TORSDOF 3
ENDMDL
MODEL       91
REMARK 921   NORMALIZED FREE ENERGY PREDICTED BY IDOCK:   -4.30 KCAL/MOL
REMARK 922        TOTAL FREE ENERGY PREDICTED BY IDOCK:   -5.25 KCAL/MOL
REMARK 923 INTER-LIGAND FREE ENERGY PREDICTED BY IDOCK:   -5.01 KCAL/MOL
REMARK 924 INTRA-LIGAND FREE ENERGY PREDICTED BY IDOCK:   -0.24 KCAL/MOL
REMARK 927      BINDING AFFINITY PREDICTED BY RF-SCORE:    0.00 PKD
ROOT
HETATM    1  C   UNL     1     -10.054  11.954  65.322  1.00  0.00    -0.257 C  
HETATM    2  N   UNL     1      -8.848  11.670  66.086  1.00  0.00    -0.312 NA 
HETATM    3  H   UNL     1      -8.008  11.923  65.565  1.00  0.00     0.000 HD 
ENDROOT
BRANCH   2   4
HETATM    4  C   UNL     1      -8.879  12.318  67.402  1.00  0.00    -0.185 C  
BRANCH   4   5
HETATM    5  C   UNL     1      -8.367  11.341  68.475  1.00  0.00    -0.155 C  
BRANCH   5   6
HETATM    6  C   UNL     1      -8.665   9.893  68.154  1.00  0.00    -0.122 C  
HETATM    7  C   UNL     1      -9.745   9.182  68.557  1.00  0.00    -0.166 C  
HETATM    8  C   UNL     1     -10.758   9.834  69.419  1.00  0.00    -0.250 A  
HETATM    9  C   UNL     1     -11.580  10.857  68.924  1.00  0.00    -0.378 A  
HETATM   10  C   UNL     1     -12.521  11.466  69.752  1.00  0.00    -0.161 A  
HETATM   11  C   UNL     1     -12.656  11.053  71.075  1.00  0.00    -0.512 A  
HETATM   12  C   UNL     1     -11.855  10.022  71.571  1.00  0.00    -0.406 A  
HETATM   13  C   UNL     1     -10.906   9.404  70.747  1.00  0.00    -0.372 A  
HETATM   14  C   UNL     1     -10.068   8.258  71.253  1.00  0.00    -0.249 C  
HETATM   15  C   UNL     1     -10.481   6.940  70.592  1.00  0.00    -0.233 C  
HETATM   16  C   UNL     1     -10.204   6.732  69.112  1.00  0.00    -0.195 A  
HETATM   17  C   UNL     1     -10.369   5.408  68.645  1.00  0.00    -0.229 A  
HETATM   18  C   UNL     1     -10.175   5.075  67.306  1.00  0.00    -0.219 A  
HETATM   19  C   UNL     1      -9.820   6.062  66.400  1.00  0.00    -0.155 A  
HETATM   20  C   UNL     1      -9.667   7.380  66.834  1.00  0.00    -0.265 A  
HETATM   21  C   UNL     1      -9.849   7.740  68.186  1.00  0.00    -0.190 A  
ENDBRANCH   5   6
ENDBRANCH   4   5
ENDBRANCH   2   4
TORSDOF 3
ENDMDL
MODEL       92
REMARK 921   NORMALIZED FREE ENERGY PREDICTED BY IDOCK:   -4.26 KCAL/MOL
REMARK 922        TOTAL FREE ENERGY PREDICTED BY IDOCK:   -5.21 KCAL/MOL
REMARK 923 INTER-LIGAND FREE ENERGY PREDICTED BY IDOCK:   -4.94 KCAL/MOL
REMARK 924 INTRA-LIGAND FREE ENERGY PREDICTED BY IDOCK:   -0.26 KCAL/MOL
REMARK 927      BINDING AFFINITY PREDICTED BY RF-SCORE:    0.00 PKD
ROOT
HETATM    1  C   UNL     1      -8.813   7.597  67.057  1.00  0.00    -0.128 C  
HETATM    2  N   UNL     1      -8.750   7.625  68.512  1.00  0.00    -0.128 NA 
HETATM    3  H   UNL     1      -8.815   6.686  68.906  1.00  0.00     0.000 HD 
ENDROOT
BRANCH   2   4
HETATM    4  C   UNL     1      -7.549   8.323  68.985  1.00  0.00    -0.089 C  
BRANCH   4   5
HETATM    5  C   UNL     1      -7.874   9.103  70.271  1.00  0.00    -0.129 C  
BRANCH   5   6
HETATM    6  C   UNL     1      -9.358   9.211  70.544  1.00  0.00    -0.287 C  
HETATM    7  C   UNL     1     -10.039   8.621  71.555  1.00  0.00    -0.345 C  
HETATM    8  C   UNL     1      -9.308   7.755  72.508  1.00  0.00    -0.234 A  
HETATM    9  C   UNL     1      -8.378   8.292  73.409  1.00  0.00    -0.252 A  
HETATM   10  C   UNL     1      -7.692   7.461  74.293  1.00  0.00    -0.164 A  
HETATM   11  C   UNL     1      -7.936   6.089  74.291  1.00  0.00    -0.102 A  
HETATM   12  C   UNL     1      -8.875   5.548  73.410  1.00  0.00    -0.116 A  
HETATM   13  C   UNL     1      -9.569   6.376  72.518  1.00  0.00    -0.154 A  
HETATM   14  C   UNL     1     -10.620   5.813  71.596  1.00  0.00    -0.302 C  
HETATM   15  C   UNL     1     -12.022   6.262  72.018  1.00  0.00    -0.353 C  
HETATM   16  C   UNL     1     -12.409   7.725  71.870  1.00  0.00    -0.342 A  
HETATM   17  C   UNL     1     -13.785   8.005  72.028  1.00  0.00    -0.321 A  
HETATM   18  C   UNL     1     -14.281   9.304  71.945  1.00  0.00    -0.210 A  
HETATM   19  C   UNL     1     -13.409  10.357  71.711  1.00  0.00    -0.456 A  
HETATM   20  C   UNL     1     -12.043  10.106  71.568  1.00  0.00    -0.442 A  
HETATM   21  C   UNL     1     -11.519   8.798  71.639  1.00  0.00    -0.386 A  
ENDBRANCH   5   6
ENDBRANCH   4   5
ENDBRANCH   2   4
TORSDOF 3
ENDMDL
MODEL       93
REMARK 921   NORMALIZED FREE ENERGY PREDICTED BY IDOCK:   -4.21 KCAL/MOL
REMARK 922        TOTAL FREE ENERGY PREDICTED BY IDOCK:   -5.15 KCAL/MOL
REMARK 923 INTER-LIGAND FREE ENERGY PREDICTED BY IDOCK:   -4.93 KCAL/MOL
REMARK 924 INTRA-LIGAND FREE ENERGY PREDICTED BY IDOCK:   -0.21 KCAL/MOL
REMARK 927      BINDING AFFINITY PREDICTED BY RF-SCORE:    0.00 PKD
ROOT
HETATM    1  C   UNL     1     -10.422  19.665  65.958  1.00  0.00    -0.523 C  
HETATM    2  N   UNL     1     -10.645  18.262  65.639  1.00  0.00    -0.590 NA 
HETATM    3  H   UNL     1     -10.117  17.979  64.813  1.00  0.00     0.000 HD 
ENDROOT
BRANCH   2   4
HETATM    4  C   UNL     1     -10.352  17.396  66.787  1.00  0.00    -0.305 C  
BRANCH   4   5
HETATM    5  C   UNL     1      -9.812  16.043  66.293  1.00  0.00    -0.331 C  
BRANCH   5   6
HETATM    6  C   UNL     1     -10.321  14.868  67.100  1.00  0.00    -0.260 C  
HETATM    7  C   UNL     1      -9.611  14.125  67.982  1.00  0.00    -0.218 C  
HETATM    8  C   UNL     1      -8.181  14.438  68.203  1.00  0.00    -0.149 A  
HETATM    9  C   UNL     1      -7.788  15.624  68.841  1.00  0.00    -0.186 A  
HETATM   10  C   UNL     1      -6.437  15.908  69.032  1.00  0.00    -0.137 A  
HETATM   11  C   UNL     1      -5.468  15.006  68.596  1.00  0.00    -0.093 A  
HETATM   12  C   UNL     1      -5.850  13.815  67.976  1.00  0.00    -0.133 A  
HETATM   13  C   UNL     1      -7.206  13.522  67.780  1.00  0.00    -0.157 A  
HETATM   14  C   UNL     1      -7.635  12.218  67.157  1.00  0.00    -0.118 C  
HETATM   15  C   UNL     1      -8.300  11.305  68.191  1.00  0.00    -0.143 C  
HETATM   16  C   UNL     1      -9.656  11.693  68.760  1.00  0.00    -0.083 A  
HETATM   17  C   UNL     1     -10.315  10.682  69.495  1.00  0.00    -0.214 A  
HETATM   18  C   UNL     1     -11.552  10.904  70.097  1.00  0.00    -0.425 A  
HETATM   19  C   UNL     1     -12.155  12.148  69.985  1.00  0.00    -0.352 A  
HETATM   20  C   UNL     1     -11.515  13.167  69.278  1.00  0.00    -0.348 A  
HETATM   21  C   UNL     1     -10.267  12.964  68.652  1.00  0.00    -0.170 A  
ENDBRANCH   5   6
ENDBRANCH   4   5
ENDBRANCH   2   4
TORSDOF 3
ENDMDL
MODEL       94
REMARK 921   NORMALIZED FREE ENERGY PREDICTED BY IDOCK:   -4.17 KCAL/MOL
REMARK 922        TOTAL FREE ENERGY PREDICTED BY IDOCK:   -5.10 KCAL/MOL
REMARK 923 INTER-LIGAND FREE ENERGY PREDICTED BY IDOCK:   -4.93 KCAL/MOL
REMARK 924 INTRA-LIGAND FREE ENERGY PREDICTED BY IDOCK:   -0.17 KCAL/MOL
REMARK 927      BINDING AFFINITY PREDICTED BY RF-SCORE:    0.00 PKD
ROOT
HETATM    1  C   UNL     1     -10.394   4.736  66.080  1.00  0.00    -0.293 C  
HETATM    2  N   UNL     1     -11.227   5.930  66.105  1.00  0.00    -0.610 NA 
HETATM    3  H   UNL     1     -12.219   5.692  66.130  1.00  0.00     0.000 HD 
ENDROOT
BRANCH   2   4
HETATM    4  C   UNL     1     -10.859   6.820  67.212  1.00  0.00    -0.373 C  
BRANCH   4   5
HETATM    5  C   UNL     1      -9.832   7.857  66.727  1.00  0.00    -0.318 C  
BRANCH   5   6
HETATM    6  C   UNL     1     -10.333   9.281  66.818  1.00  0.00    -0.296 C  
HETATM    7  C   UNL     1      -9.718  10.388  66.335  1.00  0.00    -0.250 C  
HETATM    8  C   UNL     1      -8.409  10.247  65.657  1.00  0.00    -0.159 A  
HETATM    9  C   UNL     1      -8.302   9.609  64.413  1.00  0.00    -0.171 A  
HETATM   10  C   UNL     1      -7.060   9.477  63.794  1.00  0.00    -0.108 A  
HETATM   11  C   UNL     1      -5.919   9.990  64.406  1.00  0.00    -0.121 A  
HETATM   12  C   UNL     1      -6.019  10.644  65.636  1.00  0.00    -0.128 A  
HETATM   13  C   UNL     1      -7.262  10.780  66.266  1.00  0.00    -0.137 A  
HETATM   14  C   UNL     1      -7.394  11.527  67.569  1.00  0.00    -0.112 C  
HETATM   15  C   UNL     1      -8.125  12.857  67.372  1.00  0.00    -0.181 C  
HETATM   16  C   UNL     1      -9.603  12.846  67.015  1.00  0.00    -0.231 A  
HETATM   17  C   UNL     1     -10.258  14.094  67.112  1.00  0.00    -0.258 A  
HETATM   18  C   UNL     1     -11.606  14.240  66.790  1.00  0.00    -0.407 A  
HETATM   19  C   UNL     1     -12.329  13.140  66.355  1.00  0.00    -0.300 A  
HETATM   20  C   UNL     1     -11.700  11.900  66.236  1.00  0.00    -0.223 A  
HETATM   21  C   UNL     1     -10.339  11.726  66.564  1.00  0.00    -0.258 A  
ENDBRANCH   5   6
ENDBRANCH   4   5
ENDBRANCH   2   4
TORSDOF 3
ENDMDL
MODEL       95
REMARK 921   NORMALIZED FREE ENERGY PREDICTED BY IDOCK:   -4.17 KCAL/MOL
REMARK 922        TOTAL FREE ENERGY PREDICTED BY IDOCK:   -5.09 KCAL/MOL
REMARK 923 INTER-LIGAND FREE ENERGY PREDICTED BY IDOCK:   -5.11 KCAL/MOL
REMARK 924 INTRA-LIGAND FREE ENERGY PREDICTED BY IDOCK:    0.01 KCAL/MOL
REMARK 927      BINDING AFFINITY PREDICTED BY RF-SCORE:    0.00 PKD
ROOT
HETATM    1  C   UNL     1      -9.660  20.910  67.257  1.00  0.00    -0.246 C  
HETATM    2  N   UNL     1      -9.710  20.425  65.885  1.00  0.00    -0.635 NA 
HETATM    3  H   UNL     1      -8.913  19.824  65.673  1.00  0.00     0.000 HD 
ENDROOT
BRANCH   2   4
HETATM    4  C   UNL     1     -10.982  19.753  65.598  1.00  0.00    -0.105 C  
BRANCH   4   5
HETATM    5  C   UNL     1     -10.759  18.233  65.507  1.00  0.00     0.058 C  
BRANCH   5   6
HETATM    6  C   UNL     1      -9.683  17.732  66.446  1.00  0.00    -0.315 C  
HETATM    7  C   UNL     1      -9.499  16.453  66.854  1.00  0.00    -0.249 C  
HETATM    8  C   UNL     1     -10.428  15.403  66.379  1.00  0.00    -0.307 A  
HETATM    9  C   UNL     1     -10.443  15.002  65.035  1.00  0.00    -0.415 A  
HETATM   10  C   UNL     1     -11.331  14.019  64.603  1.00  0.00    -0.378 A  
HETATM   11  C   UNL     1     -12.204  13.421  65.510  1.00  0.00    -0.499 A  
HETATM   12  C   UNL     1     -12.182  13.800  66.854  1.00  0.00    -0.408 A  
HETATM   13  C   UNL     1     -11.294  14.788  67.297  1.00  0.00    -0.366 A  
HETATM   14  C   UNL     1     -11.224  15.172  68.753  1.00  0.00    -0.293 C  
HETATM   15  C   UNL     1      -9.918  14.691  69.390  1.00  0.00    -0.038 C  
HETATM   16  C   UNL     1      -8.606  15.331  68.967  1.00  0.00    -0.226 A  
HETATM   17  C   UNL     1      -7.492  15.023  69.781  1.00  0.00    -0.102 A  
HETATM   18  C   UNL     1      -6.221  15.517  69.498  1.00  0.00    -0.145 A  
HETATM   19  C   UNL     1      -6.031  16.325  68.388  1.00  0.00    -0.106 A  
HETATM   20  C   UNL     1      -7.113  16.630  67.559  1.00  0.00    -0.169 A  
HETATM   21  C   UNL     1      -8.411  16.149  67.830  1.00  0.00    -0.165 A  
ENDBRANCH   5   6
ENDBRANCH   4   5
ENDBRANCH   2   4
TORSDOF 3
ENDMDL
MODEL       96
REMARK 921   NORMALIZED FREE ENERGY PREDICTED BY IDOCK:   -4.16 KCAL/MOL
REMARK 922        TOTAL FREE ENERGY PREDICTED BY IDOCK:   -5.09 KCAL/MOL
REMARK 923 INTER-LIGAND FREE ENERGY PREDICTED BY IDOCK:   -4.80 KCAL/MOL
REMARK 924 INTRA-LIGAND FREE ENERGY PREDICTED BY IDOCK:   -0.29 KCAL/MOL
REMARK 927      BINDING AFFINITY PREDICTED BY RF-SCORE:    0.00 PKD
ROOT
HETATM    1  C   UNL     1      -5.297  10.256  63.795  1.00  0.00    -0.135 C  
HETATM    2  N   UNL     1      -5.783  11.031  64.928  1.00  0.00    -0.451 NA 
HETATM    3  H   UNL     1      -6.767  11.276  64.818  1.00  0.00     0.000 HD 
ENDROOT
BRANCH   2   4
HETATM    4  C   UNL     1      -5.543  10.336  66.198  1.00  0.00    -0.065 C  
BRANCH   4   5
HETATM    5  C   UNL     1      -6.234  11.093  67.345  1.00  0.00    -0.066 C  
BRANCH   5   6
HETATM    6  C   UNL     1      -7.303  12.052  66.867  1.00  0.00    -0.042 C  
HETATM    7  C   UNL     1      -8.630  11.799  66.768  1.00  0.00    -0.185 C  
HETATM    8  C   UNL     1      -9.137  10.456  67.132  1.00  0.00    -0.152 A  
HETATM    9  C   UNL     1      -9.122  10.012  68.462  1.00  0.00    -0.127 A  
HETATM   10  C   UNL     1      -9.595   8.742  68.786  1.00  0.00    -0.160 A  
HETATM   11  C   UNL     1     -10.095   7.909  67.787  1.00  0.00    -0.246 A  
HETATM   12  C   UNL     1     -10.132   8.350  66.463  1.00  0.00    -0.317 A  
HETATM   13  C   UNL     1      -9.658   9.625  66.128  1.00  0.00    -0.295 A  
HETATM   14  C   UNL     1      -9.736  10.134  64.711  1.00  0.00    -0.389 C  
HETATM   15  C   UNL     1     -10.780  11.246  64.581  1.00  0.00    -0.371 C  
HETATM   16  C   UNL     1     -10.522  12.589  65.246  1.00  0.00    -0.313 A  
HETATM   17  C   UNL     1     -11.394  13.632  64.862  1.00  0.00    -0.353 A  
HETATM   18  C   UNL     1     -11.292  14.910  65.409  1.00  0.00    -0.346 A  
HETATM   19  C   UNL     1     -10.320  15.171  66.363  1.00  0.00    -0.292 A  
HETATM   20  C   UNL     1      -9.457  14.152  66.770  1.00  0.00    -0.290 A  
HETATM   21  C   UNL     1      -9.535  12.853  66.224  1.00  0.00    -0.205 A  
ENDBRANCH   5   6
ENDBRANCH   4   5
ENDBRANCH   2   4
TORSDOF 3
ENDMDL
MODEL       97
REMARK 921   NORMALIZED FREE ENERGY PREDICTED BY IDOCK:   -4.16 KCAL/MOL
REMARK 922        TOTAL FREE ENERGY PREDICTED BY IDOCK:   -5.09 KCAL/MOL
REMARK 923 INTER-LIGAND FREE ENERGY PREDICTED BY IDOCK:   -4.91 KCAL/MOL
REMARK 924 INTRA-LIGAND FREE ENERGY PREDICTED BY IDOCK:   -0.18 KCAL/MOL
REMARK 927      BINDING AFFINITY PREDICTED BY RF-SCORE:    0.00 PKD
ROOT
HETATM    1  C   UNL     1     -13.110  13.984  72.168  1.00  0.00    -0.411 C  
HETATM    2  N   UNL     1     -13.143  15.158  71.307  1.00  0.00    -0.404 NA 
HETATM    3  H   UNL     1     -12.552  15.905  71.672  1.00  0.00     0.000 HD 
ENDROOT
BRANCH   2   4
HETATM    4  C   UNL     1     -12.790  14.821  69.923  1.00  0.00     0.014 C  
BRANCH   4   5
HETATM    5  C   UNL     1     -11.863  15.903  69.344  1.00  0.00    -0.325 C  
BRANCH   5   6
HETATM    6  C   UNL     1     -10.407  15.492  69.322  1.00  0.00    -0.252 C  
HETATM    7  C   UNL     1      -9.374  16.202  68.809  1.00  0.00    -0.229 C  
HETATM    8  C   UNL     1      -9.644  17.513  68.175  1.00  0.00    -0.294 A  
HETATM    9  C   UNL     1     -10.062  18.614  68.936  1.00  0.00    -0.357 A  
HETATM   10  C   UNL     1     -10.321  19.838  68.322  1.00  0.00    -0.536 A  
HETATM   11  C   UNL     1     -10.156  19.974  66.945  1.00  0.00    -0.601 A  
HETATM   12  C   UNL     1      -9.723  18.889  66.181  1.00  0.00    -0.307 A  
HETATM   13  C   UNL     1      -9.461  17.655  66.791  1.00  0.00    -0.285 A  
HETATM   14  C   UNL     1      -8.945  16.488  65.988  1.00  0.00    -0.276 C  
HETATM   15  C   UNL     1      -7.484  16.184  66.332  1.00  0.00     0.037 C  
HETATM   16  C   UNL     1      -7.144  15.628  67.706  1.00  0.00    -0.174 A  
HETATM   17  C   UNL     1      -5.829  15.131  67.849  1.00  0.00    -0.158 A  
HETATM   18  C   UNL     1      -5.370  14.616  69.059  1.00  0.00    -0.089 A  
HETATM   19  C   UNL     1      -6.214  14.594  70.159  1.00  0.00    -0.165 A  
HETATM   20  C   UNL     1      -7.512  15.095  70.046  1.00  0.00     0.076 A  
HETATM   21  C   UNL     1      -8.003  15.614  68.829  1.00  0.00    -0.172 A  
ENDBRANCH   5   6
ENDBRANCH   4   5
ENDBRANCH   2   4
TORSDOF 3
ENDMDL
MODEL       98
REMARK 921   NORMALIZED FREE ENERGY PREDICTED BY IDOCK:   -4.15 KCAL/MOL
REMARK 922        TOTAL FREE ENERGY PREDICTED BY IDOCK:   -5.08 KCAL/MOL
REMARK 923 INTER-LIGAND FREE ENERGY PREDICTED BY IDOCK:   -4.78 KCAL/MOL
REMARK 924 INTRA-LIGAND FREE ENERGY PREDICTED BY IDOCK:   -0.30 KCAL/MOL
REMARK 927      BINDING AFFINITY PREDICTED BY RF-SCORE:    0.00 PKD
ROOT
HETATM    1  C   UNL     1      -5.902   9.413  70.702  1.00  0.00    -0.056 C  
HETATM    2  N   UNL     1      -7.051  10.307  70.721  1.00  0.00    -0.412 NA 
HETATM    3  H   UNL     1      -7.138  10.785  71.618  1.00  0.00     0.000 HD 
ENDROOT
BRANCH   2   4
HETATM    4  C   UNL     1      -7.010  11.261  69.606  1.00  0.00    -0.056 C  
BRANCH   4   5
HETATM    5  C   UNL     1      -8.302  11.151  68.779  1.00  0.00    -0.136 C  
BRANCH   5   6
HETATM    6  C   UNL     1      -8.622   9.733  68.359  1.00  0.00    -0.119 C  
HETATM    7  C   UNL     1      -9.710   9.009  68.718  1.00  0.00    -0.165 C  
HETATM    8  C   UNL     1     -10.709   9.613  69.628  1.00  0.00    -0.260 A  
HETATM    9  C   UNL     1     -11.519  10.679  69.212  1.00  0.00    -0.351 A  
HETATM   10  C   UNL     1     -12.448  11.242  70.085  1.00  0.00    -0.297 A  
HETATM   11  C   UNL     1     -12.582  10.739  71.378  1.00  0.00    -0.516 A  
HETATM   12  C   UNL     1     -11.793   9.665  71.795  1.00  0.00    -0.391 A  
HETATM   13  C   UNL     1     -10.856   9.094  70.924  1.00  0.00    -0.345 A  
HETATM   14  C   UNL     1     -10.033   7.903  71.343  1.00  0.00    -0.208 C  
HETATM   15  C   UNL     1     -10.467   6.640  70.595  1.00  0.00    -0.253 C  
HETATM   16  C   UNL     1     -10.200   6.533  69.102  1.00  0.00    -0.208 A  
HETATM   17  C   UNL     1     -10.385   5.248  68.545  1.00  0.00    -0.182 A  
HETATM   18  C   UNL     1     -10.203   5.007  67.184  1.00  0.00    -0.234 A  
HETATM   19  C   UNL     1      -9.839   6.051  66.347  1.00  0.00    -0.155 A  
HETATM   20  C   UNL     1      -9.665   7.332  66.872  1.00  0.00    -0.252 A  
HETATM   21  C   UNL     1      -9.836   7.599  68.247  1.00  0.00    -0.181 A  
ENDBRANCH   5   6
ENDBRANCH   4   5
ENDBRANCH   2   4
TORSDOF 3
ENDMDL
MODEL       99
REMARK 921   NORMALIZED FREE ENERGY PREDICTED BY IDOCK:   -4.15 KCAL/MOL
REMARK 922        TOTAL FREE ENERGY PREDICTED BY IDOCK:   -5.07 KCAL/MOL
REMARK 923 INTER-LIGAND FREE ENERGY PREDICTED BY IDOCK:   -4.87 KCAL/MOL
REMARK 924 INTRA-LIGAND FREE ENERGY PREDICTED BY IDOCK:   -0.20 KCAL/MOL
REMARK 927      BINDING AFFINITY PREDICTED BY RF-SCORE:    0.00 PKD
ROOT
HETATM    1  C   UNL     1      -6.164   7.500  70.822  1.00  0.00    -0.035 C  
HETATM    2  N   UNL     1      -5.543   8.766  70.460  1.00  0.00    -0.027 NA 
HETATM    3  H   UNL     1      -4.605   8.628  70.084  1.00  0.00     0.000 HD 
ENDROOT
BRANCH   2   4
HETATM    4  C   UNL     1      -6.385   9.533  69.534  1.00  0.00    -0.040 C  
BRANCH   4   5
HETATM    5  C   UNL     1      -7.834   9.561  70.050  1.00  0.00    -0.157 C  
BRANCH   5   6
HETATM    6  C   UNL     1      -8.707  10.560  69.322  1.00  0.00    -0.135 C  
HETATM    7  C   UNL     1      -9.736  10.276  68.488  1.00  0.00    -0.167 C  
HETATM    8  C   UNL     1     -10.071   8.861  68.210  1.00  0.00    -0.219 A  
HETATM    9  C   UNL     1     -10.612   8.035  69.206  1.00  0.00    -0.193 A  
HETATM   10  C   UNL     1     -10.912   6.703  68.930  1.00  0.00    -0.325 A  
HETATM   11  C   UNL     1     -10.684   6.187  67.656  1.00  0.00    -0.388 A  
HETATM   12  C   UNL     1     -10.163   7.006  66.653  1.00  0.00    -0.218 A  
HETATM   13  C   UNL     1      -9.858   8.347  66.922  1.00  0.00    -0.313 A  
HETATM   14  C   UNL     1      -9.342   9.257  65.837  1.00  0.00    -0.297 C  
HETATM   15  C   UNL     1     -10.393  10.297  65.442  1.00  0.00    -0.233 C  
HETATM   16  C   UNL     1     -10.769  11.387  66.434  1.00  0.00    -0.325 A  
HETATM   17  C   UNL     1     -11.538  12.448  65.905  1.00  0.00    -0.449 A  
HETATM   18  C   UNL     1     -11.977  13.502  66.703  1.00  0.00    -0.452 A  
HETATM   19  C   UNL     1     -11.664  13.515  68.054  1.00  0.00    -0.394 A  
HETATM   20  C   UNL     1     -10.920  12.469  68.603  1.00  0.00    -0.291 A  
HETATM   21  C   UNL     1     -10.457  11.395  67.813  1.00  0.00    -0.215 A  
ENDBRANCH   5   6
ENDBRANCH   4   5
ENDBRANCH   2   4
TORSDOF 3
ENDMDL
MODEL      100
REMARK 921   NORMALIZED FREE ENERGY PREDICTED BY IDOCK:   -4.13 KCAL/MOL
REMARK 922        TOTAL FREE ENERGY PREDICTED BY IDOCK:   -5.05 KCAL/MOL
REMARK 923 INTER-LIGAND FREE ENERGY PREDICTED BY IDOCK:   -5.01 KCAL/MOL
REMARK 924 INTRA-LIGAND FREE ENERGY PREDICTED BY IDOCK:   -0.04 KCAL/MOL
REMARK 927      BINDING AFFINITY PREDICTED BY RF-SCORE:    0.00 PKD
ROOT
HETATM    1  C   UNL     1     -12.584  14.034  65.658  1.00  0.00    -0.512 C  
HETATM    2  N   UNL     1     -11.520  14.958  66.022  1.00  0.00    -0.318 NA 
HETATM    3  H   UNL     1     -11.743  15.914  65.743  1.00  0.00     0.000 HD 
ENDROOT
BRANCH   2   4
HETATM    4  C   UNL     1     -11.202  14.877  67.452  1.00  0.00    -0.338 C  
BRANCH   4   5
HETATM    5  C   UNL     1      -9.961  13.991  67.660  1.00  0.00    -0.237 C  
BRANCH   5   6
HETATM    6  C   UNL     1      -9.653  13.109  66.469  1.00  0.00    -0.268 C  
HETATM    7  C   UNL     1      -9.680  11.755  66.438  1.00  0.00    -0.234 C  
HETATM    8  C   UNL     1     -10.022  11.011  67.672  1.00  0.00    -0.196 A  
HETATM    9  C   UNL     1     -11.316  11.054  68.209  1.00  0.00    -0.366 A  
HETATM   10  C   UNL     1     -11.617  10.356  69.377  1.00  0.00    -0.272 A  
HETATM   11  C   UNL     1     -10.632   9.602  70.011  1.00  0.00    -0.300 A  
HETATM   12  C   UNL     1      -9.345   9.538  69.473  1.00  0.00    -0.199 A  
HETATM   13  C   UNL     1      -9.033  10.238  68.300  1.00  0.00    -0.132 A  
HETATM   14  C   UNL     1      -7.663  10.139  67.680  1.00  0.00    -0.091 C  
HETATM   15  C   UNL     1      -7.706   9.345  66.371  1.00  0.00    -0.097 C  
HETATM   16  C   UNL     1      -8.413   9.941  65.164  1.00  0.00    -0.158 A  
HETATM   17  C   UNL     1      -8.181   9.277  63.938  1.00  0.00    -0.165 A  
HETATM   18  C   UNL     1      -8.784   9.696  62.754  1.00  0.00    -0.225 A  
HETATM   19  C   UNL     1      -9.642  10.785  62.770  1.00  0.00    -0.337 A  
HETATM   20  C   UNL     1      -9.899  11.446  63.972  1.00  0.00    -0.316 A  
HETATM   21  C   UNL     1      -9.294  11.047  65.182  1.00  0.00    -0.249 A  
ENDBRANCH   5   6
ENDBRANCH   4   5
ENDBRANCH   2   4
TORSDOF 3
ENDMDL
MODEL      101
REMARK 921   NORMALIZED FREE ENERGY PREDICTED BY IDOCK:   -4.13 KCAL/MOL
REMARK 922        TOTAL FREE ENERGY PREDICTED BY IDOCK:   -5.05 KCAL/MOL
REMARK 923 INTER-LIGAND FREE ENERGY PREDICTED BY IDOCK:   -4.74 KCAL/MOL
REMARK 924 INTRA-LIGAND FREE ENERGY PREDICTED BY IDOCK:   -0.31 KCAL/MOL
REMARK 927      BINDING AFFINITY PREDICTED BY RF-SCORE:    0.00 PKD
ROOT
HETATM    1  C   UNL     1     -10.641   5.422  74.072  1.00  0.00    -0.267 C  
HETATM    2  N   UNL     1     -11.059   6.557  73.261  1.00  0.00    -0.475 NA 
HETATM    3  H   UNL     1     -10.257   7.069  72.894  1.00  0.00     0.000 HD 
ENDROOT
BRANCH   2   4
HETATM    4  C   UNL     1     -11.970   6.144  72.187  1.00  0.00    -0.260 C  
BRANCH   4   5
HETATM    5  C   UNL     1     -11.544   6.800  70.862  1.00  0.00    -0.403 C  
BRANCH   5   6
HETATM    6  C   UNL     1     -10.156   7.402  70.914  1.00  0.00    -0.188 C  
HETATM    7  C   UNL     1      -9.842   8.717  70.831  1.00  0.00    -0.278 C  
HETATM    8  C   UNL     1     -10.927   9.708  70.651  1.00  0.00    -0.386 A  
HETATM    9  C   UNL     1     -11.852   9.964  71.673  1.00  0.00    -0.374 A  
HETATM   10  C   UNL     1     -12.873  10.894  71.483  1.00  0.00    -0.560 A  
HETATM   11  C   UNL     1     -12.972  11.582  70.275  1.00  0.00     0.192 A  
HETATM   12  C   UNL     1     -12.044  11.348  69.259  1.00  0.00    -0.356 A  
HETATM   13  C   UNL     1     -11.015  10.414  69.441  1.00  0.00    -0.296 A  
HETATM   14  C   UNL     1      -9.977  10.187  68.373  1.00  0.00    -0.173 C  
HETATM   15  C   UNL     1      -8.614  10.737  68.801  1.00  0.00    -0.156 C  
HETATM   16  C   UNL     1      -7.863  10.059  69.936  1.00  0.00    -0.185 A  
HETATM   17  C   UNL     1      -6.515  10.455  70.091  1.00  0.00    -0.137 A  
HETATM   18  C   UNL     1      -5.713   9.937  71.106  1.00  0.00    -0.071 A  
HETATM   19  C   UNL     1      -6.244   9.016  71.997  1.00  0.00    -0.029 A  
HETATM   20  C   UNL     1      -7.578   8.623  71.873  1.00  0.00    -0.106 A  
HETATM   21  C   UNL     1      -8.407   9.126  70.849  1.00  0.00    -0.231 A  
ENDBRANCH   5   6
ENDBRANCH   4   5
ENDBRANCH   2   4
TORSDOF 3
ENDMDL
MODEL      102
REMARK 921   NORMALIZED FREE ENERGY PREDICTED BY IDOCK:   -4.12 KCAL/MOL
REMARK 922        TOTAL FREE ENERGY PREDICTED BY IDOCK:   -5.04 KCAL/MOL
REMARK 923 INTER-LIGAND FREE ENERGY PREDICTED BY IDOCK:   -4.84 KCAL/MOL
REMARK 924 INTRA-LIGAND FREE ENERGY PREDICTED BY IDOCK:   -0.20 KCAL/MOL
REMARK 927      BINDING AFFINITY PREDICTED BY RF-SCORE:    0.00 PKD
ROOT
HETATM    1  C   UNL     1     -13.964   8.711  71.985  1.00  0.00    -0.446 C  
HETATM    2  N   UNL     1     -13.783   9.478  70.760  1.00  0.00    -0.530 NA 
HETATM    3  H   UNL     1     -14.675   9.800  70.386  1.00  0.00     0.000 HD 
ENDROOT
BRANCH   2   4
HETATM    4  C   UNL     1     -12.849  10.593  70.958  1.00  0.00    -0.402 C  
BRANCH   4   5
HETATM    5  C   UNL     1     -11.894  10.691  69.757  1.00  0.00    -0.377 C  
BRANCH   5   6
HETATM    6  C   UNL     1     -10.581   9.972  69.979  1.00  0.00    -0.344 C  
HETATM    7  C   UNL     1      -9.566   9.849  69.090  1.00  0.00    -0.204 C  
HETATM    8  C   UNL     1      -9.712  10.442  67.741  1.00  0.00    -0.181 A  
HETATM    9  C   UNL     1      -9.741  11.832  67.560  1.00  0.00    -0.185 A  
HETATM   10  C   UNL     1      -9.889  12.373  66.284  1.00  0.00    -0.257 A  
HETATM   11  C   UNL     1      -9.999  11.532  65.179  1.00  0.00    -0.304 A  
HETATM   12  C   UNL     1      -9.953  10.146  65.348  1.00  0.00    -0.377 A  
HETATM   13  C   UNL     1      -9.805   9.594  66.627  1.00  0.00    -0.285 A  
HETATM   14  C   UNL     1      -9.704   8.102  66.820  1.00  0.00    -0.303 C  
HETATM   15  C   UNL     1      -8.288   7.695  67.236  1.00  0.00    -0.115 C  
HETATM   16  C   UNL     1      -7.774   8.094  68.610  1.00  0.00    -0.112 A  
HETATM   17  C   UNL     1      -6.578   7.461  69.016  1.00  0.00    -0.044 A  
HETATM   18  C   UNL     1      -5.976   7.750  70.239  1.00  0.00    -0.029 A  
HETATM   19  C   UNL     1      -6.554   8.687  71.083  1.00  0.00    -0.061 A  
HETATM   20  C   UNL     1      -7.727   9.337  70.696  1.00  0.00    -0.170 A  
HETATM   21  C   UNL     1      -8.359   9.055  69.467  1.00  0.00    -0.117 A  
ENDBRANCH   5   6
ENDBRANCH   4   5
ENDBRANCH   2   4
TORSDOF 3
ENDMDL
MODEL      103
REMARK 921   NORMALIZED FREE ENERGY PREDICTED BY IDOCK:   -4.11 KCAL/MOL
REMARK 922        TOTAL FREE ENERGY PREDICTED BY IDOCK:   -5.03 KCAL/MOL
REMARK 923 INTER-LIGAND FREE ENERGY PREDICTED BY IDOCK:   -4.77 KCAL/MOL
REMARK 924 INTRA-LIGAND FREE ENERGY PREDICTED BY IDOCK:   -0.25 KCAL/MOL
REMARK 927      BINDING AFFINITY PREDICTED BY RF-SCORE:    0.00 PKD
ROOT
HETATM    1  C   UNL     1      -9.705  14.251  67.829  1.00  0.00    -0.222 C  
HETATM    2  N   UNL     1      -9.966  13.142  68.736  1.00  0.00    -0.426 NA 
HETATM    3  H   UNL     1      -9.398  13.209  69.580  1.00  0.00     0.000 HD 
ENDROOT
BRANCH   2   4
HETATM    4  C   UNL     1     -11.394  13.033  69.056  1.00  0.00    -0.289 C  
BRANCH   4   5
HETATM    5  C   UNL     1     -11.789  11.551  69.175  1.00  0.00    -0.406 C  
BRANCH   5   6
HETATM    6  C   UNL     1     -10.877  10.627  68.398  1.00  0.00    -0.282 C  
HETATM    7  C   UNL     1     -10.380   9.439  68.820  1.00  0.00    -0.230 C  
HETATM    8  C   UNL     1     -10.716   8.958  70.179  1.00  0.00    -0.245 A  
HETATM    9  C   UNL     1     -12.021   8.562  70.506  1.00  0.00     0.055 A  
HETATM   10  C   UNL     1     -12.322   8.121  71.794  1.00  0.00    -0.357 A  
HETATM   11  C   UNL     1     -11.321   8.063  72.761  1.00  0.00    -0.439 A  
HETATM   12  C   UNL     1     -10.015   8.438  72.440  1.00  0.00    -0.380 A  
HETATM   13  C   UNL     1      -9.703   8.883  71.148  1.00  0.00    -0.344 A  
HETATM   14  C   UNL     1      -8.289   9.244  70.772  1.00  0.00    -0.230 C  
HETATM   15  C   UNL     1      -7.693   8.211  69.811  1.00  0.00    -0.100 C  
HETATM   16  C   UNL     1      -8.241   8.111  68.397  1.00  0.00    -0.129 A  
HETATM   17  C   UNL     1      -7.471   7.332  67.504  1.00  0.00    -0.101 A  
HETATM   18  C   UNL     1      -7.865   7.130  66.183  1.00  0.00    -0.105 A  
HETATM   19  C   UNL     1      -9.045   7.696  65.726  1.00  0.00    -0.042 A  
HETATM   20  C   UNL     1      -9.831   8.456  66.594  1.00  0.00    -0.343 A  
HETATM   21  C   UNL     1      -9.448   8.682  67.933  1.00  0.00    -0.157 A  
ENDBRANCH   5   6
ENDBRANCH   4   5
ENDBRANCH   2   4
TORSDOF 3
ENDMDL
MODEL      104
REMARK 921   NORMALIZED FREE ENERGY PREDICTED BY IDOCK:   -4.10 KCAL/MOL
REMARK 922        TOTAL FREE ENERGY PREDICTED BY IDOCK:   -5.02 KCAL/MOL
REMARK 923 INTER-LIGAND FREE ENERGY PREDICTED BY IDOCK:   -4.58 KCAL/MOL
REMARK 924 INTRA-LIGAND FREE ENERGY PREDICTED BY IDOCK:   -0.43 KCAL/MOL
REMARK 927      BINDING AFFINITY PREDICTED BY RF-SCORE:    0.00 PKD
ROOT
HETATM    1  C   UNL     1     -11.537  12.466  67.003  1.00  0.00    -0.365 C  
HETATM    2  N   UNL     1     -10.353  12.024  67.726  1.00  0.00    -0.194 NA 
HETATM    3  H   UNL     1     -10.417  11.038  67.980  1.00  0.00     0.000 HD 
ENDROOT
BRANCH   2   4
HETATM    4  C   UNL     1      -9.126  12.306  66.972  1.00  0.00    -0.201 C  
BRANCH   4   5
HETATM    5  C   UNL     1      -8.054  12.876  67.916  1.00  0.00    -0.161 C  
BRANCH   5   6
HETATM    6  C   UNL     1      -7.528  14.225  67.474  1.00  0.00    -0.201 C  
HETATM    7  C   UNL     1      -8.107  15.430  67.694  1.00  0.00    -0.166 C  
HETATM    8  C   UNL     1      -9.397  15.489  68.417  1.00  0.00    -0.192 A  
HETATM    9  C   UNL     1      -9.480  15.168  69.780  1.00  0.00    -0.045 A  
HETATM   10  C   UNL     1     -10.705  15.220  70.443  1.00  0.00    -0.268 A  
HETATM   11  C   UNL     1     -11.854  15.602  69.754  1.00  0.00    -0.376 A  
HETATM   12  C   UNL     1     -11.778  15.941  68.401  1.00  0.00    -0.246 A  
HETATM   13  C   UNL     1     -10.551  15.891  67.727  1.00  0.00    -0.302 A  
HETATM   14  C   UNL     1     -10.445  16.302  66.280  1.00  0.00    -0.314 C  
HETATM   15  C   UNL     1      -9.682  17.621  66.136  1.00  0.00    -0.228 C  
HETATM   16  C   UNL     1      -8.195  17.657  66.449  1.00  0.00    -0.298 A  
HETATM   17  C   UNL     1      -7.519  18.829  66.041  1.00  0.00    -0.271 A  
HETATM   18  C   UNL     1      -6.160  19.012  66.286  1.00  0.00    -0.194 A  
HETATM   19  C   UNL     1      -5.445  18.029  66.953  1.00  0.00    -0.163 A  
HETATM   20  C   UNL     1      -6.095  16.870  67.381  1.00  0.00    -0.180 A  
HETATM   21  C   UNL     1      -7.468  16.658  67.137  1.00  0.00    -0.218 A  
ENDBRANCH   5   6
ENDBRANCH   4   5
ENDBRANCH   2   4
TORSDOF 3
ENDMDL
MODEL      105
REMARK 921   NORMALIZED FREE ENERGY PREDICTED BY IDOCK:   -4.09 KCAL/MOL
REMARK 922        TOTAL FREE ENERGY PREDICTED BY IDOCK:   -5.00 KCAL/MOL
REMARK 923 INTER-LIGAND FREE ENERGY PREDICTED BY IDOCK:   -4.71 KCAL/MOL
REMARK 924 INTRA-LIGAND FREE ENERGY PREDICTED BY IDOCK:   -0.29 KCAL/MOL
REMARK 927      BINDING AFFINITY PREDICTED BY RF-SCORE:    0.00 PKD
ROOT
HETATM    1  C   UNL     1      -7.778   7.750  74.558  1.00  0.00    -0.194 C  
HETATM    2  N   UNL     1      -7.474   8.824  73.622  1.00  0.00    -0.386 NA 
HETATM    3  H   UNL     1      -7.113   9.648  74.103  1.00  0.00     0.000 HD 
ENDROOT
BRANCH   2   4
HETATM    4  C   UNL     1      -6.559   8.375  72.566  1.00  0.00    -0.088 C  
BRANCH   4   5
HETATM    5  C   UNL     1      -7.340   7.580  71.504  1.00  0.00    -0.075 C  
BRANCH   5   6
HETATM    6  C   UNL     1      -7.651   8.389  70.264  1.00  0.00    -0.068 C  
HETATM    7  C   UNL     1      -8.882   8.691  69.783  1.00  0.00    -0.137 C  
HETATM    8  C   UNL     1     -10.078   8.187  70.496  1.00  0.00    -0.201 A  
HETATM    9  C   UNL     1     -10.423   8.671  71.766  1.00  0.00    -0.394 A  
HETATM   10  C   UNL     1     -11.547   8.178  72.426  1.00  0.00    -0.463 A  
HETATM   11  C   UNL     1     -12.341   7.207  71.819  1.00  0.00    -0.385 A  
HETATM   12  C   UNL     1     -12.016   6.733  70.547  1.00  0.00    -0.385 A  
HETATM   13  C   UNL     1     -10.887   7.222  69.876  1.00  0.00    -0.264 A  
HETATM   14  C   UNL     1     -10.551   6.757  68.482  1.00  0.00    -0.265 C  
HETATM   15  C   UNL     1     -10.785   7.870  67.458  1.00  0.00    -0.252 C  
HETATM   16  C   UNL     1      -9.880   9.091  67.468  1.00  0.00    -0.230 A  
HETATM   17  C   UNL     1      -9.989   9.935  66.340  1.00  0.00    -0.309 A  
HETATM   18  C   UNL     1      -9.241  11.104  66.225  1.00  0.00    -0.211 A  
HETATM   19  C   UNL     1      -8.370  11.462  67.244  1.00  0.00    -0.149 A  
HETATM   20  C   UNL     1      -8.257  10.653  68.376  1.00  0.00    -0.125 A  
HETATM   21  C   UNL     1      -8.998   9.460  68.510  1.00  0.00    -0.128 A  
ENDBRANCH   5   6
ENDBRANCH   4   5
ENDBRANCH   2   4
TORSDOF 3
ENDMDL
MODEL      106
REMARK 921   NORMALIZED FREE ENERGY PREDICTED BY IDOCK:   -4.06 KCAL/MOL
REMARK 922        TOTAL FREE ENERGY PREDICTED BY IDOCK:   -4.97 KCAL/MOL
REMARK 923 INTER-LIGAND FREE ENERGY PREDICTED BY IDOCK:   -4.76 KCAL/MOL
REMARK 924 INTRA-LIGAND FREE ENERGY PREDICTED BY IDOCK:   -0.21 KCAL/MOL
REMARK 927      BINDING AFFINITY PREDICTED BY RF-SCORE:    0.00 PKD
ROOT
HETATM    1  C   UNL     1     -12.031  12.716  63.375  1.00  0.00    -0.528 C  
HETATM    2  N   UNL     1     -12.975  12.695  64.483  1.00  0.00    -0.797 NA 
HETATM    3  H   UNL     1     -13.331  11.754  64.652  1.00  0.00     0.000 HD 
ENDROOT
BRANCH   2   4
HETATM    4  C   UNL     1     -12.390  13.273  65.699  1.00  0.00    -0.465 C  
BRANCH   4   5
HETATM    5  C   UNL     1     -10.993  12.675  65.939  1.00  0.00    -0.310 C  
BRANCH   5   6
HETATM    6  C   UNL     1     -10.977  11.611  67.015  1.00  0.00    -0.338 C  
HETATM    7  C   UNL     1      -9.925  11.267  67.797  1.00  0.00    -0.193 C  
HETATM    8  C   UNL     1      -8.629  11.958  67.606  1.00  0.00    -0.156 A  
HETATM    9  C   UNL     1      -8.472  13.311  67.940  1.00  0.00    -0.177 A  
HETATM   10  C   UNL     1      -7.248  13.947  67.745  1.00  0.00    -0.173 A  
HETATM   11  C   UNL     1      -6.168  13.236  67.225  1.00  0.00     0.173 A  
HETATM   12  C   UNL     1      -6.309  11.884  66.907  1.00  0.00    -0.107 A  
HETATM   13  C   UNL     1      -7.537  11.236  67.099  1.00  0.00    -0.137 A  
HETATM   14  C   UNL     1      -7.691   9.765  66.807  1.00  0.00    -0.098 C  
HETATM   15  C   UNL     1      -7.852   8.960  68.100  1.00  0.00    -0.101 C  
HETATM   16  C   UNL     1      -9.121   9.120  68.921  1.00  0.00    -0.139 A  
HETATM   17  C   UNL     1      -9.307   8.160  69.941  1.00  0.00    -0.159 A  
HETATM   18  C   UNL     1     -10.412   8.198  70.789  1.00  0.00    -0.223 A  
HETATM   19  C   UNL     1     -11.354   9.205  70.643  1.00  0.00    -0.323 A  
HETATM   20  C   UNL     1     -11.183  10.175  69.653  1.00  0.00    -0.310 A  
HETATM   21  C   UNL     1     -10.078  10.152  68.776  1.00  0.00    -0.198 A  
ENDBRANCH   5   6
ENDBRANCH   4   5
ENDBRANCH   2   4
TORSDOF 3
ENDMDL
MODEL      107
REMARK 921   NORMALIZED FREE ENERGY PREDICTED BY IDOCK:   -4.05 KCAL/MOL
REMARK 922        TOTAL FREE ENERGY PREDICTED BY IDOCK:   -4.96 KCAL/MOL
REMARK 923 INTER-LIGAND FREE ENERGY PREDICTED BY IDOCK:   -4.80 KCAL/MOL
REMARK 924 INTRA-LIGAND FREE ENERGY PREDICTED BY IDOCK:   -0.16 KCAL/MOL
REMARK 927      BINDING AFFINITY PREDICTED BY RF-SCORE:    0.00 PKD
ROOT
HETATM    1  C   UNL     1     -13.213  12.042  72.039  1.00  0.00    -0.375 C  
HETATM    2  N   UNL     1     -13.217  10.591  72.165  1.00  0.00    -0.573 NA 
HETATM    3  H   UNL     1     -13.981  10.172  71.634  1.00  0.00     0.000 HD 
ENDROOT
BRANCH   2   4
HETATM    4  C   UNL     1     -11.921  10.015  71.786  1.00  0.00    -0.174 C  
BRANCH   4   5
HETATM    5  C   UNL     1     -12.005   8.479  71.818  1.00  0.00    -0.393 C  
BRANCH   5   6
HETATM    6  C   UNL     1     -11.407   7.824  70.592  1.00  0.00    -0.275 C  
HETATM    7  C   UNL     1     -10.752   6.639  70.547  1.00  0.00    -0.293 C  
HETATM    8  C   UNL     1     -10.555   5.876  71.800  1.00  0.00    -0.286 A  
HETATM    9  C   UNL     1     -11.639   5.285  72.466  1.00  0.00    -0.166 A  
HETATM   10  C   UNL     1     -11.437   4.578  73.650  1.00  0.00    -0.195 A  
HETATM   11  C   UNL     1     -10.152   4.447  74.172  1.00  0.00    -0.226 A  
HETATM   12  C   UNL     1      -9.065   5.015  73.506  1.00  0.00    -0.123 A  
HETATM   13  C   UNL     1      -9.258   5.729  72.316  1.00  0.00    -0.151 A  
HETATM   14  C   UNL     1      -8.090   6.306  71.559  1.00  0.00    -0.110 C  
HETATM   15  C   UNL     1      -7.849   5.546  70.252  1.00  0.00    -0.093 C  
HETATM   16  C   UNL     1      -8.868   5.657  69.130  1.00  0.00    -0.111 A  
HETATM   17  C   UNL     1      -8.449   5.150  67.879  1.00  0.00    -0.104 A  
HETATM   18  C   UNL     1      -9.289   5.161  66.767  1.00  0.00    -0.134 A  
HETATM   19  C   UNL     1     -10.573   5.671  66.883  1.00  0.00    -0.367 A  
HETATM   20  C   UNL     1     -11.015   6.163  68.113  1.00  0.00    -0.398 A  
HETATM   21  C   UNL     1     -10.180   6.171  69.250  1.00  0.00    -0.251 A  
ENDBRANCH   5   6
ENDBRANCH   4   5
ENDBRANCH   2   4
TORSDOF 3
ENDMDL
MODEL      108
REMARK 921   NORMALIZED FREE ENERGY PREDICTED BY IDOCK:   -4.05 KCAL/MOL
REMARK 922        TOTAL FREE ENERGY PREDICTED BY IDOCK:   -4.96 KCAL/MOL
REMARK 923 INTER-LIGAND FREE ENERGY PREDICTED BY IDOCK:   -4.77 KCAL/MOL
REMARK 924 INTRA-LIGAND FREE ENERGY PREDICTED BY IDOCK:   -0.19 KCAL/MOL
REMARK 927      BINDING AFFINITY PREDICTED BY RF-SCORE:    0.00 PKD
ROOT
HETATM    1  C   UNL     1      -5.547  17.272  67.457  1.00  0.00    -0.131 C  
HETATM    2  N   UNL     1      -6.431  16.128  67.283  1.00  0.00    -0.178 NA 
HETATM    3  H   UNL     1      -6.102  15.511  66.541  1.00  0.00     0.000 HD 
ENDROOT
BRANCH   2   4
HETATM    4  C   UNL     1      -6.622  15.399  68.543  1.00  0.00    -0.109 C  
BRANCH   4   5
HETATM    5  C   UNL     1      -8.102  15.009  68.699  1.00  0.00    -0.153 C  
BRANCH   5   6
HETATM    6  C   UNL     1      -8.612  14.142  67.568  1.00  0.00    -0.196 C  
HETATM    7  C   UNL     1      -9.844  13.586  67.469  1.00  0.00    -0.227 C  
HETATM    8  C   UNL     1     -10.822  13.799  68.560  1.00  0.00    -0.280 A  
HETATM    9  C   UNL     1     -11.380  15.063  68.796  1.00  0.00    -0.306 A  
HETATM   10  C   UNL     1     -12.292  15.248  69.834  1.00  0.00    -0.323 A  
HETATM   11  C   UNL     1     -12.661  14.170  70.636  1.00  0.00    -0.389 A  
HETATM   12  C   UNL     1     -12.125  12.903  70.397  1.00  0.00    -0.385 A  
HETATM   13  C   UNL     1     -11.206  12.709  69.356  1.00  0.00    -0.205 A  
HETATM   14  C   UNL     1     -10.657  11.339  69.053  1.00  0.00    -0.241 C  
HETATM   15  C   UNL     1     -11.214  10.800  67.733  1.00  0.00    -0.385 C  
HETATM   16  C   UNL     1     -10.798  11.459  66.428  1.00  0.00    -0.323 A  
HETATM   17  C   UNL     1     -11.137  10.746  65.255  1.00  0.00     0.189 A  
HETATM   18  C   UNL     1     -10.843  11.242  63.987  1.00  0.00    -0.414 A  
HETATM   19  C   UNL     1     -10.208  12.469  63.862  1.00  0.00    -0.386 A  
HETATM   20  C   UNL     1      -9.877  13.198  65.005  1.00  0.00    -0.064 A  
HETATM   21  C   UNL     1     -10.157  12.713  66.300  1.00  0.00    -0.264 A  
ENDBRANCH   5   6
ENDBRANCH   4   5
ENDBRANCH   2   4
TORSDOF 3
ENDMDL
MODEL      109
REMARK 921   NORMALIZED FREE ENERGY PREDICTED BY IDOCK:   -4.03 KCAL/MOL
REMARK 922        TOTAL FREE ENERGY PREDICTED BY IDOCK:   -4.94 KCAL/MOL
REMARK 923 INTER-LIGAND FREE ENERGY PREDICTED BY IDOCK:   -4.70 KCAL/MOL
REMARK 924 INTRA-LIGAND FREE ENERGY PREDICTED BY IDOCK:   -0.24 KCAL/MOL
REMARK 927      BINDING AFFINITY PREDICTED BY RF-SCORE:    0.00 PKD
ROOT
HETATM    1  C   UNL     1     -10.630   5.794  73.584  1.00  0.00    -0.276 C  
HETATM    2  N   UNL     1     -11.380   5.513  72.367  1.00  0.00    -0.261 NA 
HETATM    3  H   UNL     1     -12.117   4.828  72.533  1.00  0.00     0.000 HD 
ENDROOT
BRANCH   2   4
HETATM    4  C   UNL     1     -11.913   6.742  71.768  1.00  0.00    -0.339 C  
BRANCH   4   5
HETATM    5  C   UNL     1     -11.750   6.688  70.239  1.00  0.00    -0.432 C  
BRANCH   5   6
HETATM    6  C   UNL     1     -10.307   6.771  69.790  1.00  0.00    -0.226 C  
HETATM    7  C   UNL     1      -9.669   7.869  69.318  1.00  0.00    -0.159 C  
HETATM    8  C   UNL     1     -10.419   9.139  69.188  1.00  0.00    -0.230 A  
HETATM    9  C   UNL     1     -10.854   9.843  70.320  1.00  0.00    -0.367 A  
HETATM   10  C   UNL     1     -11.567  11.032  70.179  1.00  0.00    -0.421 A  
HETATM   11  C   UNL     1     -11.843  11.533  68.908  1.00  0.00    -0.406 A  
HETATM   12  C   UNL     1     -11.397  10.848  67.776  1.00  0.00    -0.366 A  
HETATM   13  C   UNL     1     -10.681   9.652  67.908  1.00  0.00    -0.302 A  
HETATM   14  C   UNL     1     -10.150   8.928  66.697  1.00  0.00    -0.357 C  
HETATM   15  C   UNL     1      -8.625   9.025  66.619  1.00  0.00    -0.134 C  
HETATM   16  C   UNL     1      -7.780   8.298  67.654  1.00  0.00    -0.099 A  
HETATM   17  C   UNL     1      -6.400   8.218  67.361  1.00  0.00    -0.057 A  
HETATM   18  C   UNL     1      -5.502   7.604  68.231  1.00  0.00    -0.027 A  
HETATM   19  C   UNL     1      -5.964   7.062  69.421  1.00  0.00    -0.026 A  
HETATM   20  C   UNL     1      -7.320   7.143  69.740  1.00  0.00    -0.085 A  
HETATM   21  C   UNL     1      -8.250   7.752  68.871  1.00  0.00    -0.127 A  
ENDBRANCH   5   6
ENDBRANCH   4   5
ENDBRANCH   2   4
TORSDOF 3
ENDMDL
MODEL      110
REMARK 921   NORMALIZED FREE ENERGY PREDICTED BY IDOCK:   -4.03 KCAL/MOL
REMARK 922        TOTAL FREE ENERGY PREDICTED BY IDOCK:   -4.93 KCAL/MOL
REMARK 923 INTER-LIGAND FREE ENERGY PREDICTED BY IDOCK:   -4.71 KCAL/MOL
REMARK 924 INTRA-LIGAND FREE ENERGY PREDICTED BY IDOCK:   -0.23 KCAL/MOL
REMARK 927      BINDING AFFINITY PREDICTED BY RF-SCORE:    0.00 PKD
ROOT
HETATM    1  C   UNL     1     -13.074  11.896  71.870  1.00  0.00    -0.369 C  
HETATM    2  N   UNL     1     -12.041  11.682  70.866  1.00  0.00    -0.384 NA 
HETATM    3  H   UNL     1     -11.163  11.383  71.292  1.00  0.00     0.000 HD 
ENDROOT
BRANCH   2   4
HETATM    4  C   UNL     1     -12.484  10.741  69.830  1.00  0.00    -0.209 C  
BRANCH   4   5
HETATM    5  C   UNL     1     -11.735  11.023  68.517  1.00  0.00    -0.348 C  
BRANCH   5   6
HETATM    6  C   UNL     1     -10.647  12.065  68.662  1.00  0.00    -0.253 C  
HETATM    7  C   UNL     1      -9.765  12.452  67.709  1.00  0.00    -0.201 C  
HETATM    8  C   UNL     1      -9.814  11.807  66.377  1.00  0.00    -0.237 A  
HETATM    9  C   UNL     1     -10.892  12.020  65.507  1.00  0.00    -0.336 A  
HETATM   10  C   UNL     1     -10.926  11.397  64.261  1.00  0.00    -0.390 A  
HETATM   11  C   UNL     1      -9.879  10.564  63.870  1.00  0.00    -0.373 A  
HETATM   12  C   UNL     1      -8.792  10.361  64.722  1.00  0.00    -0.211 A  
HETATM   13  C   UNL     1      -8.750  10.982  65.977  1.00  0.00    -0.192 A  
HETATM   14  C   UNL     1      -7.561  10.812  66.888  1.00  0.00    -0.123 C  
HETATM   15  C   UNL     1      -6.753  12.108  66.989  1.00  0.00    -0.072 C  
HETATM   16  C   UNL     1      -7.360  13.308  67.699  1.00  0.00    -0.164 A  
HETATM   17  C   UNL     1      -6.462  14.362  67.981  1.00  0.00    -0.158 A  
HETATM   18  C   UNL     1      -6.883  15.535  68.604  1.00  0.00    -0.115 A  
HETATM   19  C   UNL     1      -8.217  15.684  68.953  1.00  0.00    -0.204 A  
HETATM   20  C   UNL     1      -9.126  14.662  68.671  1.00  0.00    -0.189 A  
HETATM   21  C   UNL     1      -8.721  13.463  68.049  1.00  0.00    -0.178 A  
ENDBRANCH   5   6
ENDBRANCH   4   5
ENDBRANCH   2   4
TORSDOF 3
ENDMDL
MODEL      111
REMARK 921   NORMALIZED FREE ENERGY PREDICTED BY IDOCK:   -4.03 KCAL/MOL
REMARK 922        TOTAL FREE ENERGY PREDICTED BY IDOCK:   -4.93 KCAL/MOL
REMARK 923 INTER-LIGAND FREE ENERGY PREDICTED BY IDOCK:   -4.70 KCAL/MOL
REMARK 924 INTRA-LIGAND FREE ENERGY PREDICTED BY IDOCK:   -0.23 KCAL/MOL
REMARK 927      BINDING AFFINITY PREDICTED BY RF-SCORE:    0.00 PKD
ROOT
HETATM    1  C   UNL     1     -11.473  14.864  66.837  1.00  0.00    -0.313 C  
HETATM    2  N   UNL     1     -12.045  14.505  68.128  1.00  0.00    -0.573 NA 
HETATM    3  H   UNL     1     -13.060  14.425  68.077  1.00  0.00     0.000 HD 
ENDROOT
BRANCH   2   4
HETATM    4  C   UNL     1     -11.436  13.282  68.664  1.00  0.00    -0.304 C  
BRANCH   4   5
HETATM    5  C   UNL     1     -11.147  12.298  67.517  1.00  0.00    -0.326 C  
BRANCH   5   6
HETATM    6  C   UNL     1     -11.171  10.850  67.954  1.00  0.00    -0.387 C  
HETATM    7  C   UNL     1     -10.135   9.977  67.918  1.00  0.00    -0.203 C  
HETATM    8  C   UNL     1      -8.828  10.431  67.390  1.00  0.00    -0.133 A  
HETATM    9  C   UNL     1      -8.052  11.371  68.083  1.00  0.00    -0.137 A  
HETATM   10  C   UNL     1      -6.829  11.793  67.566  1.00  0.00    -0.113 A  
HETATM   11  C   UNL     1      -6.366  11.274  66.359  1.00  0.00    -0.091 A  
HETATM   12  C   UNL     1      -7.123  10.324  65.671  1.00  0.00    -0.137 A  
HETATM   13  C   UNL     1      -8.355   9.894  66.182  1.00  0.00    -0.123 A  
HETATM   14  C   UNL     1      -9.160   8.833  65.477  1.00  0.00    -0.221 C  
HETATM   15  C   UNL     1      -9.159   7.522  66.267  1.00  0.00    -0.198 C  
HETATM   16  C   UNL     1      -9.892   7.456  67.598  1.00  0.00    -0.194 A  
HETATM   17  C   UNL     1     -10.068   6.158  68.128  1.00  0.00    -0.181 A  
HETATM   18  C   UNL     1     -10.698   5.948  69.353  1.00  0.00    -0.406 A  
HETATM   19  C   UNL     1     -11.161   7.034  70.081  1.00  0.00    -0.323 A  
HETATM   20  C   UNL     1     -10.984   8.327  69.584  1.00  0.00    -0.092 A  
HETATM   21  C   UNL     1     -10.357   8.564  68.343  1.00  0.00    -0.241 A  
ENDBRANCH   5   6
ENDBRANCH   4   5
ENDBRANCH   2   4
TORSDOF 3
ENDMDL
MODEL      112
REMARK 921   NORMALIZED FREE ENERGY PREDICTED BY IDOCK:   -4.01 KCAL/MOL
REMARK 922        TOTAL FREE ENERGY PREDICTED BY IDOCK:   -4.91 KCAL/MOL
REMARK 923 INTER-LIGAND FREE ENERGY PREDICTED BY IDOCK:   -4.69 KCAL/MOL
REMARK 924 INTRA-LIGAND FREE ENERGY PREDICTED BY IDOCK:   -0.21 KCAL/MOL
REMARK 927      BINDING AFFINITY PREDICTED BY RF-SCORE:    0.00 PKD
ROOT
HETATM    1  C   UNL     1     -12.684  12.355  64.202  1.00  0.00    -0.347 C  
HETATM    2  N   UNL     1     -12.233  12.546  65.573  1.00  0.00    -0.597 NA 
HETATM    3  H   UNL     1     -13.011  12.501  66.232  1.00  0.00     0.000 HD 
ENDROOT
BRANCH   2   4
HETATM    4  C   UNL     1     -11.174  11.595  65.929  1.00  0.00    -0.238 C  
BRANCH   4   5
HETATM    5  C   UNL     1     -11.330  11.166  67.397  1.00  0.00    -0.329 C  
BRANCH   5   6
HETATM    6  C   UNL     1     -10.020  11.141  68.154  1.00  0.00    -0.189 C  
HETATM    7  C   UNL     1      -9.361  10.041  68.594  1.00  0.00    -0.156 C  
HETATM    8  C   UNL     1      -9.949   8.704  68.352  1.00  0.00    -0.204 A  
HETATM    9  C   UNL     1     -10.034   8.172  67.058  1.00  0.00    -0.329 A  
HETATM   10  C   UNL     1     -10.599   6.915  66.848  1.00  0.00    -0.372 A  
HETATM   11  C   UNL     1     -11.074   6.176  67.930  1.00  0.00    -0.311 A  
HETATM   12  C   UNL     1     -10.977   6.690  69.225  1.00  0.00    -0.346 A  
HETATM   13  C   UNL     1     -10.411   7.953  69.444  1.00  0.00    -0.222 A  
HETATM   14  C   UNL     1     -10.254   8.499  70.840  1.00  0.00    -0.246 C  
HETATM   15  C   UNL     1      -8.781   8.533  71.257  1.00  0.00    -0.228 C  
HETATM   16  C   UNL     1      -7.837   9.506  70.570  1.00  0.00    -0.182 A  
HETATM   17  C   UNL     1      -6.575   9.661  71.187  1.00  0.00     0.016 A  
HETATM   18  C   UNL     1      -5.598  10.499  70.653  1.00  0.00    -0.093 A  
HETATM   19  C   UNL     1      -5.859  11.196  69.483  1.00  0.00    -0.061 A  
HETATM   20  C   UNL     1      -7.092  11.046  68.847  1.00  0.00    -0.098 A  
HETATM   21  C   UNL     1      -8.100  10.210  69.373  1.00  0.00    -0.163 A  
ENDBRANCH   5   6
ENDBRANCH   4   5
ENDBRANCH   2   4
TORSDOF 3
ENDMDL
MODEL      113
REMARK 921   NORMALIZED FREE ENERGY PREDICTED BY IDOCK:   -4.01 KCAL/MOL
REMARK 922        TOTAL FREE ENERGY PREDICTED BY IDOCK:   -4.91 KCAL/MOL
REMARK 923 INTER-LIGAND FREE ENERGY PREDICTED BY IDOCK:   -4.67 KCAL/MOL
REMARK 924 INTRA-LIGAND FREE ENERGY PREDICTED BY IDOCK:   -0.24 KCAL/MOL
REMARK 927      BINDING AFFINITY PREDICTED BY RF-SCORE:    0.00 PKD
ROOT
HETATM    1  C   UNL     1     -10.235  14.047  64.770  1.00  0.00    -0.301 C  
HETATM    2  N   UNL     1     -10.275  12.731  64.149  1.00  0.00    -0.556 NA 
HETATM    3  H   UNL     1      -9.419  12.538  63.628  1.00  0.00     0.000 HD 
ENDROOT
BRANCH   2   4
HETATM    4  C   UNL     1     -10.552  11.679  65.135  1.00  0.00    -0.290 C  
BRANCH   4   5
HETATM    5  C   UNL     1      -9.822  11.996  66.452  1.00  0.00    -0.238 C  
BRANCH   5   6
HETATM    6  C   UNL     1     -10.305  11.159  67.617  1.00  0.00    -0.223 C  
HETATM    7  C   UNL     1      -9.763   9.998  68.058  1.00  0.00    -0.158 C  
HETATM    8  C   UNL     1      -8.589   9.436  67.352  1.00  0.00    -0.125 A  
HETATM    9  C   UNL     1      -7.340  10.072  67.401  1.00  0.00    -0.090 A  
HETATM   10  C   UNL     1      -6.248   9.534  66.722  1.00  0.00    -0.065 A  
HETATM   11  C   UNL     1      -6.392   8.352  65.998  1.00  0.00    -0.053 A  
HETATM   12  C   UNL     1      -7.627   7.702  65.959  1.00  0.00    -0.088 A  
HETATM   13  C   UNL     1      -8.731   8.236  66.637  1.00  0.00    -0.150 A  
HETATM   14  C   UNL     1     -10.057   7.520  66.645  1.00  0.00    -0.263 C  
HETATM   15  C   UNL     1     -10.363   6.941  68.028  1.00  0.00    -0.230 C  
HETATM   16  C   UNL     1     -10.657   7.887  69.182  1.00  0.00    -0.184 A  
HETATM   17  C   UNL     1     -11.185   7.280  70.343  1.00  0.00    -0.302 A  
HETATM   18  C   UNL     1     -11.477   8.020  71.487  1.00  0.00    -0.303 A  
HETATM   19  C   UNL     1     -11.239   9.386  71.498  1.00  0.00    -0.457 A  
HETATM   20  C   UNL     1     -10.703  10.005  70.368  1.00  0.00    -0.369 A  
HETATM   21  C   UNL     1     -10.407   9.279  69.196  1.00  0.00    -0.222 A  
ENDBRANCH   5   6
ENDBRANCH   4   5
ENDBRANCH   2   4
TORSDOF 3
ENDMDL
MODEL      114
REMARK 921   NORMALIZED FREE ENERGY PREDICTED BY IDOCK:   -4.00 KCAL/MOL
REMARK 922        TOTAL FREE ENERGY PREDICTED BY IDOCK:   -4.90 KCAL/MOL
REMARK 923 INTER-LIGAND FREE ENERGY PREDICTED BY IDOCK:   -4.72 KCAL/MOL
REMARK 924 INTRA-LIGAND FREE ENERGY PREDICTED BY IDOCK:   -0.17 KCAL/MOL
REMARK 927      BINDING AFFINITY PREDICTED BY RF-SCORE:    0.00 PKD
ROOT
HETATM    1  C   UNL     1     -13.271  12.099  71.954  1.00  0.00    -0.369 C  
HETATM    2  N   UNL     1     -13.106  10.677  71.689  1.00  0.00    -0.447 NA 
HETATM    3  H   UNL     1     -13.947  10.274  71.275  1.00  0.00     0.000 HD 
ENDROOT
BRANCH   2   4
HETATM    4  C   UNL     1     -11.923  10.417  70.861  1.00  0.00    -0.377 C  
BRANCH   4   5
HETATM    5  C   UNL     1     -11.012   9.395  71.562  1.00  0.00    -0.429 C  
BRANCH   5   6
HETATM    6  C   UNL     1     -10.798   8.134  70.754  1.00  0.00    -0.247 C  
HETATM    7  C   UNL     1      -9.930   7.969  69.726  1.00  0.00    -0.191 C  
HETATM    8  C   UNL     1      -9.096   9.115  69.297  1.00  0.00    -0.146 A  
HETATM    9  C   UNL     1      -8.075   9.616  70.117  1.00  0.00    -0.205 A  
HETATM   10  C   UNL     1      -7.305  10.701  69.701  1.00  0.00    -0.133 A  
HETATM   11  C   UNL     1      -7.542  11.287  68.459  1.00  0.00    -0.123 A  
HETATM   12  C   UNL     1      -8.544  10.783  67.627  1.00  0.00    -0.123 A  
HETATM   13  C   UNL     1      -9.323   9.693  68.038  1.00  0.00    -0.142 A  
HETATM   14  C   UNL     1     -10.375   9.106  67.132  1.00  0.00    -0.337 C  
HETATM   15  C   UNL     1      -9.954   7.726  66.620  1.00  0.00    -0.299 C  
HETATM   16  C   UNL     1      -9.882   6.562  67.596  1.00  0.00    -0.146 A  
HETATM   17  C   UNL     1      -9.748   5.285  67.007  1.00  0.00    -0.167 A  
HETATM   18  C   UNL     1      -9.643   4.131  67.780  1.00  0.00    -0.208 A  
HETATM   19  C   UNL     1      -9.660   4.228  69.163  1.00  0.00    -0.249 A  
HETATM   20  C   UNL     1      -9.774   5.480  69.768  1.00  0.00    -0.236 A  
HETATM   21  C   UNL     1      -9.891   6.663  69.007  1.00  0.00    -0.149 A  
ENDBRANCH   5   6
ENDBRANCH   4   5
ENDBRANCH   2   4
TORSDOF 3
ENDMDL
MODEL      115
REMARK 921   NORMALIZED FREE ENERGY PREDICTED BY IDOCK:   -4.00 KCAL/MOL
REMARK 922        TOTAL FREE ENERGY PREDICTED BY IDOCK:   -4.89 KCAL/MOL
REMARK 923 INTER-LIGAND FREE ENERGY PREDICTED BY IDOCK:   -4.76 KCAL/MOL
REMARK 924 INTRA-LIGAND FREE ENERGY PREDICTED BY IDOCK:   -0.14 KCAL/MOL
REMARK 927      BINDING AFFINITY PREDICTED BY RF-SCORE:    0.00 PKD
ROOT
HETATM    1  C   UNL     1     -12.421  12.140  63.335  1.00  0.00    -0.512 C  
HETATM    2  N   UNL     1     -12.195  13.268  64.227  1.00  0.00    -0.515 NA 
HETATM    3  H   UNL     1     -12.823  14.043  64.014  1.00  0.00     0.000 HD 
ENDROOT
BRANCH   2   4
HETATM    4  C   UNL     1     -12.292  12.868  65.635  1.00  0.00    -0.423 C  
BRANCH   4   5
HETATM    5  C   UNL     1     -10.914  12.409  66.142  1.00  0.00    -0.321 C  
BRANCH   5   6
HETATM    6  C   UNL     1     -10.755  10.904  66.155  1.00  0.00    -0.225 C  
HETATM    7  C   UNL     1      -9.661  10.210  66.554  1.00  0.00    -0.252 C  
HETATM    8  C   UNL     1      -8.465  10.952  67.015  1.00  0.00    -0.134 A  
HETATM    9  C   UNL     1      -8.479  11.677  68.215  1.00  0.00    -0.160 A  
HETATM   10  C   UNL     1      -7.347  12.377  68.629  1.00  0.00    -0.102 A  
HETATM   11  C   UNL     1      -6.190  12.350  67.853  1.00  0.00    -0.093 A  
HETATM   12  C   UNL     1      -6.160  11.615  66.666  1.00  0.00    -0.094 A  
HETATM   13  C   UNL     1      -7.294  10.910  66.242  1.00  0.00    -0.127 A  
HETATM   14  C   UNL     1      -7.263  10.072  64.989  1.00  0.00    -0.139 C  
HETATM   15  C   UNL     1      -7.310   8.579  65.322  1.00  0.00    -0.084 C  
HETATM   16  C   UNL     1      -8.583   7.988  65.907  1.00  0.00    -0.171 A  
HETATM   17  C   UNL     1      -8.638   6.577  65.936  1.00  0.00    -0.153 A  
HETATM   18  C   UNL     1      -9.732   5.898  66.468  1.00  0.00    -0.185 A  
HETATM   19  C   UNL     1     -10.795   6.617  66.993  1.00  0.00    -0.467 A  
HETATM   20  C   UNL     1     -10.756   8.012  66.990  1.00  0.00    -0.263 A  
HETATM   21  C   UNL     1      -9.664   8.722  66.449  1.00  0.00    -0.335 A  
ENDBRANCH   5   6
ENDBRANCH   4   5
ENDBRANCH   2   4
TORSDOF 3
ENDMDL
MODEL      116
REMARK 921   NORMALIZED FREE ENERGY PREDICTED BY IDOCK:   -3.98 KCAL/MOL
REMARK 922        TOTAL FREE ENERGY PREDICTED BY IDOCK:   -4.87 KCAL/MOL
REMARK 923 INTER-LIGAND FREE ENERGY PREDICTED BY IDOCK:   -4.59 KCAL/MOL
REMARK 924 INTRA-LIGAND FREE ENERGY PREDICTED BY IDOCK:   -0.28 KCAL/MOL
REMARK 927      BINDING AFFINITY PREDICTED BY RF-SCORE:    0.00 PKD
ROOT
HETATM    1  C   UNL     1     -12.999   8.812  72.325  1.00  0.00    -0.408 C  
HETATM    2  N   UNL     1     -12.475   8.661  70.975  1.00  0.00    -0.477 NA 
HETATM    3  H   UNL     1     -13.225   8.539  70.295  1.00  0.00     0.000 HD 
ENDROOT
BRANCH   2   4
HETATM    4  C   UNL     1     -11.596   9.778  70.611  1.00  0.00    -0.313 C  
BRANCH   4   5
HETATM    5  C   UNL     1     -10.125   9.346  70.738  1.00  0.00    -0.366 C  
BRANCH   5   6
HETATM    6  C   UNL     1      -9.919   7.862  70.525  1.00  0.00    -0.191 C  
HETATM    7  C   UNL     1      -9.428   7.266  69.411  1.00  0.00    -0.154 C  
HETATM    8  C   UNL     1      -9.058   8.104  68.248  1.00  0.00    -0.135 A  
HETATM    9  C   UNL     1      -7.960   8.975  68.301  1.00  0.00    -0.104 A  
HETATM   10  C   UNL     1      -7.632   9.763  67.200  1.00  0.00    -0.092 A  
HETATM   11  C   UNL     1      -8.391   9.681  66.034  1.00  0.00    -0.123 A  
HETATM   12  C   UNL     1      -9.474   8.803  65.965  1.00  0.00    -0.302 A  
HETATM   13  C   UNL     1      -9.812   8.008  67.068  1.00  0.00    -0.295 A  
HETATM   14  C   UNL     1     -10.948   7.019  66.992  1.00  0.00    -0.357 C  
HETATM   15  C   UNL     1     -10.427   5.580  66.989  1.00  0.00    -0.336 C  
HETATM   16  C   UNL     1      -9.780   5.021  68.246  1.00  0.00    -0.200 A  
HETATM   17  C   UNL     1      -9.571   3.624  68.250  1.00  0.00    -0.165 A  
HETATM   18  C   UNL     1      -8.963   2.978  69.325  1.00  0.00    -0.178 A  
HETATM   19  C   UNL     1      -8.541   3.718  70.419  1.00  0.00    -0.110 A  
HETATM   20  C   UNL     1      -8.722   5.102  70.431  1.00  0.00    -0.130 A  
HETATM   21  C   UNL     1      -9.343   5.777  69.359  1.00  0.00    -0.151 A  
ENDBRANCH   5   6
ENDBRANCH   4   5
ENDBRANCH   2   4
TORSDOF 3
ENDMDL
MODEL      117
REMARK 921   NORMALIZED FREE ENERGY PREDICTED BY IDOCK:   -3.88 KCAL/MOL
REMARK 922        TOTAL FREE ENERGY PREDICTED BY IDOCK:   -4.76 KCAL/MOL
REMARK 923 INTER-LIGAND FREE ENERGY PREDICTED BY IDOCK:   -4.35 KCAL/MOL
REMARK 924 INTRA-LIGAND FREE ENERGY PREDICTED BY IDOCK:   -0.41 KCAL/MOL
REMARK 927      BINDING AFFINITY PREDICTED BY RF-SCORE:    0.00 PKD
ROOT
HETATM    1  C   UNL     1     -12.467   9.093  71.664  1.00  0.00    -0.359 C  
HETATM    2  N   UNL     1     -11.916   8.055  72.525  1.00  0.00    -0.520 NA 
HETATM    3  H   UNL     1     -12.180   8.199  73.499  1.00  0.00     0.000 HD 
ENDROOT
BRANCH   2   4
HETATM    4  C   UNL     1     -12.291   6.715  72.059  1.00  0.00    -0.272 C  
BRANCH   4   5
HETATM    5  C   UNL     1     -11.068   5.784  72.113  1.00  0.00    -0.327 C  
BRANCH   5   6
HETATM    6  C   UNL     1     -10.745   5.146  70.779  1.00  0.00    -0.132 C  
HETATM    7  C   UNL     1      -9.938   5.651  69.815  1.00  0.00    -0.264 C  
HETATM    8  C   UNL     1      -9.295   6.968  70.030  1.00  0.00    -0.158 A  
HETATM    9  C   UNL     1      -8.295   7.138  70.998  1.00  0.00    -0.124 A  
HETATM   10  C   UNL     1      -7.708   8.387  71.194  1.00  0.00    -0.107 A  
HETATM   11  C   UNL     1      -8.108   9.473  70.417  1.00  0.00    -0.209 A  
HETATM   12  C   UNL     1      -9.089   9.309  69.438  1.00  0.00    -0.152 A  
HETATM   13  C   UNL     1      -9.685   8.057  69.235  1.00  0.00    -0.167 A  
HETATM   14  C   UNL     1     -10.710   7.853  68.149  1.00  0.00    -0.101 C  
HETATM   15  C   UNL     1     -10.146   6.996  67.012  1.00  0.00    -0.298 C  
HETATM   16  C   UNL     1      -9.851   5.526  67.267  1.00  0.00    -0.169 A  
HETATM   17  C   UNL     1      -9.590   4.753  66.113  1.00  0.00    -0.185 A  
HETATM   18  C   UNL     1      -9.278   3.398  66.196  1.00  0.00    -0.169 A  
HETATM   19  C   UNL     1      -9.211   2.785  67.438  1.00  0.00    -0.210 A  
HETATM   20  C   UNL     1      -9.449   3.532  68.593  1.00  0.00    -0.209 A  
HETATM   21  C   UNL     1      -9.775   4.904  68.534  1.00  0.00    -0.218 A  
ENDBRANCH   5   6
ENDBRANCH   4   5
ENDBRANCH   2   4
TORSDOF 3
ENDMDL
MODEL      118
REMARK 921   NORMALIZED FREE ENERGY PREDICTED BY IDOCK:   -3.86 KCAL/MOL
REMARK 922        TOTAL FREE ENERGY PREDICTED BY IDOCK:   -4.73 KCAL/MOL
REMARK 923 INTER-LIGAND FREE ENERGY PREDICTED BY IDOCK:   -4.72 KCAL/MOL
REMARK 924 INTRA-LIGAND FREE ENERGY PREDICTED BY IDOCK:   -0.02 KCAL/MOL
REMARK 927      BINDING AFFINITY PREDICTED BY RF-SCORE:    0.00 PKD
ROOT
HETATM    1  C   UNL     1      -5.162  17.564  67.314  1.00  0.00    -0.133 C  
HETATM    2  N   UNL     1      -5.613  16.228  66.951  1.00  0.00    -0.341 NA 
HETATM    3  H   UNL     1      -5.238  15.941  66.047  1.00  0.00     0.000 HD 
ENDROOT
BRANCH   2   4
HETATM    4  C   UNL     1      -5.298  15.251  67.999  1.00  0.00    -0.125 C  
BRANCH   4   5
HETATM    5  C   UNL     1      -6.528  15.035  68.897  1.00  0.00    -0.091 C  
BRANCH   5   6
HETATM    6  C   UNL     1      -7.449  13.944  68.395  1.00  0.00    -0.117 C  
HETATM    7  C   UNL     1      -8.672  14.112  67.837  1.00  0.00    -0.182 C  
HETATM    8  C   UNL     1      -9.220  15.481  67.699  1.00  0.00    -0.190 A  
HETATM    9  C   UNL     1      -8.654  16.402  66.806  1.00  0.00    -0.270 A  
HETATM   10  C   UNL     1      -9.177  17.689  66.695  1.00  0.00    -0.284 A  
HETATM   11  C   UNL     1     -10.275  18.063  67.468  1.00  0.00    -0.376 A  
HETATM   12  C   UNL     1     -10.857  17.147  68.346  1.00  0.00    -0.309 A  
HETATM   13  C   UNL     1     -10.337  15.851  68.464  1.00  0.00    -0.232 A  
HETATM   14  C   UNL     1     -10.984  14.836  69.371  1.00  0.00    -0.282 C  
HETATM   15  C   UNL     1     -11.679  13.738  68.562  1.00  0.00    -0.391 C  
HETATM   16  C   UNL     1     -10.836  12.759  67.760  1.00  0.00    -0.248 A  
HETATM   17  C   UNL     1     -11.526  11.630  67.265  1.00  0.00    -0.350 A  
HETATM   18  C   UNL     1     -10.887  10.663  66.491  1.00  0.00    -0.168 A  
HETATM   19  C   UNL     1      -9.542  10.808  66.188  1.00  0.00    -0.236 A  
HETATM   20  C   UNL     1      -8.843  11.924  66.653  1.00  0.00    -0.191 A  
HETATM   21  C   UNL     1      -9.466  12.911  67.445  1.00  0.00    -0.198 A  
ENDBRANCH   5   6
ENDBRANCH   4   5
ENDBRANCH   2   4
TORSDOF 3
ENDMDL
MODEL      119
REMARK 921   NORMALIZED FREE ENERGY PREDICTED BY IDOCK:   -3.79 KCAL/MOL
REMARK 922        TOTAL FREE ENERGY PREDICTED BY IDOCK:   -4.65 KCAL/MOL
REMARK 923 INTER-LIGAND FREE ENERGY PREDICTED BY IDOCK:   -4.45 KCAL/MOL
REMARK 924 INTRA-LIGAND FREE ENERGY PREDICTED BY IDOCK:   -0.20 KCAL/MOL
REMARK 927      BINDING AFFINITY PREDICTED BY RF-SCORE:    0.00 PKD
ROOT
HETATM    1  C   UNL     1      -6.740  16.277  68.961  1.00  0.00    -0.182 C  
HETATM    2  N   UNL     1      -5.671  15.612  68.229  1.00  0.00    -0.108 NA 
HETATM    3  H   UNL     1      -4.769  15.744  68.686  1.00  0.00     0.000 HD 
ENDROOT
BRANCH   2   4
HETATM    4  C   UNL     1      -5.966  14.190  68.021  1.00  0.00    -0.142 C  
BRANCH   4   5
HETATM    5  C   UNL     1      -7.488  13.967  68.028  1.00  0.00    -0.141 C  
BRANCH   5   6
HETATM    6  C   UNL     1      -7.878  12.523  68.252  1.00  0.00    -0.144 C  
HETATM    7  C   UNL     1      -9.004  11.911  67.811  1.00  0.00    -0.173 C  
HETATM    8  C   UNL     1      -9.996  12.696  67.042  1.00  0.00    -0.220 A  
HETATM    9  C   UNL     1      -9.709  13.164  65.752  1.00  0.00    -0.151 A  
HETATM   10  C   UNL     1     -10.652  13.909  65.046  1.00  0.00    -0.418 A  
HETATM   11  C   UNL     1     -11.892  14.185  65.619  1.00  0.00    -0.377 A  
HETATM   12  C   UNL     1     -12.194  13.708  66.895  1.00  0.00    -0.398 A  
HETATM   13  C   UNL     1     -11.252  12.958  67.612  1.00  0.00    -0.317 A  
HETATM   14  C   UNL     1     -11.581  12.394  68.971  1.00  0.00    -0.362 C  
HETATM   15  C   UNL     1     -11.725  10.871  68.916  1.00  0.00    -0.376 C  
HETATM   16  C   UNL     1     -10.494  10.018  68.655  1.00  0.00    -0.228 A  
HETATM   17  C   UNL     1     -10.658   8.633  68.881  1.00  0.00    -0.166 A  
HETATM   18  C   UNL     1      -9.623   7.727  68.658  1.00  0.00    -0.154 A  
HETATM   19  C   UNL     1      -8.400   8.186  68.193  1.00  0.00    -0.129 A  
HETATM   20  C   UNL     1      -8.219   9.548  67.946  1.00  0.00    -0.114 A  
HETATM   21  C   UNL     1      -9.249  10.485  68.173  1.00  0.00    -0.148 A  
ENDBRANCH   5   6
ENDBRANCH   4   5
ENDBRANCH   2   4
TORSDOF 3
ENDMDL
MODEL      120
REMARK 921   NORMALIZED FREE ENERGY PREDICTED BY IDOCK:   -3.78 KCAL/MOL
REMARK 922        TOTAL FREE ENERGY PREDICTED BY IDOCK:   -4.64 KCAL/MOL
REMARK 923 INTER-LIGAND FREE ENERGY PREDICTED BY IDOCK:   -4.26 KCAL/MOL
REMARK 924 INTRA-LIGAND FREE ENERGY PREDICTED BY IDOCK:   -0.38 KCAL/MOL
REMARK 927      BINDING AFFINITY PREDICTED BY RF-SCORE:    0.00 PKD
ROOT
HETATM    1  C   UNL     1      -7.930   8.388  65.007  1.00  0.00    -0.139 C  
HETATM    2  N   UNL     1      -9.317   8.798  65.184  1.00  0.00    -0.430 NA 
HETATM    3  H   UNL     1      -9.950   8.000  65.141  1.00  0.00     0.000 HD 
ENDROOT
BRANCH   2   4
HETATM    4  C   UNL     1      -9.498   9.562  66.424  1.00  0.00    -0.195 C  
BRANCH   4   5
HETATM    5  C   UNL     1      -8.274   9.371  67.336  1.00  0.00    -0.121 C  
BRANCH   5   6
HETATM    6  C   UNL     1      -8.642   9.066  68.772  1.00  0.00    -0.132 C  
HETATM    7  C   UNL     1      -8.879   7.843  69.303  1.00  0.00    -0.142 C  
HETATM    8  C   UNL     1      -8.802   6.650  68.429  1.00  0.00    -0.121 A  
HETATM    9  C   UNL     1      -7.578   6.216  67.901  1.00  0.00    -0.101 A  
HETATM   10  C   UNL     1      -7.526   5.096  67.072  1.00  0.00    -0.087 A  
HETATM   11  C   UNL     1      -8.693   4.396  66.773  1.00  0.00    -0.112 A  
HETATM   12  C   UNL     1      -9.914   4.810  67.310  1.00  0.00    -0.214 A  
HETATM   13  C   UNL     1      -9.976   5.934  68.143  1.00  0.00    -0.173 A  
HETATM   14  C   UNL     1     -11.277   6.364  68.770  1.00  0.00    -0.358 C  
HETATM   15  C   UNL     1     -11.275   6.106  70.279  1.00  0.00    -0.439 C  
HETATM   16  C   UNL     1     -10.360   6.929  71.172  1.00  0.00    -0.222 A  
HETATM   17  C   UNL     1     -10.607   6.818  72.558  1.00  0.00    -0.249 A  
HETATM   18  C   UNL     1      -9.830   7.494  73.496  1.00  0.00    -0.372 A  
HETATM   19  C   UNL     1      -8.779   8.291  73.069  1.00  0.00    -0.287 A  
HETATM   20  C   UNL     1      -8.505   8.403  71.704  1.00  0.00    -0.213 A  
HETATM   21  C   UNL     1      -9.284   7.736  70.735  1.00  0.00    -0.157 A  
ENDBRANCH   5   6
ENDBRANCH   4   5
ENDBRANCH   2   4
TORSDOF 3
ENDMDL
MODEL      121
REMARK 921   NORMALIZED FREE ENERGY PREDICTED BY IDOCK:   -3.75 KCAL/MOL
REMARK 922        TOTAL FREE ENERGY PREDICTED BY IDOCK:   -4.60 KCAL/MOL
REMARK 923 INTER-LIGAND FREE ENERGY PREDICTED BY IDOCK:   -4.27 KCAL/MOL
REMARK 924 INTRA-LIGAND FREE ENERGY PREDICTED BY IDOCK:   -0.33 KCAL/MOL
REMARK 927      BINDING AFFINITY PREDICTED BY RF-SCORE:    0.00 PKD
ROOT
HETATM    1  C   UNL     1      -9.537   9.067  66.032  1.00  0.00    -0.272 C  
HETATM    2  N   UNL     1      -9.608   8.904  67.477  1.00  0.00    -0.140 NA 
HETATM    3  H   UNL     1      -8.729   9.159  67.926  1.00  0.00     0.000 HD 
ENDROOT
BRANCH   2   4
HETATM    4  C   UNL     1     -10.738   9.648  68.047  1.00  0.00    -0.232 C  
BRANCH   4   5
HETATM    5  C   UNL     1     -10.243  10.987  68.618  1.00  0.00    -0.211 C  
BRANCH   5   6
HETATM    6  C   UNL     1     -10.592  12.173  67.745  1.00  0.00    -0.229 C  
HETATM    7  C   UNL     1      -9.740  13.128  67.301  1.00  0.00    -0.230 C  
HETATM    8  C   UNL     1      -8.314  13.064  67.697  1.00  0.00    -0.181 A  
HETATM    9  C   UNL     1      -7.473  12.049  67.218  1.00  0.00    -0.158 A  
HETATM   10  C   UNL     1      -6.137  11.999  67.609  1.00  0.00    -0.093 A  
HETATM   11  C   UNL     1      -5.627  12.966  68.473  1.00  0.00    -0.067 A  
HETATM   12  C   UNL     1      -6.452  13.991  68.940  1.00  0.00    -0.096 A  
HETATM   13  C   UNL     1      -7.797  14.049  68.553  1.00  0.00    -0.140 A  
HETATM   14  C   UNL     1      -8.687  15.176  69.009  1.00  0.00    -0.215 C  
HETATM   15  C   UNL     1      -9.031  16.113  67.848  1.00  0.00    -0.183 C  
HETATM   16  C   UNL     1      -9.929  15.609  66.729  1.00  0.00    -0.258 A  
HETATM   17  C   UNL     1     -10.410  16.602  65.845  1.00  0.00    -0.355 A  
HETATM   18  C   UNL     1     -11.221  16.283  64.758  1.00  0.00    -0.267 A  
HETATM   19  C   UNL     1     -11.564  14.960  64.524  1.00  0.00    -0.356 A  
HETATM   20  C   UNL     1     -11.088  13.960  65.374  1.00  0.00    -0.310 A  
HETATM   21  C   UNL     1     -10.273  14.259  66.486  1.00  0.00    -0.277 A  
ENDBRANCH   5   6
ENDBRANCH   4   5
ENDBRANCH   2   4
TORSDOF 3
ENDMDL
MODEL      122
REMARK 921   NORMALIZED FREE ENERGY PREDICTED BY IDOCK:   -3.74 KCAL/MOL
REMARK 922        TOTAL FREE ENERGY PREDICTED BY IDOCK:   -4.60 KCAL/MOL
REMARK 923 INTER-LIGAND FREE ENERGY PREDICTED BY IDOCK:   -4.24 KCAL/MOL
REMARK 924 INTRA-LIGAND FREE ENERGY PREDICTED BY IDOCK:   -0.35 KCAL/MOL
REMARK 927      BINDING AFFINITY PREDICTED BY RF-SCORE:    0.00 PKD
ROOT
HETATM    1  C   UNL     1     -13.207   7.334  71.483  1.00  0.00    -0.379 C  
HETATM    2  N   UNL     1     -13.727   8.629  71.067  1.00  0.00    -0.556 NA 
HETATM    3  H   UNL     1     -14.593   8.858  71.554  1.00  0.00     0.000 HD 
ENDROOT
BRANCH   2   4
HETATM    4  C   UNL     1     -12.723   9.688  71.228  1.00  0.00    -0.352 C  
BRANCH   4   5
HETATM    5  C   UNL     1     -12.199  10.122  69.848  1.00  0.00    -0.050 C  
BRANCH   5   6
HETATM    6  C   UNL     1     -10.715  10.420  69.842  1.00  0.00    -0.331 C  
HETATM    7  C   UNL     1      -9.709   9.517  69.747  1.00  0.00    -0.234 C  
HETATM    8  C   UNL     1     -10.039   8.076  69.659  1.00  0.00    -0.198 A  
HETATM    9  C   UNL     1     -10.664   7.544  68.521  1.00  0.00    -0.115 A  
HETATM   10  C   UNL     1     -10.976   6.187  68.459  1.00  0.00    -0.404 A  
HETATM   11  C   UNL     1     -10.658   5.350  69.527  1.00  0.00    -0.316 A  
HETATM   12  C   UNL     1     -10.019   5.867  70.655  1.00  0.00    -0.242 A  
HETATM   13  C   UNL     1      -9.703   7.230  70.727  1.00  0.00    -0.171 A  
HETATM   14  C   UNL     1      -8.970   7.794  71.917  1.00  0.00    -0.164 C  
HETATM   15  C   UNL     1      -7.538   8.191  71.546  1.00  0.00    -0.090 C  
HETATM   16  C   UNL     1      -7.312   9.370  70.613  1.00  0.00    -0.140 A  
HETATM   17  C   UNL     1      -5.979   9.832  70.534  1.00  0.00    -0.072 A  
HETATM   18  C   UNL     1      -5.619  10.888  69.700  1.00  0.00    -0.042 A  
HETATM   19  C   UNL     1      -6.585  11.502  68.917  1.00  0.00    -0.073 A  
HETATM   20  C   UNL     1      -7.906  11.053  68.966  1.00  0.00    -0.126 A  
HETATM   21  C   UNL     1      -8.296   9.991  69.810  1.00  0.00    -0.187 A  
ENDBRANCH   5   6
ENDBRANCH   4   5
ENDBRANCH   2   4
TORSDOF 3
ENDMDL
MODEL      123
REMARK 921   NORMALIZED FREE ENERGY PREDICTED BY IDOCK:   -3.69 KCAL/MOL
REMARK 922        TOTAL FREE ENERGY PREDICTED BY IDOCK:   -4.53 KCAL/MOL
REMARK 923 INTER-LIGAND FREE ENERGY PREDICTED BY IDOCK:   -4.25 KCAL/MOL
REMARK 924 INTRA-LIGAND FREE ENERGY PREDICTED BY IDOCK:   -0.29 KCAL/MOL
REMARK 927      BINDING AFFINITY PREDICTED BY RF-SCORE:    0.00 PKD
ROOT
HETATM    1  C   UNL     1      -6.187  16.811  67.952  1.00  0.00    -0.135 C  
HETATM    2  N   UNL     1      -5.737  15.504  67.495  1.00  0.00    -0.313 NA 
HETATM    3  H   UNL     1      -4.906  15.579  66.908  1.00  0.00     0.000 HD 
ENDROOT
BRANCH   2   4
HETATM    4  C   UNL     1      -5.519  14.586  68.619  1.00  0.00    -0.094 C  
BRANCH   4   5
HETATM    5  C   UNL     1      -6.832  13.861  68.961  1.00  0.00    -0.111 C  
BRANCH   5   6
HETATM    6  C   UNL     1      -7.099  12.662  68.077  1.00  0.00    -0.103 C  
HETATM    7  C   UNL     1      -8.168  12.479  67.264  1.00  0.00    -0.184 C  
HETATM    8  C   UNL     1      -9.221  13.519  67.213  1.00  0.00    -0.233 A  
HETATM    9  C   UNL     1      -8.971  14.778  66.649  1.00  0.00    -0.286 A  
HETATM   10  C   UNL     1      -9.972  15.747  66.618  1.00  0.00    -0.268 A  
HETATM   11  C   UNL     1     -11.232  15.464  67.141  1.00  0.00    -0.256 A  
HETATM   12  C   UNL     1     -11.496  14.206  67.687  1.00  0.00    -0.364 A  
HETATM   13  C   UNL     1     -10.496  13.226  67.723  1.00  0.00    -0.242 A  
HETATM   14  C   UNL     1     -10.780  11.848  68.264  1.00  0.00    -0.253 C  
HETATM   15  C   UNL     1     -10.793  10.807  67.142  1.00  0.00    -0.335 C  
HETATM   16  C   UNL     1      -9.494  10.462  66.432  1.00  0.00    -0.209 A  
HETATM   17  C   UNL     1      -9.541   9.317  65.606  1.00  0.00    -0.324 A  
HETATM   18  C   UNL     1      -8.432   8.898  64.873  1.00  0.00    -0.195 A  
HETATM   19  C   UNL     1      -7.251   9.621  64.944  1.00  0.00    -0.118 A  
HETATM   20  C   UNL     1      -7.185  10.765  65.741  1.00  0.00    -0.057 A  
HETATM   21  C   UNL     1      -8.292  11.204  66.499  1.00  0.00    -0.166 A  
ENDBRANCH   5   6
ENDBRANCH   4   5
ENDBRANCH   2   4
TORSDOF 3
ENDMDL
MODEL      124
REMARK 921   NORMALIZED FREE ENERGY PREDICTED BY IDOCK:   -3.63 KCAL/MOL
REMARK 922        TOTAL FREE ENERGY PREDICTED BY IDOCK:   -4.46 KCAL/MOL
REMARK 923 INTER-LIGAND FREE ENERGY PREDICTED BY IDOCK:   -4.23 KCAL/MOL
REMARK 924 INTRA-LIGAND FREE ENERGY PREDICTED BY IDOCK:   -0.23 KCAL/MOL
REMARK 927      BINDING AFFINITY PREDICTED BY RF-SCORE:    0.00 PKD
ROOT
HETATM    1  C   UNL     1      -8.830   7.527  74.400  1.00  0.00    -0.148 C  
HETATM    2  N   UNL     1      -8.117   8.526  73.617  1.00  0.00    -0.404 NA 
HETATM    3  H   UNL     1      -7.710   9.247  74.213  1.00  0.00     0.000 HD 
ENDROOT
BRANCH   2   4
HETATM    4  C   UNL     1      -7.104   7.910  72.752  1.00  0.00    -0.084 C  
BRANCH   4   5
HETATM    5  C   UNL     1      -7.589   6.525  72.289  1.00  0.00    -0.096 C  
BRANCH   5   6
HETATM    6  C   UNL     1      -8.231   6.545  70.920  1.00  0.00    -0.125 C  
HETATM    7  C   UNL     1      -9.197   5.709  70.468  1.00  0.00    -0.175 C  
HETATM    8  C   UNL     1      -9.697   4.636  71.358  1.00  0.00    -0.246 A  
HETATM    9  C   UNL     1     -10.451   4.935  72.502  1.00  0.00    -0.262 A  
HETATM   10  C   UNL     1     -10.905   3.913  73.334  1.00  0.00    -0.318 A  
HETATM   11  C   UNL     1     -10.620   2.585  73.024  1.00  0.00    -0.247 A  
HETATM   12  C   UNL     1      -9.886   2.276  71.877  1.00  0.00    -0.225 A  
HETATM   13  C   UNL     1      -9.425   3.297  71.035  1.00  0.00    -0.228 A  
HETATM   14  C   UNL     1      -8.675   2.978  69.768  1.00  0.00    -0.130 C  
HETATM   15  C   UNL     1      -9.523   3.289  68.531  1.00  0.00    -0.206 C  
HETATM   16  C   UNL     1      -9.843   4.737  68.197  1.00  0.00    -0.182 A  
HETATM   17  C   UNL     1     -10.395   4.954  66.914  1.00  0.00    -0.237 A  
HETATM   18  C   UNL     1     -10.762   6.226  66.481  1.00  0.00    -0.177 A  
HETATM   19  C   UNL     1     -10.594   7.312  67.326  1.00  0.00    -0.395 A  
HETATM   20  C   UNL     1     -10.067   7.121  68.604  1.00  0.00    -0.177 A  
HETATM   21  C   UNL     1      -9.679   5.844  69.062  1.00  0.00    -0.170 A  
ENDBRANCH   5   6
ENDBRANCH   4   5
ENDBRANCH   2   4
TORSDOF 3
ENDMDL
MODEL      125
REMARK 921   NORMALIZED FREE ENERGY PREDICTED BY IDOCK:   -3.61 KCAL/MOL
REMARK 922        TOTAL FREE ENERGY PREDICTED BY IDOCK:   -4.43 KCAL/MOL
REMARK 923 INTER-LIGAND FREE ENERGY PREDICTED BY IDOCK:   -4.15 KCAL/MOL
REMARK 924 INTRA-LIGAND FREE ENERGY PREDICTED BY IDOCK:   -0.28 KCAL/MOL
REMARK 927      BINDING AFFINITY PREDICTED BY RF-SCORE:    0.00 PKD
ROOT
HETATM    1  C   UNL     1      -8.416   9.371  64.422  1.00  0.00    -0.184 C  
HETATM    2  N   UNL     1      -7.750  10.628  64.733  1.00  0.00    -0.349 NA 
HETATM    3  H   UNL     1      -8.377  11.273  65.214  1.00  0.00     0.000 HD 
ENDROOT
BRANCH   2   4
HETATM    4  C   UNL     1      -6.516  10.409  65.496  1.00  0.00    -0.126 C  
BRANCH   4   5
HETATM    5  C   UNL     1      -6.702  10.904  66.940  1.00  0.00    -0.106 C  
BRANCH   5   6
HETATM    6  C   UNL     1      -7.751  11.988  67.068  1.00  0.00    -0.129 C  
HETATM    7  C   UNL     1      -8.810  11.992  67.913  1.00  0.00    -0.174 C  
HETATM    8  C   UNL     1      -9.021  10.833  68.811  1.00  0.00    -0.171 A  
HETATM    9  C   UNL     1      -8.140  10.566  69.869  1.00  0.00     0.130 A  
HETATM   10  C   UNL     1      -8.349   9.465  70.698  1.00  0.00    -0.217 A  
HETATM   11  C   UNL     1      -9.443   8.629  70.484  1.00  0.00    -0.206 A  
HETATM   12  C   UNL     1     -10.335   8.898  69.444  1.00  0.00    -0.217 A  
HETATM   13  C   UNL     1     -10.133  10.002  68.605  1.00  0.00    -0.187 A  
HETATM   14  C   UNL     1     -11.115  10.333  67.510  1.00  0.00    -0.302 C  
HETATM   15  C   UNL     1     -11.901  11.605  67.841  1.00  0.00    -0.273 C  
HETATM   16  C   UNL     1     -11.179  12.942  67.853  1.00  0.00    -0.306 A  
HETATM   17  C   UNL     1     -12.015  14.081  67.903  1.00  0.00    -0.387 A  
HETATM   18  C   UNL     1     -11.491  15.371  67.946  1.00  0.00    -0.306 A  
HETATM   19  C   UNL     1     -10.116  15.553  67.950  1.00  0.00    -0.224 A  
HETATM   20  C   UNL     1      -9.271  14.443  67.918  1.00  0.00    -0.195 A  
HETATM   21  C   UNL     1      -9.777  13.127  67.865  1.00  0.00    -0.221 A  
ENDBRANCH   5   6
ENDBRANCH   4   5
ENDBRANCH   2   4
TORSDOF 3
ENDMDL
MODEL      126
REMARK 921   NORMALIZED FREE ENERGY PREDICTED BY IDOCK:   -3.60 KCAL/MOL
REMARK 922        TOTAL FREE ENERGY PREDICTED BY IDOCK:   -4.43 KCAL/MOL
REMARK 923 INTER-LIGAND FREE ENERGY PREDICTED BY IDOCK:   -4.21 KCAL/MOL
REMARK 924 INTRA-LIGAND FREE ENERGY PREDICTED BY IDOCK:   -0.21 KCAL/MOL
REMARK 927      BINDING AFFINITY PREDICTED BY RF-SCORE:    0.00 PKD
ROOT
HETATM    1  C   UNL     1      -6.034   9.410  70.271  1.00  0.00    -0.040 C  
HETATM    2  N   UNL     1      -6.269  10.514  69.350  1.00  0.00    -0.044 NA 
HETATM    3  H   UNL     1      -5.393  10.936  69.044  1.00  0.00     0.000 HD 
ENDROOT
BRANCH   2   4
HETATM    4  C   UNL     1      -7.092  10.097  68.209  1.00  0.00    -0.075 C  
BRANCH   4   5
HETATM    5  C   UNL     1      -7.628  11.337  67.474  1.00  0.00    -0.110 C  
BRANCH   5   6
HETATM    6  C   UNL     1      -8.760  12.023  68.207  1.00  0.00    -0.178 C  
HETATM    7  C   UNL     1      -9.956  12.388  67.686  1.00  0.00    -0.200 C  
HETATM    8  C   UNL     1     -10.227  12.133  66.253  1.00  0.00    -0.249 A  
HETATM    9  C   UNL     1     -10.382  10.827  65.766  1.00  0.00    -0.295 A  
HETATM   10  C   UNL     1     -10.627  10.604  64.412  1.00  0.00    -0.118 A  
HETATM   11  C   UNL     1     -10.730  11.683  63.536  1.00  0.00    -0.495 A  
HETATM   12  C   UNL     1     -10.597  12.987  64.015  1.00  0.00    -0.371 A  
HETATM   13  C   UNL     1     -10.349  13.221  65.374  1.00  0.00    -0.316 A  
HETATM   14  C   UNL     1     -10.252  14.624  65.915  1.00  0.00    -0.344 C  
HETATM   15  C   UNL     1     -11.462  14.964  66.788  1.00  0.00    -0.304 C  
HETATM   16  C   UNL     1     -11.633  14.263  68.126  1.00  0.00    -0.365 A  
HETATM   17  C   UNL     1     -12.614  14.817  68.979  1.00  0.00     0.201 A  
HETATM   18  C   UNL     1     -12.898  14.262  70.225  1.00  0.00    -0.207 A  
HETATM   19  C   UNL     1     -12.212  13.132  70.644  1.00  0.00    -0.402 A  
HETATM   20  C   UNL     1     -11.250  12.557  69.811  1.00  0.00    -0.011 A  
HETATM   21  C   UNL     1     -10.939  13.106  68.550  1.00  0.00    -0.289 A  
ENDBRANCH   5   6
ENDBRANCH   4   5
ENDBRANCH   2   4
TORSDOF 3
ENDMDL
MODEL      127
REMARK 921   NORMALIZED FREE ENERGY PREDICTED BY IDOCK:   -3.57 KCAL/MOL
REMARK 922        TOTAL FREE ENERGY PREDICTED BY IDOCK:   -4.40 KCAL/MOL
REMARK 923 INTER-LIGAND FREE ENERGY PREDICTED BY IDOCK:   -4.20 KCAL/MOL
REMARK 924 INTRA-LIGAND FREE ENERGY PREDICTED BY IDOCK:   -0.19 KCAL/MOL
REMARK 927      BINDING AFFINITY PREDICTED BY RF-SCORE:    0.00 PKD
ROOT
HETATM    1  C   UNL     1     -12.224  13.603  66.881  1.00  0.00    -0.352 C  
HETATM    2  N   UNL     1     -12.165  12.429  66.021  1.00  0.00    -0.624 NA 
HETATM    3  H   UNL     1     -12.375  12.666  65.052  1.00  0.00     0.000 HD 
ENDROOT
BRANCH   2   4
HETATM    4  C   UNL     1     -10.875  11.740  66.139  1.00  0.00    -0.291 C  
BRANCH   4   5
HETATM    5  C   UNL     1     -10.930  10.728  67.296  1.00  0.00    -0.359 C  
BRANCH   5   6
HETATM    6  C   UNL     1     -10.697   9.300  66.851  1.00  0.00    -0.164 C  
HETATM    7  C   UNL     1      -9.638   8.517  67.170  1.00  0.00    -0.232 C  
HETATM    8  C   UNL     1      -8.561   9.072  68.022  1.00  0.00    -0.129 A  
HETATM    9  C   UNL     1      -8.785   9.368  69.373  1.00  0.00    -0.157 A  
HETATM   10  C   UNL     1      -7.763   9.899  70.158  1.00  0.00    -0.188 A  
HETATM   11  C   UNL     1      -6.506  10.128  69.601  1.00  0.00    -0.062 A  
HETATM   12  C   UNL     1      -6.267   9.818  68.261  1.00  0.00    -0.051 A  
HETATM   13  C   UNL     1      -7.290   9.285  67.465  1.00  0.00    -0.087 A  
HETATM   14  C   UNL     1      -7.034   8.899  66.030  1.00  0.00    -0.084 C  
HETATM   15  C   UNL     1      -7.052   7.378  65.856  1.00  0.00    -0.065 C  
HETATM   16  C   UNL     1      -8.364   6.627  66.019  1.00  0.00    -0.134 A  
HETATM   17  C   UNL     1      -8.349   5.282  65.586  1.00  0.00    -0.126 A  
HETATM   18  C   UNL     1      -9.472   4.465  65.699  1.00  0.00    -0.175 A  
HETATM   19  C   UNL     1     -10.635   4.973  66.257  1.00  0.00    -0.332 A  
HETATM   20  C   UNL     1     -10.669   6.294  66.707  1.00  0.00    -0.364 A  
HETATM   21  C   UNL     1      -9.548   7.143  66.595  1.00  0.00    -0.226 A  
ENDBRANCH   5   6
ENDBRANCH   4   5
ENDBRANCH   2   4
TORSDOF 3
ENDMDL
MODEL      128
REMARK 921   NORMALIZED FREE ENERGY PREDICTED BY IDOCK:   -3.56 KCAL/MOL
REMARK 922        TOTAL FREE ENERGY PREDICTED BY IDOCK:   -4.38 KCAL/MOL
REMARK 923 INTER-LIGAND FREE ENERGY PREDICTED BY IDOCK:   -4.23 KCAL/MOL
REMARK 924 INTRA-LIGAND FREE ENERGY PREDICTED BY IDOCK:   -0.15 KCAL/MOL
REMARK 927      BINDING AFFINITY PREDICTED BY RF-SCORE:    0.00 PKD
ROOT
HETATM    1  C   UNL     1      -7.452  10.008  63.398  1.00  0.00    -0.139 C  
HETATM    2  N   UNL     1      -8.031  10.657  64.566  1.00  0.00    -0.356 NA 
HETATM    3  H   UNL     1      -8.883  11.164  64.328  1.00  0.00     0.000 HD 
ENDROOT
BRANCH   2   4
HETATM    4  C   UNL     1      -8.262   9.699  65.654  1.00  0.00    -0.120 C  
BRANCH   4   5
HETATM    5  C   UNL     1      -7.332  10.019  66.836  1.00  0.00    -0.092 C  
BRANCH   5   6
HETATM    6  C   UNL     1      -7.024  11.495  66.970  1.00  0.00    -0.145 C  
HETATM    7  C   UNL     1      -7.870  12.461  67.403  1.00  0.00    -0.174 C  
HETATM    8  C   UNL     1      -9.254  12.093  67.777  1.00  0.00    -0.189 A  
HETATM    9  C   UNL     1      -9.516  11.314  68.913  1.00  0.00    -0.102 A  
HETATM   10  C   UNL     1     -10.825  10.969  69.245  1.00  0.00    -0.285 A  
HETATM   11  C   UNL     1     -11.883  11.407  68.450  1.00  0.00    -0.344 A  
HETATM   12  C   UNL     1     -11.634  12.199  67.328  1.00  0.00    -0.404 A  
HETATM   13  C   UNL     1     -10.321  12.549  66.986  1.00  0.00    -0.236 A  
HETATM   14  C   UNL     1     -10.039  13.444  65.806  1.00  0.00    -0.297 C  
HETATM   15  C   UNL     1      -9.553  14.822  66.262  1.00  0.00    -0.339 C  
HETATM   16  C   UNL     1      -8.187  14.948  66.919  1.00  0.00    -0.178 A  
HETATM   17  C   UNL     1      -7.705  16.268  67.065  1.00  0.00    -0.250 A  
HETATM   18  C   UNL     1      -6.481  16.536  67.674  1.00  0.00    -0.170 A  
HETATM   19  C   UNL     1      -5.713  15.489  68.159  1.00  0.00    -0.132 A  
HETATM   20  C   UNL     1      -6.176  14.177  68.040  1.00  0.00    -0.150 A  
HETATM   21  C   UNL     1      -7.408  13.880  67.420  1.00  0.00    -0.129 A  
ENDBRANCH   5   6
ENDBRANCH   4   5
ENDBRANCH   2   4
TORSDOF 3
ENDMDL
MODEL      129
REMARK 921   NORMALIZED FREE ENERGY PREDICTED BY IDOCK:   -3.52 KCAL/MOL
REMARK 922        TOTAL FREE ENERGY PREDICTED BY IDOCK:   -4.34 KCAL/MOL
REMARK 923 INTER-LIGAND FREE ENERGY PREDICTED BY IDOCK:   -4.09 KCAL/MOL
REMARK 924 INTRA-LIGAND FREE ENERGY PREDICTED BY IDOCK:   -0.24 KCAL/MOL
REMARK 927      BINDING AFFINITY PREDICTED BY RF-SCORE:    0.00 PKD
ROOT
HETATM    1  C   UNL     1      -6.683  12.794  68.740  1.00  0.00    -0.093 C  
HETATM    2  N   UNL     1      -6.810  11.583  67.942  1.00  0.00    -0.070 NA 
HETATM    3  H   UNL     1      -7.789  11.351  67.770  1.00  0.00     0.000 HD 
ENDROOT
BRANCH   2   4
HETATM    4  C   UNL     1      -6.054  11.683  66.688  1.00  0.00    -0.094 C  
BRANCH   4   5
HETATM    5  C   UNL     1      -6.502  10.575  65.720  1.00  0.00    -0.124 C  
BRANCH   5   6
HETATM    6  C   UNL     1      -7.253   9.454  66.405  1.00  0.00    -0.089 C  
HETATM    7  C   UNL     1      -8.593   9.249  66.387  1.00  0.00    -0.141 C  
HETATM    8  C   UNL     1      -9.458  10.202  65.655  1.00  0.00    -0.275 A  
HETATM    9  C   UNL     1      -9.423  10.285  64.256  1.00  0.00    -0.365 A  
HETATM   10  C   UNL     1     -10.238  11.194  63.583  1.00  0.00    -0.444 A  
HETATM   11  C   UNL     1     -11.101  12.020  64.302  1.00  0.00    -0.411 A  
HETATM   12  C   UNL     1     -11.156  11.931  65.694  1.00  0.00    -0.362 A  
HETATM   13  C   UNL     1     -10.340  11.021  66.378  1.00  0.00    -0.302 A  
HETATM   14  C   UNL     1     -10.424  10.878  67.876  1.00  0.00    -0.227 C  
HETATM   15  C   UNL     1     -11.059   9.542  68.269  1.00  0.00    -0.047 C  
HETATM   16  C   UNL     1     -10.300   8.252  68.003  1.00  0.00    -0.268 A  
HETATM   17  C   UNL     1     -10.828   7.099  68.627  1.00  0.00    -0.149 A  
HETATM   18  C   UNL     1     -10.251   5.843  68.451  1.00  0.00    -0.236 A  
HETATM   19  C   UNL     1      -9.136   5.709  67.638  1.00  0.00    -0.106 A  
HETATM   20  C   UNL     1      -8.606   6.831  66.997  1.00  0.00    -0.114 A  
HETATM   21  C   UNL     1      -9.167   8.114  67.167  1.00  0.00    -0.175 A  
ENDBRANCH   5   6
ENDBRANCH   4   5
ENDBRANCH   2   4
TORSDOF 3
ENDMDL
MODEL      130
REMARK 921   NORMALIZED FREE ENERGY PREDICTED BY IDOCK:   -3.48 KCAL/MOL
REMARK 922        TOTAL FREE ENERGY PREDICTED BY IDOCK:   -4.29 KCAL/MOL
REMARK 923 INTER-LIGAND FREE ENERGY PREDICTED BY IDOCK:   -3.94 KCAL/MOL
REMARK 924 INTRA-LIGAND FREE ENERGY PREDICTED BY IDOCK:   -0.35 KCAL/MOL
REMARK 927      BINDING AFFINITY PREDICTED BY RF-SCORE:    0.00 PKD
ROOT
HETATM    1  C   UNL     1      -8.746   8.185  73.309  1.00  0.00    -0.246 C  
HETATM    2  N   UNL     1      -9.583   8.831  72.307  1.00  0.00    -0.295 NA 
HETATM    3  H   UNL     1      -9.247   8.643  71.363  1.00  0.00     0.000 HD 
ENDROOT
BRANCH   2   4
HETATM    4  C   UNL     1     -10.993   8.455  72.460  1.00  0.00    -0.318 C  
BRANCH   4   5
HETATM    5  C   UNL     1     -11.482   7.739  71.190  1.00  0.00    -0.295 C  
BRANCH   5   6
HETATM    6  C   UNL     1     -10.896   8.314  69.919  1.00  0.00    -0.213 C  
HETATM    7  C   UNL     1      -9.958   7.739  69.128  1.00  0.00    -0.182 C  
HETATM    8  C   UNL     1      -9.400   6.422  69.512  1.00  0.00    -0.146 A  
HETATM    9  C   UNL     1     -10.187   5.262  69.471  1.00  0.00    -0.338 A  
HETATM   10  C   UNL     1      -9.649   4.032  69.845  1.00  0.00    -0.281 A  
HETATM   11  C   UNL     1      -8.318   3.949  70.252  1.00  0.00    -0.083 A  
HETATM   12  C   UNL     1      -7.522   5.096  70.277  1.00  0.00    -0.067 A  
HETATM   13  C   UNL     1      -8.055   6.337  69.904  1.00  0.00    -0.120 A  
HETATM   14  C   UNL     1      -7.195   7.574  69.879  1.00  0.00    -0.080 C  
HETATM   15  C   UNL     1      -6.933   8.034  68.442  1.00  0.00    -0.072 C  
HETATM   16  C   UNL     1      -8.083   8.592  67.619  1.00  0.00    -0.107 A  
HETATM   17  C   UNL     1      -7.711   9.233  66.416  1.00  0.00    -0.093 A  
HETATM   18  C   UNL     1      -8.661   9.767  65.548  1.00  0.00    -0.158 A  
HETATM   19  C   UNL     1     -10.008   9.665  65.860  1.00  0.00    -0.351 A  
HETATM   20  C   UNL     1     -10.400   9.022  67.035  1.00  0.00    -0.339 A  
HETATM   21  C   UNL     1      -9.457   8.481  67.934  1.00  0.00    -0.157 A  
ENDBRANCH   5   6
ENDBRANCH   4   5
ENDBRANCH   2   4
TORSDOF 3
ENDMDL
MODEL      131
REMARK 921   NORMALIZED FREE ENERGY PREDICTED BY IDOCK:   -3.43 KCAL/MOL
REMARK 922        TOTAL FREE ENERGY PREDICTED BY IDOCK:   -4.23 KCAL/MOL
REMARK 923 INTER-LIGAND FREE ENERGY PREDICTED BY IDOCK:   -4.01 KCAL/MOL
REMARK 924 INTRA-LIGAND FREE ENERGY PREDICTED BY IDOCK:   -0.22 KCAL/MOL
REMARK 927      BINDING AFFINITY PREDICTED BY RF-SCORE:    0.00 PKD
ROOT
HETATM    1  C   UNL     1     -13.379  12.096  71.994  1.00  0.00    -0.365 C  
HETATM    2  N   UNL     1     -13.278  10.650  72.131  1.00  0.00    -0.582 NA 
HETATM    3  H   UNL     1     -13.994  10.172  71.584  1.00  0.00     0.000 HD 
ENDROOT
BRANCH   2   4
HETATM    4  C   UNL     1     -11.933  10.170  71.792  1.00  0.00    -0.091 C  
BRANCH   4   5
HETATM    5  C   UNL     1     -11.896   8.634  71.864  1.00  0.00    -0.420 C  
BRANCH   5   6
HETATM    6  C   UNL     1     -11.433   7.988  70.576  1.00  0.00    -0.192 C  
HETATM    7  C   UNL     1     -10.208   7.464  70.329  1.00  0.00    -0.203 C  
HETATM    8  C   UNL     1      -9.173   7.521  71.385  1.00  0.00    -0.150 A  
HETATM    9  C   UNL     1      -9.292   6.763  72.559  1.00  0.00    -0.151 A  
HETATM   10  C   UNL     1      -8.312   6.836  73.548  1.00  0.00    -0.130 A  
HETATM   11  C   UNL     1      -7.202   7.658  73.368  1.00  0.00    -0.108 A  
HETATM   12  C   UNL     1      -7.065   8.402  72.194  1.00  0.00    -0.108 A  
HETATM   13  C   UNL     1      -8.045   8.335  71.196  1.00  0.00    -0.124 A  
HETATM   14  C   UNL     1      -7.888   9.094  69.902  1.00  0.00    -0.091 C  
HETATM   15  C   UNL     1      -7.619   8.142  68.734  1.00  0.00    -0.105 C  
HETATM   16  C   UNL     1      -8.724   7.208  68.267  1.00  0.00    -0.128 A  
HETATM   17  C   UNL     1      -8.489   6.562  67.032  1.00  0.00    -0.113 A  
HETATM   18  C   UNL     1      -9.403   5.659  66.494  1.00  0.00    -0.159 A  
HETATM   19  C   UNL     1     -10.572   5.373  67.184  1.00  0.00    -0.274 A  
HETATM   20  C   UNL     1     -10.818   5.987  68.414  1.00  0.00    -0.361 A  
HETATM   21  C   UNL     1      -9.912   6.911  68.975  1.00  0.00    -0.160 A  
ENDBRANCH   5   6
ENDBRANCH   4   5
ENDBRANCH   2   4
TORSDOF 3
ENDMDL
MODEL      132
REMARK 921   NORMALIZED FREE ENERGY PREDICTED BY IDOCK:   -3.41 KCAL/MOL
REMARK 922        TOTAL FREE ENERGY PREDICTED BY IDOCK:   -4.20 KCAL/MOL
REMARK 923 INTER-LIGAND FREE ENERGY PREDICTED BY IDOCK:   -3.90 KCAL/MOL
REMARK 924 INTRA-LIGAND FREE ENERGY PREDICTED BY IDOCK:   -0.30 KCAL/MOL
REMARK 927      BINDING AFFINITY PREDICTED BY RF-SCORE:    0.00 PKD
ROOT
HETATM    1  C   UNL     1     -13.245   9.735  71.213  1.00  0.00    -0.373 C  
HETATM    2  N   UNL     1     -11.845   9.808  71.608  1.00  0.00    -0.390 NA 
HETATM    3  H   UNL     1     -11.659  10.638  72.171  1.00  0.00     0.000 HD 
ENDROOT
BRANCH   2   4
HETATM    4  C   UNL     1     -11.415   8.585  72.295  1.00  0.00    -0.375 C  
BRANCH   4   5
HETATM    5  C   UNL     1      -9.925   8.327  72.015  1.00  0.00    -0.327 C  
BRANCH   5   6
HETATM    6  C   UNL     1      -9.338   9.273  70.990  1.00  0.00    -0.298 C  
HETATM    7  C   UNL     1      -9.065   8.992  69.693  1.00  0.00    -0.155 C  
HETATM    8  C   UNL     1      -9.329   7.629  69.179  1.00  0.00    -0.147 A  
HETATM    9  C   UNL     1     -10.639   7.149  69.037  1.00  0.00    -0.225 A  
HETATM   10  C   UNL     1     -10.869   5.860  68.561  1.00  0.00    -0.323 A  
HETATM   11  C   UNL     1      -9.795   5.044  68.213  1.00  0.00    -0.211 A  
HETATM   12  C   UNL     1      -8.488   5.520  68.333  1.00  0.00    -0.101 A  
HETATM   13  C   UNL     1      -8.247   6.814  68.812  1.00  0.00    -0.121 A  
HETATM   14  C   UNL     1      -6.845   7.360  68.900  1.00  0.00    -0.072 C  
HETATM   15  C   UNL     1      -6.610   8.451  67.852  1.00  0.00    -0.061 C  
HETATM   16  C   UNL     1      -7.334   9.780  67.989  1.00  0.00    -0.081 A  
HETATM   17  C   UNL     1      -6.867  10.813  67.145  1.00  0.00    -0.086 A  
HETATM   18  C   UNL     1      -7.454  12.077  67.143  1.00  0.00    -0.138 A  
HETATM   19  C   UNL     1      -8.529  12.335  67.980  1.00  0.00    -0.171 A  
HETATM   20  C   UNL     1      -9.019  11.325  68.811  1.00  0.00    -0.116 A  
HETATM   21  C   UNL     1      -8.436  10.040  68.837  1.00  0.00    -0.132 A  
ENDBRANCH   5   6
ENDBRANCH   4   5
ENDBRANCH   2   4
TORSDOF 3
ENDMDL
MODEL      133
REMARK 921   NORMALIZED FREE ENERGY PREDICTED BY IDOCK:   -3.40 KCAL/MOL
REMARK 922        TOTAL FREE ENERGY PREDICTED BY IDOCK:   -4.20 KCAL/MOL
REMARK 923 INTER-LIGAND FREE ENERGY PREDICTED BY IDOCK:   -4.00 KCAL/MOL
REMARK 924 INTRA-LIGAND FREE ENERGY PREDICTED BY IDOCK:   -0.20 KCAL/MOL
REMARK 927      BINDING AFFINITY PREDICTED BY RF-SCORE:    0.00 PKD
ROOT
HETATM    1  C   UNL     1      -7.518   8.291  65.189  1.00  0.00    -0.085 C  
HETATM    2  N   UNL     1      -7.461   7.108  66.035  1.00  0.00    -0.078 NA 
HETATM    3  H   UNL     1      -6.532   6.980  66.436  1.00  0.00     0.000 HD 
ENDROOT
BRANCH   2   4
HETATM    4  C   UNL     1      -8.496   7.140  67.075  1.00  0.00    -0.122 C  
BRANCH   4   5
HETATM    5  C   UNL     1      -8.130   8.188  68.140  1.00  0.00    -0.128 C  
BRANCH   5   6
HETATM    6  C   UNL     1      -9.334   8.733  68.877  1.00  0.00    -0.145 C  
HETATM    7  C   UNL     1      -9.402   9.048  70.194  1.00  0.00    -0.213 C  
HETATM    8  C   UNL     1      -8.210   8.837  71.047  1.00  0.00    -0.194 A  
HETATM    9  C   UNL     1      -7.057   9.620  70.889  1.00  0.00    -0.028 A  
HETATM   10  C   UNL     1      -5.942   9.402  71.695  1.00  0.00    -0.035 A  
HETATM   11  C   UNL     1      -5.971   8.408  72.672  1.00  0.00    -0.070 A  
HETATM   12  C   UNL     1      -7.121   7.636  72.849  1.00  0.00    -0.086 A  
HETATM   13  C   UNL     1      -8.247   7.848  72.042  1.00  0.00    -0.149 A  
HETATM   14  C   UNL     1      -9.513   7.057  72.254  1.00  0.00    -0.154 C  
HETATM   15  C   UNL     1     -10.623   7.936  72.836  1.00  0.00    -0.434 C  
HETATM   16  C   UNL     1     -11.231   9.031  71.974  1.00  0.00    -0.379 A  
HETATM   17  C   UNL     1     -12.414   9.614  72.482  1.00  0.00     0.069 A  
HETATM   18  C   UNL     1     -13.067  10.647  71.813  1.00  0.00    -0.571 A  
HETATM   19  C   UNL     1     -12.545  11.128  70.621  1.00  0.00    -0.408 A  
HETATM   20  C   UNL     1     -11.368  10.579  70.108  1.00  0.00    -0.400 A  
HETATM   21  C   UNL     1     -10.695   9.527  70.763  1.00  0.00    -0.391 A  
ENDBRANCH   5   6
ENDBRANCH   4   5
ENDBRANCH   2   4
TORSDOF 3
ENDMDL
MODEL      134
REMARK 921   NORMALIZED FREE ENERGY PREDICTED BY IDOCK:   -3.40 KCAL/MOL
REMARK 922        TOTAL FREE ENERGY PREDICTED BY IDOCK:   -4.19 KCAL/MOL
REMARK 923 INTER-LIGAND FREE ENERGY PREDICTED BY IDOCK:   -3.99 KCAL/MOL
REMARK 924 INTRA-LIGAND FREE ENERGY PREDICTED BY IDOCK:   -0.20 KCAL/MOL
REMARK 927      BINDING AFFINITY PREDICTED BY RF-SCORE:    0.00 PKD
ROOT
HETATM    1  C   UNL     1     -10.881   6.057  68.189  1.00  0.00    -0.281 C  
HETATM    2  N   UNL     1     -10.825   6.493  66.801  1.00  0.00    -0.532 NA 
HETATM    3  H   UNL     1     -11.684   6.970  66.525  1.00  0.00     0.000 HD 
ENDROOT
BRANCH   2   4
HETATM    4  C   UNL     1      -9.643   7.325  66.546  1.00  0.00    -0.149 C  
BRANCH   4   5
HETATM    5  C   UNL     1      -9.885   8.749  67.075  1.00  0.00    -0.279 C  
BRANCH   5   6
HETATM    6  C   UNL     1      -8.729   9.286  67.890  1.00  0.00    -0.124 C  
HETATM    7  C   UNL     1      -8.678  10.477  68.534  1.00  0.00    -0.140 C  
HETATM    8  C   UNL     1      -9.838  11.394  68.448  1.00  0.00    -0.205 A  
HETATM    9  C   UNL     1     -11.058  11.079  69.064  1.00  0.00    -0.301 A  
HETATM   10  C   UNL     1     -12.142  11.949  68.965  1.00  0.00    -0.245 A  
HETATM   11  C   UNL     1     -12.014  13.144  68.259  1.00  0.00    -0.328 A  
HETATM   12  C   UNL     1     -10.798  13.474  67.658  1.00  0.00    -0.273 A  
HETATM   13  C   UNL     1      -9.703  12.605  67.752  1.00  0.00    -0.206 A  
HETATM   14  C   UNL     1      -8.370  12.970  67.151  1.00  0.00    -0.153 C  
HETATM   15  C   UNL     1      -7.338  13.275  68.240  1.00  0.00    -0.113 C  
HETATM   16  C   UNL     1      -6.838  12.146  69.127  1.00  0.00    -0.078 A  
HETATM   17  C   UNL     1      -5.708  12.452  69.918  1.00  0.00    -0.125 A  
HETATM   18  C   UNL     1      -5.157  11.522  70.797  1.00  0.00    -0.120 A  
HETATM   19  C   UNL     1      -5.731  10.265  70.913  1.00  0.00    -0.086 A  
HETATM   20  C   UNL     1      -6.858   9.945  70.154  1.00  0.00    -0.125 A  
HETATM   21  C   UNL     1      -7.428  10.866  69.250  1.00  0.00    -0.124 A  
ENDBRANCH   5   6
ENDBRANCH   4   5
ENDBRANCH   2   4
TORSDOF 3
ENDMDL
MODEL      135
REMARK 921   NORMALIZED FREE ENERGY PREDICTED BY IDOCK:   -3.38 KCAL/MOL
REMARK 922        TOTAL FREE ENERGY PREDICTED BY IDOCK:   -4.17 KCAL/MOL
REMARK 923 INTER-LIGAND FREE ENERGY PREDICTED BY IDOCK:   -3.92 KCAL/MOL
REMARK 924 INTRA-LIGAND FREE ENERGY PREDICTED BY IDOCK:   -0.25 KCAL/MOL
REMARK 927      BINDING AFFINITY PREDICTED BY RF-SCORE:    0.00 PKD
ROOT
HETATM    1  C   UNL     1     -11.189   6.926  70.349  1.00  0.00    -0.312 C  
HETATM    2  N   UNL     1     -11.740   8.118  70.978  1.00  0.00    -0.285 NA 
HETATM    3  H   UNL     1     -11.119   8.479  71.702  1.00  0.00     0.000 HD 
ENDROOT
BRANCH   2   4
HETATM    4  C   UNL     1     -12.066   9.148  69.985  1.00  0.00     0.491 C  
BRANCH   4   5
HETATM    5  C   UNL     1     -11.154  10.371  70.187  1.00  0.00    -0.383 C  
BRANCH   5   6
HETATM    6  C   UNL     1      -9.860  10.285  69.407  1.00  0.00    -0.247 C  
HETATM    7  C   UNL     1      -9.519  11.025  68.324  1.00  0.00    -0.172 C  
HETATM    8  C   UNL     1     -10.481  12.019  67.797  1.00  0.00    -0.223 A  
HETATM    9  C   UNL     1     -10.799  13.176  68.523  1.00  0.00    -0.285 A  
HETATM   10  C   UNL     1     -11.714  14.097  68.017  1.00  0.00    -0.394 A  
HETATM   11  C   UNL     1     -12.311  13.875  66.777  1.00  0.00    -0.370 A  
HETATM   12  C   UNL     1     -11.987  12.736  66.038  1.00  0.00    -0.491 A  
HETATM   13  C   UNL     1     -11.068  11.804  66.540  1.00  0.00    -0.364 A  
HETATM   14  C   UNL     1     -10.671  10.595  65.733  1.00  0.00    -0.097 C  
HETATM   15  C   UNL     1      -9.227  10.713  65.237  1.00  0.00    -0.230 C  
HETATM   16  C   UNL     1      -8.089  10.647  66.243  1.00  0.00    -0.151 A  
HETATM   17  C   UNL     1      -6.798  10.496  65.687  1.00  0.00    -0.112 A  
HETATM   18  C   UNL     1      -5.658  10.448  66.487  1.00  0.00    -0.057 A  
HETATM   19  C   UNL     1      -5.782  10.557  67.863  1.00  0.00    -0.043 A  
HETATM   20  C   UNL     1      -7.045  10.723  68.434  1.00  0.00    -0.075 A  
HETATM   21  C   UNL     1      -8.215  10.766  67.646  1.00  0.00    -0.115 A  
ENDBRANCH   5   6
ENDBRANCH   4   5
ENDBRANCH   2   4
TORSDOF 3
ENDMDL
MODEL      136
REMARK 921   NORMALIZED FREE ENERGY PREDICTED BY IDOCK:   -3.38 KCAL/MOL
REMARK 922        TOTAL FREE ENERGY PREDICTED BY IDOCK:   -4.17 KCAL/MOL
REMARK 923 INTER-LIGAND FREE ENERGY PREDICTED BY IDOCK:   -4.19 KCAL/MOL
REMARK 924 INTRA-LIGAND FREE ENERGY PREDICTED BY IDOCK:    0.02 KCAL/MOL
REMARK 927      BINDING AFFINITY PREDICTED BY RF-SCORE:    0.00 PKD
ROOT
HETATM    1  C   UNL     1     -11.027   4.478  73.021  1.00  0.00    -0.226 C  
HETATM    2  N   UNL     1     -10.270   3.989  71.877  1.00  0.00    -0.137 NA 
HETATM    3  H   UNL     1     -10.751   4.187  71.000  1.00  0.00     0.000 HD 
ENDROOT
BRANCH   2   4
HETATM    4  C   UNL     1      -8.901   4.518  71.871  1.00  0.00    -0.118 C  
BRANCH   4   5
HETATM    5  C   UNL     1      -8.469   4.826  70.428  1.00  0.00    -0.102 C  
BRANCH   5   6
HETATM    6  C   UNL     1      -9.182   6.021  69.834  1.00  0.00    -0.159 C  
HETATM    7  C   UNL     1      -9.154   7.293  70.300  1.00  0.00    -0.152 C  
HETATM    8  C   UNL     1      -8.377   7.596  71.524  1.00  0.00    -0.114 A  
HETATM    9  C   UNL     1      -6.976   7.533  71.527  1.00  0.00    -0.054 A  
HETATM   10  C   UNL     1      -6.261   7.811  72.691  1.00  0.00    -0.061 A  
HETATM   11  C   UNL     1      -6.938   8.165  73.856  1.00  0.00    -0.162 A  
HETATM   12  C   UNL     1      -8.332   8.250  73.857  1.00  0.00    -0.261 A  
HETATM   13  C   UNL     1      -9.059   7.970  72.692  1.00  0.00    -0.290 A  
HETATM   14  C   UNL     1     -10.560   8.105  72.664  1.00  0.00    -0.414 C  
HETATM   15  C   UNL     1     -10.990   9.304  71.815  1.00  0.00    -0.383 C  
HETATM   16  C   UNL     1     -10.780   9.262  70.310  1.00  0.00    -0.284 A  
HETATM   17  C   UNL     1     -11.437  10.276  69.578  1.00  0.00    -0.273 A  
HETATM   18  C   UNL     1     -11.313  10.378  68.194  1.00  0.00    -0.284 A  
HETATM   19  C   UNL     1     -10.520   9.470  67.509  1.00  0.00    -0.336 A  
HETATM   20  C   UNL     1      -9.848   8.468  68.212  1.00  0.00    -0.190 A  
HETATM   21  C   UNL     1      -9.965   8.340  69.612  1.00  0.00    -0.193 A  
ENDBRANCH   5   6
ENDBRANCH   4   5
ENDBRANCH   2   4
TORSDOF 3
ENDMDL
MODEL      137
REMARK 921   NORMALIZED FREE ENERGY PREDICTED BY IDOCK:   -3.37 KCAL/MOL
REMARK 922        TOTAL FREE ENERGY PREDICTED BY IDOCK:   -4.16 KCAL/MOL
REMARK 923 INTER-LIGAND FREE ENERGY PREDICTED BY IDOCK:   -3.98 KCAL/MOL
REMARK 924 INTRA-LIGAND FREE ENERGY PREDICTED BY IDOCK:   -0.18 KCAL/MOL
REMARK 927      BINDING AFFINITY PREDICTED BY RF-SCORE:    0.00 PKD
ROOT
HETATM    1  C   UNL     1     -13.150   9.889  72.058  1.00  0.00    -0.448 C  
HETATM    2  N   UNL     1     -12.397   8.652  72.214  1.00  0.00    -0.379 NA 
HETATM    3  H   UNL     1     -12.499   8.269  73.153  1.00  0.00     0.000 HD 
ENDROOT
BRANCH   2   4
HETATM    4  C   UNL     1     -12.762   7.667  71.189  1.00  0.00    -0.206 C  
BRANCH   4   5
HETATM    5  C   UNL     1     -11.745   6.513  71.190  1.00  0.00    -0.392 C  
BRANCH   5   6
HETATM    6  C   UNL     1     -11.172   6.222  69.821  1.00  0.00    -0.499 C  
HETATM    7  C   UNL     1      -9.925   5.768  69.546  1.00  0.00    -0.250 C  
HETATM    8  C   UNL     1      -8.980   5.534  70.662  1.00  0.00    -0.160 A  
HETATM    9  C   UNL     1      -9.188   4.496  71.582  1.00  0.00    -0.183 A  
HETATM   10  C   UNL     1      -8.293   4.296  72.632  1.00  0.00    -0.101 A  
HETATM   11  C   UNL     1      -7.180   5.124  72.766  1.00  0.00    -0.089 A  
HETATM   12  C   UNL     1      -6.956   6.148  71.844  1.00  0.00    -0.077 A  
HETATM   13  C   UNL     1      -7.850   6.357  70.786  1.00  0.00    -0.106 A  
HETATM   14  C   UNL     1      -7.595   7.426  69.754  1.00  0.00    -0.095 C  
HETATM   15  C   UNL     1      -7.221   6.811  68.403  1.00  0.00    -0.085 C  
HETATM   16  C   UNL     1      -8.274   6.045  67.618  1.00  0.00    -0.109 A  
HETATM   17  C   UNL     1      -7.931   5.743  66.281  1.00  0.00    -0.102 A  
HETATM   18  C   UNL     1      -8.788   5.023  65.452  1.00  0.00    -0.152 A  
HETATM   19  C   UNL     1     -10.006   4.579  65.944  1.00  0.00    -0.260 A  
HETATM   20  C   UNL     1     -10.359   4.851  67.267  1.00  0.00    -0.154 A  
HETATM   21  C   UNL     1      -9.512   5.586  68.123  1.00  0.00    -0.133 A  
ENDBRANCH   5   6
ENDBRANCH   4   5
ENDBRANCH   2   4
TORSDOF 3
ENDMDL
MODEL      138
REMARK 921   NORMALIZED FREE ENERGY PREDICTED BY IDOCK:   -3.36 KCAL/MOL
REMARK 922        TOTAL FREE ENERGY PREDICTED BY IDOCK:   -4.15 KCAL/MOL
REMARK 923 INTER-LIGAND FREE ENERGY PREDICTED BY IDOCK:   -4.16 KCAL/MOL
REMARK 924 INTRA-LIGAND FREE ENERGY PREDICTED BY IDOCK:    0.01 KCAL/MOL
REMARK 927      BINDING AFFINITY PREDICTED BY RF-SCORE:    0.00 PKD
ROOT
HETATM    1  C   UNL     1      -7.963   5.125  67.026  1.00  0.00    -0.100 C  
HETATM    2  N   UNL     1      -9.133   4.578  67.699  1.00  0.00    -0.116 NA 
HETATM    3  H   UNL     1      -8.922   4.317  68.662  1.00  0.00     0.000 HD 
ENDROOT
BRANCH   2   4
HETATM    4  C   UNL     1     -10.273   5.499  67.629  1.00  0.00    -0.193 C  
BRANCH   4   5
HETATM    5  C   UNL     1     -10.212   6.491  68.803  1.00  0.00    -0.194 C  
BRANCH   5   6
HETATM    6  C   UNL     1      -9.375   7.716  68.505  1.00  0.00    -0.147 C  
HETATM    7  C   UNL     1      -9.492   8.936  69.083  1.00  0.00    -0.157 C  
HETATM    8  C   UNL     1     -10.544   9.153  70.103  1.00  0.00    -0.258 A  
HETATM    9  C   UNL     1     -10.475   8.531  71.358  1.00  0.00    -0.305 A  
HETATM   10  C   UNL     1     -11.479   8.739  72.303  1.00  0.00    -0.376 A  
HETATM   11  C   UNL     1     -12.553   9.576  72.006  1.00  0.00    -0.456 A  
HETATM   12  C   UNL     1     -12.620  10.213  70.765  1.00  0.00    -0.406 A  
HETATM   13  C   UNL     1     -11.616  10.010  69.809  1.00  0.00    -0.193 A  
HETATM   14  C   UNL     1     -11.649  10.729  68.485  1.00  0.00    -0.325 C  
HETATM   15  C   UNL     1     -10.547  11.789  68.406  1.00  0.00    -0.239 C  
HETATM   16  C   UNL     1      -9.094  11.346  68.339  1.00  0.00    -0.179 A  
HETATM   17  C   UNL     1      -8.167  12.358  68.003  1.00  0.00    -0.168 A  
HETATM   18  C   UNL     1      -6.799  12.103  67.931  1.00  0.00    -0.095 A  
HETATM   19  C   UNL     1      -6.325  10.829  68.204  1.00  0.00    -0.057 A  
HETATM   20  C   UNL     1      -7.219   9.817  68.555  1.00  0.00    -0.070 A  
HETATM   21  C   UNL     1      -8.609  10.048  68.625  1.00  0.00    -0.123 A  
ENDBRANCH   5   6
ENDBRANCH   4   5
ENDBRANCH   2   4
TORSDOF 3
ENDMDL
MODEL      139
REMARK 921   NORMALIZED FREE ENERGY PREDICTED BY IDOCK:   -3.31 KCAL/MOL
REMARK 922        TOTAL FREE ENERGY PREDICTED BY IDOCK:   -4.09 KCAL/MOL
REMARK 923 INTER-LIGAND FREE ENERGY PREDICTED BY IDOCK:   -3.78 KCAL/MOL
REMARK 924 INTRA-LIGAND FREE ENERGY PREDICTED BY IDOCK:   -0.31 KCAL/MOL
REMARK 927      BINDING AFFINITY PREDICTED BY RF-SCORE:    0.00 PKD
ROOT
HETATM    1  C   UNL     1      -8.372   6.814  68.611  1.00  0.00    -0.120 C  
HETATM    2  N   UNL     1      -9.720   6.779  69.161  1.00  0.00    -0.146 NA 
HETATM    3  H   UNL     1      -9.718   6.472  70.134  1.00  0.00     0.000 HD 
ENDROOT
BRANCH   2   4
HETATM    4  C   UNL     1     -10.398   8.071  69.006  1.00  0.00    -0.218 C  
BRANCH   4   5
HETATM    5  C   UNL     1      -9.423   9.213  69.340  1.00  0.00    -0.161 C  
BRANCH   5   6
HETATM    6  C   UNL     1      -9.925  10.572  68.902  1.00  0.00    -0.213 C  
HETATM    7  C   UNL     1      -9.444  11.321  67.880  1.00  0.00    -0.179 C  
HETATM    8  C   UNL     1      -8.298  10.813  67.091  1.00  0.00    -0.126 A  
HETATM    9  C   UNL     1      -8.434   9.699  66.250  1.00  0.00    -0.125 A  
HETATM   10  C   UNL     1      -7.342   9.229  65.522  1.00  0.00    -0.090 A  
HETATM   11  C   UNL     1      -6.111   9.873  65.620  1.00  0.00    -0.075 A  
HETATM   12  C   UNL     1      -5.971  10.995  66.440  1.00  0.00    -0.143 A  
HETATM   13  C   UNL     1      -7.063  11.473  67.177  1.00  0.00    -0.140 A  
HETATM   14  C   UNL     1      -6.941  12.711  68.028  1.00  0.00    -0.099 C  
HETATM   15  C   UNL     1      -7.724  13.878  67.421  1.00  0.00    -0.165 C  
HETATM   16  C   UNL     1      -9.243  13.820  67.396  1.00  0.00    -0.221 A  
HETATM   17  C   UNL     1      -9.890  15.032  67.068  1.00  0.00    -0.241 A  
HETATM   18  C   UNL     1     -11.278  15.121  66.982  1.00  0.00    -0.308 A  
HETATM   19  C   UNL     1     -12.052  13.994  67.212  1.00  0.00    -0.405 A  
HETATM   20  C   UNL     1     -11.435  12.781  67.522  1.00  0.00    -0.390 A  
HETATM   21  C   UNL     1     -10.032  12.668  67.624  1.00  0.00    -0.216 A  
ENDBRANCH   5   6
ENDBRANCH   4   5
ENDBRANCH   2   4
TORSDOF 3
ENDMDL
MODEL      140
REMARK 921   NORMALIZED FREE ENERGY PREDICTED BY IDOCK:   -3.31 KCAL/MOL
REMARK 922        TOTAL FREE ENERGY PREDICTED BY IDOCK:   -4.08 KCAL/MOL
REMARK 923 INTER-LIGAND FREE ENERGY PREDICTED BY IDOCK:   -3.88 KCAL/MOL
REMARK 924 INTRA-LIGAND FREE ENERGY PREDICTED BY IDOCK:   -0.20 KCAL/MOL
REMARK 927      BINDING AFFINITY PREDICTED BY RF-SCORE:    0.00 PKD
ROOT
HETATM    1  C   UNL     1      -7.934  10.878  67.513  1.00  0.00    -0.115 C  
HETATM    2  N   UNL     1      -7.580   9.468  67.425  1.00  0.00    -0.095 NA 
HETATM    3  H   UNL     1      -6.589   9.344  67.222  1.00  0.00     0.000 HD 
ENDROOT
BRANCH   2   4
HETATM    4  C   UNL     1      -7.976   8.738  68.636  1.00  0.00    -0.107 C  
BRANCH   4   5
HETATM    5  C   UNL     1      -9.258   7.933  68.362  1.00  0.00    -0.134 C  
BRANCH   5   6
HETATM    6  C   UNL     1      -9.135   6.472  68.735  1.00  0.00    -0.126 C  
HETATM    7  C   UNL     1      -9.710   5.857  69.797  1.00  0.00    -0.202 C  
HETATM    8  C   UNL     1     -10.537   6.654  70.731  1.00  0.00    -0.265 A  
HETATM    9  C   UNL     1     -11.772   7.186  70.333  1.00  0.00    -0.273 A  
HETATM   10  C   UNL     1     -12.534   7.943  71.222  1.00  0.00    -0.283 A  
HETATM   11  C   UNL     1     -12.073   8.165  72.518  1.00  0.00    -0.377 A  
HETATM   12  C   UNL     1     -10.853   7.624  72.929  1.00  0.00    -0.446 A  
HETATM   13  C   UNL     1     -10.081   6.863  72.042  1.00  0.00    -0.201 A  
HETATM   14  C   UNL     1      -8.787   6.231  72.486  1.00  0.00    -0.123 C  
HETATM   15  C   UNL     1      -8.921   4.709  72.584  1.00  0.00    -0.133 C  
HETATM   16  C   UNL     1      -9.098   3.895  71.312  1.00  0.00    -0.177 A  
HETATM   17  C   UNL     1      -8.948   2.498  71.462  1.00  0.00    -0.144 A  
HETATM   18  C   UNL     1      -9.108   1.626  70.387  1.00  0.00    -0.146 A  
HETATM   19  C   UNL     1      -9.431   2.132  69.137  1.00  0.00    -0.143 A  
HETATM   20  C   UNL     1      -9.601   3.507  68.968  1.00  0.00    -0.143 A  
HETATM   21  C   UNL     1      -9.435   4.410  70.039  1.00  0.00    -0.251 A  
ENDBRANCH   5   6
ENDBRANCH   4   5
ENDBRANCH   2   4
TORSDOF 3
ENDMDL
MODEL      141
REMARK 921   NORMALIZED FREE ENERGY PREDICTED BY IDOCK:   -3.28 KCAL/MOL
REMARK 922        TOTAL FREE ENERGY PREDICTED BY IDOCK:   -4.05 KCAL/MOL
REMARK 923 INTER-LIGAND FREE ENERGY PREDICTED BY IDOCK:   -3.98 KCAL/MOL
REMARK 924 INTRA-LIGAND FREE ENERGY PREDICTED BY IDOCK:   -0.07 KCAL/MOL
REMARK 927      BINDING AFFINITY PREDICTED BY RF-SCORE:    0.00 PKD
ROOT
HETATM    1  C   UNL     1      -5.670   7.702  66.655  1.00  0.00    -0.035 C  
HETATM    2  N   UNL     1      -6.178   8.811  65.859  1.00  0.00    -0.055 NA 
HETATM    3  H   UNL     1      -5.458   9.515  65.698  1.00  0.00     0.000 HD 
ENDROOT
BRANCH   2   4
HETATM    4  C   UNL     1      -6.764   8.343  64.597  1.00  0.00    -0.068 C  
BRANCH   4   5
HETATM    5  C   UNL     1      -8.299   8.392  64.686  1.00  0.00    -0.137 C  
BRANCH   5   6
HETATM    6  C   UNL     1      -8.836   7.872  66.002  1.00  0.00    -0.191 C  
HETATM    7  C   UNL     1      -9.432   8.602  66.976  1.00  0.00    -0.221 C  
HETATM    8  C   UNL     1      -9.581  10.064  66.794  1.00  0.00    -0.228 A  
HETATM    9  C   UNL     1     -10.450  10.590  65.828  1.00  0.00    -0.214 A  
HETATM   10  C   UNL     1     -10.570  11.968  65.664  1.00  0.00    -0.303 A  
HETATM   11  C   UNL     1      -9.831  12.832  66.469  1.00  0.00    -0.258 A  
HETATM   12  C   UNL     1      -8.977  12.318  67.447  1.00  0.00    -0.183 A  
HETATM   13  C   UNL     1      -8.849  10.933  67.618  1.00  0.00    -0.133 A  
HETATM   14  C   UNL     1      -7.970  10.364  68.702  1.00  0.00    -0.115 C  
HETATM   15  C   UNL     1      -8.806   9.726  69.814  1.00  0.00    -0.241 C  
HETATM   16  C   UNL     1      -9.586   8.454  69.520  1.00  0.00    -0.170 A  
HETATM   17  C   UNL     1     -10.109   7.791  70.653  1.00  0.00    -0.191 A  
HETATM   18  C   UNL     1     -10.867   6.628  70.533  1.00  0.00    -0.310 A  
HETATM   19  C   UNL     1     -11.126   6.105  69.276  1.00  0.00    -0.463 A  
HETATM   20  C   UNL     1     -10.633   6.752  68.141  1.00  0.00    -0.279 A  
HETATM   21  C   UNL     1      -9.856   7.926  68.237  1.00  0.00    -0.187 A  
ENDBRANCH   5   6
ENDBRANCH   4   5
ENDBRANCH   2   4
TORSDOF 3
ENDMDL
MODEL      142
REMARK 921   NORMALIZED FREE ENERGY PREDICTED BY IDOCK:   -3.27 KCAL/MOL
REMARK 922        TOTAL FREE ENERGY PREDICTED BY IDOCK:   -4.04 KCAL/MOL
REMARK 923 INTER-LIGAND FREE ENERGY PREDICTED BY IDOCK:   -3.84 KCAL/MOL
REMARK 924 INTRA-LIGAND FREE ENERGY PREDICTED BY IDOCK:   -0.20 KCAL/MOL
REMARK 927      BINDING AFFINITY PREDICTED BY RF-SCORE:    0.00 PKD
ROOT
HETATM    1  C   UNL     1      -8.103  12.546  67.295  1.00  0.00    -0.179 C  
HETATM    2  N   UNL     1      -7.339  11.625  66.466  1.00  0.00    -0.354 NA 
HETATM    3  H   UNL     1      -6.693  12.123  65.853  1.00  0.00     0.000 HD 
ENDROOT
BRANCH   2   4
HETATM    4  C   UNL     1      -6.641  10.622  67.279  1.00  0.00    -0.073 C  
BRANCH   4   5
HETATM    5  C   UNL     1      -7.643   9.919  68.211  1.00  0.00    -0.080 C  
BRANCH   5   6
HETATM    6  C   UNL     1      -7.995   8.518  67.761  1.00  0.00    -0.107 C  
HETATM    7  C   UNL     1      -8.942   7.710  68.297  1.00  0.00    -0.127 C  
HETATM    8  C   UNL     1      -9.727   8.191  69.456  1.00  0.00    -0.170 A  
HETATM    9  C   UNL     1     -10.653   9.235  69.322  1.00  0.00    -0.234 A  
HETATM   10  C   UNL     1     -11.377   9.682  70.426  1.00  0.00    -0.337 A  
HETATM   11  C   UNL     1     -11.190   9.082  71.670  1.00  0.00    -0.431 A  
HETATM   12  C   UNL     1     -10.284   8.029  71.810  1.00  0.00    -0.260 A  
HETATM   13  C   UNL     1      -9.551   7.575  70.705  1.00  0.00    -0.166 A  
HETATM   14  C   UNL     1      -8.607   6.407  70.829  1.00  0.00    -0.135 C  
HETATM   15  C   UNL     1      -9.151   5.177  70.098  1.00  0.00    -0.167 C  
HETATM   16  C   UNL     1      -9.231   5.189  68.580  1.00  0.00    -0.150 A  
HETATM   17  C   UNL     1      -9.489   3.938  67.977  1.00  0.00    -0.221 A  
HETATM   18  C   UNL     1      -9.615   3.804  66.596  1.00  0.00    -0.197 A  
HETATM   19  C   UNL     1      -9.495   4.922  65.785  1.00  0.00    -0.172 A  
HETATM   20  C   UNL     1      -9.257   6.172  66.359  1.00  0.00    -0.166 A  
HETATM   21  C   UNL     1      -9.116   6.331  67.754  1.00  0.00    -0.114 A  
ENDBRANCH   5   6
ENDBRANCH   4   5
ENDBRANCH   2   4
TORSDOF 3
ENDMDL
MODEL      143
REMARK 921   NORMALIZED FREE ENERGY PREDICTED BY IDOCK:   -3.25 KCAL/MOL
REMARK 922        TOTAL FREE ENERGY PREDICTED BY IDOCK:   -4.01 KCAL/MOL
REMARK 923 INTER-LIGAND FREE ENERGY PREDICTED BY IDOCK:   -3.81 KCAL/MOL
REMARK 924 INTRA-LIGAND FREE ENERGY PREDICTED BY IDOCK:   -0.20 KCAL/MOL
REMARK 927      BINDING AFFINITY PREDICTED BY RF-SCORE:    0.00 PKD
ROOT
HETATM    1  C   UNL     1     -12.250  13.960  66.916  1.00  0.00    -0.377 C  
HETATM    2  N   UNL     1     -12.071  12.688  66.231  1.00  0.00    -0.568 NA 
HETATM    3  H   UNL     1     -12.149  12.794  65.220  1.00  0.00     0.000 HD 
ENDROOT
BRANCH   2   4
HETATM    4  C   UNL     1     -10.805  12.048  66.607  1.00  0.00    -0.272 C  
BRANCH   4   5
HETATM    5  C   UNL     1     -10.315  11.149  65.459  1.00  0.00    -0.326 C  
BRANCH   5   6
HETATM    6  C   UNL     1     -10.213   9.690  65.846  1.00  0.00    -0.219 C  
HETATM    7  C   UNL     1      -9.092   8.928  65.840  1.00  0.00    -0.271 C  
HETATM    8  C   UNL     1      -7.813   9.531  65.400  1.00  0.00    -0.109 A  
HETATM    9  C   UNL     1      -7.174  10.517  66.166  1.00  0.00    -0.136 A  
HETATM   10  C   UNL     1      -5.976  11.080  65.732  1.00  0.00    -0.039 A  
HETATM   11  C   UNL     1      -5.400  10.656  64.536  1.00  0.00    -0.123 A  
HETATM   12  C   UNL     1      -6.019   9.662  63.776  1.00  0.00    -0.100 A  
HETATM   13  C   UNL     1      -7.225   9.091  64.204  1.00  0.00    -0.095 A  
HETATM   14  C   UNL     1      -7.879   7.982  63.420  1.00  0.00    -0.147 C  
HETATM   15  C   UNL     1      -7.784   6.648  64.167  1.00  0.00    -0.109 C  
HETATM   16  C   UNL     1      -8.575   6.458  65.451  1.00  0.00    -0.088 A  
HETATM   17  C   UNL     1      -8.644   5.130  65.929  1.00  0.00    -0.128 A  
HETATM   18  C   UNL     1      -9.312   4.811  67.109  1.00  0.00    -0.147 A  
HETATM   19  C   UNL     1      -9.921   5.816  67.845  1.00  0.00    -0.164 A  
HETATM   20  C   UNL     1      -9.852   7.138  67.402  1.00  0.00    -0.200 A  
HETATM   21  C   UNL     1      -9.189   7.485  66.206  1.00  0.00    -0.194 A  
ENDBRANCH   5   6
ENDBRANCH   4   5
ENDBRANCH   2   4
TORSDOF 3
ENDMDL
MODEL      144
REMARK 921   NORMALIZED FREE ENERGY PREDICTED BY IDOCK:   -3.25 KCAL/MOL
REMARK 922        TOTAL FREE ENERGY PREDICTED BY IDOCK:   -4.01 KCAL/MOL
REMARK 923 INTER-LIGAND FREE ENERGY PREDICTED BY IDOCK:   -3.81 KCAL/MOL
REMARK 924 INTRA-LIGAND FREE ENERGY PREDICTED BY IDOCK:   -0.20 KCAL/MOL
REMARK 927      BINDING AFFINITY PREDICTED BY RF-SCORE:    0.00 PKD
ROOT
HETATM    1  C   UNL     1     -13.748   8.824  71.778  1.00  0.00    -0.419 C  
HETATM    2  N   UNL     1     -12.402   8.416  71.402  1.00  0.00    -0.304 NA 
HETATM    3  H   UNL     1     -12.352   8.158  70.416  1.00  0.00     0.000 HD 
ENDROOT
BRANCH   2   4
HETATM    4  C   UNL     1     -11.413   9.447  71.738  1.00  0.00    -0.343 C  
BRANCH   4   5
HETATM    5  C   UNL     1     -10.937  10.149  70.455  1.00  0.00    -0.386 C  
BRANCH   5   6
HETATM    6  C   UNL     1     -10.114   9.252  69.555  1.00  0.00    -0.205 C  
HETATM    7  C   UNL     1      -9.427   9.627  68.450  1.00  0.00    -0.143 C  
HETATM    8  C   UNL     1      -9.466  11.044  68.022  1.00  0.00    -0.169 A  
HETATM    9  C   UNL     1      -8.850  12.049  68.782  1.00  0.00     0.079 A  
HETATM   10  C   UNL     1      -8.905  13.379  68.370  1.00  0.00    -0.133 A  
HETATM   11  C   UNL     1      -9.567  13.715  67.191  1.00  0.00    -0.241 A  
HETATM   12  C   UNL     1     -10.168  12.720  66.418  1.00  0.00    -0.263 A  
HETATM   13  C   UNL     1     -10.118  11.380  66.825  1.00  0.00    -0.250 A  
HETATM   14  C   UNL     1     -10.718  10.289  65.977  1.00  0.00    -0.017 C  
HETATM   15  C   UNL     1      -9.629   9.416  65.348  1.00  0.00    -0.296 C  
HETATM   16  C   UNL     1      -8.791   8.516  66.241  1.00  0.00    -0.187 A  
HETATM   17  C   UNL     1      -8.001   7.559  65.565  1.00  0.00    -0.121 A  
HETATM   18  C   UNL     1      -7.162   6.685  66.254  1.00  0.00    -0.072 A  
HETATM   19  C   UNL     1      -7.088   6.753  67.636  1.00  0.00    -0.085 A  
HETATM   20  C   UNL     1      -7.846   7.701  68.325  1.00  0.00    -0.121 A  
HETATM   21  C   UNL     1      -8.709   8.591  67.651  1.00  0.00    -0.136 A  
ENDBRANCH   5   6
ENDBRANCH   4   5
ENDBRANCH   2   4
TORSDOF 3
ENDMDL
MODEL      145
REMARK 921   NORMALIZED FREE ENERGY PREDICTED BY IDOCK:   -3.22 KCAL/MOL
REMARK 922        TOTAL FREE ENERGY PREDICTED BY IDOCK:   -3.98 KCAL/MOL
REMARK 923 INTER-LIGAND FREE ENERGY PREDICTED BY IDOCK:   -3.83 KCAL/MOL
REMARK 924 INTRA-LIGAND FREE ENERGY PREDICTED BY IDOCK:   -0.15 KCAL/MOL
REMARK 927      BINDING AFFINITY PREDICTED BY RF-SCORE:    0.00 PKD
ROOT
HETATM    1  C   UNL     1      -7.949   7.155  72.115  1.00  0.00    -0.091 C  
HETATM    2  N   UNL     1      -7.697   8.145  71.078  1.00  0.00    -0.083 NA 
HETATM    3  H   UNL     1      -7.070   7.782  70.360  1.00  0.00     0.000 HD 
ENDROOT
BRANCH   2   4
HETATM    4  C   UNL     1      -8.948   8.645  70.496  1.00  0.00    -0.164 C  
BRANCH   4   5
HETATM    5  C   UNL     1      -8.743  10.077  69.973  1.00  0.00    -0.118 C  
BRANCH   5   6
HETATM    6  C   UNL     1      -9.195  10.259  68.540  1.00  0.00    -0.144 C  
HETATM    7  C   UNL     1      -9.131  11.399  67.811  1.00  0.00    -0.158 C  
HETATM    8  C   UNL     1      -8.590  12.626  68.438  1.00  0.00    -0.122 A  
HETATM    9  C   UNL     1      -7.233  12.731  68.775  1.00  0.00    -0.077 A  
HETATM   10  C   UNL     1      -6.743  13.890  69.373  1.00  0.00    -0.095 A  
HETATM   11  C   UNL     1      -7.601  14.958  69.630  1.00  0.00    -0.098 A  
HETATM   12  C   UNL     1      -8.950  14.870  69.281  1.00  0.00    -0.099 A  
HETATM   13  C   UNL     1      -9.452  13.708  68.680  1.00  0.00    -0.077 A  
HETATM   14  C   UNL     1     -10.894  13.617  68.252  1.00  0.00    -0.268 C  
HETATM   15  C   UNL     1     -11.019  13.628  66.726  1.00  0.00    -0.297 C  
HETATM   16  C   UNL     1     -10.514  12.434  65.931  1.00  0.00    -0.284 A  
HETATM   17  C   UNL     1     -10.902  12.404  64.573  1.00  0.00    -0.358 A  
HETATM   18  C   UNL     1     -10.492  11.384  63.717  1.00  0.00    -0.456 A  
HETATM   19  C   UNL     1      -9.674  10.373  64.199  1.00  0.00    -0.387 A  
HETATM   20  C   UNL     1      -9.265  10.390  65.534  1.00  0.00    -0.223 A  
HETATM   21  C   UNL     1      -9.675  11.407  66.421  1.00  0.00    -0.231 A  
ENDBRANCH   5   6
ENDBRANCH   4   5
ENDBRANCH   2   4
TORSDOF 3
ENDMDL
MODEL      146
REMARK 921   NORMALIZED FREE ENERGY PREDICTED BY IDOCK:   -3.19 KCAL/MOL
REMARK 922        TOTAL FREE ENERGY PREDICTED BY IDOCK:   -3.94 KCAL/MOL
REMARK 923 INTER-LIGAND FREE ENERGY PREDICTED BY IDOCK:   -3.65 KCAL/MOL
REMARK 924 INTRA-LIGAND FREE ENERGY PREDICTED BY IDOCK:   -0.30 KCAL/MOL
REMARK 927      BINDING AFFINITY PREDICTED BY RF-SCORE:    0.00 PKD
ROOT
HETATM    1  C   UNL     1     -10.656   6.836  73.155  1.00  0.00    -0.287 C  
HETATM    2  N   UNL     1     -11.083   6.896  71.764  1.00  0.00    -0.238 NA 
HETATM    3  H   UNL     1     -10.792   7.768  71.322  1.00  0.00     0.000 HD 
ENDROOT
BRANCH   2   4
HETATM    4  C   UNL     1     -10.615   5.728  71.007  1.00  0.00    -0.253 C  
BRANCH   4   5
HETATM    5  C   UNL     1     -10.840   5.959  69.503  1.00  0.00    -0.442 C  
BRANCH   5   6
HETATM    6  C   UNL     1     -10.781   7.419  69.109  1.00  0.00    -0.180 C  
HETATM    7  C   UNL     1      -9.687   8.099  68.688  1.00  0.00    -0.158 C  
HETATM    8  C   UNL     1      -8.387   7.395  68.606  1.00  0.00    -0.129 A  
HETATM    9  C   UNL     1      -8.165   6.391  67.653  1.00  0.00    -0.118 A  
HETATM   10  C   UNL     1      -6.939   5.732  67.596  1.00  0.00    -0.066 A  
HETATM   11  C   UNL     1      -5.921   6.077  68.483  1.00  0.00    -0.020 A  
HETATM   12  C   UNL     1      -6.126   7.089  69.423  1.00  0.00    -0.033 A  
HETATM   13  C   UNL     1      -7.356   7.756  69.488  1.00  0.00    -0.088 A  
HETATM   14  C   UNL     1      -7.577   8.884  70.464  1.00  0.00    -0.093 C  
HETATM   15  C   UNL     1      -7.671  10.229  69.740  1.00  0.00    -0.159 C  
HETATM   16  C   UNL     1      -8.873  10.514  68.854  1.00  0.00    -0.166 A  
HETATM   17  C   UNL     1      -9.016  11.857  68.441  1.00  0.00    -0.163 A  
HETATM   18  C   UNL     1     -10.057  12.259  67.606  1.00  0.00    -0.204 A  
HETATM   19  C   UNL     1     -10.975  11.322  67.156  1.00  0.00    -0.348 A  
HETATM   20  C   UNL     1     -10.844   9.986  67.537  1.00  0.00    -0.326 A  
HETATM   21  C   UNL     1      -9.805   9.557  68.390  1.00  0.00    -0.175 A  
ENDBRANCH   5   6
ENDBRANCH   4   5
ENDBRANCH   2   4
TORSDOF 3
ENDMDL
MODEL      147
REMARK 921   NORMALIZED FREE ENERGY PREDICTED BY IDOCK:   -3.15 KCAL/MOL
REMARK 922        TOTAL FREE ENERGY PREDICTED BY IDOCK:   -3.90 KCAL/MOL
REMARK 923 INTER-LIGAND FREE ENERGY PREDICTED BY IDOCK:   -3.71 KCAL/MOL
REMARK 924 INTRA-LIGAND FREE ENERGY PREDICTED BY IDOCK:   -0.19 KCAL/MOL
REMARK 927      BINDING AFFINITY PREDICTED BY RF-SCORE:    0.00 PKD
ROOT
HETATM    1  C   UNL     1     -10.941  14.298  68.559  1.00  0.00    -0.252 C  
HETATM    2  N   UNL     1     -10.462  13.051  69.139  1.00  0.00    -0.437 NA 
HETATM    3  H   UNL     1     -10.647  13.011  70.141  1.00  0.00     0.000 HD 
ENDROOT
BRANCH   2   4
HETATM    4  C   UNL     1     -11.018  11.886  68.442  1.00  0.00    -0.232 C  
BRANCH   4   5
HETATM    5  C   UNL     1      -9.980  10.751  68.418  1.00  0.00    -0.174 C  
BRANCH   5   6
HETATM    6  C   UNL     1      -9.405  10.497  67.041  1.00  0.00    -0.176 C  
HETATM    7  C   UNL     1      -9.081   9.294  66.509  1.00  0.00    -0.191 C  
HETATM    8  C   UNL     1      -9.270   8.071  67.322  1.00  0.00    -0.164 A  
HETATM    9  C   UNL     1     -10.553   7.612  67.655  1.00  0.00    -0.294 A  
HETATM   10  C   UNL     1     -10.711   6.464  68.429  1.00  0.00    -0.349 A  
HETATM   11  C   UNL     1      -9.592   5.761  68.870  1.00  0.00    -0.163 A  
HETATM   12  C   UNL     1      -8.311   6.200  68.529  1.00  0.00    -0.114 A  
HETATM   13  C   UNL     1      -8.142   7.354  67.751  1.00  0.00    -0.119 A  
HETATM   14  C   UNL     1      -6.769   7.812  67.333  1.00  0.00    -0.068 C  
HETATM   15  C   UNL     1      -6.551   7.606  65.831  1.00  0.00    -0.046 C  
HETATM   16  C   UNL     1      -7.338   8.453  64.844  1.00  0.00    -0.087 A  
HETATM   17  C   UNL     1      -6.892   8.391  63.504  1.00  0.00    -0.084 A  
HETATM   18  C   UNL     1      -7.534   9.094  62.487  1.00  0.00    -0.100 A  
HETATM   19  C   UNL     1      -8.644   9.870  62.785  1.00  0.00    -0.192 A  
HETATM   20  C   UNL     1      -9.112   9.934  64.098  1.00  0.00    -0.294 A  
HETATM   21  C   UNL     1      -8.474   9.238  65.147  1.00  0.00    -0.173 A  
ENDBRANCH   5   6
ENDBRANCH   4   5
ENDBRANCH   2   4
TORSDOF 3
ENDMDL
MODEL      148
REMARK 921   NORMALIZED FREE ENERGY PREDICTED BY IDOCK:   -3.14 KCAL/MOL
REMARK 922        TOTAL FREE ENERGY PREDICTED BY IDOCK:   -3.89 KCAL/MOL
REMARK 923 INTER-LIGAND FREE ENERGY PREDICTED BY IDOCK:   -3.73 KCAL/MOL
REMARK 924 INTRA-LIGAND FREE ENERGY PREDICTED BY IDOCK:   -0.16 KCAL/MOL
REMARK 927      BINDING AFFINITY PREDICTED BY RF-SCORE:    0.00 PKD
ROOT
HETATM    1  C   UNL     1      -8.243   7.553  72.057  1.00  0.00    -0.102 C  
HETATM    2  N   UNL     1      -8.082   8.254  70.791  1.00  0.00    -0.102 NA 
HETATM    3  H   UNL     1      -7.443   7.758  70.169  1.00  0.00     0.000 HD 
ENDROOT
BRANCH   2   4
HETATM    4  C   UNL     1      -9.375   8.503  70.145  1.00  0.00    -0.161 C  
BRANCH   4   5
HETATM    5  C   UNL     1      -9.251   9.687  69.170  1.00  0.00    -0.168 C  
BRANCH   5   6
HETATM    6  C   UNL     1      -8.901   9.264  67.760  1.00  0.00    -0.121 C  
HETATM    7  C   UNL     1      -8.726  10.078  66.691  1.00  0.00    -0.138 C  
HETATM    8  C   UNL     1      -8.901  11.539  66.861  1.00  0.00    -0.182 A  
HETATM    9  C   UNL     1      -7.997  12.294  67.623  1.00  0.00    -0.161 A  
HETATM   10  C   UNL     1      -8.182  13.666  67.780  1.00  0.00    -0.179 A  
HETATM   11  C   UNL     1      -9.265  14.296  67.171  1.00  0.00    -0.230 A  
HETATM   12  C   UNL     1     -10.160  13.556  66.395  1.00  0.00    -0.294 A  
HETATM   13  C   UNL     1      -9.982  12.176  66.232  1.00  0.00    -0.249 A  
HETATM   14  C   UNL     1     -10.910  11.372  65.359  1.00  0.00    -0.292 C  
HETATM   15  C   UNL     1     -10.205  10.913  64.079  1.00  0.00    -0.422 C  
HETATM   16  C   UNL     1      -9.096   9.878  64.173  1.00  0.00    -0.294 A  
HETATM   17  C   UNL     1      -8.685   9.318  62.942  1.00  0.00    -0.210 A  
HETATM   18  C   UNL     1      -7.661   8.376  62.873  1.00  0.00    -0.119 A  
HETATM   19  C   UNL     1      -7.016   7.978  64.034  1.00  0.00    -0.067 A  
HETATM   20  C   UNL     1      -7.394   8.529  65.260  1.00  0.00    -0.084 A  
HETATM   21  C   UNL     1      -8.434   9.477  65.357  1.00  0.00    -0.157 A  
ENDBRANCH   5   6
ENDBRANCH   4   5
ENDBRANCH   2   4
TORSDOF 3
ENDMDL
MODEL      149
REMARK 921   NORMALIZED FREE ENERGY PREDICTED BY IDOCK:   -3.13 KCAL/MOL
REMARK 922        TOTAL FREE ENERGY PREDICTED BY IDOCK:   -3.88 KCAL/MOL
REMARK 923 INTER-LIGAND FREE ENERGY PREDICTED BY IDOCK:   -3.69 KCAL/MOL
REMARK 924 INTRA-LIGAND FREE ENERGY PREDICTED BY IDOCK:   -0.18 KCAL/MOL
REMARK 927      BINDING AFFINITY PREDICTED BY RF-SCORE:    0.00 PKD
ROOT
HETATM    1  C   UNL     1      -9.042   4.264  63.750  1.00  0.00    -0.142 C  
HETATM    2  N   UNL     1      -9.622   3.484  64.834  1.00  0.00    -0.163 NA 
HETATM    3  H   UNL     1      -9.341   2.505  64.780  1.00  0.00     0.000 HD 
ENDROOT
BRANCH   2   4
HETATM    4  C   UNL     1      -9.303   4.063  66.144  1.00  0.00    -0.171 C  
BRANCH   4   5
HETATM    5  C   UNL     1     -10.513   4.852  66.673  1.00  0.00    -0.270 C  
BRANCH   5   6
HETATM    6  C   UNL     1     -10.178   6.280  67.043  1.00  0.00    -0.256 C  
HETATM    7  C   UNL     1      -9.911   6.752  68.286  1.00  0.00    -0.153 C  
HETATM    8  C   UNL     1      -9.958   5.821  69.436  1.00  0.00    -0.244 A  
HETATM    9  C   UNL     1      -9.005   4.804  69.586  1.00  0.00    -0.135 A  
HETATM   10  C   UNL     1      -9.070   3.930  70.669  1.00  0.00    -0.181 A  
HETATM   11  C   UNL     1     -10.082   4.071  71.617  1.00  0.00    -0.183 A  
HETATM   12  C   UNL     1     -11.025   5.093  71.487  1.00  0.00    -0.018 A  
HETATM   13  C   UNL     1     -10.967   5.975  70.400  1.00  0.00    -0.399 A  
HETATM   14  C   UNL     1     -11.948   7.112  70.272  1.00  0.00    -0.123 C  
HETATM   15  C   UNL     1     -11.264   8.461  70.513  1.00  0.00    -0.252 C  
HETATM   16  C   UNL     1     -10.253   8.972  69.498  1.00  0.00    -0.205 A  
HETATM   17  C   UNL     1      -9.872  10.324  69.653  1.00  0.00    -0.230 A  
HETATM   18  C   UNL     1      -8.934  10.921  68.813  1.00  0.00    -0.166 A  
HETATM   19  C   UNL     1      -8.349  10.175  67.802  1.00  0.00    -0.114 A  
HETATM   20  C   UNL     1      -8.697   8.833  67.639  1.00  0.00    -0.135 A  
HETATM   21  C   UNL     1      -9.651   8.209  68.472  1.00  0.00    -0.153 A  
ENDBRANCH   5   6
ENDBRANCH   4   5
ENDBRANCH   2   4
TORSDOF 3
ENDMDL
MODEL      150
REMARK 921   NORMALIZED FREE ENERGY PREDICTED BY IDOCK:   -3.12 KCAL/MOL
REMARK 922        TOTAL FREE ENERGY PREDICTED BY IDOCK:   -3.86 KCAL/MOL
REMARK 923 INTER-LIGAND FREE ENERGY PREDICTED BY IDOCK:   -3.70 KCAL/MOL
REMARK 924 INTRA-LIGAND FREE ENERGY PREDICTED BY IDOCK:   -0.16 KCAL/MOL
REMARK 927      BINDING AFFINITY PREDICTED BY RF-SCORE:    0.00 PKD
ROOT
HETATM    1  C   UNL     1      -6.227   5.693  65.067  1.00  0.00    -0.029 C  
HETATM    2  N   UNL     1      -7.666   5.617  65.275  1.00  0.00    -0.084 NA 
HETATM    3  H   UNL     1      -7.911   4.860  65.913  1.00  0.00     0.000 HD 
ENDROOT
BRANCH   2   4
HETATM    4  C   UNL     1      -8.213   6.901  65.730  1.00  0.00    -0.132 C  
BRANCH   4   5
HETATM    5  C   UNL     1      -9.644   6.700  66.255  1.00  0.00    -0.092 C  
BRANCH   5   6
HETATM    6  C   UNL     1      -9.748   6.808  67.761  1.00  0.00    -0.140 C  
HETATM    7  C   UNL     1      -9.774   7.950  68.489  1.00  0.00    -0.167 C  
HETATM    8  C   UNL     1      -9.676   9.253  67.792  1.00  0.00    -0.182 A  
HETATM    9  C   UNL     1     -10.714   9.717  66.972  1.00  0.00    -0.225 A  
HETATM   10  C   UNL     1     -10.600  10.941  66.316  1.00  0.00    -0.276 A  
HETATM   11  C   UNL     1      -9.453  11.715  66.481  1.00  0.00    -0.219 A  
HETATM   12  C   UNL     1      -8.422  11.270  67.311  1.00  0.00    -0.144 A  
HETATM   13  C   UNL     1      -8.528  10.040  67.973  1.00  0.00    -0.117 A  
HETATM   14  C   UNL     1      -7.446   9.569  68.911  1.00  0.00    -0.074 C  
HETATM   15  C   UNL     1      -7.920   9.608  70.366  1.00  0.00    -0.191 C  
HETATM   16  C   UNL     1      -8.996   8.636  70.822  1.00  0.00    -0.209 A  
HETATM   17  C   UNL     1      -9.185   8.555  72.220  1.00  0.00    -0.343 A  
HETATM   18  C   UNL     1     -10.155   7.726  72.781  1.00  0.00    -0.344 A  
HETATM   19  C   UNL     1     -10.965   6.964  71.953  1.00  0.00    -0.266 A  
HETATM   20  C   UNL     1     -10.808   7.039  70.568  1.00  0.00    -0.279 A  
HETATM   21  C   UNL     1      -9.828   7.864  69.978  1.00  0.00    -0.181 A  
ENDBRANCH   5   6
ENDBRANCH   4   5
ENDBRANCH   2   4
TORSDOF 3
ENDMDL
MODEL      151
REMARK 921   NORMALIZED FREE ENERGY PREDICTED BY IDOCK:   -3.10 KCAL/MOL
REMARK 922        TOTAL FREE ENERGY PREDICTED BY IDOCK:   -3.84 KCAL/MOL
REMARK 923 INTER-LIGAND FREE ENERGY PREDICTED BY IDOCK:   -3.66 KCAL/MOL
REMARK 924 INTRA-LIGAND FREE ENERGY PREDICTED BY IDOCK:   -0.19 KCAL/MOL
REMARK 927      BINDING AFFINITY PREDICTED BY RF-SCORE:    0.00 PKD
ROOT
HETATM    1  C   UNL     1     -14.142   8.920  72.197  1.00  0.00    -0.429 C  
HETATM    2  N   UNL     1     -13.166   7.851  72.356  1.00  0.00    -0.524 NA 
HETATM    3  H   UNL     1     -13.303   7.349  73.233  1.00  0.00     0.000 HD 
ENDROOT
BRANCH   2   4
HETATM    4  C   UNL     1     -13.175   6.939  71.207  1.00  0.00    -0.158 C  
BRANCH   4   5
HETATM    5  C   UNL     1     -11.866   6.132  71.172  1.00  0.00    -0.115 C  
BRANCH   5   6
HETATM    6  C   UNL     1     -11.108   6.281  69.871  1.00  0.00    -0.469 C  
HETATM    7  C   UNL     1      -9.827   6.698  69.724  1.00  0.00    -0.174 C  
HETATM    8  C   UNL     1      -9.050   7.078  70.926  1.00  0.00    -0.153 A  
HETATM    9  C   UNL     1      -8.660   6.118  71.871  1.00  0.00    -0.132 A  
HETATM   10  C   UNL     1      -7.938   6.495  73.001  1.00  0.00    -0.104 A  
HETATM   11  C   UNL     1      -7.590   7.831  73.192  1.00  0.00    -0.145 A  
HETATM   12  C   UNL     1      -7.957   8.791  72.247  1.00  0.00     0.023 A  
HETATM   13  C   UNL     1      -8.685   8.421  71.108  1.00  0.00    -0.194 A  
HETATM   14  C   UNL     1      -9.046   9.437  70.055  1.00  0.00    -0.244 C  
HETATM   15  C   UNL     1      -8.247   9.208  68.769  1.00  0.00    -0.109 C  
HETATM   16  C   UNL     1      -8.524   7.968  67.933  1.00  0.00    -0.125 A  
HETATM   17  C   UNL     1      -7.943   7.965  66.645  1.00  0.00    -0.103 A  
HETATM   18  C   UNL     1      -8.091   6.884  65.779  1.00  0.00    -0.123 A  
HETATM   19  C   UNL     1      -8.817   5.774  66.186  1.00  0.00    -0.146 A  
HETATM   20  C   UNL     1      -9.386   5.748  67.460  1.00  0.00    -0.111 A  
HETATM   21  C   UNL     1      -9.258   6.834  68.351  1.00  0.00    -0.123 A  
ENDBRANCH   5   6
ENDBRANCH   4   5
ENDBRANCH   2   4
TORSDOF 3
ENDMDL
MODEL      152
REMARK 921   NORMALIZED FREE ENERGY PREDICTED BY IDOCK:   -3.09 KCAL/MOL
REMARK 922        TOTAL FREE ENERGY PREDICTED BY IDOCK:   -3.83 KCAL/MOL
REMARK 923 INTER-LIGAND FREE ENERGY PREDICTED BY IDOCK:   -3.61 KCAL/MOL
REMARK 924 INTRA-LIGAND FREE ENERGY PREDICTED BY IDOCK:   -0.22 KCAL/MOL
REMARK 927      BINDING AFFINITY PREDICTED BY RF-SCORE:    0.00 PKD
ROOT
HETATM    1  C   UNL     1      -6.783   6.860  74.417  1.00  0.00    -0.083 C  
HETATM    2  N   UNL     1      -6.619   7.897  73.409  1.00  0.00    -0.085 NA 
HETATM    3  H   UNL     1      -6.273   8.765  73.819  1.00  0.00     0.000 HD 
ENDROOT
BRANCH   2   4
HETATM    4  C   UNL     1      -5.761   7.445  72.307  1.00  0.00    -0.037 C  
BRANCH   4   5
HETATM    5  C   UNL     1      -6.628   6.845  71.187  1.00  0.00    -0.052 C  
BRANCH   5   6
HETATM    6  C   UNL     1      -7.617   7.830  70.604  1.00  0.00    -0.078 C  
HETATM    7  C   UNL     1      -8.709   7.535  69.858  1.00  0.00    -0.140 C  
HETATM    8  C   UNL     1      -8.999   6.120  69.533  1.00  0.00    -0.133 A  
HETATM    9  C   UNL     1      -9.397   5.214  70.527  1.00  0.00    -0.210 A  
HETATM   10  C   UNL     1      -9.656   3.883  70.204  1.00  0.00    -0.267 A  
HETATM   11  C   UNL     1      -9.530   3.449  68.886  1.00  0.00    -0.201 A  
HETATM   12  C   UNL     1      -9.153   4.347  67.887  1.00  0.00    -0.154 A  
HETATM   13  C   UNL     1      -8.889   5.687  68.202  1.00  0.00    -0.108 A  
HETATM   14  C   UNL     1      -8.529   6.680  67.127  1.00  0.00    -0.113 C  
HETATM   15  C   UNL     1      -9.665   7.680  66.896  1.00  0.00    -0.277 C  
HETATM   16  C   UNL     1      -9.995   8.693  67.981  1.00  0.00    -0.221 A  
HETATM   17  C   UNL     1     -10.863   9.737  67.590  1.00  0.00    -0.301 A  
HETATM   18  C   UNL     1     -11.273  10.721  68.486  1.00  0.00    -0.340 A  
HETATM   19  C   UNL     1     -10.829  10.680  69.800  1.00  0.00    -0.317 A  
HETATM   20  C   UNL     1      -9.984   9.649  70.213  1.00  0.00    -0.326 A  
HETATM   21  C   UNL     1      -9.548   8.646  69.322  1.00  0.00    -0.166 A  
ENDBRANCH   5   6
ENDBRANCH   4   5
ENDBRANCH   2   4
TORSDOF 3
ENDMDL
MODEL      153
REMARK 921   NORMALIZED FREE ENERGY PREDICTED BY IDOCK:   -3.09 KCAL/MOL
REMARK 922        TOTAL FREE ENERGY PREDICTED BY IDOCK:   -3.82 KCAL/MOL
REMARK 923 INTER-LIGAND FREE ENERGY PREDICTED BY IDOCK:   -3.54 KCAL/MOL
REMARK 924 INTRA-LIGAND FREE ENERGY PREDICTED BY IDOCK:   -0.28 KCAL/MOL
REMARK 927      BINDING AFFINITY PREDICTED BY RF-SCORE:    0.00 PKD
ROOT
HETATM    1  C   UNL     1     -11.041   6.278  71.238  1.00  0.00    -0.289 C  
HETATM    2  N   UNL     1     -10.352   6.273  69.955  1.00  0.00    -0.183 NA 
HETATM    3  H   UNL     1      -9.904   5.375  69.776  1.00  0.00     0.000 HD 
ENDROOT
BRANCH   2   4
HETATM    4  C   UNL     1     -11.252   6.652  68.859  1.00  0.00    -0.200 C  
BRANCH   4   5
HETATM    5  C   UNL     1     -10.512   7.570  67.872  1.00  0.00    -0.266 C  
BRANCH   5   6
HETATM    6  C   UNL     1      -9.256   8.181  68.453  1.00  0.00    -0.135 C  
HETATM    7  C   UNL     1      -8.912   9.492  68.438  1.00  0.00    -0.127 C  
HETATM    8  C   UNL     1      -9.813  10.466  67.781  1.00  0.00    -0.193 A  
HETATM    9  C   UNL     1     -11.070  10.772  68.323  1.00  0.00    -0.327 A  
HETATM   10  C   UNL     1     -11.909  11.684  67.687  1.00  0.00    -0.216 A  
HETATM   11  C   UNL     1     -11.496  12.306  66.510  1.00  0.00    -0.438 A  
HETATM   12  C   UNL     1     -10.239  12.022  65.973  1.00  0.00    -0.256 A  
HETATM   13  C   UNL     1      -9.389  11.105  66.606  1.00  0.00    -0.194 A  
HETATM   14  C   UNL     1      -8.010  10.826  66.065  1.00  0.00    -0.154 C  
HETATM   15  C   UNL     1      -6.930  11.405  66.983  1.00  0.00    -0.135 C  
HETATM   16  C   UNL     1      -6.717  10.794  68.358  1.00  0.00    -0.059 A  
HETATM   17  C   UNL     1      -5.542  11.204  69.028  1.00  0.00    -0.040 A  
HETATM   18  C   UNL     1      -5.231  10.746  70.306  1.00  0.00    -0.057 A  
HETATM   19  C   UNL     1      -6.094   9.872  70.949  1.00  0.00    -0.082 A  
HETATM   20  C   UNL     1      -7.269   9.465  70.315  1.00  0.00    -0.104 A  
HETATM   21  C   UNL     1      -7.601   9.908  69.017  1.00  0.00    -0.086 A  
ENDBRANCH   5   6
ENDBRANCH   4   5
ENDBRANCH   2   4
TORSDOF 3
ENDMDL
MODEL      154
REMARK 921   NORMALIZED FREE ENERGY PREDICTED BY IDOCK:   -3.08 KCAL/MOL
REMARK 922        TOTAL FREE ENERGY PREDICTED BY IDOCK:   -3.82 KCAL/MOL
REMARK 923 INTER-LIGAND FREE ENERGY PREDICTED BY IDOCK:   -3.55 KCAL/MOL
REMARK 924 INTRA-LIGAND FREE ENERGY PREDICTED BY IDOCK:   -0.27 KCAL/MOL
REMARK 927      BINDING AFFINITY PREDICTED BY RF-SCORE:    0.00 PKD
ROOT
HETATM    1  C   UNL     1      -6.790  13.796  69.459  1.00  0.00     0.001 C  
HETATM    2  N   UNL     1      -7.184  12.413  69.226  1.00  0.00    -0.317 NA 
HETATM    3  H   UNL     1      -8.139  12.352  68.874  1.00  0.00     0.000 HD 
ENDROOT
BRANCH   2   4
HETATM    4  C   UNL     1      -6.239  11.727  68.337  1.00  0.00    -0.050 C  
BRANCH   4   5
HETATM    5  C   UNL     1      -6.068  10.266  68.788  1.00  0.00    -0.047 C  
BRANCH   5   6
HETATM    6  C   UNL     1      -7.020   9.869  69.895  1.00  0.00    -0.105 C  
HETATM    7  C   UNL     1      -8.128   9.098  69.771  1.00  0.00    -0.111 C  
HETATM    8  C   UNL     1      -8.502   8.582  68.434  1.00  0.00    -0.138 A  
HETATM    9  C   UNL     1      -7.721   7.615  67.786  1.00  0.00    -0.122 A  
HETATM   10  C   UNL     1      -8.083   7.148  66.523  1.00  0.00    -0.114 A  
HETATM   11  C   UNL     1      -9.232   7.635  65.904  1.00  0.00    -0.053 A  
HETATM   12  C   UNL     1     -10.026   8.585  66.550  1.00  0.00    -0.350 A  
HETATM   13  C   UNL     1      -9.669   9.061  67.819  1.00  0.00    -0.190 A  
HETATM   14  C   UNL     1     -10.542  10.048  68.550  1.00  0.00    -0.245 C  
HETATM   15  C   UNL     1     -11.230   9.393  69.751  1.00  0.00    -0.139 C  
HETATM   16  C   UNL     1     -10.391   8.967  70.946  1.00  0.00    -0.323 A  
HETATM   17  C   UNL     1     -11.121   8.621  72.105  1.00  0.00    -0.434 A  
HETATM   18  C   UNL     1     -10.486   8.187  73.267  1.00  0.00     0.061 A  
HETATM   19  C   UNL     1      -9.104   8.080  73.293  1.00  0.00    -0.349 A  
HETATM   20  C   UNL     1      -8.362   8.401  72.154  1.00  0.00    -0.225 A  
HETATM   21  C   UNL     1      -8.982   8.851  70.970  1.00  0.00    -0.298 A  
ENDBRANCH   5   6
ENDBRANCH   4   5
ENDBRANCH   2   4
TORSDOF 3
ENDMDL
MODEL      155
REMARK 921   NORMALIZED FREE ENERGY PREDICTED BY IDOCK:   -3.07 KCAL/MOL
REMARK 922        TOTAL FREE ENERGY PREDICTED BY IDOCK:   -3.81 KCAL/MOL
REMARK 923 INTER-LIGAND FREE ENERGY PREDICTED BY IDOCK:   -3.58 KCAL/MOL
REMARK 924 INTRA-LIGAND FREE ENERGY PREDICTED BY IDOCK:   -0.23 KCAL/MOL
REMARK 927      BINDING AFFINITY PREDICTED BY RF-SCORE:    0.00 PKD
ROOT
HETATM    1  C   UNL     1     -11.809  11.517  67.533  1.00  0.00    -0.078 C  
HETATM    2  N   UNL     1     -10.895  10.678  68.296  1.00  0.00    -0.221 NA 
HETATM    3  H   UNL     1     -10.990   9.695  68.041  1.00  0.00     0.000 HD 
ENDROOT
BRANCH   2   4
HETATM    4  C   UNL     1      -9.507  11.136  68.164  1.00  0.00    -0.180 C  
BRANCH   4   5
HETATM    5  C   UNL     1      -8.545   9.972  68.456  1.00  0.00    -0.119 C  
BRANCH   5   6
HETATM    6  C   UNL     1      -8.829   9.280  69.772  1.00  0.00    -0.174 C  
HETATM    7  C   UNL     1      -8.874   7.943  69.988  1.00  0.00    -0.141 C  
HETATM    8  C   UNL     1      -8.649   7.020  68.853  1.00  0.00    -0.128 A  
HETATM    9  C   UNL     1      -7.389   6.909  68.247  1.00  0.00    -0.097 A  
HETATM   10  C   UNL     1      -7.197   6.043  67.172  1.00  0.00    -0.075 A  
HETATM   11  C   UNL     1      -8.259   5.273  66.701  1.00  0.00    -0.108 A  
HETATM   12  C   UNL     1      -9.512   5.363  67.310  1.00  0.00    -0.128 A  
HETATM   13  C   UNL     1      -9.714   6.232  68.390  1.00  0.00    -0.130 A  
HETATM   14  C   UNL     1     -11.047   6.304  69.089  1.00  0.00    -0.457 C  
HETATM   15  C   UNL     1     -10.969   5.692  70.490  1.00  0.00    -0.267 C  
HETATM   16  C   UNL     1     -10.159   6.400  71.565  1.00  0.00    -0.215 A  
HETATM   17  C   UNL     1     -10.353   5.923  72.881  1.00  0.00    -0.224 A  
HETATM   18  C   UNL     1      -9.657   6.459  73.963  1.00  0.00    -0.221 A  
HETATM   19  C   UNL     1      -8.743   7.480  73.751  1.00  0.00    -0.270 A  
HETATM   20  C   UNL     1      -8.523   7.956  72.458  1.00  0.00    -0.197 A  
HETATM   21  C   UNL     1      -9.222   7.436  71.348  1.00  0.00    -0.148 A  
ENDBRANCH   5   6
ENDBRANCH   4   5
ENDBRANCH   2   4
TORSDOF 3
ENDMDL
MODEL      156
REMARK 921   NORMALIZED FREE ENERGY PREDICTED BY IDOCK:   -3.07 KCAL/MOL
REMARK 922        TOTAL FREE ENERGY PREDICTED BY IDOCK:   -3.81 KCAL/MOL
REMARK 923 INTER-LIGAND FREE ENERGY PREDICTED BY IDOCK:   -3.59 KCAL/MOL
REMARK 924 INTRA-LIGAND FREE ENERGY PREDICTED BY IDOCK:   -0.22 KCAL/MOL
REMARK 927      BINDING AFFINITY PREDICTED BY RF-SCORE:    0.00 PKD
ROOT
HETATM    1  C   UNL     1      -6.461   6.088  66.876  1.00  0.00    -0.050 C  
HETATM    2  N   UNL     1      -7.820   5.645  67.152  1.00  0.00    -0.101 NA 
HETATM    3  H   UNL     1      -7.862   4.635  67.291  1.00  0.00     0.000 HD 
ENDROOT
BRANCH   2   4
HETATM    4  C   UNL     1      -8.402   6.368  68.289  1.00  0.00    -0.116 C  
BRANCH   4   5
HETATM    5  C   UNL     1      -9.618   5.596  68.830  1.00  0.00    -0.166 C  
BRANCH   5   6
HETATM    6  C   UNL     1      -9.285   4.709  70.009  1.00  0.00    -0.186 C  
HETATM    7  C   UNL     1      -9.607   4.933  71.306  1.00  0.00    -0.229 C  
HETATM    8  C   UNL     1     -10.343   6.167  71.663  1.00  0.00    -0.259 A  
HETATM    9  C   UNL     1     -11.675   6.357  71.269  1.00  0.00    -0.359 A  
HETATM   10  C   UNL     1     -12.350   7.529  71.605  1.00  0.00    -0.362 A  
HETATM   11  C   UNL     1     -11.704   8.516  72.347  1.00  0.00    -0.429 A  
HETATM   12  C   UNL     1     -10.383   8.328  72.760  1.00  0.00    -0.330 A  
HETATM   13  C   UNL     1      -9.697   7.153  72.425  1.00  0.00    -0.173 A  
HETATM   14  C   UNL     1      -8.289   6.914  72.906  1.00  0.00    -0.118 C  
HETATM   15  C   UNL     1      -8.248   5.812  73.968  1.00  0.00    -0.108 C  
HETATM   16  C   UNL     1      -8.551   4.379  73.563  1.00  0.00    -0.096 A  
HETATM   17  C   UNL     1      -8.235   3.397  74.530  1.00  0.00    -0.073 A  
HETATM   18  C   UNL     1      -8.483   2.045  74.307  1.00  0.00    -0.058 A  
HETATM   19  C   UNL     1      -9.062   1.642  73.113  1.00  0.00    -0.066 A  
HETATM   20  C   UNL     1      -9.398   2.595  72.149  1.00  0.00    -0.164 A  
HETATM   21  C   UNL     1      -9.148   3.969  72.349  1.00  0.00    -0.144 A  
ENDBRANCH   5   6
ENDBRANCH   4   5
ENDBRANCH   2   4
TORSDOF 3
ENDMDL
MODEL      157
REMARK 921   NORMALIZED FREE ENERGY PREDICTED BY IDOCK:   -3.05 KCAL/MOL
REMARK 922        TOTAL FREE ENERGY PREDICTED BY IDOCK:   -3.78 KCAL/MOL
REMARK 923 INTER-LIGAND FREE ENERGY PREDICTED BY IDOCK:   -3.81 KCAL/MOL
REMARK 924 INTRA-LIGAND FREE ENERGY PREDICTED BY IDOCK:    0.03 KCAL/MOL
REMARK 927      BINDING AFFINITY PREDICTED BY RF-SCORE:    0.00 PKD
ROOT
HETATM    1  C   UNL     1     -12.643   9.040  72.212  1.00  0.00    -0.375 C  
HETATM    2  N   UNL     1     -12.727   8.275  70.976  1.00  0.00    -0.507 NA 
HETATM    3  H   UNL     1     -13.155   8.822  70.228  1.00  0.00     0.000 HD 
ENDROOT
BRANCH   2   4
HETATM    4  C   UNL     1     -11.416   7.752  70.577  1.00  0.00    -0.205 C  
BRANCH   4   5
HETATM    5  C   UNL     1     -11.592   6.410  69.845  1.00  0.00    -0.422 C  
BRANCH   5   6
HETATM    6  C   UNL     1     -10.279   5.748  69.489  1.00  0.00    -0.306 C  
HETATM    7  C   UNL     1      -9.367   5.244  70.355  1.00  0.00    -0.208 C  
HETATM    8  C   UNL     1      -9.623   5.341  71.810  1.00  0.00    -0.192 A  
HETATM    9  C   UNL     1     -10.650   4.604  72.416  1.00  0.00    -0.225 A  
HETATM   10  C   UNL     1     -10.884   4.716  73.786  1.00  0.00    -0.378 A  
HETATM   11  C   UNL     1     -10.087   5.555  74.562  1.00  0.00    -0.293 A  
HETATM   12  C   UNL     1      -9.050   6.279  73.970  1.00  0.00    -0.144 A  
HETATM   13  C   UNL     1      -8.809   6.174  72.594  1.00  0.00    -0.123 A  
HETATM   14  C   UNL     1      -7.662   6.909  71.949  1.00  0.00    -0.094 C  
HETATM   15  C   UNL     1      -6.560   5.941  71.514  1.00  0.00    -0.054 C  
HETATM   16  C   UNL     1      -6.828   4.976  70.369  1.00  0.00    -0.044 A  
HETATM   17  C   UNL     1      -5.690   4.311  69.859  1.00  0.00    -0.017 A  
HETATM   18  C   UNL     1      -5.788   3.380  68.828  1.00  0.00    -0.023 A  
HETATM   19  C   UNL     1      -7.031   3.085  68.287  1.00  0.00    -0.049 A  
HETATM   20  C   UNL     1      -8.171   3.717  68.786  1.00  0.00    -0.084 A  
HETATM   21  C   UNL     1      -8.096   4.670  69.823  1.00  0.00    -0.068 A  
ENDBRANCH   5   6
ENDBRANCH   4   5
ENDBRANCH   2   4
TORSDOF 3
ENDMDL
MODEL      158
REMARK 921   NORMALIZED FREE ENERGY PREDICTED BY IDOCK:   -3.03 KCAL/MOL
REMARK 922        TOTAL FREE ENERGY PREDICTED BY IDOCK:   -3.76 KCAL/MOL
REMARK 923 INTER-LIGAND FREE ENERGY PREDICTED BY IDOCK:   -3.51 KCAL/MOL
REMARK 924 INTRA-LIGAND FREE ENERGY PREDICTED BY IDOCK:   -0.25 KCAL/MOL
REMARK 927      BINDING AFFINITY PREDICTED BY RF-SCORE:    0.00 PKD
ROOT
HETATM    1  C   UNL     1     -12.985   7.254  71.588  1.00  0.00    -0.372 C  
HETATM    2  N   UNL     1     -12.024   6.278  72.083  1.00  0.00    -0.413 NA 
HETATM    3  H   UNL     1     -12.417   5.337  72.088  1.00  0.00     0.000 HD 
ENDROOT
BRANCH   2   4
HETATM    4  C   UNL     1     -10.767   6.331  71.328  1.00  0.00    -0.248 C  
BRANCH   4   5
HETATM    5  C   UNL     1     -11.027   6.897  69.922  1.00  0.00    -0.318 C  
BRANCH   5   6
HETATM    6  C   UNL     1     -10.180   6.246  68.850  1.00  0.00    -0.219 C  
HETATM    7  C   UNL     1      -9.159   6.819  68.167  1.00  0.00    -0.123 C  
HETATM    8  C   UNL     1      -8.808   8.230  68.445  1.00  0.00    -0.137 A  
HETATM    9  C   UNL     1      -8.240   8.609  69.670  1.00  0.00    -0.114 A  
HETATM   10  C   UNL     1      -7.925   9.943  69.918  1.00  0.00    -0.193 A  
HETATM   11  C   UNL     1      -8.164  10.908  68.942  1.00  0.00    -0.141 A  
HETATM   12  C   UNL     1      -8.712  10.538  67.712  1.00  0.00    -0.122 A  
HETATM   13  C   UNL     1      -9.033   9.199  67.455  1.00  0.00    -0.128 A  
HETATM   14  C   UNL     1      -9.579   8.776  66.115  1.00  0.00    -0.323 C  
HETATM   15  C   UNL     1      -8.549   7.958  65.332  1.00  0.00    -0.118 C  
HETATM   16  C   UNL     1      -8.174   6.569  65.825  1.00  0.00    -0.135 A  
HETATM   17  C   UNL     1      -7.429   5.785  64.916  1.00  0.00    -0.079 A  
HETATM   18  C   UNL     1      -6.993   4.502  65.243  1.00  0.00    -0.062 A  
HETATM   19  C   UNL     1      -7.285   3.977  66.492  1.00  0.00    -0.068 A  
HETATM   20  C   UNL     1      -8.006   4.740  67.413  1.00  0.00    -0.094 A  
HETATM   21  C   UNL     1      -8.465   6.037  67.103  1.00  0.00    -0.104 A  
ENDBRANCH   5   6
ENDBRANCH   4   5
ENDBRANCH   2   4
TORSDOF 3
ENDMDL
MODEL      159
REMARK 921   NORMALIZED FREE ENERGY PREDICTED BY IDOCK:   -3.02 KCAL/MOL
REMARK 922        TOTAL FREE ENERGY PREDICTED BY IDOCK:   -3.75 KCAL/MOL
REMARK 923 INTER-LIGAND FREE ENERGY PREDICTED BY IDOCK:   -3.57 KCAL/MOL
REMARK 924 INTRA-LIGAND FREE ENERGY PREDICTED BY IDOCK:   -0.18 KCAL/MOL
REMARK 927      BINDING AFFINITY PREDICTED BY RF-SCORE:    0.00 PKD
ROOT
HETATM    1  C   UNL     1     -12.854  12.215  71.326  1.00  0.00    -0.250 C  
HETATM    2  N   UNL     1     -13.156  13.640  71.309  1.00  0.00    -0.312 NA 
HETATM    3  H   UNL     1     -13.838  13.886  72.026  1.00  0.00     0.000 HD 
ENDROOT
BRANCH   2   4
HETATM    4  C   UNL     1     -11.937  14.449  71.426  1.00  0.00    -0.267 C  
BRANCH   4   5
HETATM    5  C   UNL     1     -11.835  15.412  70.230  1.00  0.00    -0.368 C  
BRANCH   5   6
HETATM    6  C   UNL     1     -10.466  16.040  70.087  1.00  0.00    -0.198 C  
HETATM    7  C   UNL     1      -9.572  15.814  69.094  1.00  0.00    -0.255 C  
HETATM    8  C   UNL     1      -9.911  14.847  68.025  1.00  0.00    -0.220 A  
HETATM    9  C   UNL     1     -10.922  15.122  67.093  1.00  0.00    -0.326 A  
HETATM   10  C   UNL     1     -11.235  14.196  66.099  1.00  0.00    -0.326 A  
HETATM   11  C   UNL     1     -10.534  12.994  66.022  1.00  0.00    -0.289 A  
HETATM   12  C   UNL     1      -9.513  12.720  66.935  1.00  0.00    -0.235 A  
HETATM   13  C   UNL     1      -9.193  13.644  67.937  1.00  0.00    -0.203 A  
HETATM   14  C   UNL     1      -8.061  13.385  68.898  1.00  0.00     0.147 C  
HETATM   15  C   UNL     1      -6.879  14.319  68.624  1.00  0.00    -0.098 C  
HETATM   16  C   UNL     1      -7.026  15.805  68.908  1.00  0.00    -0.135 A  
HETATM   17  C   UNL     1      -5.823  16.547  68.882  1.00  0.00    -0.137 A  
HETATM   18  C   UNL     1      -5.809  17.923  69.098  1.00  0.00    -0.213 A  
HETATM   19  C   UNL     1      -7.000  18.592  69.336  1.00  0.00    -0.154 A  
HETATM   20  C   UNL     1      -8.202  17.883  69.350  1.00  0.00     0.430 A  
HETATM   21  C   UNL     1      -8.241  16.488  69.143  1.00  0.00    -0.159 A  
ENDBRANCH   5   6
ENDBRANCH   4   5
ENDBRANCH   2   4
TORSDOF 3
ENDMDL
MODEL      160
REMARK 921   NORMALIZED FREE ENERGY PREDICTED BY IDOCK:   -3.01 KCAL/MOL
REMARK 922        TOTAL FREE ENERGY PREDICTED BY IDOCK:   -3.73 KCAL/MOL
REMARK 923 INTER-LIGAND FREE ENERGY PREDICTED BY IDOCK:   -4.55 KCAL/MOL
REMARK 924 INTRA-LIGAND FREE ENERGY PREDICTED BY IDOCK:    0.82 KCAL/MOL
REMARK 927      BINDING AFFINITY PREDICTED BY RF-SCORE:    0.00 PKD
ROOT
HETATM    1  C   UNL     1      -9.796  19.044  68.685  1.00  0.00    -0.413 C  
HETATM    2  N   UNL     1     -11.098  18.453  68.409  1.00  0.00     0.001 NA 
HETATM    3  H   UNL     1     -11.585  18.953  67.665  1.00  0.00     0.000 HD 
ENDROOT
BRANCH   2   4
HETATM    4  C   UNL     1     -10.986  17.020  68.108  1.00  0.00    -0.263 C  
BRANCH   4   5
HETATM    5  C   UNL     1     -11.751  16.206  69.165  1.00  0.00    -0.239 C  
BRANCH   5   6
HETATM    6  C   UNL     1     -11.692  14.713  68.925  1.00  0.00    -0.343 C  
HETATM    7  C   UNL     1     -10.601  13.995  68.564  1.00  0.00    -0.260 C  
HETATM    8  C   UNL     1      -9.314  14.696  68.351  1.00  0.00    -0.201 A  
HETATM    9  C   UNL     1      -8.617  15.274  69.421  1.00  0.00    -0.226 A  
HETATM   10  C   UNL     1      -7.412  15.938  69.201  1.00  0.00    -0.210 A  
HETATM   11  C   UNL     1      -6.889  16.023  67.912  1.00  0.00    -0.158 A  
HETATM   12  C   UNL     1      -7.567  15.435  66.842  1.00  0.00    -0.111 A  
HETATM   13  C   UNL     1      -8.780  14.766  67.055  1.00  0.00    -0.258 A  
HETATM   14  C   UNL     1      -9.498  14.083  65.919  1.00  0.00    -0.106 C  
HETATM   15  C   UNL     1      -9.430  12.560  66.058  1.00  0.00    -0.154 C  
HETATM   16  C   UNL     1     -10.188  11.884  67.190  1.00  0.00    -0.230 A  
HETATM   17  C   UNL     1     -10.291  10.478  67.092  1.00  0.00    -0.285 A  
HETATM   18  C   UNL     1     -10.935   9.722  68.071  1.00  0.00    -0.236 A  
HETATM   19  C   UNL     1     -11.483  10.356  69.175  1.00  0.00    -0.261 A  
HETATM   20  C   UNL     1     -11.379  11.743  69.301  1.00  0.00    -0.348 A  
HETATM   21  C   UNL     1     -10.740  12.530  68.320  1.00  0.00    -0.246 A  
ENDBRANCH   5   6
ENDBRANCH   4   5
ENDBRANCH   2   4
TORSDOF 3
ENDMDL
MODEL      161
REMARK 921   NORMALIZED FREE ENERGY PREDICTED BY IDOCK:   -3.00 KCAL/MOL
REMARK 922        TOTAL FREE ENERGY PREDICTED BY IDOCK:   -3.72 KCAL/MOL
REMARK 923 INTER-LIGAND FREE ENERGY PREDICTED BY IDOCK:   -3.44 KCAL/MOL
REMARK 924 INTRA-LIGAND FREE ENERGY PREDICTED BY IDOCK:   -0.28 KCAL/MOL
REMARK 927      BINDING AFFINITY PREDICTED BY RF-SCORE:    0.00 PKD
ROOT
HETATM    1  C   UNL     1      -6.327   9.808  62.985  1.00  0.00    -0.112 C  
HETATM    2  N   UNL     1      -6.367  10.624  64.190  1.00  0.00    -0.368 NA 
HETATM    3  H   UNL     1      -7.323  10.757  64.519  1.00  0.00     0.000 HD 
ENDROOT
BRANCH   2   4
HETATM    4  C   UNL     1      -5.509  10.070  65.244  1.00  0.00    -0.067 C  
BRANCH   4   5
HETATM    5  C   UNL     1      -5.612  10.938  66.509  1.00  0.00    -0.099 C  
BRANCH   5   6
HETATM    6  C   UNL     1      -7.025  11.391  66.807  1.00  0.00    -0.128 C  
HETATM    7  C   UNL     1      -7.954  10.720  67.530  1.00  0.00    -0.110 C  
HETATM    8  C   UNL     1      -7.611   9.394  68.092  1.00  0.00    -0.083 A  
HETATM    9  C   UNL     1      -6.672   9.265  69.125  1.00  0.00    -0.050 A  
HETATM   10  C   UNL     1      -6.354   8.008  69.635  1.00  0.00    -0.033 A  
HETATM   11  C   UNL     1      -6.978   6.871  69.125  1.00  0.00    -0.078 A  
HETATM   12  C   UNL     1      -7.928   6.991  68.110  1.00  0.00    -0.119 A  
HETATM   13  C   UNL     1      -8.253   8.251  67.590  1.00  0.00    -0.127 A  
HETATM   14  C   UNL     1      -9.313   8.402  66.528  1.00  0.00    -0.259 C  
HETATM   15  C   UNL     1     -10.566   9.078  67.091  1.00  0.00    -0.291 C  
HETATM   16  C   UNL     1     -10.501  10.542  67.497  1.00  0.00    -0.284 A  
HETATM   17  C   UNL     1     -11.748  11.155  67.751  1.00  0.00    -0.220 A  
HETATM   18  C   UNL     1     -11.840  12.484  68.158  1.00  0.00    -0.371 A  
HETATM   19  C   UNL     1     -10.684  13.231  68.328  1.00  0.00    -0.267 A  
HETATM   20  C   UNL     1      -9.440  12.642  68.099  1.00  0.00    -0.218 A  
HETATM   21  C   UNL     1      -9.321  11.300  67.678  1.00  0.00    -0.162 A  
ENDBRANCH   5   6
ENDBRANCH   4   5
ENDBRANCH   2   4
TORSDOF 3
ENDMDL
MODEL      162
REMARK 921   NORMALIZED FREE ENERGY PREDICTED BY IDOCK:   -2.98 KCAL/MOL
REMARK 922        TOTAL FREE ENERGY PREDICTED BY IDOCK:   -3.69 KCAL/MOL
REMARK 923 INTER-LIGAND FREE ENERGY PREDICTED BY IDOCK:   -3.39 KCAL/MOL
REMARK 924 INTRA-LIGAND FREE ENERGY PREDICTED BY IDOCK:   -0.31 KCAL/MOL
REMARK 927      BINDING AFFINITY PREDICTED BY RF-SCORE:    0.00 PKD
ROOT
HETATM    1  C   UNL     1     -10.692   5.283  73.788  1.00  0.00    -0.294 C  
HETATM    2  N   UNL     1     -11.070   6.515  73.109  1.00  0.00    -0.446 NA 
HETATM    3  H   UNL     1     -10.290   6.903  72.579  1.00  0.00     0.000 HD 
ENDROOT
BRANCH   2   4
HETATM    4  C   UNL     1     -12.252   6.321  72.261  1.00  0.00    -0.153 C  
BRANCH   4   5
HETATM    5  C   UNL     1     -12.006   6.940  70.875  1.00  0.00    -0.430 C  
BRANCH   5   6
HETATM    6  C   UNL     1     -10.719   7.734  70.797  1.00  0.00    -0.230 C  
HETATM    7  C   UNL     1      -9.551   7.327  70.243  1.00  0.00    -0.165 C  
HETATM    8  C   UNL     1      -9.464   5.970  69.658  1.00  0.00    -0.167 A  
HETATM    9  C   UNL     1     -10.167   5.636  68.492  1.00  0.00    -0.253 A  
HETATM   10  C   UNL     1     -10.081   4.351  67.960  1.00  0.00     0.002 A  
HETATM   11  C   UNL     1      -9.285   3.392  68.583  1.00  0.00    -0.229 A  
HETATM   12  C   UNL     1      -8.566   3.720  69.735  1.00  0.00    -0.106 A  
HETATM   13  C   UNL     1      -8.648   5.010  70.276  1.00  0.00    -0.116 A  
HETATM   14  C   UNL     1      -7.840   5.393  71.490  1.00  0.00    -0.110 C  
HETATM   15  C   UNL     1      -6.719   6.369  71.121  1.00  0.00    -0.058 C  
HETATM   16  C   UNL     1      -7.077   7.780  70.683  1.00  0.00    -0.049 A  
HETATM   17  C   UNL     1      -5.995   8.687  70.619  1.00  0.00    -0.032 A  
HETATM   18  C   UNL     1      -6.170  10.006  70.208  1.00  0.00    -0.094 A  
HETATM   19  C   UNL     1      -7.432  10.449  69.843  1.00  0.00    -0.134 A  
HETATM   20  C   UNL     1      -8.514   9.567  69.882  1.00  0.00    -0.198 A  
HETATM   21  C   UNL     1      -8.363   8.229  70.303  1.00  0.00    -0.123 A  
ENDBRANCH   5   6
ENDBRANCH   4   5
ENDBRANCH   2   4
TORSDOF 3
ENDMDL
MODEL      163
REMARK 921   NORMALIZED FREE ENERGY PREDICTED BY IDOCK:   -2.94 KCAL/MOL
REMARK 922        TOTAL FREE ENERGY PREDICTED BY IDOCK:   -3.65 KCAL/MOL
REMARK 923 INTER-LIGAND FREE ENERGY PREDICTED BY IDOCK:   -3.42 KCAL/MOL
REMARK 924 INTRA-LIGAND FREE ENERGY PREDICTED BY IDOCK:   -0.23 KCAL/MOL
REMARK 927      BINDING AFFINITY PREDICTED BY RF-SCORE:    0.00 PKD
ROOT
HETATM    1  C   UNL     1     -10.673  11.853  66.256  1.00  0.00    -0.271 C  
HETATM    2  N   UNL     1      -9.756  10.900  66.862  1.00  0.00    -0.178 NA 
HETATM    3  H   UNL     1      -8.823  11.297  66.972  1.00  0.00     0.000 HD 
ENDROOT
BRANCH   2   4
HETATM    4  C   UNL     1     -10.275  10.388  68.136  1.00  0.00    -0.161 C  
BRANCH   4   5
HETATM    5  C   UNL     1     -10.744   8.934  67.961  1.00  0.00    -0.168 C  
BRANCH   5   6
HETATM    6  C   UNL     1      -9.769   7.922  68.522  1.00  0.00    -0.167 C  
HETATM    7  C   UNL     1      -9.839   7.316  69.732  1.00  0.00    -0.177 C  
HETATM    8  C   UNL     1     -10.953   7.657  70.646  1.00  0.00    -0.259 A  
HETATM    9  C   UNL     1     -12.273   7.287  70.351  1.00  0.00    -0.008 A  
HETATM   10  C   UNL     1     -13.310   7.625  71.218  1.00  0.00    -0.276 A  
HETATM   11  C   UNL     1     -13.037   8.326  72.390  1.00  0.00    -0.200 A  
HETATM   12  C   UNL     1     -11.724   8.683  72.702  1.00  0.00    -0.206 A  
HETATM   13  C   UNL     1     -10.674   8.348  71.835  1.00  0.00    -0.373 A  
HETATM   14  C   UNL     1      -9.246   8.682  72.182  1.00  0.00    -0.326 C  
HETATM   15  C   UNL     1      -8.450   7.419  72.518  1.00  0.00    -0.131 C  
HETATM   16  C   UNL     1      -8.143   6.418  71.416  1.00  0.00    -0.113 A  
HETATM   17  C   UNL     1      -7.190   5.428  71.745  1.00  0.00    -0.085 A  
HETATM   18  C   UNL     1      -6.831   4.430  70.842  1.00  0.00    -0.036 A  
HETATM   19  C   UNL     1      -7.424   4.393  69.589  1.00  0.00    -0.051 A  
HETATM   20  C   UNL     1      -8.380   5.351  69.247  1.00  0.00    -0.096 A  
HETATM   21  C   UNL     1      -8.754   6.377  70.141  1.00  0.00    -0.139 A  
ENDBRANCH   5   6
ENDBRANCH   4   5
ENDBRANCH   2   4
TORSDOF 3
ENDMDL
MODEL      164
REMARK 921   NORMALIZED FREE ENERGY PREDICTED BY IDOCK:   -2.94 KCAL/MOL
REMARK 922        TOTAL FREE ENERGY PREDICTED BY IDOCK:   -3.65 KCAL/MOL
REMARK 923 INTER-LIGAND FREE ENERGY PREDICTED BY IDOCK:   -3.44 KCAL/MOL
REMARK 924 INTRA-LIGAND FREE ENERGY PREDICTED BY IDOCK:   -0.21 KCAL/MOL
REMARK 927      BINDING AFFINITY PREDICTED BY RF-SCORE:    0.00 PKD
ROOT
HETATM    1  C   UNL     1     -12.614  11.967  63.492  1.00  0.00    -0.507 C  
HETATM    2  N   UNL     1     -11.805  12.524  64.567  1.00  0.00    -0.363 NA 
HETATM    3  H   UNL     1     -12.313  12.532  65.451  1.00  0.00     0.000 HD 
ENDROOT
BRANCH   2   4
HETATM    4  C   UNL     1     -10.520  11.825  64.691  1.00  0.00    -0.299 C  
BRANCH   4   5
HETATM    5  C   UNL     1     -10.256  11.480  66.167  1.00  0.00    -0.272 C  
BRANCH   5   6
HETATM    6  C   UNL     1      -9.328  12.461  66.851  1.00  0.00    -0.213 C  
HETATM    7  C   UNL     1      -8.044  12.235  67.220  1.00  0.00    -0.182 C  
HETATM    8  C   UNL     1      -7.445  10.905  66.971  1.00  0.00    -0.122 A  
HETATM    9  C   UNL     1      -7.178  10.462  65.667  1.00  0.00    -0.146 A  
HETATM   10  C   UNL     1      -6.622   9.203  65.450  1.00  0.00    -0.069 A  
HETATM   11  C   UNL     1      -6.319   8.380  66.532  1.00  0.00    -0.055 A  
HETATM   12  C   UNL     1      -6.564   8.819  67.835  1.00  0.00    -0.061 A  
HETATM   13  C   UNL     1      -7.123  10.083  68.062  1.00  0.00    -0.081 A  
HETATM   14  C   UNL     1      -7.348  10.591  69.464  1.00  0.00    -0.148 C  
HETATM   15  C   UNL     1      -6.376  11.725  69.802  1.00  0.00    -0.125 C  
HETATM   16  C   UNL     1      -6.521  13.063  69.095  1.00  0.00    -0.108 A  
HETATM   17  C   UNL     1      -5.768  14.124  69.647  1.00  0.00    -0.101 A  
HETATM   18  C   UNL     1      -5.783  15.399  69.087  1.00  0.00    -0.100 A  
HETATM   19  C   UNL     1      -6.545  15.642  67.954  1.00  0.00    -0.171 A  
HETATM   20  C   UNL     1      -7.284  14.605  67.381  1.00  0.00    -0.182 A  
HETATM   21  C   UNL     1      -7.292  13.308  67.935  1.00  0.00    -0.134 A  
ENDBRANCH   5   6
ENDBRANCH   4   5
ENDBRANCH   2   4
TORSDOF 3
ENDMDL
MODEL      165
REMARK 921   NORMALIZED FREE ENERGY PREDICTED BY IDOCK:   -2.92 KCAL/MOL
REMARK 922        TOTAL FREE ENERGY PREDICTED BY IDOCK:   -3.63 KCAL/MOL
REMARK 923 INTER-LIGAND FREE ENERGY PREDICTED BY IDOCK:   -3.48 KCAL/MOL
REMARK 924 INTRA-LIGAND FREE ENERGY PREDICTED BY IDOCK:   -0.15 KCAL/MOL
REMARK 927      BINDING AFFINITY PREDICTED BY RF-SCORE:    0.00 PKD
ROOT
HETATM    1  C   UNL     1     -11.721  12.917  63.715  1.00  0.00    -0.492 C  
HETATM    2  N   UNL     1     -11.318  11.546  63.994  1.00  0.00    -0.367 NA 
HETATM    3  H   UNL     1     -10.737  11.168  63.246  1.00  0.00     0.000 HD 
ENDROOT
BRANCH   2   4
HETATM    4  C   UNL     1     -10.653  11.436  65.298  1.00  0.00    -0.277 C  
BRANCH   4   5
HETATM    5  C   UNL     1     -10.493   9.954  65.676  1.00  0.00     0.026 C  
BRANCH   5   6
HETATM    6  C   UNL     1      -9.846   9.750  67.029  1.00  0.00    -0.245 C  
HETATM    7  C   UNL     1      -9.258   8.617  67.482  1.00  0.00    -0.151 C  
HETATM    8  C   UNL     1      -9.236   7.418  66.612  1.00  0.00    -0.196 A  
HETATM    9  C   UNL     1      -8.465   7.386  65.441  1.00  0.00    -0.101 A  
HETATM   10  C   UNL     1      -8.464   6.253  64.629  1.00  0.00     0.047 A  
HETATM   11  C   UNL     1      -9.224   5.141  64.985  1.00  0.00    -0.024 A  
HETATM   12  C   UNL     1      -9.981   5.157  66.158  1.00  0.00    -0.216 A  
HETATM   13  C   UNL     1      -9.989   6.292  66.980  1.00  0.00    -0.201 A  
HETATM   14  C   UNL     1     -10.760   6.307  68.274  1.00  0.00    -0.356 C  
HETATM   15  C   UNL     1      -9.817   6.292  69.480  1.00  0.00    -0.183 C  
HETATM   16  C   UNL     1      -8.956   7.513  69.764  1.00  0.00    -0.141 A  
HETATM   17  C   UNL     1      -8.321   7.525  71.026  1.00  0.00    -0.113 A  
HETATM   18  C   UNL     1      -7.481   8.567  71.412  1.00  0.00    -0.116 A  
HETATM   19  C   UNL     1      -7.249   9.619  70.540  1.00  0.00    -0.143 A  
HETATM   20  C   UNL     1      -7.853   9.621  69.281  1.00  0.00    -0.098 A  
HETATM   21  C   UNL     1      -8.714   8.582  68.871  1.00  0.00    -0.131 A  
ENDBRANCH   5   6
ENDBRANCH   4   5
ENDBRANCH   2   4
TORSDOF 3
ENDMDL
MODEL      166
REMARK 921   NORMALIZED FREE ENERGY PREDICTED BY IDOCK:   -2.84 KCAL/MOL
REMARK 922        TOTAL FREE ENERGY PREDICTED BY IDOCK:   -3.53 KCAL/MOL
REMARK 923 INTER-LIGAND FREE ENERGY PREDICTED BY IDOCK:   -3.30 KCAL/MOL
REMARK 924 INTRA-LIGAND FREE ENERGY PREDICTED BY IDOCK:   -0.23 KCAL/MOL
REMARK 927      BINDING AFFINITY PREDICTED BY RF-SCORE:    0.00 PKD
ROOT
HETATM    1  C   UNL     1     -11.285  16.163  69.994  1.00  0.00    -0.357 C  
HETATM    2  N   UNL     1      -9.833  16.208  69.891  1.00  0.00    -0.047 NA 
HETATM    3  H   UNL     1      -9.447  17.001  70.403  1.00  0.00     0.000 HD 
ENDROOT
BRANCH   2   4
HETATM    4  C   UNL     1      -9.224  14.944  70.321  1.00  0.00     0.869 C  
BRANCH   4   5
HETATM    5  C   UNL     1      -8.319  14.396  69.204  1.00  0.00     0.056 C  
BRANCH   5   6
HETATM    6  C   UNL     1      -9.091  13.908  67.998  1.00  0.00    -0.192 C  
HETATM    7  C   UNL     1      -9.265  14.569  66.828  1.00  0.00    -0.286 C  
HETATM    8  C   UNL     1      -8.677  15.918  66.667  1.00  0.00    -0.324 A  
HETATM    9  C   UNL     1      -7.289  16.101  66.598  1.00  0.00    -0.156 A  
HETATM   10  C   UNL     1      -6.752  17.380  66.457  1.00  0.00    -0.284 A  
HETATM   11  C   UNL     1      -7.598  18.484  66.374  1.00  0.00    -0.287 A  
HETATM   12  C   UNL     1      -8.983  18.310  66.422  1.00  0.00    -0.257 A  
HETATM   13  C   UNL     1      -9.530  17.028  66.565  1.00  0.00    -0.295 A  
HETATM   14  C   UNL     1     -11.023  16.819  66.570  1.00  0.00     0.142 C  
HETATM   15  C   UNL     1     -11.486  16.120  65.289  1.00  0.00     0.206 C  
HETATM   16  C   UNL     1     -11.097  14.669  65.052  1.00  0.00    -0.401 A  
HETATM   17  C   UNL     1     -11.776  14.026  63.994  1.00  0.00    -0.276 A  
HETATM   18  C   UNL     1     -11.503  12.705  63.645  1.00  0.00    -0.563 A  
HETATM   19  C   UNL     1     -10.535  11.998  64.344  1.00  0.00    -0.353 A  
HETATM   20  C   UNL     1      -9.839  12.618  65.383  1.00  0.00    -0.157 A  
HETATM   21  C   UNL     1     -10.105  13.952  65.760  1.00  0.00    -0.336 A  
ENDBRANCH   5   6
ENDBRANCH   4   5
ENDBRANCH   2   4
TORSDOF 3
ENDMDL
MODEL      167
REMARK 921   NORMALIZED FREE ENERGY PREDICTED BY IDOCK:   -2.83 KCAL/MOL
REMARK 922        TOTAL FREE ENERGY PREDICTED BY IDOCK:   -3.52 KCAL/MOL
REMARK 923 INTER-LIGAND FREE ENERGY PREDICTED BY IDOCK:   -3.36 KCAL/MOL
REMARK 924 INTRA-LIGAND FREE ENERGY PREDICTED BY IDOCK:   -0.16 KCAL/MOL
REMARK 927      BINDING AFFINITY PREDICTED BY RF-SCORE:    0.00 PKD
ROOT
HETATM    1  C   UNL     1     -12.984  12.286  70.926  1.00  0.00     0.023 C  
HETATM    2  N   UNL     1     -12.586  10.988  71.452  1.00  0.00    -0.399 NA 
HETATM    3  H   UNL     1     -13.396  10.435  71.733  1.00  0.00     0.000 HD 
ENDROOT
BRANCH   2   4
HETATM    4  C   UNL     1     -11.741  10.258  70.499  1.00  0.00    -0.331 C  
BRANCH   4   5
HETATM    5  C   UNL     1     -11.295   8.922  71.118  1.00  0.00    -0.357 C  
BRANCH   5   6
HETATM    6  C   UNL     1      -9.971   8.428  70.577  1.00  0.00    -0.205 C  
HETATM    7  C   UNL     1      -9.287   7.333  70.990  1.00  0.00    -0.158 C  
HETATM    8  C   UNL     1      -9.837   6.513  72.093  1.00  0.00    -0.167 A  
HETATM    9  C   UNL     1     -11.004   5.755  71.920  1.00  0.00    -0.318 A  
HETATM   10  C   UNL     1     -11.513   4.995  72.972  1.00  0.00    -0.344 A  
HETATM   11  C   UNL     1     -10.856   4.979  74.200  1.00  0.00    -0.191 A  
HETATM   12  C   UNL     1      -9.683   5.715  74.376  1.00  0.00    -0.202 A  
HETATM   13  C   UNL     1      -9.165   6.482  73.325  1.00  0.00    -0.140 A  
HETATM   14  C   UNL     1      -7.873   7.243  73.483  1.00  0.00    -0.123 C  
HETATM   15  C   UNL     1      -6.754   6.609  72.653  1.00  0.00    -0.064 C  
HETATM   16  C   UNL     1      -6.823   6.678  71.136  1.00  0.00    -0.059 A  
HETATM   17  C   UNL     1      -5.639   6.312  70.459  1.00  0.00    -0.018 A  
HETATM   18  C   UNL     1      -5.565   6.302  69.067  1.00  0.00    -0.015 A  
HETATM   19  C   UNL     1      -6.680   6.650  68.320  1.00  0.00    -0.068 A  
HETATM   20  C   UNL     1      -7.867   7.000  68.967  1.00  0.00    -0.115 A  
HETATM   21  C   UNL     1      -7.963   7.026  70.374  1.00  0.00    -0.113 A  
ENDBRANCH   5   6
ENDBRANCH   4   5
ENDBRANCH   2   4
TORSDOF 3
ENDMDL
MODEL      168
REMARK 921   NORMALIZED FREE ENERGY PREDICTED BY IDOCK:   -2.83 KCAL/MOL
REMARK 922        TOTAL FREE ENERGY PREDICTED BY IDOCK:   -3.52 KCAL/MOL
REMARK 923 INTER-LIGAND FREE ENERGY PREDICTED BY IDOCK:   -3.30 KCAL/MOL
REMARK 924 INTRA-LIGAND FREE ENERGY PREDICTED BY IDOCK:   -0.22 KCAL/MOL
REMARK 927      BINDING AFFINITY PREDICTED BY RF-SCORE:    0.00 PKD
ROOT
HETATM    1  C   UNL     1      -6.985   7.900  71.772  1.00  0.00    -0.068 C  
HETATM    2  N   UNL     1      -6.229   9.145  71.779  1.00  0.00    -0.182 NA 
HETATM    3  H   UNL     1      -5.224   8.971  71.808  1.00  0.00     0.000 HD 
ENDROOT
BRANCH   2   4
HETATM    4  C   UNL     1      -6.593  10.002  70.645  1.00  0.00    -0.086 C  
BRANCH   4   5
HETATM    5  C   UNL     1      -6.853   9.136  69.401  1.00  0.00    -0.048 C  
BRANCH   5   6
HETATM    6  C   UNL     1      -7.690   9.835  68.352  1.00  0.00    -0.081 C  
HETATM    7  C   UNL     1      -8.449   9.244  67.398  1.00  0.00    -0.122 C  
HETATM    8  C   UNL     1      -8.483   7.766  67.316  1.00  0.00    -0.118 A  
HETATM    9  C   UNL     1      -9.093   6.998  68.318  1.00  0.00    -0.126 A  
HETATM   10  C   UNL     1      -9.107   5.607  68.229  1.00  0.00    -0.112 A  
HETATM   11  C   UNL     1      -8.522   4.974  67.135  1.00  0.00    -0.106 A  
HETATM   12  C   UNL     1      -7.929   5.731  66.123  1.00  0.00    -0.102 A  
HETATM   13  C   UNL     1      -7.909   7.130  66.204  1.00  0.00    -0.105 A  
HETATM   14  C   UNL     1      -7.317   7.963  65.096  1.00  0.00    -0.071 C  
HETATM   15  C   UNL     1      -8.408   8.714  64.328  1.00  0.00    -0.138 C  
HETATM   16  C   UNL     1      -9.164   9.837  65.020  1.00  0.00    -0.307 A  
HETATM   17  C   UNL     1      -9.955  10.645  64.172  1.00  0.00    -0.406 A  
HETATM   18  C   UNL     1     -10.724  11.694  64.671  1.00  0.00    -0.371 A  
HETATM   19  C   UNL     1     -10.726  11.955  66.033  1.00  0.00    -0.326 A  
HETATM   20  C   UNL     1      -9.965  11.160  66.892  1.00  0.00    -0.230 A  
HETATM   21  C   UNL     1      -9.172  10.097  66.409  1.00  0.00    -0.190 A  
ENDBRANCH   5   6
ENDBRANCH   4   5
ENDBRANCH   2   4
TORSDOF 3
ENDMDL
MODEL      169
REMARK 921   NORMALIZED FREE ENERGY PREDICTED BY IDOCK:   -2.79 KCAL/MOL
REMARK 922        TOTAL FREE ENERGY PREDICTED BY IDOCK:   -3.47 KCAL/MOL
REMARK 923 INTER-LIGAND FREE ENERGY PREDICTED BY IDOCK:   -3.27 KCAL/MOL
REMARK 924 INTRA-LIGAND FREE ENERGY PREDICTED BY IDOCK:   -0.20 KCAL/MOL
REMARK 927      BINDING AFFINITY PREDICTED BY RF-SCORE:    0.00 PKD
ROOT
HETATM    1  C   UNL     1     -13.336   8.442  71.707  1.00  0.00    -0.357 C  
HETATM    2  N   UNL     1     -12.388   8.975  70.738  1.00  0.00    -0.490 NA 
HETATM    3  H   UNL     1     -12.612   8.671  69.791  1.00  0.00     0.000 HD 
ENDROOT
BRANCH   2   4
HETATM    4  C   UNL     1     -12.295  10.437  70.825  1.00  0.00    -0.367 C  
BRANCH   4   5
HETATM    5  C   UNL     1     -12.010  11.024  69.432  1.00  0.00    -0.408 C  
BRANCH   5   6
HETATM    6  C   UNL     1     -10.547  10.969  69.050  1.00  0.00    -0.258 C  
HETATM    7  C   UNL     1      -9.769  12.014  68.677  1.00  0.00    -0.104 C  
HETATM    8  C   UNL     1     -10.367  13.367  68.600  1.00  0.00    -0.213 A  
HETATM    9  C   UNL     1     -10.776  14.046  69.757  1.00  0.00     0.160 A  
HETATM   10  C   UNL     1     -11.345  15.314  69.665  1.00  0.00    -0.304 A  
HETATM   11  C   UNL     1     -11.502  15.919  68.420  1.00  0.00    -0.348 A  
HETATM   12  C   UNL     1     -11.080  15.259  67.264  1.00  0.00    -0.325 A  
HETATM   13  C   UNL     1     -10.508  13.983  67.347  1.00  0.00    -0.263 A  
HETATM   14  C   UNL     1     -10.003  13.278  66.114  1.00  0.00    -0.295 C  
HETATM   15  C   UNL     1      -8.474  13.206  66.106  1.00  0.00     0.809 C  
HETATM   16  C   UNL     1      -7.766  12.326  67.124  1.00  0.00    -0.134 A  
HETATM   17  C   UNL     1      -6.391  12.109  66.884  1.00  0.00    -0.011 A  
HETATM   18  C   UNL     1      -5.610  11.345  67.749  1.00  0.00    -0.046 A  
HETATM   19  C   UNL     1      -6.185  10.787  68.881  1.00  0.00    -0.041 A  
HETATM   20  C   UNL     1      -7.539  11.002  69.147  1.00  0.00    -0.113 A  
HETATM   21  C   UNL     1      -8.352  11.764  68.282  1.00  0.00    -0.159 A  
ENDBRANCH   5   6
ENDBRANCH   4   5
ENDBRANCH   2   4
TORSDOF 3
ENDMDL
MODEL      170
REMARK 921   NORMALIZED FREE ENERGY PREDICTED BY IDOCK:   -2.78 KCAL/MOL
REMARK 922        TOTAL FREE ENERGY PREDICTED BY IDOCK:   -3.46 KCAL/MOL
REMARK 923 INTER-LIGAND FREE ENERGY PREDICTED BY IDOCK:   -3.23 KCAL/MOL
REMARK 924 INTRA-LIGAND FREE ENERGY PREDICTED BY IDOCK:   -0.23 KCAL/MOL
REMARK 927      BINDING AFFINITY PREDICTED BY RF-SCORE:    0.00 PKD
ROOT
HETATM    1  C   UNL     1      -8.257  20.077  67.192  1.00  0.00    -0.322 C  
HETATM    2  N   UNL     1      -7.049  19.739  66.451  1.00  0.00    -0.225 NA 
HETATM    3  H   UNL     1      -6.210  20.008  66.964  1.00  0.00     0.000 HD 
ENDROOT
BRANCH   2   4
HETATM    4  C   UNL     1      -7.023  18.319  66.084  1.00  0.00    -0.266 C  
BRANCH   4   5
HETATM    5  C   UNL     1      -8.042  17.542  66.936  1.00  0.00    -0.254 C  
BRANCH   5   6
HETATM    6  C   UNL     1      -7.573  16.152  67.307  1.00  0.00    -0.217 C  
HETATM    7  C   UNL     1      -8.255  14.995  67.131  1.00  0.00    -0.251 C  
HETATM    8  C   UNL     1      -9.611  15.040  66.538  1.00  0.00    -0.299 A  
HETATM    9  C   UNL     1      -9.804  15.392  65.194  1.00  0.00    -0.136 A  
HETATM   10  C   UNL     1     -11.088  15.439  64.655  1.00  0.00    -0.361 A  
HETATM   11  C   UNL     1     -12.189  15.125  65.449  1.00  0.00     0.227 A  
HETATM   12  C   UNL     1     -12.006  14.756  66.783  1.00  0.00    -0.210 A  
HETATM   13  C   UNL     1     -10.718  14.707  67.334  1.00  0.00    -0.280 A  
HETATM   14  C   UNL     1     -10.500  14.262  68.758  1.00  0.00    -0.249 C  
HETATM   15  C   UNL     1      -9.823  12.890  68.810  1.00  0.00     0.023 C  
HETATM   16  C   UNL     1      -8.380  12.755  68.351  1.00  0.00    -0.119 A  
HETATM   17  C   UNL     1      -7.753  11.531  68.676  1.00  0.00    -0.139 A  
HETATM   18  C   UNL     1      -6.441  11.258  68.296  1.00  0.00    -0.056 A  
HETATM   19  C   UNL     1      -5.727  12.202  67.573  1.00  0.00    -0.117 A  
HETATM   20  C   UNL     1      -6.330  13.412  67.226  1.00  0.00     0.204 A  
HETATM   21  C   UNL     1      -7.655  13.715  67.607  1.00  0.00    -0.186 A  
ENDBRANCH   5   6
ENDBRANCH   4   5
ENDBRANCH   2   4
TORSDOF 3
ENDMDL
MODEL      171
REMARK 921   NORMALIZED FREE ENERGY PREDICTED BY IDOCK:   -2.75 KCAL/MOL
REMARK 922        TOTAL FREE ENERGY PREDICTED BY IDOCK:   -3.43 KCAL/MOL
REMARK 923 INTER-LIGAND FREE ENERGY PREDICTED BY IDOCK:   -3.17 KCAL/MOL
REMARK 924 INTRA-LIGAND FREE ENERGY PREDICTED BY IDOCK:   -0.26 KCAL/MOL
REMARK 927      BINDING AFFINITY PREDICTED BY RF-SCORE:    0.00 PKD
ROOT
HETATM    1  C   UNL     1     -10.066  14.182  64.862  1.00  0.00    -0.246 C  
HETATM    2  N   UNL     1      -9.704  13.286  65.952  1.00  0.00    -0.437 NA 
HETATM    3  H   UNL     1      -9.099  13.749  66.630  1.00  0.00     0.000 HD 
ENDROOT
BRANCH   2   4
HETATM    4  C   UNL     1     -10.892  12.714  66.595  1.00  0.00    -0.258 C  
BRANCH   4   5
HETATM    5  C   UNL     1     -10.862  11.180  66.473  1.00  0.00    -0.302 C  
BRANCH   5   6
HETATM    6  C   UNL     1     -10.023  10.514  67.541  1.00  0.00    -0.204 C  
HETATM    7  C   UNL     1      -8.962   9.694  67.342  1.00  0.00    -0.141 C  
HETATM    8  C   UNL     1      -8.553   9.369  65.956  1.00  0.00    -0.154 A  
HETATM    9  C   UNL     1      -7.994  10.344  65.117  1.00  0.00    -0.134 A  
HETATM   10  C   UNL     1      -7.623  10.023  63.813  1.00  0.00    -0.141 A  
HETATM   11  C   UNL     1      -7.797   8.724  63.340  1.00  0.00    -0.148 A  
HETATM   12  C   UNL     1      -8.335   7.742  64.174  1.00  0.00     0.073 A  
HETATM   13  C   UNL     1      -8.712   8.056  65.486  1.00  0.00    -0.134 A  
HETATM   14  C   UNL     1      -9.247   6.996  66.414  1.00  0.00    -0.186 C  
HETATM   15  C   UNL     1      -8.239   6.669  67.518  1.00  0.00    -0.122 C  
HETATM   16  C   UNL     1      -7.938   7.712  68.583  1.00  0.00    -0.122 A  
HETATM   17  C   UNL     1      -7.211   7.244  69.701  1.00  0.00    -0.079 A  
HETATM   18  C   UNL     1      -6.842   8.094  70.741  1.00  0.00    -0.038 A  
HETATM   19  C   UNL     1      -7.185   9.437  70.683  1.00  0.00    -0.134 A  
HETATM   20  C   UNL     1      -7.889   9.925  69.581  1.00  0.00    -0.156 A  
HETATM   21  C   UNL     1      -8.282   9.082  68.520  1.00  0.00    -0.112 A  
ENDBRANCH   5   6
ENDBRANCH   4   5
ENDBRANCH   2   4
TORSDOF 3
ENDMDL
MODEL      172
REMARK 921   NORMALIZED FREE ENERGY PREDICTED BY IDOCK:   -2.73 KCAL/MOL
REMARK 922        TOTAL FREE ENERGY PREDICTED BY IDOCK:   -3.41 KCAL/MOL
REMARK 923 INTER-LIGAND FREE ENERGY PREDICTED BY IDOCK:   -3.22 KCAL/MOL
REMARK 924 INTRA-LIGAND FREE ENERGY PREDICTED BY IDOCK:   -0.18 KCAL/MOL
REMARK 927      BINDING AFFINITY PREDICTED BY RF-SCORE:    0.00 PKD
ROOT
HETATM    1  C   UNL     1     -12.502   8.484  71.698  1.00  0.00    -0.330 C  
HETATM    2  N   UNL     1     -12.362   7.375  70.764  1.00  0.00    -0.546 NA 
HETATM    3  H   UNL     1     -12.838   7.568  69.883  1.00  0.00     0.000 HD 
ENDROOT
BRANCH   2   4
HETATM    4  C   UNL     1     -10.952   7.028  70.549  1.00  0.00    -0.265 C  
BRANCH   4   5
HETATM    5  C   UNL     1     -10.789   6.342  69.182  1.00  0.00    -0.403 C  
BRANCH   5   6
HETATM    6  C   UNL     1     -10.247   7.265  68.112  1.00  0.00    -0.222 C  
HETATM    7  C   UNL     1      -8.951   7.610  67.922  1.00  0.00    -0.128 C  
HETATM    8  C   UNL     1      -7.920   7.072  68.839  1.00  0.00    -0.120 A  
HETATM    9  C   UNL     1      -7.588   5.709  68.838  1.00  0.00    -0.088 A  
HETATM   10  C   UNL     1      -6.622   5.218  69.714  1.00  0.00    -0.042 A  
HETATM   11  C   UNL     1      -5.973   6.085  70.591  1.00  0.00    -0.029 A  
HETATM   12  C   UNL     1      -6.283   7.446  70.586  1.00  0.00    -0.035 A  
HETATM   13  C   UNL     1      -7.253   7.948  69.709  1.00  0.00    -0.066 A  
HETATM   14  C   UNL     1      -7.563   9.422  69.658  1.00  0.00    -0.095 C  
HETATM   15  C   UNL     1      -7.058  10.047  68.355  1.00  0.00    -0.072 C  
HETATM   16  C   UNL     1      -7.728   9.671  67.042  1.00  0.00    -0.095 A  
HETATM   17  C   UNL     1      -7.387  10.480  65.935  1.00  0.00    -0.142 A  
HETATM   18  C   UNL     1      -7.904  10.237  64.665  1.00  0.00    -0.123 A  
HETATM   19  C   UNL     1      -8.769   9.171  64.470  1.00  0.00    -0.192 A  
HETATM   20  C   UNL     1      -9.108   8.348  65.545  1.00  0.00    -0.108 A  
HETATM   21  C   UNL     1      -8.604   8.580  66.842  1.00  0.00    -0.121 A  
ENDBRANCH   5   6
ENDBRANCH   4   5
ENDBRANCH   2   4
TORSDOF 3
ENDMDL
MODEL      173
REMARK 921   NORMALIZED FREE ENERGY PREDICTED BY IDOCK:   -2.57 KCAL/MOL
REMARK 922        TOTAL FREE ENERGY PREDICTED BY IDOCK:   -3.21 KCAL/MOL
REMARK 923 INTER-LIGAND FREE ENERGY PREDICTED BY IDOCK:   -2.92 KCAL/MOL
REMARK 924 INTRA-LIGAND FREE ENERGY PREDICTED BY IDOCK:   -0.29 KCAL/MOL
REMARK 927      BINDING AFFINITY PREDICTED BY RF-SCORE:    0.00 PKD
ROOT
HETATM    1  C   UNL     1      -7.531   9.792  63.415  1.00  0.00    -0.124 C  
HETATM    2  N   UNL     1      -7.863   8.873  64.495  1.00  0.00    -0.119 NA 
HETATM    3  H   UNL     1      -8.872   8.753  64.586  1.00  0.00     0.000 HD 
ENDROOT
BRANCH   2   4
HETATM    4  C   UNL     1      -7.182   7.584  64.333  1.00  0.00    -0.081 C  
BRANCH   4   5
HETATM    5  C   UNL     1      -6.255   7.330  65.534  1.00  0.00    -0.038 C  
BRANCH   5   6
HETATM    6  C   UNL     1      -6.836   7.808  66.847  1.00  0.00    -0.072 C  
HETATM    7  C   UNL     1      -7.669   7.115  67.662  1.00  0.00    -0.112 C  
HETATM    8  C   UNL     1      -8.100   5.755  67.265  1.00  0.00    -0.102 A  
HETATM    9  C   UNL     1      -7.193   4.687  67.235  1.00  0.00    -0.073 A  
HETATM   10  C   UNL     1      -7.614   3.415  66.850  1.00  0.00    -0.076 A  
HETATM   11  C   UNL     1      -8.946   3.199  66.501  1.00  0.00    -0.163 A  
HETATM   12  C   UNL     1      -9.861   4.253  66.546  1.00  0.00    -0.238 A  
HETATM   13  C   UNL     1      -9.446   5.535  66.931  1.00  0.00    -0.140 A  
HETATM   14  C   UNL     1     -10.431   6.671  67.033  1.00  0.00    -0.369 C  
HETATM   15  C   UNL     1     -10.671   7.064  68.493  1.00  0.00    -0.219 C  
HETATM   16  C   UNL     1      -9.549   7.722  69.279  1.00  0.00    -0.159 A  
HETATM   17  C   UNL     1      -9.928   8.290  70.516  1.00  0.00    -0.198 A  
HETATM   18  C   UNL     1      -9.000   8.902  71.355  1.00  0.00    -0.300 A  
HETATM   19  C   UNL     1      -7.666   8.954  70.980  1.00  0.00    -0.155 A  
HETATM   20  C   UNL     1      -7.265   8.386  69.769  1.00  0.00    -0.056 A  
HETATM   21  C   UNL     1      -8.187   7.768  68.899  1.00  0.00    -0.127 A  
ENDBRANCH   5   6
ENDBRANCH   4   5
ENDBRANCH   2   4
TORSDOF 3
ENDMDL
MODEL      174
REMARK 921   NORMALIZED FREE ENERGY PREDICTED BY IDOCK:   -2.50 KCAL/MOL
REMARK 922        TOTAL FREE ENERGY PREDICTED BY IDOCK:   -3.14 KCAL/MOL
REMARK 923 INTER-LIGAND FREE ENERGY PREDICTED BY IDOCK:   -2.87 KCAL/MOL
REMARK 924 INTRA-LIGAND FREE ENERGY PREDICTED BY IDOCK:   -0.27 KCAL/MOL
REMARK 927      BINDING AFFINITY PREDICTED BY RF-SCORE:    0.00 PKD
ROOT
HETATM    1  C   UNL     1      -6.252  11.971  69.028  1.00  0.00    -0.079 C  
HETATM    2  N   UNL     1      -6.668  10.631  68.638  1.00  0.00    -0.056 NA 
HETATM    3  H   UNL     1      -7.549  10.648  68.126  1.00  0.00     0.000 HD 
ENDROOT
BRANCH   2   4
HETATM    4  C   UNL     1      -5.618   9.942  67.879  1.00  0.00    -0.039 C  
BRANCH   4   5
HETATM    5  C   UNL     1      -5.668   8.433  68.176  1.00  0.00    -0.035 C  
BRANCH   5   6
HETATM    6  C   UNL     1      -6.951   8.000  68.850  1.00  0.00    -0.062 C  
HETATM    7  C   UNL     1      -7.895   7.173  68.338  1.00  0.00    -0.122 C  
HETATM    8  C   UNL     1      -7.710   6.625  66.975  1.00  0.00    -0.103 A  
HETATM    9  C   UNL     1      -6.701   5.692  66.699  1.00  0.00    -0.058 A  
HETATM   10  C   UNL     1      -6.535   5.194  65.408  1.00  0.00    -0.036 A  
HETATM   11  C   UNL     1      -7.382   5.615  64.385  1.00  0.00    -0.065 A  
HETATM   12  C   UNL     1      -8.402   6.530  64.654  1.00  0.00     0.007 A  
HETATM   13  C   UNL     1      -8.575   7.037  65.949  1.00  0.00    -0.152 A  
HETATM   14  C   UNL     1      -9.702   7.987  66.266  1.00  0.00    -0.197 C  
HETATM   15  C   UNL     1     -10.766   7.311  67.135  1.00  0.00    -0.413 C  
HETATM   16  C   UNL     1     -10.427   6.941  68.570  1.00  0.00    -0.229 A  
HETATM   17  C   UNL     1     -11.527   6.571  69.376  1.00  0.00    -0.346 A  
HETATM   18  C   UNL     1     -11.364   6.182  70.703  1.00  0.00    -0.368 A  
HETATM   19  C   UNL     1     -10.092   6.145  71.255  1.00  0.00    -0.227 A  
HETATM   20  C   UNL     1      -8.988   6.490  70.474  1.00  0.00    -0.152 A  
HETATM   21  C   UNL     1      -9.129   6.896  69.130  1.00  0.00    -0.136 A  
ENDBRANCH   5   6
ENDBRANCH   4   5
ENDBRANCH   2   4
TORSDOF 3
ENDMDL
MODEL      175
REMARK 921   NORMALIZED FREE ENERGY PREDICTED BY IDOCK:   -2.46 KCAL/MOL
REMARK 922        TOTAL FREE ENERGY PREDICTED BY IDOCK:   -3.09 KCAL/MOL
REMARK 923 INTER-LIGAND FREE ENERGY PREDICTED BY IDOCK:   -2.93 KCAL/MOL
REMARK 924 INTRA-LIGAND FREE ENERGY PREDICTED BY IDOCK:   -0.17 KCAL/MOL
REMARK 927      BINDING AFFINITY PREDICTED BY RF-SCORE:    0.00 PKD
ROOT
HETATM    1  C   UNL     1     -10.065   4.873  73.187  1.00  0.00    -0.161 C  
HETATM    2  N   UNL     1     -10.308   6.103  72.446  1.00  0.00    -0.189 NA 
HETATM    3  H   UNL     1     -11.006   6.686  72.908  1.00  0.00     0.000 HD 
ENDROOT
BRANCH   2   4
HETATM    4  C   UNL     1      -9.063   6.843  72.208  1.00  0.00    -0.134 C  
BRANCH   4   5
HETATM    5  C   UNL     1      -8.964   7.231  70.723  1.00  0.00    -0.152 C  
BRANCH   5   6
HETATM    6  C   UNL     1      -9.692   8.516  70.393  1.00  0.00    -0.193 C  
HETATM    7  C   UNL     1      -9.570   9.246  69.258  1.00  0.00    -0.161 C  
HETATM    8  C   UNL     1      -8.625   8.797  68.210  1.00  0.00    -0.134 A  
HETATM    9  C   UNL     1      -8.866   7.631  67.468  1.00  0.00    -0.124 A  
HETATM   10  C   UNL     1      -7.961   7.218  66.492  1.00  0.00    -0.115 A  
HETATM   11  C   UNL     1      -6.815   7.970  66.241  1.00  0.00    -0.058 A  
HETATM   12  C   UNL     1      -6.577   9.142  66.962  1.00  0.00    -0.064 A  
HETATM   13  C   UNL     1      -7.480   9.565  67.946  1.00  0.00    -0.083 A  
HETATM   14  C   UNL     1      -7.262  10.853  68.697  1.00  0.00    -0.088 C  
HETATM   15  C   UNL     1      -8.287  11.913  68.284  1.00  0.00    -0.159 C  
HETATM   16  C   UNL     1      -9.746  11.723  68.663  1.00  0.00    -0.135 A  
HETATM   17  C   UNL     1     -10.571  12.856  68.482  1.00  0.00    -0.270 A  
HETATM   18  C   UNL     1     -11.936  12.819  68.763  1.00  0.00    -0.278 A  
HETATM   19  C   UNL     1     -12.509  11.644  69.224  1.00  0.00     0.110 A  
HETATM   20  C   UNL     1     -11.717  10.507  69.395  1.00  0.00    -0.295 A  
HETATM   21  C   UNL     1     -10.332  10.522  69.126  1.00  0.00    -0.240 A  
ENDBRANCH   5   6
ENDBRANCH   4   5
ENDBRANCH   2   4
TORSDOF 3
ENDMDL
MODEL      176
REMARK 921   NORMALIZED FREE ENERGY PREDICTED BY IDOCK:   -2.39 KCAL/MOL
REMARK 922        TOTAL FREE ENERGY PREDICTED BY IDOCK:   -3.00 KCAL/MOL
REMARK 923 INTER-LIGAND FREE ENERGY PREDICTED BY IDOCK:   -2.79 KCAL/MOL
REMARK 924 INTRA-LIGAND FREE ENERGY PREDICTED BY IDOCK:   -0.21 KCAL/MOL
REMARK 927      BINDING AFFINITY PREDICTED BY RF-SCORE:    0.00 PKD
ROOT
HETATM    1  C   UNL     1      -5.741   9.291  67.550  1.00  0.00    -0.042 C  
HETATM    2  N   UNL     1      -6.711   8.236  67.293  1.00  0.00    -0.062 NA 
HETATM    3  H   UNL     1      -7.404   8.525  66.603  1.00  0.00     0.000 HD 
ENDROOT
BRANCH   2   4
HETATM    4  C   UNL     1      -6.052   6.984  66.901  1.00  0.00    -0.037 C  
BRANCH   4   5
HETATM    5  C   UNL     1      -5.888   6.075  68.130  1.00  0.00    -0.016 C  
BRANCH   5   6
HETATM    6  C   UNL     1      -6.898   6.358  69.221  1.00  0.00    -0.065 C  
HETATM    7  C   UNL     1      -8.170   5.894  69.285  1.00  0.00    -0.113 C  
HETATM    8  C   UNL     1      -8.680   5.034  68.194  1.00  0.00    -0.106 A  
HETATM    9  C   UNL     1      -8.184   3.736  68.002  1.00  0.00    -0.093 A  
HETATM   10  C   UNL     1      -8.669   2.943  66.963  1.00  0.00    -0.137 A  
HETATM   11  C   UNL     1      -9.659   3.436  66.115  1.00  0.00    -0.064 A  
HETATM   12  C   UNL     1     -10.171   4.720  66.310  1.00  0.00    -0.315 A  
HETATM   13  C   UNL     1      -9.689   5.524  67.351  1.00  0.00    -0.147 A  
HETATM   14  C   UNL     1     -10.267   6.893  67.604  1.00  0.00    -0.235 C  
HETATM   15  C   UNL     1     -11.088   6.915  68.896  1.00  0.00    -0.171 C  
HETATM   16  C   UNL     1     -10.376   6.764  70.231  1.00  0.00    -0.224 A  
HETATM   17  C   UNL     1     -11.158   7.058  71.371  1.00  0.00    -0.274 A  
HETATM   18  C   UNL     1     -10.645   6.938  72.661  1.00  0.00    -0.262 A  
HETATM   19  C   UNL     1      -9.338   6.512  72.841  1.00  0.00    -0.144 A  
HETATM   20  C   UNL     1      -8.551   6.200  71.731  1.00  0.00    -0.133 A  
HETATM   21  C   UNL     1      -9.045   6.322  70.415  1.00  0.00    -0.157 A  
ENDBRANCH   5   6
ENDBRANCH   4   5
ENDBRANCH   2   4
TORSDOF 3
ENDMDL
MODEL      177
REMARK 921   NORMALIZED FREE ENERGY PREDICTED BY IDOCK:   -2.36 KCAL/MOL
REMARK 922        TOTAL FREE ENERGY PREDICTED BY IDOCK:   -2.98 KCAL/MOL
REMARK 923 INTER-LIGAND FREE ENERGY PREDICTED BY IDOCK:   -2.75 KCAL/MOL
REMARK 924 INTRA-LIGAND FREE ENERGY PREDICTED BY IDOCK:   -0.23 KCAL/MOL
REMARK 927      BINDING AFFINITY PREDICTED BY RF-SCORE:    0.00 PKD
ROOT
HETATM    1  C   UNL     1     -13.798   8.303  72.212  1.00  0.00    -0.229 C  
HETATM    2  N   UNL     1     -12.555   7.625  71.873  1.00  0.00    -0.364 NA 
HETATM    3  H   UNL     1     -12.378   6.837  72.496  1.00  0.00     0.000 HD 
ENDROOT
BRANCH   2   4
HETATM    4  C   UNL     1     -12.534   7.211  70.465  1.00  0.00    -0.001 C  
BRANCH   4   5
HETATM    5  C   UNL     1     -11.402   6.194  70.238  1.00  0.00    -0.414 C  
BRANCH   5   6
HETATM    6  C   UNL     1     -10.175   6.802  69.595  1.00  0.00    -0.207 C  
HETATM    7  C   UNL     1      -8.924   6.840  70.115  1.00  0.00    -0.149 C  
HETATM    8  C   UNL     1      -8.683   6.261  71.456  1.00  0.00    -0.134 A  
HETATM    9  C   UNL     1      -8.763   4.878  71.674  1.00  0.00    -0.137 A  
HETATM   10  C   UNL     1      -8.542   4.350  72.945  1.00  0.00    -0.105 A  
HETATM   11  C   UNL     1      -8.231   5.198  74.006  1.00  0.00    -0.104 A  
HETATM   12  C   UNL     1      -8.131   6.575  73.795  1.00  0.00    -0.108 A  
HETATM   13  C   UNL     1      -8.352   7.114  72.521  1.00  0.00    -0.120 A  
HETATM   14  C   UNL     1      -8.199   8.592  72.267  1.00  0.00    -0.168 C  
HETATM   15  C   UNL     1      -6.960   8.880  71.415  1.00  0.00    -0.095 C  
HETATM   16  C   UNL     1      -6.940   8.440  69.960  1.00  0.00    -0.043 A  
HETATM   17  C   UNL     1      -5.887   8.971  69.182  1.00  0.00    -0.039 A  
HETATM   18  C   UNL     1      -5.728   8.634  67.839  1.00  0.00    -0.039 A  
HETATM   19  C   UNL     1      -6.615   7.748  67.246  1.00  0.00    -0.063 A  
HETATM   20  C   UNL     1      -7.653   7.198  67.999  1.00  0.00    -0.111 A  
HETATM   21  C   UNL     1      -7.840   7.531  69.357  1.00  0.00    -0.121 A  
ENDBRANCH   5   6
ENDBRANCH   4   5
ENDBRANCH   2   4
TORSDOF 3
ENDMDL
MODEL      178
REMARK 921   NORMALIZED FREE ENERGY PREDICTED BY IDOCK:   -2.36 KCAL/MOL
REMARK 922        TOTAL FREE ENERGY PREDICTED BY IDOCK:   -2.97 KCAL/MOL
REMARK 923 INTER-LIGAND FREE ENERGY PREDICTED BY IDOCK:   -2.74 KCAL/MOL
REMARK 924 INTRA-LIGAND FREE ENERGY PREDICTED BY IDOCK:   -0.23 KCAL/MOL
REMARK 927      BINDING AFFINITY PREDICTED BY RF-SCORE:    0.00 PKD
ROOT
HETATM    1  C   UNL     1      -7.565   7.809  69.645  1.00  0.00    -0.092 C  
HETATM    2  N   UNL     1      -8.514   6.716  69.487  1.00  0.00    -0.131 NA 
HETATM    3  H   UNL     1      -8.608   6.175  70.347  1.00  0.00     0.000 HD 
ENDROOT
BRANCH   2   4
HETATM    4  C   UNL     1      -9.816   7.199  69.013  1.00  0.00    -0.156 C  
BRANCH   4   5
HETATM    5  C   UNL     1     -10.722   6.004  68.672  1.00  0.00    -0.363 C  
BRANCH   5   6
HETATM    6  C   UNL     1     -10.542   5.504  67.255  1.00  0.00    -0.294 C  
HETATM    7  C   UNL     1      -9.726   4.500  66.850  1.00  0.00    -0.226 C  
HETATM    8  C   UNL     1      -8.890   3.801  67.852  1.00  0.00    -0.138 A  
HETATM    9  C   UNL     1      -9.466   2.978  68.830  1.00  0.00    -0.176 A  
HETATM   10  C   UNL     1      -8.665   2.335  69.772  1.00  0.00    -0.120 A  
HETATM   11  C   UNL     1      -7.282   2.501  69.739  1.00  0.00    -0.043 A  
HETATM   12  C   UNL     1      -6.697   3.304  68.757  1.00  0.00    -0.044 A  
HETATM   13  C   UNL     1      -7.495   3.955  67.807  1.00  0.00    -0.067 A  
HETATM   14  C   UNL     1      -6.876   4.785  66.712  1.00  0.00    -0.055 C  
HETATM   15  C   UNL     1      -7.024   4.101  65.350  1.00  0.00    -0.058 C  
HETATM   16  C   UNL     1      -8.406   3.975  64.729  1.00  0.00    -0.102 A  
HETATM   17  C   UNL     1      -8.426   3.579  63.373  1.00  0.00    -0.090 A  
HETATM   18  C   UNL     1      -9.622   3.398  62.681  1.00  0.00    -0.098 A  
HETATM   19  C   UNL     1     -10.828   3.601  63.333  1.00  0.00    -0.181 A  
HETATM   20  C   UNL     1     -10.834   3.977  64.678  1.00  0.00    -0.122 A  
HETATM   21  C   UNL     1      -9.636   4.175  65.396  1.00  0.00    -0.187 A  
ENDBRANCH   5   6
ENDBRANCH   4   5
ENDBRANCH   2   4
TORSDOF 3
ENDMDL
MODEL      179
REMARK 921   NORMALIZED FREE ENERGY PREDICTED BY IDOCK:   -2.35 KCAL/MOL
REMARK 922        TOTAL FREE ENERGY PREDICTED BY IDOCK:   -2.96 KCAL/MOL
REMARK 923 INTER-LIGAND FREE ENERGY PREDICTED BY IDOCK:   -2.71 KCAL/MOL
REMARK 924 INTRA-LIGAND FREE ENERGY PREDICTED BY IDOCK:   -0.26 KCAL/MOL
REMARK 927      BINDING AFFINITY PREDICTED BY RF-SCORE:    0.00 PKD
ROOT
HETATM    1  C   UNL     1     -10.156  10.552  67.469  1.00  0.00    -0.189 C  
HETATM    2  N   UNL     1     -11.009   9.417  67.147  1.00  0.00    -0.273 NA 
HETATM    3  H   UNL     1     -11.103   9.294  66.139  1.00  0.00     0.000 HD 
ENDROOT
BRANCH   2   4
HETATM    4  C   UNL     1     -10.536   8.188  67.795  1.00  0.00    -0.214 C  
BRANCH   4   5
HETATM    5  C   UNL     1      -9.000   8.199  67.874  1.00  0.00    -0.133 C  
BRANCH   5   6
HETATM    6  C   UNL     1      -8.467   7.709  69.203  1.00  0.00    -0.138 C  
HETATM    7  C   UNL     1      -8.096   6.442  69.507  1.00  0.00    -0.118 C  
HETATM    8  C   UNL     1      -8.224   5.386  68.477  1.00  0.00    -0.094 A  
HETATM    9  C   UNL     1      -7.407   5.382  67.337  1.00  0.00    -0.083 A  
HETATM   10  C   UNL     1      -7.547   4.386  66.373  1.00  0.00    -0.086 A  
HETATM   11  C   UNL     1      -8.496   3.380  66.544  1.00  0.00    -0.109 A  
HETATM   12  C   UNL     1      -9.301   3.365  67.685  1.00  0.00    -0.246 A  
HETATM   13  C   UNL     1      -9.168   4.363  68.659  1.00  0.00    -0.189 A  
HETATM   14  C   UNL     1      -9.995   4.333  69.918  1.00  0.00    -0.179 C  
HETATM   15  C   UNL     1      -9.132   3.997  71.137  1.00  0.00    -0.180 C  
HETATM   16  C   UNL     1      -8.100   5.005  71.618  1.00  0.00    -0.114 A  
HETATM   17  C   UNL     1      -7.539   4.739  72.887  1.00  0.00    -0.092 A  
HETATM   18  C   UNL     1      -6.563   5.563  73.442  1.00  0.00    -0.073 A  
HETATM   19  C   UNL     1      -6.117   6.669  72.735  1.00  0.00    -0.053 A  
HETATM   20  C   UNL     1      -6.644   6.943  71.472  1.00  0.00    -0.049 A  
HETATM   21  C   UNL     1      -7.640   6.129  70.893  1.00  0.00    -0.097 A  
ENDBRANCH   5   6
ENDBRANCH   4   5
ENDBRANCH   2   4
TORSDOF 3
ENDMDL
MODEL      180
REMARK 921   NORMALIZED FREE ENERGY PREDICTED BY IDOCK:   -2.31 KCAL/MOL
REMARK 922        TOTAL FREE ENERGY PREDICTED BY IDOCK:   -2.91 KCAL/MOL
REMARK 923 INTER-LIGAND FREE ENERGY PREDICTED BY IDOCK:   -2.56 KCAL/MOL
REMARK 924 INTRA-LIGAND FREE ENERGY PREDICTED BY IDOCK:   -0.35 KCAL/MOL
REMARK 927      BINDING AFFINITY PREDICTED BY RF-SCORE:    0.00 PKD
ROOT
HETATM    1  C   UNL     1      -7.071   8.076  69.912  1.00  0.00    -0.057 C  
HETATM    2  N   UNL     1      -8.219   7.183  69.836  1.00  0.00    -0.131 NA 
HETATM    3  H   UNL     1      -8.196   6.482  70.576  1.00  0.00     0.000 HD 
ENDROOT
BRANCH   2   4
HETATM    4  C   UNL     1      -9.483   7.930  69.845  1.00  0.00    -0.160 C  
BRANCH   4   5
HETATM    5  C   UNL     1     -10.215   7.729  68.507  1.00  0.00    -0.227 C  
BRANCH   5   6
HETATM    6  C   UNL     1      -9.491   8.351  67.332  1.00  0.00    -0.185 C  
HETATM    7  C   UNL     1      -8.933   7.694  66.287  1.00  0.00    -0.203 C  
HETATM    8  C   UNL     1      -8.991   6.215  66.251  1.00  0.00    -0.162 A  
HETATM    9  C   UNL     1     -10.207   5.542  66.063  1.00  0.00    -0.061 A  
HETATM   10  C   UNL     1     -10.245   4.149  66.040  1.00  0.00    -0.099 A  
HETATM   11  C   UNL     1      -9.069   3.417  66.196  1.00  0.00    -0.155 A  
HETATM   12  C   UNL     1      -7.851   4.079  66.365  1.00  0.00    -0.094 A  
HETATM   13  C   UNL     1      -7.804   5.479  66.389  1.00  0.00    -0.100 A  
HETATM   14  C   UNL     1      -6.491   6.208  66.521  1.00  0.00    -0.046 C  
HETATM   15  C   UNL     1      -6.115   6.909  65.213  1.00  0.00    -0.036 C  
HETATM   16  C   UNL     1      -6.940   8.096  64.743  1.00  0.00    -0.074 A  
HETATM   17  C   UNL     1      -6.376   8.843  63.683  1.00  0.00    -0.088 A  
HETATM   18  C   UNL     1      -7.033   9.941  63.133  1.00  0.00    -0.124 A  
HETATM   19  C   UNL     1      -8.275  10.314  63.624  1.00  0.00    -0.158 A  
HETATM   20  C   UNL     1      -8.859   9.582  64.659  1.00  0.00    -0.250 A  
HETATM   21  C   UNL     1      -8.209   8.472  65.239  1.00  0.00    -0.149 A  
ENDBRANCH   5   6
ENDBRANCH   4   5
ENDBRANCH   2   4
TORSDOF 3
ENDMDL
MODEL      181
REMARK 921   NORMALIZED FREE ENERGY PREDICTED BY IDOCK:   -2.18 KCAL/MOL
REMARK 922        TOTAL FREE ENERGY PREDICTED BY IDOCK:   -2.76 KCAL/MOL
REMARK 923 INTER-LIGAND FREE ENERGY PREDICTED BY IDOCK:   -2.57 KCAL/MOL
REMARK 924 INTRA-LIGAND FREE ENERGY PREDICTED BY IDOCK:   -0.19 KCAL/MOL
REMARK 927      BINDING AFFINITY PREDICTED BY RF-SCORE:    0.00 PKD
ROOT
HETATM    1  C   UNL     1      -7.790  15.642  68.439  1.00  0.00    -0.127 C  
HETATM    2  N   UNL     1      -8.001  14.254  68.051  1.00  0.00    -0.130 NA 
HETATM    3  H   UNL     1      -8.137  14.165  67.044  1.00  0.00     0.000 HD 
ENDROOT
BRANCH   2   4
HETATM    4  C   UNL     1      -6.913  13.391  68.525  1.00  0.00    -0.102 C  
BRANCH   4   5
HETATM    5  C   UNL     1      -7.467  11.998  68.868  1.00  0.00    -0.043 C  
BRANCH   5   6
HETATM    6  C   UNL     1      -7.630  11.106  67.656  1.00  0.00    -0.105 C  
HETATM    7  C   UNL     1      -8.531  10.105  67.505  1.00  0.00    -0.118 C  
HETATM    8  C   UNL     1      -9.460   9.797  68.615  1.00  0.00    -0.151 A  
HETATM    9  C   UNL     1     -10.475  10.693  68.982  1.00  0.00    -0.237 A  
HETATM   10  C   UNL     1     -11.335  10.391  70.036  1.00  0.00    -0.384 A  
HETATM   11  C   UNL     1     -11.196   9.189  70.725  1.00  0.00    -0.336 A  
HETATM   12  C   UNL     1     -10.201   8.281  70.355  1.00  0.00    -0.209 A  
HETATM   13  C   UNL     1      -9.331   8.577  69.297  1.00  0.00    -0.154 A  
HETATM   14  C   UNL     1      -8.284   7.587  68.854  1.00  0.00    -0.128 C  
HETATM   15  C   UNL     1      -8.632   6.991  67.488  1.00  0.00    -0.121 C  
HETATM   16  C   UNL     1      -8.580   7.879  66.255  1.00  0.00    -0.160 A  
HETATM   17  C   UNL     1      -8.652   7.202  65.017  1.00  0.00     0.105 A  
HETATM   18  C   UNL     1      -8.643   7.889  63.805  1.00  0.00     0.335 A  
HETATM   19  C   UNL     1      -8.569   9.274  63.803  1.00  0.00    -0.206 A  
HETATM   20  C   UNL     1      -8.513   9.966  65.014  1.00  0.00    -0.161 A  
HETATM   21  C   UNL     1      -8.513   9.292  66.254  1.00  0.00    -0.133 A  
ENDBRANCH   5   6
ENDBRANCH   4   5
ENDBRANCH   2   4
TORSDOF 3
ENDMDL
MODEL      182
REMARK 921   NORMALIZED FREE ENERGY PREDICTED BY IDOCK:   -1.96 KCAL/MOL
REMARK 922        TOTAL FREE ENERGY PREDICTED BY IDOCK:   -2.50 KCAL/MOL
REMARK 923 INTER-LIGAND FREE ENERGY PREDICTED BY IDOCK:   -2.29 KCAL/MOL
REMARK 924 INTRA-LIGAND FREE ENERGY PREDICTED BY IDOCK:   -0.20 KCAL/MOL
REMARK 927      BINDING AFFINITY PREDICTED BY RF-SCORE:    0.00 PKD
ROOT
HETATM    1  C   UNL     1     -10.637   7.683  72.852  1.00  0.00    -0.354 C  
HETATM    2  N   UNL     1     -10.762   7.452  71.420  1.00  0.00    -0.220 NA 
HETATM    3  H   UNL     1     -10.010   7.905  70.901  1.00  0.00     0.000 HD 
ENDROOT
BRANCH   2   4
HETATM    4  C   UNL     1     -10.838   6.019  71.111  1.00  0.00    -0.277 C  
BRANCH   4   5
HETATM    5  C   UNL     1     -10.836   5.814  69.587  1.00  0.00    -0.418 C  
BRANCH   5   6
HETATM    6  C   UNL     1      -9.733   6.575  68.884  1.00  0.00    -0.134 C  
HETATM    7  C   UNL     1      -8.413   6.266  68.882  1.00  0.00    -0.120 C  
HETATM    8  C   UNL     1      -7.947   5.085  69.644  1.00  0.00    -0.071 A  
HETATM    9  C   UNL     1      -8.282   3.784  69.243  1.00  0.00    -0.069 A  
HETATM   10  C   UNL     1      -7.843   2.685  69.978  1.00  0.00    -0.049 A  
HETATM   11  C   UNL     1      -7.058   2.875  71.113  1.00  0.00    -0.033 A  
HETATM   12  C   UNL     1      -6.703   4.166  71.510  1.00  0.00    -0.030 A  
HETATM   13  C   UNL     1      -7.141   5.277  70.777  1.00  0.00    -0.064 A  
HETATM   14  C   UNL     1      -6.726   6.674  71.164  1.00  0.00    -0.058 C  
HETATM   15  C   UNL     1      -5.745   7.260  70.146  1.00  0.00    -0.024 C  
HETATM   16  C   UNL     1      -6.237   7.594  68.747  1.00  0.00    -0.036 A  
HETATM   17  C   UNL     1      -5.352   8.368  67.963  1.00  0.00    -0.034 A  
HETATM   18  C   UNL     1      -5.659   8.727  66.653  1.00  0.00    -0.040 A  
HETATM   19  C   UNL     1      -6.858   8.312  66.092  1.00  0.00    -0.058 A  
HETATM   20  C   UNL     1      -7.741   7.534  66.842  1.00  0.00    -0.110 A  
HETATM   21  C   UNL     1      -7.456   7.165  68.173  1.00  0.00    -0.099 A  
ENDBRANCH   5   6
ENDBRANCH   4   5
ENDBRANCH   2   4
TORSDOF 3
ENDMDL
MODEL      183
REMARK 921   NORMALIZED FREE ENERGY PREDICTED BY IDOCK:   -1.82 KCAL/MOL
REMARK 922        TOTAL FREE ENERGY PREDICTED BY IDOCK:   -2.33 KCAL/MOL
REMARK 923 INTER-LIGAND FREE ENERGY PREDICTED BY IDOCK:   -2.45 KCAL/MOL
REMARK 924 INTRA-LIGAND FREE ENERGY PREDICTED BY IDOCK:    0.11 KCAL/MOL
REMARK 927      BINDING AFFINITY PREDICTED BY RF-SCORE:    0.00 PKD
ROOT
HETATM    1  C   UNL     1      -6.215  10.464  70.720  1.00  0.00    -0.033 C  
HETATM    2  N   UNL     1      -6.276  11.435  69.637  1.00  0.00    -0.103 NA 
HETATM    3  H   UNL     1      -6.352  12.388  69.994  1.00  0.00     0.000 HD 
ENDROOT
BRANCH   2   4
HETATM    4  C   UNL     1      -5.138  11.293  68.722  1.00  0.00    -0.040 C  
BRANCH   4   5
HETATM    5  C   UNL     1      -5.574  10.521  67.465  1.00  0.00    -0.044 C  
BRANCH   5   6
HETATM    6  C   UNL     1      -6.585   9.433  67.754  1.00  0.00    -0.063 C  
HETATM    7  C   UNL     1      -7.579   9.014  66.934  1.00  0.00    -0.094 C  
HETATM    8  C   UNL     1      -7.750   9.666  65.616  1.00  0.00    -0.107 A  
HETATM    9  C   UNL     1      -6.800   9.503  64.597  1.00  0.00    -0.101 A  
HETATM   10  C   UNL     1      -6.971  10.132  63.366  1.00  0.00    -0.121 A  
HETATM   11  C   UNL     1      -8.097  10.921  63.138  1.00  0.00     0.106 A  
HETATM   12  C   UNL     1      -9.058  11.075  64.139  1.00  0.00    -0.110 A  
HETATM   13  C   UNL     1      -8.893  10.446  65.381  1.00  0.00    -0.197 A  
HETATM   14  C   UNL     1      -9.945  10.562  66.454  1.00  0.00    -0.271 C  
HETATM   15  C   UNL     1     -10.675   9.232  66.657  1.00  0.00    -0.066 C  
HETATM   16  C   UNL     1      -9.923   8.056  67.261  1.00  0.00    -0.282 A  
HETATM   17  C   UNL     1     -10.726   6.963  67.657  1.00  0.00    -0.344 A  
HETATM   18  C   UNL     1     -10.171   5.807  68.201  1.00  0.00    -0.235 A  
HETATM   19  C   UNL     1      -8.796   5.713  68.354  1.00  0.00    -0.108 A  
HETATM   20  C   UNL     1      -7.981   6.774  67.954  1.00  0.00    -0.114 A  
HETATM   21  C   UNL     1      -8.520   7.958  67.409  1.00  0.00    -0.122 A  
ENDBRANCH   5   6
ENDBRANCH   4   5
ENDBRANCH   2   4
TORSDOF 3
ENDMDL
MODEL      184
REMARK 921   NORMALIZED FREE ENERGY PREDICTED BY IDOCK:   -1.63 KCAL/MOL
REMARK 922        TOTAL FREE ENERGY PREDICTED BY IDOCK:   -2.11 KCAL/MOL
REMARK 923 INTER-LIGAND FREE ENERGY PREDICTED BY IDOCK:   -2.58 KCAL/MOL
REMARK 924 INTRA-LIGAND FREE ENERGY PREDICTED BY IDOCK:    0.47 KCAL/MOL
REMARK 927      BINDING AFFINITY PREDICTED BY RF-SCORE:    0.00 PKD
ROOT
HETATM    1  C   UNL     1      -5.259  11.054  71.812  1.00  0.00     0.106 C  
HETATM    2  N   UNL     1      -5.939   9.882  72.346  1.00  0.00    -0.182 NA 
HETATM    3  H   UNL     1      -6.890  10.104  72.640  1.00  0.00     0.000 HD 
ENDROOT
BRANCH   2   4
HETATM    4  C   UNL     1      -5.918   8.767  71.392  1.00  0.00    -0.052 C  
BRANCH   4   5
HETATM    5  C   UNL     1      -5.844   9.312  69.956  1.00  0.00    -0.035 C  
BRANCH   5   6
HETATM    6  C   UNL     1      -7.142   9.930  69.485  1.00  0.00    -0.082 C  
HETATM    7  C   UNL     1      -8.228   9.270  69.014  1.00  0.00    -0.111 C  
HETATM    8  C   UNL     1      -8.185   7.794  68.910  1.00  0.00    -0.127 A  
HETATM    9  C   UNL     1      -8.155   6.987  70.057  1.00  0.00    -0.128 A  
HETATM   10  C   UNL     1      -8.105   5.599  69.940  1.00  0.00    -0.095 A  
HETATM   11  C   UNL     1      -8.095   5.006  68.680  1.00  0.00    -0.085 A  
HETATM   12  C   UNL     1      -8.144   5.800  67.532  1.00  0.00    -0.102 A  
HETATM   13  C   UNL     1      -8.193   7.197  67.640  1.00  0.00    -0.114 A  
HETATM   14  C   UNL     1      -8.296   8.066  66.413  1.00  0.00    -0.124 C  
HETATM   15  C   UNL     1      -9.678   8.717  66.312  1.00  0.00    -0.342 C  
HETATM   16  C   UNL     1     -10.074   9.780  67.325  1.00  0.00    -0.261 A  
HETATM   17  C   UNL     1     -11.240  10.512  67.010  1.00  0.00    -0.068 A  
HETATM   18  C   UNL     1     -11.736  11.499  67.859  1.00  0.00    -0.317 A  
HETATM   19  C   UNL     1     -11.080  11.771  69.050  1.00  0.00    -0.301 A  
HETATM   20  C   UNL     1      -9.935  11.049  69.391  1.00  0.00    -0.019 A  
HETATM   21  C   UNL     1      -9.409  10.051  68.544  1.00  0.00    -0.145 A  
ENDBRANCH   5   6
ENDBRANCH   4   5
ENDBRANCH   2   4
TORSDOF 3
ENDMDL
MODEL      185
REMARK 921   NORMALIZED FREE ENERGY PREDICTED BY IDOCK:   -1.26 KCAL/MOL
REMARK 922        TOTAL FREE ENERGY PREDICTED BY IDOCK:   -1.68 KCAL/MOL
REMARK 923 INTER-LIGAND FREE ENERGY PREDICTED BY IDOCK:   -1.91 KCAL/MOL
REMARK 924 INTRA-LIGAND FREE ENERGY PREDICTED BY IDOCK:    0.23 KCAL/MOL
REMARK 927      BINDING AFFINITY PREDICTED BY RF-SCORE:    0.00 PKD
ROOT
HETATM    1  C   UNL     1     -10.540   5.394  72.864  1.00  0.00    -0.229 C  
HETATM    2  N   UNL     1      -9.692   4.241  72.597  1.00  0.00    -0.138 NA 
HETATM    3  H   UNL     1     -10.112   3.622  71.904  1.00  0.00     0.000 HD 
ENDROOT
BRANCH   2   4
HETATM    4  C   UNL     1      -8.338   4.648  72.203  1.00  0.00    -0.117 C  
BRANCH   4   5
HETATM    5  C   UNL     1      -7.637   3.488  71.475  1.00  0.00    -0.052 C  
BRANCH   5   6
HETATM    6  C   UNL     1      -7.968   3.423  70.000  1.00  0.00    -0.053 C  
HETATM    7  C   UNL     1      -7.780   4.404  69.085  1.00  0.00    -0.055 C  
HETATM    8  C   UNL     1      -7.213   5.700  69.523  1.00  0.00    -0.066 A  
HETATM    9  C   UNL     1      -5.881   5.802  69.950  1.00  0.00    -0.024 A  
HETATM   10  C   UNL     1      -5.368   7.028  70.369  1.00  0.00    -0.023 A  
HETATM   11  C   UNL     1      -6.176   8.163  70.355  1.00  0.00    -0.035 A  
HETATM   12  C   UNL     1      -7.498   8.075  69.913  1.00  0.00    -0.078 A  
HETATM   13  C   UNL     1      -8.023   6.846  69.492  1.00  0.00    -0.125 A  
HETATM   14  C   UNL     1      -9.432   6.745  68.966  1.00  0.00    -0.133 C  
HETATM   15  C   UNL     1      -9.441   6.479  67.459  1.00  0.00    -0.131 C  
HETATM   16  C   UNL     1      -8.952   5.137  66.938  1.00  0.00    -0.109 A  
HETATM   17  C   UNL     1      -9.238   4.874  65.580  1.00  0.00    -0.160 A  
HETATM   18  C   UNL     1      -8.827   3.695  64.960  1.00  0.00    -0.123 A  
HETATM   19  C   UNL     1      -8.112   2.754  65.685  1.00  0.00    -0.087 A  
HETATM   20  C   UNL     1      -7.803   2.999  67.024  1.00  0.00    -0.075 A  
HETATM   21  C   UNL     1      -8.216   4.180  67.675  1.00  0.00    -0.095 A  
ENDBRANCH   5   6
ENDBRANCH   4   5
ENDBRANCH   2   4
TORSDOF 3
ENDMDL
MODEL      186
REMARK 921   NORMALIZED FREE ENERGY PREDICTED BY IDOCK:   -0.80 KCAL/MOL
REMARK 922        TOTAL FREE ENERGY PREDICTED BY IDOCK:   -1.14 KCAL/MOL
REMARK 923 INTER-LIGAND FREE ENERGY PREDICTED BY IDOCK:   -2.41 KCAL/MOL
REMARK 924 INTRA-LIGAND FREE ENERGY PREDICTED BY IDOCK:    1.26 KCAL/MOL
REMARK 927      BINDING AFFINITY PREDICTED BY RF-SCORE:    0.00 PKD
ROOT
HETATM    1  C   UNL     1      -8.671   4.452  63.053  1.00  0.00    -0.116 C  
HETATM    2  N   UNL     1      -9.251   3.407  63.884  1.00  0.00    -0.114 NA 
HETATM    3  H   UNL     1      -8.818   2.501  63.701  1.00  0.00     0.000 HD 
ENDROOT
BRANCH   2   4
HETATM    4  C   UNL     1      -9.187   3.754  65.309  1.00  0.00    -0.151 C  
BRANCH   4   5
HETATM    5  C   UNL     1     -10.275   4.790  65.641  1.00  0.00    -0.213 C  
BRANCH   5   6
HETATM    6  C   UNL     1      -9.718   6.078  66.208  1.00  0.00    -0.119 C  
HETATM    7  C   UNL     1      -8.927   6.204  67.301  1.00  0.00    -0.112 C  
HETATM    8  C   UNL     1      -8.555   4.992  68.066  1.00  0.00    -0.103 A  
HETATM    9  C   UNL     1      -7.698   4.025  67.521  1.00  0.00    -0.075 A  
HETATM   10  C   UNL     1      -7.365   2.886  68.252  1.00  0.00    -0.049 A  
HETATM   11  C   UNL     1      -7.878   2.708  69.535  1.00  0.00    -0.049 A  
HETATM   12  C   UNL     1      -8.717   3.675  70.093  1.00  0.00    -0.122 A  
HETATM   13  C   UNL     1      -9.057   4.823  69.366  1.00  0.00    -0.152 A  
HETATM   14  C   UNL     1      -9.921   5.898  69.973  1.00  0.00    -0.239 C  
HETATM   15  C   UNL     1      -9.108   7.163  70.260  1.00  0.00    -0.156 C  
HETATM   16  C   UNL     1      -8.579   7.986  69.096  1.00  0.00    -0.137 A  
HETATM   17  C   UNL     1      -8.076   9.262  69.436  1.00  0.00    -0.108 A  
HETATM   18  C   UNL     1      -7.535  10.115  68.476  1.00  0.00    -0.086 A  
HETATM   19  C   UNL     1      -7.477   9.706  67.152  1.00  0.00    -0.088 A  
HETATM   20  C   UNL     1      -7.953   8.444  66.794  1.00  0.00    -0.098 A  
HETATM   21  C   UNL     1      -8.513   7.567  67.747  1.00  0.00    -0.118 A  
ENDBRANCH   5   6
ENDBRANCH   4   5
ENDBRANCH   2   4
TORSDOF 3
ENDMDL
MODEL      187
REMARK 921   NORMALIZED FREE ENERGY PREDICTED BY IDOCK:   -0.03 KCAL/MOL
REMARK 922        TOTAL FREE ENERGY PREDICTED BY IDOCK:   -0.23 KCAL/MOL
REMARK 923 INTER-LIGAND FREE ENERGY PREDICTED BY IDOCK:   -0.08 KCAL/MOL
REMARK 924 INTRA-LIGAND FREE ENERGY PREDICTED BY IDOCK:   -0.15 KCAL/MOL
REMARK 927      BINDING AFFINITY PREDICTED BY RF-SCORE:    0.00 PKD
ROOT
HETATM    1  C   UNL     1     -10.499  12.095  66.146  1.00  0.00    -0.248 C  
HETATM    2  N   UNL     1      -9.380  11.538  66.894  1.00  0.00    -0.177 NA 
HETATM    3  H   UNL     1      -8.593  12.185  66.924  1.00  0.00     0.000 HD 
ENDROOT
BRANCH   2   4
HETATM    4  C   UNL     1      -9.787  11.123  68.241  1.00  0.00    -0.189 C  
BRANCH   4   5
HETATM    5  C   UNL     1      -9.995   9.599  68.276  1.00  0.00    -0.178 C  
BRANCH   5   6
HETATM    6  C   UNL     1      -9.476   8.899  67.038  1.00  0.00    -0.215 C  
HETATM    7  C   UNL     1      -8.737   7.763  67.002  1.00  0.00    -0.131 C  
HETATM    8  C   UNL     1      -8.354   7.111  68.275  1.00  0.00    -0.124 A  
HETATM    9  C   UNL     1      -9.313   6.496  69.092  1.00  0.00    -0.133 A  
HETATM   10  C   UNL     1      -8.936   5.895  70.291  1.00  0.00    -0.152 A  
HETATM   11  C   UNL     1      -7.598   5.895  70.680  1.00  0.00    -0.092 A  
HETATM   12  C   UNL     1      -6.633   6.488  69.864  1.00  0.00    -0.048 A  
HETATM   13  C   UNL     1      -7.003   7.096  68.656  1.00  0.00    -0.082 A  
HETATM   14  C   UNL     1      -5.968   7.697  67.741  1.00  0.00    -0.040 C  
HETATM   15  C   UNL     1      -5.803   6.861  66.469  1.00  0.00    -0.029 C  
HETATM   16  C   UNL     1      -6.938   6.815  65.459  1.00  0.00    -0.063 A  
HETATM   17  C   UNL     1      -6.611   6.247  64.207  1.00  0.00    -0.034 A  
HETATM   18  C   UNL     1      -7.558   6.115  63.194  1.00  0.00    -0.083 A  
HETATM   19  C   UNL     1      -8.859   6.541  63.413  1.00  0.00     0.787 A  
HETATM   20  C   UNL     1      -9.210   7.089  64.648  1.00  0.00     1.288 A  
HETATM   21  C   UNL     1      -8.267   7.241  65.685  1.00  0.00    -0.138 A  
ENDBRANCH   5   6
ENDBRANCH   4   5
ENDBRANCH   2   4
TORSDOF 3
ENDMDL
MODEL      188
REMARK 921   NORMALIZED FREE ENERGY PREDICTED BY IDOCK:    0.40 KCAL/MOL
REMARK 922        TOTAL FREE ENERGY PREDICTED BY IDOCK:    0.28 KCAL/MOL
REMARK 923 INTER-LIGAND FREE ENERGY PREDICTED BY IDOCK:   -1.44 KCAL/MOL
REMARK 924 INTRA-LIGAND FREE ENERGY PREDICTED BY IDOCK:    1.72 KCAL/MOL
REMARK 927      BINDING AFFINITY PREDICTED BY RF-SCORE:    0.00 PKD
ROOT
HETATM    1  C   UNL     1      -8.360  16.959  67.621  1.00  0.00    -0.184 C  
HETATM    2  N   UNL     1      -8.407  15.804  66.735  1.00  0.00    -0.250 NA 
HETATM    3  H   UNL     1      -7.566  15.739  66.162  1.00  0.00     0.000 HD 
ENDROOT
BRANCH   2   4
HETATM    4  C   UNL     1      -8.645  14.563  67.482  1.00  0.00    -0.189 C  
BRANCH   4   5
HETATM    5  C   UNL     1      -8.115  14.710  68.919  1.00  0.00    -0.147 C  
BRANCH   5   6
HETATM    6  C   UNL     1      -9.204  15.003  69.928  1.00  0.00     0.202 C  
HETATM    7  C   UNL     1     -10.488  14.574  69.879  1.00  0.00     0.125 C  
HETATM    8  C   UNL     1     -10.930  13.749  68.731  1.00  0.00    -0.289 A  
HETATM    9  C   UNL     1     -10.456  12.441  68.554  1.00  0.00    -0.244 A  
HETATM   10  C   UNL     1     -10.875  11.682  67.463  1.00  0.00    -0.287 A  
HETATM   11  C   UNL     1     -11.777  12.218  66.546  1.00  0.00    -0.420 A  
HETATM   12  C   UNL     1     -12.269  13.513  66.725  1.00  0.00    -0.392 A  
HETATM   13  C   UNL     1     -11.853  14.284  67.819  1.00  0.00    -0.414 A  
HETATM   14  C   UNL     1     -12.412  15.663  68.052  1.00  0.00     1.028 C  
HETATM   15  C   UNL     1     -13.336  15.685  69.273  1.00  0.00     1.944 C  
HETATM   16  C   UNL     1     -12.741  15.490  70.658  1.00  0.00    -0.487 A  
HETATM   17  C   UNL     1     -13.606  15.785  71.736  1.00  0.00    -0.374 A  
HETATM   18  C   UNL     1     -13.205  15.627  73.060  1.00  0.00    -0.664 A  
HETATM   19  C   UNL     1     -11.929  15.160  73.339  1.00  0.00    -0.497 A  
HETATM   20  C   UNL     1     -11.062  14.846  72.291  1.00  0.00     0.425 A  
HETATM   21  C   UNL     1     -11.443  15.006  70.942  1.00  0.00    -0.330 A  
ENDBRANCH   5   6
ENDBRANCH   4   5
ENDBRANCH   2   4
TORSDOF 3
ENDMDL
MODEL      189
REMARK 921   NORMALIZED FREE ENERGY PREDICTED BY IDOCK:    1.70 KCAL/MOL
REMARK 922        TOTAL FREE ENERGY PREDICTED BY IDOCK:    1.80 KCAL/MOL
REMARK 923 INTER-LIGAND FREE ENERGY PREDICTED BY IDOCK:    1.97 KCAL/MOL
REMARK 924 INTRA-LIGAND FREE ENERGY PREDICTED BY IDOCK:   -0.17 KCAL/MOL
REMARK 927      BINDING AFFINITY PREDICTED BY RF-SCORE:    0.00 PKD
ROOT
HETATM    1  C   UNL     1      -9.197  11.630  63.593  1.00  0.00     0.061 C  
HETATM    2  N   UNL     1      -9.776  11.198  64.858  1.00  0.00    -0.238 NA 
HETATM    3  H   UNL     1     -10.092  10.229  64.812  1.00  0.00     0.000 HD 
ENDROOT
BRANCH   2   4
HETATM    4  C   UNL     1      -8.846  11.408  65.974  1.00  0.00    -0.174 C  
BRANCH   4   5
HETATM    5  C   UNL     1      -9.568  12.134  67.122  1.00  0.00    -0.195 C  
BRANCH   5   6
HETATM    6  C   UNL     1      -8.621  12.829  68.076  1.00  0.00    -0.186 C  
HETATM    7  C   UNL     1      -8.771  14.068  68.605  1.00  0.00    -0.103 C  
HETATM    8  C   UNL     1      -9.955  14.874  68.229  1.00  0.00    -0.222 A  
HETATM    9  C   UNL     1     -11.243  14.508  68.645  1.00  0.00    -0.281 A  
HETATM   10  C   UNL     1     -12.347  15.273  68.274  1.00  0.00     0.330 A  
HETATM   11  C   UNL     1     -12.173  16.414  67.494  1.00  0.00     1.587 A  
HETATM   12  C   UNL     1     -10.892  16.797  67.091  1.00  0.00    -0.102 A  
HETATM   13  C   UNL     1      -9.777  16.033  67.458  1.00  0.00    -0.228 A  
HETATM   14  C   UNL     1      -8.384  16.460  67.073  1.00  0.00    -0.230 C  
HETATM   15  C   UNL     1      -7.594  16.936  68.295  1.00  0.00    -0.202 C  
HETATM   16  C   UNL     1      -7.191  15.926  69.358  1.00  0.00    -0.214 A  
HETATM   17  C   UNL     1      -6.249  16.388  70.305  1.00  0.00     0.094 A  
HETATM   18  C   UNL     1      -5.808  15.580  71.351  1.00  0.00     0.488 A  
HETATM   19  C   UNL     1      -6.306  14.293  71.480  1.00  0.00     0.438 A  
HETATM   20  C   UNL     1      -7.249  13.820  70.566  1.00  0.00     1.351 A  
HETATM   21  C   UNL     1      -7.704  14.616  69.493  1.00  0.00    -0.004 A  
ENDBRANCH   5   6
ENDBRANCH   4   5
ENDBRANCH   2   4
TORSDOF 3
ENDMDL
MODEL      190
REMARK 921   NORMALIZED FREE ENERGY PREDICTED BY IDOCK:    8.85 KCAL/MOL
REMARK 922        TOTAL FREE ENERGY PREDICTED BY IDOCK:   10.21 KCAL/MOL
REMARK 923 INTER-LIGAND FREE ENERGY PREDICTED BY IDOCK:   10.43 KCAL/MOL
REMARK 924 INTRA-LIGAND FREE ENERGY PREDICTED BY IDOCK:   -0.22 KCAL/MOL
REMARK 927      BINDING AFFINITY PREDICTED BY RF-SCORE:    0.00 PKD
ROOT
HETATM    1  C   UNL     1     -12.963  12.530  68.212  1.00  0.00     2.839 C  
HETATM    2  N   UNL     1     -12.409  13.868  68.058  1.00  0.00    -0.446 NA 
HETATM    3  H   UNL     1     -12.805  14.344  67.247  1.00  0.00     0.000 HD 
ENDROOT
BRANCH   2   4
HETATM    4  C   UNL     1     -12.573  14.663  69.280  1.00  0.00     0.128 C  
BRANCH   4   5
HETATM    5  C   UNL     1     -11.207  15.204  69.736  1.00  0.00    -0.298 C  
BRANCH   5   6
HETATM    6  C   UNL     1     -10.038  14.469  69.117  1.00  0.00    -0.145 C  
HETATM    7  C   UNL     1      -8.873  15.015  68.692  1.00  0.00    -0.185 C  
HETATM    8  C   UNL     1      -8.680  16.478  68.803  1.00  0.00    -0.259 A  
HETATM    9  C   UNL     1      -8.549  17.100  70.053  1.00  0.00     1.972 A  
HETATM   10  C   UNL     1      -8.377  18.480  70.139  1.00  0.00     2.106 A  
HETATM   11  C   UNL     1      -8.325  19.249  68.978  1.00  0.00    -0.268 A  
HETATM   12  C   UNL     1      -8.435  18.637  67.728  1.00  0.00    -0.293 A  
HETATM   13  C   UNL     1      -8.609  17.250  67.632  1.00  0.00    -0.218 A  
HETATM   14  C   UNL     1      -8.681  16.569  66.290  1.00  0.00    -0.369 C  
HETATM   15  C   UNL     1      -7.425  15.732  66.028  1.00  0.00     1.690 C  
HETATM   16  C   UNL     1      -7.180  14.482  66.857  1.00  0.00     0.666 A  
HETATM   17  C   UNL     1      -6.155  13.632  66.381  1.00  0.00     3.728 A  
HETATM   18  C   UNL     1      -5.803  12.465  67.055  1.00  0.00     0.028 A  
HETATM   19  C   UNL     1      -6.462  12.123  68.226  1.00  0.00    -0.055 A  
HETATM   20  C   UNL     1      -7.466  12.955  68.724  1.00  0.00    -0.047 A  
HETATM   21  C   UNL     1      -7.847  14.138  68.055  1.00  0.00    -0.146 A  
ENDBRANCH   5   6
ENDBRANCH   4   5
ENDBRANCH   2   4
TORSDOF 3
ENDMDL
