MODEL        1
REMARK 921   NORMALIZED FREE ENERGY PREDICTED BY IDOCK:   -7.45 KCAL/MOL
REMARK 922        TOTAL FREE ENERGY PREDICTED BY IDOCK:  -10.00 KCAL/MOL
REMARK 923 INTER-LIGAND FREE ENERGY PREDICTED BY IDOCK:   -9.19 KCAL/MOL
REMARK 924 INTRA-LIGAND FREE ENERGY PREDICTED BY IDOCK:   -0.81 KCAL/MOL
REMARK 927      BINDING AFFINITY PREDICTED BY RF-SCORE:    0.00 PKD
ROOT
HETATM    1  C   UNL     1     -10.941  12.341  66.809  1.00  0.00    -0.276 C  
HETATM    2  C   UNL     1     -12.022  11.810  70.299  1.00  0.00    -0.343 A  
HETATM    3  O   UNL     1     -10.831  10.904  66.981  1.00  0.00    -0.261 OA 
HETATM    4  C   UNL     1     -11.158  10.496  68.248  1.00  0.00    -0.284 C  
HETATM    5  C   UNL     1     -12.406  13.092  70.748  1.00  0.00    -0.321 A  
HETATM    6  C   UNL     1     -11.598  11.689  68.974  1.00  0.00    -0.379 A  
HETATM    7  O   UNL     1     -11.091   9.353  68.647  1.00  0.00    -0.089 OA 
HETATM    8  C   UNL     1     -12.405  14.169  69.837  1.00  0.00    -0.382 A  
HETATM    9  C   UNL     1     -11.986  14.008  68.512  1.00  0.00    -0.383 A  
HETATM   10  C   UNL     1     -11.536  12.765  68.107  1.00  0.00    -0.380 A  
ENDROOT
BRANCH   1  11
HETATM   11  C   UNL     1      -9.547  12.953  66.362  1.00  0.00    -0.252 C  
HETATM   12  C   UNL     1      -8.837  15.114  67.533  1.00  0.00    -0.190 A  
HETATM   13  C   UNL     1      -7.930  11.069  66.624  1.00  0.00    -0.156 C  
HETATM   14  C   UNL     1      -8.098  12.794  68.345  1.00  0.00    -0.129 C  
HETATM   15  C   UNL     1      -8.853  16.507  67.680  1.00  0.00    -0.195 A  
HETATM   16  C   UNL     1      -9.591  17.244  66.784  1.00  0.00    -0.272 A  
HETATM   17  N   UNL     1      -8.280  12.438  66.947  1.00  0.00    -0.135 NA 
HETATM   18  O   UNL     1      -9.716  18.599  66.821  1.00  0.00    -0.301 OA 
HETATM   19  C   UNL     1     -10.283  16.663  65.742  1.00  0.00    -0.307 A  
HETATM   20  C   UNL     1      -7.957  14.313  68.471  1.00  0.00    -0.145 C  
HETATM   21  O   UNL     1     -10.929  17.613  65.003  1.00  0.00    -0.780 OA 
HETATM   22  C   UNL     1     -10.282  15.287  65.545  1.00  0.00    -0.388 A  
HETATM   23  C   UNL     1      -9.561  14.491  66.473  1.00  0.00    -0.311 A  
HETATM   24  C   UNL     1     -10.657  18.807  65.758  1.00  0.00    -0.271 C  
BRANCH  22  25
HETATM   25  O   UNL     1     -10.929  14.613  64.545  1.00  0.00    -0.339 OA 
HETATM   26  C   UNL     1     -12.353  14.627  64.555  1.00  0.00    -0.398 C  
ENDBRANCH  22  25
ENDBRANCH   1  11
BRANCH   5  27
HETATM   27  O   UNL     1     -12.732  13.230  72.071  1.00  0.00    -0.212 OA 
HETATM   28  C   UNL     1     -13.812  14.085  72.415  1.00  0.00    -0.551 C  
ENDBRANCH   5  27
BRANCH   2  29
HETATM   29  O   UNL     1     -11.939  10.680  71.066  1.00  0.00    -0.343 OA 
HETATM   30  C   UNL     1     -13.158  10.026  71.397  1.00  0.00    -0.417 C  
ENDBRANCH   2  29
TORSDOF 4
ENDMDL
MODEL        2
REMARK 921   NORMALIZED FREE ENERGY PREDICTED BY IDOCK:   -6.88 KCAL/MOL
REMARK 922        TOTAL FREE ENERGY PREDICTED BY IDOCK:   -9.29 KCAL/MOL
REMARK 923 INTER-LIGAND FREE ENERGY PREDICTED BY IDOCK:   -8.56 KCAL/MOL
REMARK 924 INTRA-LIGAND FREE ENERGY PREDICTED BY IDOCK:   -0.73 KCAL/MOL
REMARK 927      BINDING AFFINITY PREDICTED BY RF-SCORE:    0.00 PKD
ROOT
HETATM    1  C   UNL     1     -10.743  11.902  66.611  1.00  0.00    -0.256 C  
HETATM    2  C   UNL     1     -11.884  11.084  70.026  1.00  0.00    -0.355 A  
HETATM    3  O   UNL     1     -10.629  10.456  66.668  1.00  0.00    -0.231 OA 
HETATM    4  C   UNL     1     -10.975   9.945  67.892  1.00  0.00    -0.223 C  
HETATM    5  C   UNL     1     -12.283  12.324  70.571  1.00  0.00    -0.300 A  
HETATM    6  C   UNL     1     -11.436  11.073  68.704  1.00  0.00    -0.375 A  
HETATM    7  O   UNL     1     -10.909   8.774  68.198  1.00  0.00    -0.120 OA 
HETATM    8  C   UNL     1     -12.272  13.471  69.751  1.00  0.00    -0.330 A  
HETATM    9  C   UNL     1     -11.829  13.421  68.425  1.00  0.00    -0.401 A  
HETATM   10  C   UNL     1     -11.365  12.217  67.929  1.00  0.00    -0.361 A  
ENDROOT
BRANCH   1  11
HETATM   11  C   UNL     1      -9.346  12.556  66.242  1.00  0.00    -0.177 C  
HETATM   12  C   UNL     1      -8.680  14.630  67.581  1.00  0.00    -0.181 A  
HETATM   13  C   UNL     1      -7.719  10.668  66.402  1.00  0.00    -0.141 C  
HETATM   14  C   UNL     1      -7.939  12.263  68.239  1.00  0.00    -0.163 C  
HETATM   15  C   UNL     1      -8.711  16.009  67.829  1.00  0.00    -0.170 A  
HETATM   16  C   UNL     1      -9.436  16.804  66.973  1.00  0.00    -0.232 A  
HETATM   17  N   UNL     1      -8.087  12.008  66.816  1.00  0.00    -0.127 NA 
HETATM   18  O   UNL     1      -9.573  18.151  67.106  1.00  0.00    -0.266 OA 
HETATM   19  C   UNL     1     -10.101  16.295  65.876  1.00  0.00    -0.357 A  
HETATM   20  C   UNL     1      -7.813  13.769  68.479  1.00  0.00    -0.132 C  
HETATM   21  O   UNL     1     -10.738  17.292  65.195  1.00  0.00    -0.687 OA 
HETATM   22  C   UNL     1     -10.083  14.938  65.580  1.00  0.00    -0.359 A  
HETATM   23  C   UNL     1      -9.375  14.081  66.463  1.00  0.00    -0.274 A  
HETATM   24  C   UNL     1     -10.493  18.430  66.039  1.00  0.00    -0.374 C  
BRANCH  22  25
HETATM   25  O   UNL     1     -10.702  14.333  64.520  1.00  0.00    -0.388 OA 
HETATM   26  C   UNL     1     -12.115  14.479  64.411  1.00  0.00    -0.472 C  
ENDBRANCH  22  25
ENDBRANCH   1  11
BRANCH   5  27
HETATM   27  O   UNL     1     -12.633  12.352  71.895  1.00  0.00    -0.116 OA 
HETATM   28  C   UNL     1     -13.599  13.303  72.318  1.00  0.00    -0.605 C  
ENDBRANCH   5  27
BRANCH   2  29
HETATM   29  O   UNL     1     -11.807   9.896  70.700  1.00  0.00    -0.277 OA 
HETATM   30  C   UNL     1     -10.602   9.622  71.405  1.00  0.00    -0.114 C  
ENDBRANCH   2  29
TORSDOF 4
ENDMDL
MODEL        3
REMARK 921   NORMALIZED FREE ENERGY PREDICTED BY IDOCK:   -6.78 KCAL/MOL
REMARK 922        TOTAL FREE ENERGY PREDICTED BY IDOCK:   -9.17 KCAL/MOL
REMARK 923 INTER-LIGAND FREE ENERGY PREDICTED BY IDOCK:   -8.86 KCAL/MOL
REMARK 924 INTRA-LIGAND FREE ENERGY PREDICTED BY IDOCK:   -0.31 KCAL/MOL
REMARK 927      BINDING AFFINITY PREDICTED BY RF-SCORE:    0.00 PKD
ROOT
HETATM    1  C   UNL     1     -10.002  15.396  68.991  1.00  0.00    -0.229 C  
HETATM    2  C   UNL     1      -7.910  17.714  67.019  1.00  0.00    -0.215 A  
HETATM    3  O   UNL     1      -8.932  14.549  68.496  1.00  0.00    -0.180 OA 
HETATM    4  C   UNL     1      -8.050  15.223  67.693  1.00  0.00    -0.158 C  
HETATM    5  C   UNL     1      -8.514  18.977  67.203  1.00  0.00    -0.280 A  
HETATM    6  C   UNL     1      -8.469  16.626  67.692  1.00  0.00    -0.200 A  
HETATM    7  O   UNL     1      -7.108  14.718  67.121  1.00  0.00    -0.192 OA 
HETATM    8  C   UNL     1      -9.601  19.097  68.094  1.00  0.00    -0.411 A  
HETATM    9  C   UNL     1     -10.128  17.986  68.762  1.00  0.00    -0.388 A  
HETATM   10  C   UNL     1      -9.578  16.742  68.511  1.00  0.00    -0.245 A  
ENDROOT
BRANCH   1  11
HETATM   11  C   UNL     1     -11.413  14.827  68.544  1.00  0.00    -0.308 C  
HETATM   12  C   UNL     1     -11.446  12.400  67.736  1.00  0.00    -0.383 A  
HETATM   13  C   UNL     1     -12.908  15.277  70.493  1.00  0.00    -0.373 C  
HETATM   14  C   UNL     1     -11.946  13.055  70.167  1.00  0.00    -0.303 C  
HETATM   15  C   UNL     1     -11.280  11.419  66.749  1.00  0.00    -0.319 A  
HETATM   16  C   UNL     1     -10.919  11.827  65.487  1.00  0.00    -0.290 A  
HETATM   17  N   UNL     1     -12.368  14.307  69.560  1.00  0.00    -0.291 NA 
HETATM   18  O   UNL     1     -10.701  10.984  64.440  1.00  0.00    -0.351 OA 
HETATM   19  C   UNL     1     -10.746  13.155  65.160  1.00  0.00    -0.315 A  
HETATM   20  C   UNL     1     -11.924  11.954  69.104  1.00  0.00    -0.336 C  
HETATM   21  O   UNL     1     -10.392  13.286  63.848  1.00  0.00    -0.326 OA 
HETATM   22  C   UNL     1     -10.918  14.164  66.100  1.00  0.00    -0.309 A  
HETATM   23  C   UNL     1     -11.254  13.779  67.424  1.00  0.00    -0.330 A  
HETATM   24  C   UNL     1     -10.257  11.913  63.440  1.00  0.00    -0.449 C  
BRANCH  22  25
HETATM   25  O   UNL     1     -10.775  15.507  65.881  1.00  0.00    -0.321 OA 
HETATM   26  C   UNL     1     -11.397  16.054  64.722  1.00  0.00    -0.280 C  
ENDBRANCH  22  25
ENDBRANCH   1  11
BRANCH   5  27
HETATM   27  O   UNL     1      -8.025  20.026  66.471  1.00  0.00    -0.301 OA 
HETATM   28  C   UNL     1      -7.097  20.906  67.089  1.00  0.00    -0.351 C  
ENDBRANCH   5  27
BRANCH   2  29
HETATM   29  O   UNL     1      -6.876  17.432  66.169  1.00  0.00    -0.255 OA 
HETATM   30  C   UNL     1      -5.558  17.697  66.635  1.00  0.00    -0.176 C  
ENDBRANCH   2  29
TORSDOF 4
ENDMDL
MODEL        4
REMARK 921   NORMALIZED FREE ENERGY PREDICTED BY IDOCK:   -6.59 KCAL/MOL
REMARK 922        TOTAL FREE ENERGY PREDICTED BY IDOCK:   -8.94 KCAL/MOL
REMARK 923 INTER-LIGAND FREE ENERGY PREDICTED BY IDOCK:   -8.58 KCAL/MOL
REMARK 924 INTRA-LIGAND FREE ENERGY PREDICTED BY IDOCK:   -0.37 KCAL/MOL
REMARK 927      BINDING AFFINITY PREDICTED BY RF-SCORE:    0.00 PKD
ROOT
HETATM    1  C   UNL     1      -9.760  15.200  65.508  1.00  0.00    -0.268 C  
HETATM    2  C   UNL     1      -8.656  18.262  67.251  1.00  0.00    -0.254 A  
HETATM    3  O   UNL     1     -10.624  16.230  64.961  1.00  0.00    -0.620 OA 
HETATM    4  C   UNL     1     -10.397  17.462  65.517  1.00  0.00    -0.060 C  
HETATM    5  C   UNL     1      -7.562  17.843  68.040  1.00  0.00    -0.238 A  
HETATM    6  C   UNL     1      -9.265  17.308  66.434  1.00  0.00    -0.278 A  
HETATM    7  O   UNL     1     -11.029  18.465  65.262  1.00  0.00    -0.563 OA 
HETATM    8  C   UNL     1      -7.098  16.516  67.924  1.00  0.00    -0.150 A  
HETATM    9  C   UNL     1      -7.726  15.590  67.084  1.00  0.00    -0.257 A  
HETATM   10  C   UNL     1      -8.845  15.991  66.378  1.00  0.00    -0.363 A  
ENDROOT
BRANCH   1  11
HETATM   11  C   UNL     1     -10.624  14.037  66.153  1.00  0.00    -0.290 C  
HETATM   12  C   UNL     1      -9.361  11.896  66.760  1.00  0.00    -0.204 A  
HETATM   13  C   UNL     1     -11.782  15.122  68.081  1.00  0.00    -0.302 C  
HETATM   14  C   UNL     1      -9.771  13.786  68.448  1.00  0.00    -0.219 C  
HETATM   15  C   UNL     1      -8.809  10.650  66.439  1.00  0.00    -0.164 A  
HETATM   16  C   UNL     1      -8.950  10.192  65.150  1.00  0.00    -0.192 A  
HETATM   17  N   UNL     1     -10.929  14.049  67.610  1.00  0.00    -0.265 NA 
HETATM   18  O   UNL     1      -8.445   9.013  64.693  1.00  0.00    -0.164 OA 
HETATM   19  C   UNL     1      -9.635  10.900  64.185  1.00  0.00    -0.277 A  
HETATM   20  C   UNL     1      -9.275  12.359  68.201  1.00  0.00    -0.205 C  
HETATM   21  O   UNL     1      -9.629  10.226  62.998  1.00  0.00    -0.315 OA 
HETATM   22  C   UNL     1     -10.216  12.132  64.462  1.00  0.00    -0.293 A  
HETATM   23  C   UNL     1     -10.058  12.654  65.772  1.00  0.00    -0.284 A  
HETATM   24  C   UNL     1      -8.784   9.102  63.301  1.00  0.00    -0.133 C  
BRANCH  22  25
HETATM   25  O   UNL     1     -10.918  12.911  63.583  1.00  0.00    -0.401 OA 
HETATM   26  C   UNL     1     -12.275  12.561  63.331  1.00  0.00    -0.517 C  
ENDBRANCH  22  25
ENDBRANCH   1  11
BRANCH   5  27
HETATM   27  O   UNL     1      -7.024  18.752  68.911  1.00  0.00    -0.291 OA 
HETATM   28  C   UNL     1      -6.204  19.786  68.387  1.00  0.00    -0.257 C  
ENDBRANCH   5  27
BRANCH   2  29
HETATM   29  O   UNL     1      -9.240  19.498  67.276  1.00  0.00    -0.299 OA 
HETATM   30  C   UNL     1     -10.118  19.783  68.359  1.00  0.00    -0.454 C  
ENDBRANCH   2  29
TORSDOF 4
ENDMDL
MODEL        5
REMARK 921   NORMALIZED FREE ENERGY PREDICTED BY IDOCK:   -6.56 KCAL/MOL
REMARK 922        TOTAL FREE ENERGY PREDICTED BY IDOCK:   -8.90 KCAL/MOL
REMARK 923 INTER-LIGAND FREE ENERGY PREDICTED BY IDOCK:   -8.99 KCAL/MOL
REMARK 924 INTRA-LIGAND FREE ENERGY PREDICTED BY IDOCK:    0.09 KCAL/MOL
REMARK 927      BINDING AFFINITY PREDICTED BY RF-SCORE:    0.00 PKD
ROOT
HETATM    1  C   UNL     1      -9.862  14.259  65.475  1.00  0.00    -0.252 C  
HETATM    2  C   UNL     1      -9.956  17.656  66.919  1.00  0.00    -0.323 A  
HETATM    3  O   UNL     1     -10.666  15.008  64.525  1.00  0.00    -0.289 OA 
HETATM    4  C   UNL     1     -10.857  16.311  64.905  1.00  0.00    -0.296 C  
HETATM    5  C   UNL     1      -9.128  17.577  68.060  1.00  0.00    -0.269 A  
HETATM    6  C   UNL     1     -10.082  16.510  66.132  1.00  0.00    -0.365 A  
HETATM    7  O   UNL     1     -11.536  17.115  64.304  1.00  0.00    -1.062 OA 
HETATM    8  C   UNL     1      -8.424  16.381  68.318  1.00  0.00    -0.195 A  
HETATM    9  C   UNL     1      -8.565  15.256  67.498  1.00  0.00    -0.190 A  
HETATM   10  C   UNL     1      -9.441  15.321  66.431  1.00  0.00    -0.326 A  
ENDROOT
BRANCH   1  11
HETATM   11  C   UNL     1     -10.670  13.007  66.019  1.00  0.00    -0.274 C  
HETATM   12  C   UNL     1      -9.284  10.944  66.621  1.00  0.00    -0.184 A  
HETATM   13  C   UNL     1     -12.023  13.918  67.910  1.00  0.00    -0.358 C  
HETATM   14  C   UNL     1      -9.939  12.722  68.351  1.00  0.00    -0.210 C  
HETATM   15  C   UNL     1      -8.617   9.758  66.287  1.00  0.00    -0.137 A  
HETATM   16  C   UNL     1      -8.645   9.347  64.976  1.00  0.00    -0.172 A  
HETATM   17  N   UNL     1     -11.063  12.933  67.452  1.00  0.00    -0.263 NA 
HETATM   18  O   UNL     1      -8.024   8.230  64.506  1.00  0.00    -0.132 OA 
HETATM   19  C   UNL     1      -9.324  10.043  63.997  1.00  0.00    -0.270 A  
HETATM   20  C   UNL     1      -9.320  11.349  68.081  1.00  0.00    -0.181 C  
HETATM   21  O   UNL     1      -9.195   9.423  62.787  1.00  0.00    -0.210 OA 
HETATM   22  C   UNL     1     -10.014  11.214  64.284  1.00  0.00    -0.306 A  
HETATM   23  C   UNL     1      -9.977  11.689  65.621  1.00  0.00    -0.274 A  
HETATM   24  C   UNL     1      -8.284   8.354  63.100  1.00  0.00    -0.127 C  
BRANCH  22  25
HETATM   25  O   UNL     1     -10.721  11.976  63.393  1.00  0.00    -0.415 OA 
HETATM   26  C   UNL     1     -12.142  11.888  63.434  1.00  0.00    -0.432 C  
ENDBRANCH  22  25
ENDBRANCH   1  11
BRANCH   5  27
HETATM   27  O   UNL     1      -9.077  18.669  68.884  1.00  0.00    -0.288 OA 
HETATM   28  C   UNL     1      -7.878  19.430  68.923  1.00  0.00    -0.335 C  
ENDBRANCH   5  27
BRANCH   2  29
HETATM   29  O   UNL     1     -10.725  18.727  66.556  1.00  0.00    -0.382 OA 
HETATM   30  C   UNL     1     -10.059  19.834  65.958  1.00  0.00    -0.477 C  
ENDBRANCH   2  29
TORSDOF 4
ENDMDL
MODEL        6
REMARK 921   NORMALIZED FREE ENERGY PREDICTED BY IDOCK:   -6.55 KCAL/MOL
REMARK 922        TOTAL FREE ENERGY PREDICTED BY IDOCK:   -8.89 KCAL/MOL
REMARK 923 INTER-LIGAND FREE ENERGY PREDICTED BY IDOCK:   -8.24 KCAL/MOL
REMARK 924 INTRA-LIGAND FREE ENERGY PREDICTED BY IDOCK:   -0.64 KCAL/MOL
REMARK 927      BINDING AFFINITY PREDICTED BY RF-SCORE:    0.00 PKD
ROOT
HETATM    1  C   UNL     1     -10.296  12.905  68.824  1.00  0.00    -0.125 C  
HETATM    2  C   UNL     1      -9.226  16.010  67.137  1.00  0.00    -0.207 A  
HETATM    3  O   UNL     1      -8.942  12.607  68.394  1.00  0.00    -0.187 OA 
HETATM    4  C   UNL     1      -8.367  13.639  67.699  1.00  0.00    -0.182 C  
HETATM    5  C   UNL     1     -10.308  16.899  67.314  1.00  0.00    -0.309 A  
HETATM    6  C   UNL     1      -9.328  14.744  67.715  1.00  0.00    -0.199 A  
HETATM    7  O   UNL     1      -7.265  13.605  67.194  1.00  0.00    -0.058 OA 
HETATM    8  C   UNL     1     -11.403  16.500  68.109  1.00  0.00    -0.150 A  
HETATM    9  C   UNL     1     -11.466  15.226  68.684  1.00  0.00    -0.350 A  
HETATM   10  C   UNL     1     -10.436  14.337  68.436  1.00  0.00    -0.249 A  
ENDROOT
BRANCH   1  11
HETATM   11  C   UNL     1     -11.313  11.842  68.232  1.00  0.00    -0.277 C  
HETATM   12  C   UNL     1     -10.288   9.940  66.862  1.00  0.00    -0.300 A  
HETATM   13  C   UNL     1     -12.635  11.082  70.209  1.00  0.00    -0.243 C  
HETATM   14  C   UNL     1     -10.784   9.727  69.371  1.00  0.00    -0.228 C  
HETATM   15  C   UNL     1      -9.784   9.402  65.671  1.00  0.00    -0.336 A  
HETATM   16  C   UNL     1      -9.788  10.197  64.550  1.00  0.00    -0.264 A  
HETATM   17  N   UNL     1     -11.803  10.721  69.078  1.00  0.00    -0.323 NA 
HETATM   18  O   UNL     1      -9.309   9.814  63.334  1.00  0.00    -0.253 OA 
HETATM   19  C   UNL     1     -10.293  11.481  64.555  1.00  0.00    -0.302 A  
HETATM   20  C   UNL     1     -10.357   9.033  68.075  1.00  0.00    -0.275 C  
HETATM   21  O   UNL     1     -10.178  12.049  63.319  1.00  0.00    -0.438 OA 
HETATM   22  C   UNL     1     -10.819  12.050  65.708  1.00  0.00    -0.287 A  
HETATM   23  C   UNL     1     -10.798  11.272  66.895  1.00  0.00    -0.333 A  
HETATM   24  C   UNL     1      -9.458  11.036  62.594  1.00  0.00    -0.289 C  
BRANCH  22  25
HETATM   25  O   UNL     1     -11.346  13.308  65.821  1.00  0.00    -0.300 OA 
HETATM   26  C   UNL     1     -12.660  13.519  65.312  1.00  0.00    -0.468 C  
ENDBRANCH  22  25
ENDBRANCH   1  11
BRANCH   5  27
HETATM   27  O   UNL     1     -10.250  18.106  66.670  1.00  0.00    -0.343 OA 
HETATM   28  C   UNL     1     -10.438  19.289  67.434  1.00  0.00    -0.459 C  
ENDBRANCH   5  27
BRANCH   2  29
HETATM   29  O   UNL     1      -8.115  16.238  66.372  1.00  0.00    -0.291 OA 
HETATM   30  C   UNL     1      -7.093  17.054  66.932  1.00  0.00    -0.216 C  
ENDBRANCH   2  29
TORSDOF 4
ENDMDL
MODEL        7
REMARK 921   NORMALIZED FREE ENERGY PREDICTED BY IDOCK:   -6.51 KCAL/MOL
REMARK 922        TOTAL FREE ENERGY PREDICTED BY IDOCK:   -8.84 KCAL/MOL
REMARK 923 INTER-LIGAND FREE ENERGY PREDICTED BY IDOCK:   -7.99 KCAL/MOL
REMARK 924 INTRA-LIGAND FREE ENERGY PREDICTED BY IDOCK:   -0.85 KCAL/MOL
REMARK 927      BINDING AFFINITY PREDICTED BY RF-SCORE:    0.00 PKD
ROOT
HETATM    1  C   UNL     1      -9.886  14.128  65.459  1.00  0.00    -0.230 C  
HETATM    2  C   UNL     1      -9.965  17.522  66.910  1.00  0.00    -0.313 A  
HETATM    3  O   UNL     1     -10.598  14.905  64.461  1.00  0.00    -0.273 OA 
HETATM    4  C   UNL     1     -10.772  16.213  64.833  1.00  0.00    -0.274 C  
HETATM    5  C   UNL     1      -9.219  17.413  68.104  1.00  0.00    -0.270 A  
HETATM    6  C   UNL     1     -10.076  16.383  66.110  1.00  0.00    -0.364 A  
HETATM    7  O   UNL     1     -11.382  17.041  64.191  1.00  0.00    -1.164 OA 
HETATM    8  C   UNL     1      -8.574  16.194  68.403  1.00  0.00    -0.189 A  
HETATM    9  C   UNL     1      -8.697  15.076  67.571  1.00  0.00    -0.194 A  
HETATM   10  C   UNL     1      -9.496  15.173  66.447  1.00  0.00    -0.325 A  
ENDROOT
BRANCH   1  11
HETATM   11  C   UNL     1     -10.770  12.902  65.942  1.00  0.00    -0.271 C  
HETATM   12  C   UNL     1     -10.170  11.905  68.220  1.00  0.00    -0.207 A  
HETATM   13  C   UNL     1     -13.120  13.730  65.775  1.00  0.00    -0.066 C  
HETATM   14  C   UNL     1     -11.973  13.708  67.931  1.00  0.00    -0.347 C  
HETATM   15  C   UNL     1      -9.414  11.060  69.043  1.00  0.00    -0.123 A  
HETATM   16  C   UNL     1      -8.449  10.277  68.454  1.00  0.00    -0.124 A  
HETATM   17  N   UNL     1     -12.084  13.138  66.598  1.00  0.00    -0.378 NA 
HETATM   18  O   UNL     1      -7.628   9.430  69.132  1.00  0.00    -0.071 OA 
HETATM   19  C   UNL     1      -8.226  10.278  67.093  1.00  0.00    -0.121 A  
HETATM   20  C   UNL     1     -11.286  12.704  68.861  1.00  0.00    -0.345 C  
HETATM   21  O   UNL     1      -7.218   9.414  66.770  1.00  0.00    -0.082 OA 
HETATM   22  C   UNL     1      -8.962  11.085  66.235  1.00  0.00    -0.185 A  
HETATM   23  C   UNL     1      -9.942  11.935  66.811  1.00  0.00    -0.215 A  
HETATM   24  C   UNL     1      -6.778   8.976  68.068  1.00  0.00    -0.068 C  
BRANCH  22  25
HETATM   25  O   UNL     1      -8.824  11.159  64.876  1.00  0.00    -0.114 OA 
HETATM   26  C   UNL     1      -9.365  10.093  64.101  1.00  0.00    -0.287 C  
ENDBRANCH  22  25
ENDBRANCH   1  11
BRANCH   5  27
HETATM   27  O   UNL     1      -9.188  18.501  68.934  1.00  0.00    -0.285 OA 
HETATM   28  C   UNL     1      -8.021  19.310  68.944  1.00  0.00    -0.318 C  
ENDBRANCH   5  27
BRANCH   2  29
HETATM   29  O   UNL     1     -10.672  18.619  66.500  1.00  0.00    -0.367 OA 
HETATM   30  C   UNL     1      -9.930  19.712  65.970  1.00  0.00    -0.422 C  
ENDBRANCH   2  29
TORSDOF 4
ENDMDL
MODEL        8
REMARK 921   NORMALIZED FREE ENERGY PREDICTED BY IDOCK:   -6.45 KCAL/MOL
REMARK 922        TOTAL FREE ENERGY PREDICTED BY IDOCK:   -8.77 KCAL/MOL
REMARK 923 INTER-LIGAND FREE ENERGY PREDICTED BY IDOCK:   -7.97 KCAL/MOL
REMARK 924 INTRA-LIGAND FREE ENERGY PREDICTED BY IDOCK:   -0.80 KCAL/MOL
REMARK 927      BINDING AFFINITY PREDICTED BY RF-SCORE:    0.00 PKD
ROOT
HETATM    1  C   UNL     1      -9.916   9.523  67.327  1.00  0.00    -0.189 C  
HETATM    2  C   UNL     1     -11.211   9.738  70.778  1.00  0.00    -0.348 A  
HETATM    3  O   UNL     1      -9.289   8.396  67.994  1.00  0.00    -0.136 OA 
HETATM    4  C   UNL     1      -9.616   8.318  69.323  1.00  0.00    -0.164 C  
HETATM    5  C   UNL     1     -12.120  10.818  70.747  1.00  0.00    -0.372 A  
HETATM    6  C   UNL     1     -10.583   9.386  69.582  1.00  0.00    -0.239 A  
HETATM    7  O   UNL     1      -9.174   7.497  70.098  1.00  0.00    -0.154 OA 
HETATM    8  C   UNL     1     -12.399  11.446  69.515  1.00  0.00    -0.211 A  
HETATM    9  C   UNL     1     -11.760  11.059  68.333  1.00  0.00    -0.329 A  
HETATM   10  C   UNL     1     -10.813  10.054  68.392  1.00  0.00    -0.277 A  
ENDROOT
BRANCH   1  11
HETATM   11  C   UNL     1      -8.816  10.477  66.698  1.00  0.00    -0.136 C  
HETATM   12  C   UNL     1      -9.139  12.984  67.090  1.00  0.00    -0.225 A  
HETATM   13  C   UNL     1      -6.651   9.578  67.558  1.00  0.00    -0.063 C  
HETATM   14  C   UNL     1      -7.683  11.522  68.616  1.00  0.00    -0.139 C  
HETATM   15  C   UNL     1      -9.703  14.226  66.771  1.00  0.00    -0.282 A  
HETATM   16  C   UNL     1     -10.545  14.295  65.686  1.00  0.00    -0.319 A  
HETATM   17  N   UNL     1      -7.534  10.718  67.414  1.00  0.00    -0.096 NA 
HETATM   18  O   UNL     1     -11.180  15.427  65.277  1.00  0.00    -0.349 OA 
HETATM   19  C   UNL     1     -10.824  13.199  64.896  1.00  0.00    -0.332 A  
HETATM   20  C   UNL     1      -8.148  12.930  68.236  1.00  0.00    -0.151 C  
HETATM   21  O   UNL     1     -11.682  13.537  63.889  1.00  0.00    -0.408 OA 
HETATM   22  C   UNL     1     -10.273  11.951  65.163  1.00  0.00    -0.277 A  
HETATM   23  C   UNL     1      -9.428  11.833  66.297  1.00  0.00    -0.238 A  
HETATM   24  C   UNL     1     -11.984  14.907  64.208  1.00  0.00    -0.338 C  
BRANCH  22  25
HETATM   25  O   UNL     1     -10.480  10.806  64.443  1.00  0.00    -0.365 OA 
HETATM   26  C   UNL     1      -9.685  10.608  63.278  1.00  0.00    -0.340 C  
ENDBRANCH  22  25
ENDBRANCH   1  11
BRANCH   5  27
HETATM   27  O   UNL     1     -12.665  11.223  71.936  1.00  0.00    -0.335 OA 
HETATM   28  C   UNL     1     -13.283  12.500  71.995  1.00  0.00    -0.419 C  
ENDBRANCH   5  27
BRANCH   2  29
HETATM   29  O   UNL     1     -10.813   9.052  71.893  1.00  0.00    -0.350 OA 
HETATM   30  C   UNL     1     -11.682   8.035  72.377  1.00  0.00    -0.386 C  
ENDBRANCH   2  29
TORSDOF 4
ENDMDL
MODEL        9
REMARK 921   NORMALIZED FREE ENERGY PREDICTED BY IDOCK:   -6.34 KCAL/MOL
REMARK 922        TOTAL FREE ENERGY PREDICTED BY IDOCK:   -8.63 KCAL/MOL
REMARK 923 INTER-LIGAND FREE ENERGY PREDICTED BY IDOCK:   -8.33 KCAL/MOL
REMARK 924 INTRA-LIGAND FREE ENERGY PREDICTED BY IDOCK:   -0.30 KCAL/MOL
REMARK 927      BINDING AFFINITY PREDICTED BY RF-SCORE:    0.00 PKD
ROOT
HETATM    1  C   UNL     1     -11.334  13.223  66.908  1.00  0.00    -0.318 C  
HETATM    2  C   UNL     1     -12.220  13.495  70.482  1.00  0.00    -0.361 A  
HETATM    3  O   UNL     1     -11.798  11.889  67.244  1.00  0.00    -0.576 OA 
HETATM    4  C   UNL     1     -12.146  11.766  68.564  1.00  0.00    -0.068 C  
HETATM    5  C   UNL     1     -12.012  14.857  70.794  1.00  0.00    -0.314 A  
HETATM    6  C   UNL     1     -12.002  13.094  69.163  1.00  0.00    -0.329 A  
HETATM    7  O   UNL     1     -12.510  10.736  69.092  1.00  0.00    -0.377 OA 
HETATM    8  C   UNL     1     -11.659  15.753  69.763  1.00  0.00    -0.359 A  
HETATM    9  C   UNL     1     -11.462  15.317  68.449  1.00  0.00    -0.358 A  
HETATM   10  C   UNL     1     -11.589  13.968  68.174  1.00  0.00    -0.369 A  
ENDROOT
BRANCH   1  11
HETATM   11  C   UNL     1      -9.859  13.168  66.330  1.00  0.00    -0.283 C  
HETATM   12  C   UNL     1      -8.091  14.496  67.615  1.00  0.00    -0.190 A  
HETATM   13  C   UNL     1      -9.362  10.728  66.132  1.00  0.00    -0.183 C  
HETATM   14  C   UNL     1      -8.529  12.003  68.041  1.00  0.00    -0.168 C  
HETATM   15  C   UNL     1      -7.409  15.681  67.919  1.00  0.00    -0.151 A  
HETATM   16  C   UNL     1      -7.755  16.821  67.233  1.00  0.00    -0.172 A  
HETATM   17  N   UNL     1      -8.968  12.021  66.655  1.00  0.00    -0.204 NA 
HETATM   18  O   UNL     1      -7.194  18.043  67.441  1.00  0.00    -0.190 OA 
HETATM   19  C   UNL     1      -8.721  16.826  66.248  1.00  0.00    -0.307 A  
HETATM   20  C   UNL     1      -7.650  13.226  68.315  1.00  0.00    -0.139 C  
HETATM   21  O   UNL     1      -8.870  18.079  65.727  1.00  0.00    -0.476 OA 
HETATM   22  C   UNL     1      -9.411  15.671  65.900  1.00  0.00    -0.321 A  
HETATM   23  C   UNL     1      -9.106  14.483  66.613  1.00  0.00    -0.277 A  
HETATM   24  C   UNL     1      -7.989  18.852  66.561  1.00  0.00    -0.277 C  
BRANCH  22  25
HETATM   25  O   UNL     1     -10.380  15.567  64.939  1.00  0.00    -0.382 OA 
HETATM   26  C   UNL     1     -11.377  16.583  64.897  1.00  0.00    -0.031 C  
ENDBRANCH  22  25
ENDBRANCH   1  11
BRANCH   5  27
HETATM   27  O   UNL     1     -12.135  15.233  72.105  1.00  0.00    -0.336 OA 
HETATM   28  C   UNL     1     -11.803  16.568  72.458  1.00  0.00    -0.349 C  
ENDBRANCH   5  27
BRANCH   2  29
HETATM   29  O   UNL     1     -12.530  12.504  71.373  1.00  0.00    -0.251 OA 
HETATM   30  C   UNL     1     -13.781  12.599  72.044  1.00  0.00    -0.210 C  
ENDBRANCH   2  29
TORSDOF 4
ENDMDL
MODEL       10
REMARK 921   NORMALIZED FREE ENERGY PREDICTED BY IDOCK:   -6.29 KCAL/MOL
REMARK 922        TOTAL FREE ENERGY PREDICTED BY IDOCK:   -8.57 KCAL/MOL
REMARK 923 INTER-LIGAND FREE ENERGY PREDICTED BY IDOCK:   -7.88 KCAL/MOL
REMARK 924 INTRA-LIGAND FREE ENERGY PREDICTED BY IDOCK:   -0.69 KCAL/MOL
REMARK 927      BINDING AFFINITY PREDICTED BY RF-SCORE:    0.00 PKD
ROOT
HETATM    1  C   UNL     1     -10.546  11.330  66.466  1.00  0.00    -0.266 C  
HETATM    2  C   UNL     1     -11.464   9.648  69.622  1.00  0.00    -0.001 A  
HETATM    3  O   UNL     1     -10.396   9.920  66.154  1.00  0.00    -0.230 OA 
HETATM    4  C   UNL     1     -10.658   9.109  67.227  1.00  0.00    -0.233 C  
HETATM    5  C   UNL     1     -11.857  10.699  70.480  1.00  0.00    -0.357 A  
HETATM    6  C   UNL     1     -11.095   9.983  68.318  1.00  0.00    -0.247 A  
HETATM    7  O   UNL     1     -10.548   7.902  67.227  1.00  0.00    -0.297 OA 
HETATM    8  C   UNL     1     -11.920  12.014  69.973  1.00  0.00    -0.400 A  
HETATM    9  C   UNL     1     -11.555  12.310  68.655  1.00  0.00    -0.372 A  
HETATM   10  C   UNL     1     -11.095  11.285  67.851  1.00  0.00    -0.325 A  
ENDROOT
BRANCH   1  11
HETATM   11  C   UNL     1      -9.188  12.104  66.199  1.00  0.00    -0.155 C  
HETATM   12  C   UNL     1      -8.854  14.280  67.503  1.00  0.00    -0.202 A  
HETATM   13  C   UNL     1      -7.412  10.393  66.594  1.00  0.00    -0.114 C  
HETATM   14  C   UNL     1      -7.959  12.021  68.330  1.00  0.00    -0.152 C  
HETATM   15  C   UNL     1      -9.040  15.656  67.685  1.00  0.00    -0.193 A  
HETATM   16  C   UNL     1      -9.750  16.345  66.731  1.00  0.00    -0.251 A  
HETATM   17  N   UNL     1      -7.944  11.704  66.911  1.00  0.00    -0.163 NA 
HETATM   18  O   UNL     1     -10.026  17.677  66.791  1.00  0.00    -0.291 OA 
HETATM   19  C   UNL     1     -10.254  15.736  65.601  1.00  0.00    -0.380 A  
HETATM   20  C   UNL     1      -8.001  13.540  68.513  1.00  0.00    -0.119 C  
HETATM   21  O   UNL     1     -10.914  16.641  64.820  1.00  0.00    -0.705 OA 
HETATM   22  C   UNL     1     -10.080  14.377  65.368  1.00  0.00    -0.359 A  
HETATM   23  C   UNL     1      -9.383  13.626  66.350  1.00  0.00    -0.203 A  
HETATM   24  C   UNL     1     -10.861  17.827  65.633  1.00  0.00     0.050 C  
BRANCH  22  25
HETATM   25  O   UNL     1     -10.533  13.678  64.282  1.00  0.00    -0.392 OA 
HETATM   26  C   UNL     1     -11.942  13.591  64.097  1.00  0.00    -0.448 C  
ENDBRANCH  22  25
ENDBRANCH   1  11
BRANCH   5  27
HETATM   27  O   UNL     1     -12.129  10.385  71.785  1.00  0.00    -0.268 OA 
HETATM   28  C   UNL     1     -13.337   9.697  72.076  1.00  0.00    -0.457 C  
ENDBRANCH   5  27
BRANCH   2  29
HETATM   29  O   UNL     1     -11.322   8.334  69.973  1.00  0.00    -0.154 OA 
HETATM   30  C   UNL     1     -10.153   7.976  70.702  1.00  0.00    -0.194 C  
ENDBRANCH   2  29
TORSDOF 4
ENDMDL
MODEL       11
REMARK 921   NORMALIZED FREE ENERGY PREDICTED BY IDOCK:   -6.28 KCAL/MOL
REMARK 922        TOTAL FREE ENERGY PREDICTED BY IDOCK:   -8.56 KCAL/MOL
REMARK 923 INTER-LIGAND FREE ENERGY PREDICTED BY IDOCK:   -8.48 KCAL/MOL
REMARK 924 INTRA-LIGAND FREE ENERGY PREDICTED BY IDOCK:   -0.08 KCAL/MOL
REMARK 927      BINDING AFFINITY PREDICTED BY RF-SCORE:    0.00 PKD
ROOT
HETATM    1  C   UNL     1      -9.882  11.259  66.285  1.00  0.00    -0.214 C  
HETATM    2  C   UNL     1      -9.190   8.808  68.957  1.00  0.00    -0.141 A  
HETATM    3  O   UNL     1      -8.971  11.968  67.166  1.00  0.00    -0.173 OA 
HETATM    4  C   UNL     1      -8.616  11.230  68.264  1.00  0.00    -0.153 C  
HETATM    5  C   UNL     1      -9.877   7.642  68.553  1.00  0.00    -0.167 A  
HETATM    6  C   UNL     1      -9.235   9.913  68.106  1.00  0.00    -0.131 A  
HETATM    7  O   UNL     1      -7.910  11.627  69.167  1.00  0.00    -0.028 OA 
HETATM    8  C   UNL     1     -10.519   7.623  67.297  1.00  0.00    -0.396 A  
HETATM    9  C   UNL     1     -10.534   8.746  66.463  1.00  0.00    -0.152 A  
HETATM   10  C   UNL     1      -9.925   9.905  66.907  1.00  0.00    -0.268 A  
ENDROOT
BRANCH   1  11
HETATM   11  C   UNL     1     -11.232  12.072  66.112  1.00  0.00    -0.343 C  
HETATM   12  C   UNL     1     -11.246  14.451  67.053  1.00  0.00    -0.336 A  
HETATM   13  C   UNL     1     -11.729  11.936  63.668  1.00  0.00    -0.474 C  
HETATM   14  C   UNL     1     -10.684  13.937  64.602  1.00  0.00    -0.407 C  
HETATM   15  C   UNL     1     -11.394  15.369  68.101  1.00  0.00    -0.353 A  
HETATM   16  C   UNL     1     -11.715  14.882  69.346  1.00  0.00    -0.319 A  
HETATM   17  N   UNL     1     -11.527  12.775  64.834  1.00  0.00    -0.309 NA 
HETATM   18  O   UNL     1     -11.866  15.654  70.457  1.00  0.00    -0.314 OA 
HETATM   19  C   UNL     1     -11.921  13.540  69.585  1.00  0.00    -0.337 A  
HETATM   20  C   UNL     1     -10.974  14.998  65.666  1.00  0.00    -0.357 C  
HETATM   21  O   UNL     1     -12.227  13.325  70.898  1.00  0.00    -0.356 OA 
HETATM   22  C   UNL     1     -11.803  12.595  68.573  1.00  0.00    -0.300 A  
HETATM   23  C   UNL     1     -11.437  13.056  67.281  1.00  0.00    -0.380 A  
HETATM   24  C   UNL     1     -12.077  14.644  71.455  1.00  0.00    -0.355 C  
BRANCH  22  25
HETATM   25  O   UNL     1     -11.990  11.245  68.701  1.00  0.00    -0.472 OA 
HETATM   26  C   UNL     1     -12.278  10.741  70.002  1.00  0.00    -0.334 C  
ENDBRANCH  22  25
ENDBRANCH   1  11
BRANCH   5  27
HETATM   27  O   UNL     1      -9.912   6.590  69.429  1.00  0.00    -0.154 OA 
HETATM   28  C   UNL     1     -11.171   6.173  69.934  1.00  0.00    -0.414 C  
ENDBRANCH   5  27
BRANCH   2  29
HETATM   29  O   UNL     1      -8.552   8.992  70.153  1.00  0.00    -0.131 OA 
HETATM   30  C   UNL     1      -9.366   9.154  71.308  1.00  0.00    -0.215 C  
ENDBRANCH   2  29
TORSDOF 4
ENDMDL
MODEL       12
REMARK 921   NORMALIZED FREE ENERGY PREDICTED BY IDOCK:   -6.26 KCAL/MOL
REMARK 922        TOTAL FREE ENERGY PREDICTED BY IDOCK:   -8.53 KCAL/MOL
REMARK 923 INTER-LIGAND FREE ENERGY PREDICTED BY IDOCK:   -7.66 KCAL/MOL
REMARK 924 INTRA-LIGAND FREE ENERGY PREDICTED BY IDOCK:   -0.87 KCAL/MOL
REMARK 927      BINDING AFFINITY PREDICTED BY RF-SCORE:    0.00 PKD
ROOT
HETATM    1  C   UNL     1     -10.082   9.315  66.633  1.00  0.00    -0.271 C  
HETATM    2  C   UNL     1     -10.906   8.518  70.143  1.00  0.00    -0.233 A  
HETATM    3  O   UNL     1      -9.573   7.966  66.802  1.00  0.00    -0.184 OA 
HETATM    4  C   UNL     1      -9.748   7.489  68.075  1.00  0.00    -0.146 C  
HETATM    5  C   UNL     1     -11.624   9.645  70.601  1.00  0.00    -0.299 A  
HETATM    6  C   UNL     1     -10.491   8.515  68.810  1.00  0.00    -0.208 A  
HETATM    7  O   UNL     1      -9.358   6.412  68.471  1.00  0.00    -0.124 OA 
HETATM    8  C   UNL     1     -11.941  10.675  69.691  1.00  0.00    -0.340 A  
HETATM    9  C   UNL     1     -11.519  10.632  68.358  1.00  0.00    -0.330 A  
HETATM   10  C   UNL     1     -10.748   9.562  67.943  1.00  0.00    -0.285 A  
ENDROOT
BRANCH   1  11
HETATM   11  C   UNL     1      -8.924  10.290  66.160  1.00  0.00    -0.154 C  
HETATM   12  C   UNL     1      -9.111  12.722  66.930  1.00  0.00    -0.221 A  
HETATM   13  C   UNL     1      -6.822   9.149  66.878  1.00  0.00    -0.080 C  
HETATM   14  C   UNL     1      -7.757  10.964  68.219  1.00  0.00    -0.111 C  
HETATM   15  C   UNL     1      -9.602  14.028  66.803  1.00  0.00    -0.293 A  
HETATM   16  C   UNL     1     -10.426  14.309  65.739  1.00  0.00    -0.316 A  
HETATM   17  N   UNL     1      -7.639  10.346  66.908  1.00  0.00    -0.104 NA 
HETATM   18  O   UNL     1     -10.993  15.525  65.506  1.00  0.00    -0.338 OA 
HETATM   19  C   UNL     1     -10.757  13.364  64.790  1.00  0.00    -0.390 A  
HETATM   20  C   UNL     1      -8.138  12.438  68.057  1.00  0.00    -0.162 C  
HETATM   21  O   UNL     1     -11.583  13.900  63.845  1.00  0.00    -0.290 OA 
HETATM   22  C   UNL     1     -10.279  12.061  64.864  1.00  0.00    -0.270 A  
HETATM   23  C   UNL     1      -9.455  11.724  65.970  1.00  0.00    -0.245 A  
HETATM   24  C   UNL     1     -11.813  15.220  64.368  1.00  0.00    -0.281 C  
BRANCH  22  25
HETATM   25  O   UNL     1     -10.541  11.053  63.978  1.00  0.00    -0.366 OA 
HETATM   26  C   UNL     1      -9.738  10.983  62.803  1.00  0.00    -0.269 C  
ENDBRANCH  22  25
ENDBRANCH   1  11
BRANCH   5  27
HETATM   27  O   UNL     1     -11.950   9.692  71.930  1.00  0.00    -0.370 OA 
HETATM   28  C   UNL     1     -13.313   9.536  72.297  1.00  0.00    -0.441 C  
ENDBRANCH   5  27
BRANCH   2  29
HETATM   29  O   UNL     1     -10.496   7.460  70.907  1.00  0.00    -0.215 OA 
HETATM   30  C   UNL     1     -11.444   6.429  71.155  1.00  0.00    -0.323 C  
ENDBRANCH   2  29
TORSDOF 4
ENDMDL
MODEL       13
REMARK 921   NORMALIZED FREE ENERGY PREDICTED BY IDOCK:   -6.24 KCAL/MOL
REMARK 922        TOTAL FREE ENERGY PREDICTED BY IDOCK:   -8.51 KCAL/MOL
REMARK 923 INTER-LIGAND FREE ENERGY PREDICTED BY IDOCK:   -7.74 KCAL/MOL
REMARK 924 INTRA-LIGAND FREE ENERGY PREDICTED BY IDOCK:   -0.76 KCAL/MOL
REMARK 927      BINDING AFFINITY PREDICTED BY RF-SCORE:    0.00 PKD
ROOT
HETATM    1  C   UNL     1      -8.988  15.633  66.413  1.00  0.00    -0.326 C  
HETATM    2  C   UNL     1      -6.067  16.213  68.596  1.00  0.00    -0.112 A  
HETATM    3  O   UNL     1      -8.356  16.803  65.829  1.00  0.00    -0.434 OA 
HETATM    4  C   UNL     1      -7.252  17.213  66.528  1.00  0.00    -0.273 C  
HETATM    5  C   UNL     1      -6.094  15.139  69.513  1.00  0.00    -0.119 A  
HETATM    6  C   UNL     1      -7.047  16.238  67.602  1.00  0.00    -0.164 A  
HETATM    7  O   UNL     1      -6.592  18.196  66.267  1.00  0.00    -0.186 OA 
HETATM    8  C   UNL     1      -7.056  14.120  69.351  1.00  0.00    -0.049 A  
HETATM    9  C   UNL     1      -8.016  14.172  68.334  1.00  0.00    -0.142 A  
HETATM   10  C   UNL     1      -8.029  15.269  67.494  1.00  0.00    -0.197 A  
ENDROOT
BRANCH   1  11
HETATM   11  C   UNL     1     -10.495  15.948  66.792  1.00  0.00    -0.309 C  
HETATM   12  C   UNL     1     -11.226  15.286  69.153  1.00  0.00    -0.285 A  
HETATM   13  C   UNL     1     -10.769  18.377  66.280  1.00  0.00    -0.179 C  
HETATM   14  C   UNL     1     -10.380  17.639  68.576  1.00  0.00    -0.370 C  
HETATM   15  C   UNL     1     -11.691  14.356  70.091  1.00  0.00    -0.361 A  
HETATM   16  C   UNL     1     -11.950  13.076  69.661  1.00  0.00    -0.302 A  
HETATM   17  N   UNL     1     -10.884  17.308  67.253  1.00  0.00    -0.200 NA 
HETATM   18  O   UNL     1     -12.382  12.067  70.465  1.00  0.00    -0.336 OA 
HETATM   19  C   UNL     1     -11.794  12.693  68.345  1.00  0.00    -0.301 A  
HETATM   20  C   UNL     1     -11.022  16.715  69.614  1.00  0.00    -0.222 C  
HETATM   21  O   UNL     1     -12.118  11.376  68.184  1.00  0.00    -0.623 OA 
HETATM   22  C   UNL     1     -11.353  13.586  67.375  1.00  0.00    -0.311 A  
HETATM   23  C   UNL     1     -11.041  14.907  67.790  1.00  0.00    -0.313 A  
HETATM   24  C   UNL     1     -12.374  10.969  69.540  1.00  0.00    -0.197 C  
BRANCH  22  25
HETATM   25  O   UNL     1     -11.169  13.311  66.047  1.00  0.00    -0.292 OA 
HETATM   26  C   UNL     1     -12.330  13.058  65.261  1.00  0.00    -0.486 C  
ENDBRANCH  22  25
ENDBRANCH   1  11
BRANCH   5  27
HETATM   27  O   UNL     1      -5.192  15.162  70.543  1.00  0.00    -0.118 OA 
HETATM   28  C   UNL     1      -5.386  14.270  71.630  1.00  0.00    -0.193 C  
ENDBRANCH   5  27
BRANCH   2  29
HETATM   29  O   UNL     1      -5.223  17.288  68.640  1.00  0.00    -0.137 OA 
HETATM   30  C   UNL     1      -5.504  18.300  69.599  1.00  0.00    -0.207 C  
ENDBRANCH   2  29
TORSDOF 4
ENDMDL
MODEL       14
REMARK 921   NORMALIZED FREE ENERGY PREDICTED BY IDOCK:   -6.21 KCAL/MOL
REMARK 922        TOTAL FREE ENERGY PREDICTED BY IDOCK:   -8.47 KCAL/MOL
REMARK 923 INTER-LIGAND FREE ENERGY PREDICTED BY IDOCK:   -7.76 KCAL/MOL
REMARK 924 INTRA-LIGAND FREE ENERGY PREDICTED BY IDOCK:   -0.71 KCAL/MOL
REMARK 927      BINDING AFFINITY PREDICTED BY RF-SCORE:    0.00 PKD
ROOT
HETATM    1  C   UNL     1      -9.921  13.221  65.368  1.00  0.00    -0.189 C  
HETATM    2  C   UNL     1      -8.877  16.057  67.489  1.00  0.00    -0.189 A  
HETATM    3  O   UNL     1     -10.387  14.383  64.632  1.00  0.00    -0.397 OA 
HETATM    4  C   UNL     1     -10.127  15.560  65.282  1.00  0.00    -0.302 C  
HETATM    5  C   UNL     1      -8.162  15.460  68.549  1.00  0.00    -0.145 A  
HETATM    6  C   UNL     1      -9.368  15.218  66.487  1.00  0.00    -0.309 A  
HETATM    7  O   UNL     1     -10.468  16.657  64.893  1.00  0.00    -0.657 OA 
HETATM    8  C   UNL     1      -7.923  14.069  68.521  1.00  0.00    -0.141 A  
HETATM    9  C   UNL     1      -8.420  13.261  67.493  1.00  0.00    -0.202 A  
HETATM   10  C   UNL     1      -9.187  13.847  66.504  1.00  0.00    -0.220 A  
ENDROOT
BRANCH   1  11
HETATM   11  C   UNL     1     -11.128  12.239  65.676  1.00  0.00    -0.317 C  
HETATM   12  C   UNL     1     -10.847  10.708  67.706  1.00  0.00    -0.338 A  
HETATM   13  C   UNL     1     -13.127  13.732  65.789  1.00  0.00    -0.066 C  
HETATM   14  C   UNL     1     -12.035  12.979  67.841  1.00  0.00    -0.291 C  
HETATM   15  C   UNL     1     -10.375   9.543  68.324  1.00  0.00    -0.244 A  
HETATM   16  C   UNL     1      -9.687   8.635  67.554  1.00  0.00    -0.165 A  
HETATM   17  N   UNL     1     -12.312  12.722  66.437  1.00  0.00    -0.462 NA 
HETATM   18  O   UNL     1      -9.153   7.476  68.026  1.00  0.00    -0.132 OA 
HETATM   19  C   UNL     1      -9.475   8.822  66.204  1.00  0.00    -0.247 A  
HETATM   20  C   UNL     1     -11.676  11.666  68.539  1.00  0.00    -0.378 C  
HETATM   21  O   UNL     1      -8.770   7.777  65.678  1.00  0.00    -0.154 OA 
HETATM   22  C   UNL     1      -9.940   9.953  65.544  1.00  0.00    -0.292 A  
HETATM   23  C   UNL     1     -10.623  10.930  66.314  1.00  0.00    -0.276 A  
HETATM   24  C   UNL     1      -8.478   6.999  66.852  1.00  0.00    -0.119 C  
BRANCH  22  25
HETATM   25  O   UNL     1      -9.789  10.232  64.213  1.00  0.00    -0.329 OA 
HETATM   26  C   UNL     1      -8.483  10.106  63.658  1.00  0.00    -0.184 C  
ENDBRANCH  22  25
ENDBRANCH   1  11
BRANCH   5  27
HETATM   27  O   UNL     1      -7.760  16.268  69.579  1.00  0.00    -0.179 OA 
HETATM   28  C   UNL     1      -6.381  16.589  69.688  1.00  0.00    -0.216 C  
ENDBRANCH   5  27
BRANCH   2  29
HETATM   29  O   UNL     1      -9.216  17.379  67.391  1.00  0.00    -0.233 OA 
HETATM   30  C   UNL     1     -10.327  17.825  68.160  1.00  0.00    -0.391 C  
ENDBRANCH   2  29
TORSDOF 4
ENDMDL
MODEL       15
REMARK 921   NORMALIZED FREE ENERGY PREDICTED BY IDOCK:   -6.21 KCAL/MOL
REMARK 922        TOTAL FREE ENERGY PREDICTED BY IDOCK:   -8.47 KCAL/MOL
REMARK 923 INTER-LIGAND FREE ENERGY PREDICTED BY IDOCK:   -7.68 KCAL/MOL
REMARK 924 INTRA-LIGAND FREE ENERGY PREDICTED BY IDOCK:   -0.79 KCAL/MOL
REMARK 927      BINDING AFFINITY PREDICTED BY RF-SCORE:    0.00 PKD
ROOT
HETATM    1  C   UNL     1     -10.410  10.477  66.372  1.00  0.00    -0.221 C  
HETATM    2  C   UNL     1     -10.890   8.752  69.601  1.00  0.00    -0.169 A  
HETATM    3  O   UNL     1     -10.093   9.094  66.067  1.00  0.00    -0.284 OA 
HETATM    4  C   UNL     1     -10.174   8.277  67.164  1.00  0.00    -0.295 C  
HETATM    5  C   UNL     1     -11.366   9.757  70.471  1.00  0.00    -0.314 A  
HETATM    6  C   UNL     1     -10.654   9.106  68.272  1.00  0.00    -0.223 A  
HETATM    7  O   UNL     1      -9.903   7.095  67.170  1.00  0.00    -0.156 OA 
HETATM    8  C   UNL     1     -11.637  11.042  69.955  1.00  0.00    -0.416 A  
HETATM    9  C   UNL     1     -11.400  11.358  68.612  1.00  0.00    -0.327 A  
HETATM   10  C   UNL     1     -10.858  10.387  67.791  1.00  0.00    -0.351 A  
ENDROOT
BRANCH   1  11
HETATM   11  C   UNL     1      -9.188  11.420  66.008  1.00  0.00    -0.214 C  
HETATM   12  C   UNL     1      -8.443  13.057  67.828  1.00  0.00    -0.188 A  
HETATM   13  C   UNL     1      -7.399   9.851  65.250  1.00  0.00    -0.131 C  
HETATM   14  C   UNL     1      -7.369  10.747  67.522  1.00  0.00    -0.092 C  
HETATM   15  C   UNL     1      -8.546  14.270  68.522  1.00  0.00    -0.175 A  
HETATM   16  C   UNL     1      -9.505  15.168  68.117  1.00  0.00    -0.201 A  
HETATM   17  N   UNL     1      -7.792  10.924  66.143  1.00  0.00    -0.159 NA 
HETATM   18  O   UNL     1      -9.732  16.371  68.712  1.00  0.00    -0.230 OA 
HETATM   19  C   UNL     1     -10.338  14.926  67.044  1.00  0.00    -0.264 A  
HETATM   20  C   UNL     1      -7.332  12.106  68.225  1.00  0.00    -0.100 C  
HETATM   21  O   UNL     1     -11.193  15.974  66.853  1.00  0.00    -0.125 OA 
HETATM   22  C   UNL     1     -10.261  13.746  66.315  1.00  0.00    -0.297 A  
HETATM   23  C   UNL     1      -9.308  12.779  66.727  1.00  0.00    -0.241 A  
HETATM   24  C   UNL     1     -10.879  16.819  67.974  1.00  0.00    -0.341 C  
BRANCH  22  25
HETATM   25  O   UNL     1     -11.033  13.410  65.236  1.00  0.00    -0.285 OA 
HETATM   26  C   UNL     1     -12.435  13.275  65.446  1.00  0.00    -0.489 C  
ENDBRANCH  22  25
ENDBRANCH   1  11
BRANCH   5  27
HETATM   27  O   UNL     1     -11.509   9.436  71.794  1.00  0.00    -0.380 OA 
HETATM   28  C   UNL     1     -12.822   9.335  72.326  1.00  0.00    -0.384 C  
ENDBRANCH   5  27
BRANCH   2  29
HETATM   29  O   UNL     1     -10.551   7.475  69.956  1.00  0.00    -0.226 OA 
HETATM   30  C   UNL     1     -11.611   6.543  70.132  1.00  0.00    -0.402 C  
ENDBRANCH   2  29
TORSDOF 4
ENDMDL
MODEL       16
REMARK 921   NORMALIZED FREE ENERGY PREDICTED BY IDOCK:   -6.10 KCAL/MOL
REMARK 922        TOTAL FREE ENERGY PREDICTED BY IDOCK:   -8.33 KCAL/MOL
REMARK 923 INTER-LIGAND FREE ENERGY PREDICTED BY IDOCK:   -7.83 KCAL/MOL
REMARK 924 INTRA-LIGAND FREE ENERGY PREDICTED BY IDOCK:   -0.50 KCAL/MOL
REMARK 927      BINDING AFFINITY PREDICTED BY RF-SCORE:    0.00 PKD
ROOT
HETATM    1  C   UNL     1     -11.027  11.843  68.768  1.00  0.00    -0.235 C  
HETATM    2  C   UNL     1      -8.344  10.658  66.527  1.00  0.00    -0.143 A  
HETATM    3  O   UNL     1     -11.577  10.627  68.197  1.00  0.00    -0.429 OA 
HETATM    4  C   UNL     1     -10.734  10.041  67.289  1.00  0.00    -0.244 C  
HETATM    5  C   UNL     1      -7.286  11.570  66.729  1.00  0.00    -0.111 A  
HETATM    6  C   UNL     1      -9.502  10.832  67.286  1.00  0.00    -0.177 A  
HETATM    7  O   UNL     1     -10.995   9.049  66.643  1.00  0.00     0.052 OA 
HETATM    8  C   UNL     1      -7.417  12.567  67.720  1.00  0.00    -0.130 A  
HETATM    9  C   UNL     1      -8.589  12.703  68.472  1.00  0.00    -0.051 A  
HETATM   10  C   UNL     1      -9.647  11.854  68.207  1.00  0.00    -0.201 A  
ENDROOT
BRANCH   1  11
HETATM   11  C   UNL     1     -11.986  13.074  68.482  1.00  0.00    -0.261 C  
HETATM   12  C   UNL     1     -11.358  15.281  69.611  1.00  0.00    -0.304 A  
HETATM   13  C   UNL     1     -12.107  13.197  65.991  1.00  0.00    -0.436 C  
HETATM   14  C   UNL     1     -10.619  14.689  67.226  1.00  0.00    -0.284 C  
HETATM   15  C   UNL     1     -11.357  16.159  70.704  1.00  0.00    -0.394 A  
HETATM   16  C   UNL     1     -12.013  15.769  71.847  1.00  0.00    -0.466 A  
HETATM   17  N   UNL     1     -11.825  13.877  67.240  1.00  0.00    -0.386 NA 
HETATM   18  O   UNL     1     -12.073  16.508  72.988  1.00  0.00    -0.513 OA 
HETATM   19  C   UNL     1     -12.688  14.570  71.940  1.00  0.00    -0.338 A  
HETATM   20  C   UNL     1     -10.704  15.749  68.327  1.00  0.00    -0.281 C  
HETATM   21  O   UNL     1     -13.251  14.428  73.176  1.00  0.00    -0.591 OA 
HETATM   22  C   UNL     1     -12.732  13.676  70.877  1.00  0.00    -0.310 A  
HETATM   23  C   UNL     1     -12.034  14.027  69.692  1.00  0.00    -0.393 A  
HETATM   24  C   UNL     1     -12.763  15.597  73.858  1.00  0.00    -0.600 C  
BRANCH  22  25
HETATM   25  O   UNL     1     -13.374  12.467  70.862  1.00  0.00     0.166 OA 
HETATM   26  C   UNL     1     -12.941  11.481  71.794  1.00  0.00    -0.394 C  
ENDBRANCH  22  25
ENDBRANCH   1  11
BRANCH   5  27
HETATM   27  O   UNL     1      -6.187  11.458  65.920  1.00  0.00     0.024 OA 
HETATM   28  C   UNL     1      -5.133  10.598  66.328  1.00  0.00    -0.071 C  
ENDBRANCH   5  27
BRANCH   2  29
HETATM   29  O   UNL     1      -8.380   9.664  65.587  1.00  0.00    -0.123 OA 
HETATM   30  C   UNL     1      -8.740  10.034  64.261  1.00  0.00    -0.206 C  
ENDBRANCH   2  29
TORSDOF 4
ENDMDL
MODEL       17
REMARK 921   NORMALIZED FREE ENERGY PREDICTED BY IDOCK:   -6.06 KCAL/MOL
REMARK 922        TOTAL FREE ENERGY PREDICTED BY IDOCK:   -8.28 KCAL/MOL
REMARK 923 INTER-LIGAND FREE ENERGY PREDICTED BY IDOCK:   -7.98 KCAL/MOL
REMARK 924 INTRA-LIGAND FREE ENERGY PREDICTED BY IDOCK:   -0.30 KCAL/MOL
REMARK 927      BINDING AFFINITY PREDICTED BY RF-SCORE:    0.00 PKD
ROOT
HETATM    1  C   UNL     1     -10.854  10.698  68.200  1.00  0.00    -0.245 C  
HETATM    2  C   UNL     1     -10.666  11.933  64.726  1.00  0.00    -0.307 A  
HETATM    3  O   UNL     1     -11.636  11.920  68.233  1.00  0.00    -0.284 OA 
HETATM    4  C   UNL     1     -11.660  12.567  67.025  1.00  0.00    -0.368 C  
HETATM    5  C   UNL     1      -9.944  10.935  64.035  1.00  0.00    -0.344 A  
HETATM    6  C   UNL     1     -10.934  11.717  66.079  1.00  0.00    -0.355 A  
HETATM    7  O   UNL     1     -12.201  13.632  66.820  1.00  0.00    -0.406 OA 
HETATM    8  C   UNL     1      -9.585   9.751  64.715  1.00  0.00    -0.284 A  
HETATM    9  C   UNL     1      -9.882   9.564  66.069  1.00  0.00    -0.353 A  
HETATM   10  C   UNL     1     -10.518  10.583  66.753  1.00  0.00    -0.302 A  
ENDROOT
BRANCH   1  11
HETATM   11  C   UNL     1      -9.679  10.762  69.263  1.00  0.00    -0.120 C  
HETATM   12  C   UNL     1      -8.623   8.525  69.916  1.00  0.00    -0.131 A  
HETATM   13  C   UNL     1      -8.067  12.412  68.304  1.00  0.00    -0.166 C  
HETATM   14  C   UNL     1      -7.667  10.015  68.057  1.00  0.00    -0.089 C  
HETATM   15  C   UNL     1      -8.588   7.344  70.669  1.00  0.00    -0.141 A  
HETATM   16  C   UNL     1      -9.574   7.144  71.606  1.00  0.00    -0.155 A  
HETATM   17  N   UNL     1      -8.291  11.079  68.828  1.00  0.00    -0.149 NA 
HETATM   18  O   UNL     1      -9.677   6.036  72.389  1.00  0.00    -0.159 OA 
HETATM   19  C   UNL     1     -10.567   8.072  71.843  1.00  0.00    -0.245 A  
HETATM   20  C   UNL     1      -7.489   8.779  68.944  1.00  0.00    -0.083 C  
HETATM   21  O   UNL     1     -11.414   7.631  72.819  1.00  0.00    -0.355 OA 
HETATM   22  C   UNL     1     -10.632   9.265  71.134  1.00  0.00    -0.332 A  
HETATM   23  C   UNL     1      -9.652   9.490  70.133  1.00  0.00    -0.290 A  
HETATM   24  C   UNL     1     -10.910   6.307  73.071  1.00  0.00    -0.259 C  
BRANCH  22  25
HETATM   25  O   UNL     1     -11.568  10.250  71.294  1.00  0.00    -0.344 OA 
HETATM   26  C   UNL     1     -12.934   9.901  71.087  1.00  0.00    -0.369 C  
ENDBRANCH  22  25
ENDBRANCH   1  11
BRANCH   5  27
HETATM   27  O   UNL     1      -9.599  11.186  62.734  1.00  0.00    -0.323 OA 
HETATM   28  C   UNL     1      -8.254  10.964  62.337  1.00  0.00    -0.213 C  
ENDBRANCH   5  27
BRANCH   2  29
HETATM   29  O   UNL     1     -11.054  13.142  64.218  1.00  0.00    -0.362 OA 
HETATM   30  C   UNL     1     -12.186  13.154  63.356  1.00  0.00    -0.444 C  
ENDBRANCH   2  29
TORSDOF 4
ENDMDL
MODEL       18
REMARK 921   NORMALIZED FREE ENERGY PREDICTED BY IDOCK:   -6.00 KCAL/MOL
REMARK 922        TOTAL FREE ENERGY PREDICTED BY IDOCK:   -8.21 KCAL/MOL
REMARK 923 INTER-LIGAND FREE ENERGY PREDICTED BY IDOCK:   -7.81 KCAL/MOL
REMARK 924 INTRA-LIGAND FREE ENERGY PREDICTED BY IDOCK:   -0.40 KCAL/MOL
REMARK 927      BINDING AFFINITY PREDICTED BY RF-SCORE:    0.00 PKD
ROOT
HETATM    1  C   UNL     1     -11.983  12.629  67.992  1.00  0.00    -0.245 C  
HETATM    2  C   UNL     1     -10.187  11.201  65.100  1.00  0.00    -0.289 A  
HETATM    3  O   UNL     1     -12.087  13.668  66.983  1.00  0.00    -0.398 OA 
HETATM    4  C   UNL     1     -11.438  13.344  65.821  1.00  0.00    -0.320 C  
HETATM    5  C   UNL     1      -9.827   9.900  65.515  1.00  0.00    -0.311 A  
HETATM    6  C   UNL     1     -10.928  11.982  65.989  1.00  0.00    -0.346 A  
HETATM    7  O   UNL     1     -11.338  14.072  64.856  1.00  0.00    -0.327 OA 
HETATM    8  C   UNL     1     -10.278   9.428  66.766  1.00  0.00    -0.320 A  
HETATM    9  C   UNL     1     -11.031  10.235  67.626  1.00  0.00    -0.356 A  
HETATM   10  C   UNL     1     -11.307  11.534  67.241  1.00  0.00    -0.359 A  
ENDROOT
BRANCH   1  11
HETATM   11  C   UNL     1     -11.302  13.198  69.306  1.00  0.00    -0.253 C  
HETATM   12  C   UNL     1     -11.310  15.742  69.572  1.00  0.00    -0.328 A  
HETATM   13  C   UNL     1     -12.427  11.972  71.168  1.00  0.00    -0.249 C  
HETATM   14  C   UNL     1     -13.125  14.239  70.589  1.00  0.00    -0.189 C  
HETATM   15  C   UNL     1     -10.781  17.016  69.328  1.00  0.00    -0.226 A  
HETATM   16  C   UNL     1      -9.642  17.107  68.564  1.00  0.00    -0.288 A  
HETATM   17  N   UNL     1     -12.062  13.248  70.584  1.00  0.00    -0.330 NA 
HETATM   18  O   UNL     1      -9.033  18.277  68.228  1.00  0.00    -0.289 OA 
HETATM   19  C   UNL     1      -8.998  15.996  68.060  1.00  0.00    -0.187 A  
HETATM   20  C   UNL     1     -12.518  15.640  70.483  1.00  0.00    -0.440 C  
HETATM   21  O   UNL     1      -7.897  16.362  67.341  1.00  0.00    -0.139 OA 
HETATM   22  C   UNL     1      -9.476  14.712  68.291  1.00  0.00    -0.211 A  
HETATM   23  C   UNL     1     -10.671  14.580  69.046  1.00  0.00    -0.258 A  
HETATM   24  C   UNL     1      -7.996  17.797  67.360  1.00  0.00    -0.211 C  
BRANCH  22  25
HETATM   25  O   UNL     1      -8.914  13.547  67.844  1.00  0.00    -0.181 OA 
HETATM   26  C   UNL     1      -7.784  13.047  68.553  1.00  0.00    -0.111 C  
ENDBRANCH  22  25
ENDBRANCH   1  11
BRANCH   5  27
HETATM   27  O   UNL     1      -9.022   9.168  64.684  1.00  0.00    -0.192 OA 
HETATM   28  C   UNL     1      -8.238   8.127  65.248  1.00  0.00    -0.149 C  
ENDBRANCH   5  27
BRANCH   2  29
HETATM   29  O   UNL     1      -9.801  11.810  63.937  1.00  0.00    -0.287 OA 
HETATM   30  C   UNL     1     -10.269  11.245  62.719  1.00  0.00    -0.018 C  
ENDBRANCH   2  29
TORSDOF 4
ENDMDL
MODEL       19
REMARK 921   NORMALIZED FREE ENERGY PREDICTED BY IDOCK:   -6.00 KCAL/MOL
REMARK 922        TOTAL FREE ENERGY PREDICTED BY IDOCK:   -8.21 KCAL/MOL
REMARK 923 INTER-LIGAND FREE ENERGY PREDICTED BY IDOCK:   -8.87 KCAL/MOL
REMARK 924 INTRA-LIGAND FREE ENERGY PREDICTED BY IDOCK:    0.66 KCAL/MOL
REMARK 927      BINDING AFFINITY PREDICTED BY RF-SCORE:    0.00 PKD
ROOT
HETATM    1  C   UNL     1     -11.484  10.358  68.203  1.00  0.00    -0.118 C  
HETATM    2  C   UNL     1      -9.771  11.290  65.068  1.00  0.00    -0.251 A  
HETATM    3  O   UNL     1     -12.233  11.512  67.739  1.00  0.00    -0.560 OA 
HETATM    4  C   UNL     1     -11.723  12.044  66.583  1.00  0.00    -0.256 C  
HETATM    5  C   UNL     1      -8.783  10.296  64.897  1.00  0.00    -0.185 A  
HETATM    6  C   UNL     1     -10.620  11.175  66.170  1.00  0.00    -0.305 A  
HETATM    7  O   UNL     1     -12.144  13.040  66.034  1.00  0.00    -0.415 OA 
HETATM    8  C   UNL     1      -8.736   9.210  65.797  1.00  0.00    -0.192 A  
HETATM    9  C   UNL     1      -9.613   9.121  66.884  1.00  0.00    -0.233 A  
HETATM   10  C   UNL     1     -10.522  10.143  67.086  1.00  0.00    -0.305 A  
ENDROOT
BRANCH   1  11
HETATM   11  C   UNL     1     -10.925  10.611  69.665  1.00  0.00    -0.278 C  
HETATM   12  C   UNL     1     -12.671  11.063  71.479  1.00  0.00    -0.521 A  
HETATM   13  C   UNL     1      -9.465   8.637  70.120  1.00  0.00    -0.164 C  
HETATM   14  C   UNL     1     -11.738   8.719  71.012  1.00  0.00    -0.282 C  
HETATM   15  C   UNL     1     -13.534  11.911  72.186  1.00  0.00    -0.300 A  
HETATM   16  C   UNL     1     -13.557  13.242  71.843  1.00  0.00    -0.388 A  
HETATM   17  N   UNL     1     -10.579   9.462  70.545  1.00  0.00    -0.248 NA 
HETATM   18  O   UNL     1     -14.361  14.173  72.427  1.00  0.00    -0.586 OA 
HETATM   19  C   UNL     1     -12.746  13.766  70.858  1.00  0.00    -0.323 A  
HETATM   20  C   UNL     1     -12.589   9.614  71.915  1.00  0.00    -0.481 C  
HETATM   21  O   UNL     1     -12.963  15.106  70.717  1.00  0.00    -0.393 OA 
HETATM   22  C   UNL     1     -11.862  12.967  70.143  1.00  0.00    -0.245 A  
HETATM   23  C   UNL     1     -11.837  11.580  70.444  1.00  0.00    -0.413 A  
HETATM   24  C   UNL     1     -14.057  15.325  71.626  1.00  0.00    -0.541 C  
BRANCH  22  25
HETATM   25  O   UNL     1     -11.014  13.385  69.153  1.00  0.00    -0.237 OA 
HETATM   26  C   UNL     1     -10.219  14.539  69.410  1.00  0.00    -0.035 C  
ENDBRANCH  22  25
ENDBRANCH   1  11
BRANCH   5  27
HETATM   27  O   UNL     1      -7.891  10.457  63.871  1.00  0.00    -0.140 OA 
HETATM   28  C   UNL     1      -7.478   9.307  63.148  1.00  0.00    -0.106 C  
ENDBRANCH   5  27
BRANCH   2  29
HETATM   29  O   UNL     1      -9.922  12.414  64.303  1.00  0.00    -0.280 OA 
HETATM   30  C   UNL     1     -10.642  12.281  63.084  1.00  0.00    -0.085 C  
ENDBRANCH   2  29
TORSDOF 4
ENDMDL
MODEL       20
REMARK 921   NORMALIZED FREE ENERGY PREDICTED BY IDOCK:   -5.95 KCAL/MOL
REMARK 922        TOTAL FREE ENERGY PREDICTED BY IDOCK:   -8.15 KCAL/MOL
REMARK 923 INTER-LIGAND FREE ENERGY PREDICTED BY IDOCK:   -8.00 KCAL/MOL
REMARK 924 INTRA-LIGAND FREE ENERGY PREDICTED BY IDOCK:   -0.15 KCAL/MOL
REMARK 927      BINDING AFFINITY PREDICTED BY RF-SCORE:    0.00 PKD
ROOT
HETATM    1  C   UNL     1     -11.848  12.997  67.005  1.00  0.00    -0.377 C  
HETATM    2  C   UNL     1     -12.211  13.176  70.675  1.00  0.00    -0.321 A  
HETATM    3  O   UNL     1     -12.128  11.624  67.384  1.00  0.00    -0.605 OA 
HETATM    4  C   UNL     1     -12.262  11.465  68.739  1.00  0.00    -0.033 C  
HETATM    5  C   UNL     1     -12.089  14.550  70.975  1.00  0.00    -0.344 A  
HETATM    6  C   UNL     1     -12.156  12.800  69.332  1.00  0.00    -0.248 A  
HETATM    7  O   UNL     1     -12.444  10.405  69.298  1.00  0.00    -0.134 OA 
HETATM    8  C   UNL     1     -11.980  15.478  69.918  1.00  0.00    -0.381 A  
HETATM    9  C   UNL     1     -11.941  15.066  68.582  1.00  0.00    -0.278 A  
HETATM   10  C   UNL     1     -11.980  13.712  68.307  1.00  0.00    -0.385 A  
ENDROOT
BRANCH   1  11
HETATM   11  C   UNL     1     -10.476  13.085  66.213  1.00  0.00    -0.276 C  
HETATM   12  C   UNL     1      -9.917  11.099  64.701  1.00  0.00    -0.345 A  
HETATM   13  C   UNL     1     -10.588  15.277  65.023  1.00  0.00    -0.418 C  
HETATM   14  C   UNL     1     -11.102  13.205  63.836  1.00  0.00    -0.308 C  
HETATM   15  C   UNL     1      -9.404   9.814  64.481  1.00  0.00    -0.298 A  
HETATM   16  C   UNL     1      -8.870   9.138  65.554  1.00  0.00    -0.191 A  
HETATM   17  N   UNL     1     -10.395  13.843  64.935  1.00  0.00    -0.413 NA 
HETATM   18  O   UNL     1      -8.359   7.878  65.491  1.00  0.00    -0.135 OA 
HETATM   19  C   UNL     1      -8.800   9.691  66.815  1.00  0.00    -0.135 A  
HETATM   20  C   UNL     1     -10.428  11.871  63.502  1.00  0.00    -0.505 C  
HETATM   21  O   UNL     1      -8.228   8.816  67.694  1.00  0.00    -0.109 OA 
HETATM   22  C   UNL     1      -9.280  10.969  67.077  1.00  0.00    -0.153 A  
HETATM   23  C   UNL     1      -9.872  11.683  66.002  1.00  0.00    -0.258 A  
HETATM   24  C   UNL     1      -8.061   7.644  66.876  1.00  0.00    -0.116 C  
BRANCH  22  25
HETATM   25  O   UNL     1      -9.255  11.610  68.286  1.00  0.00    -0.177 OA 
HETATM   26  C   UNL     1      -8.219  12.562  68.505  1.00  0.00    -0.079 C  
ENDBRANCH  22  25
ENDBRANCH   1  11
BRANCH   5  27
HETATM   27  O   UNL     1     -12.050  14.911  72.296  1.00  0.00    -0.346 OA 
HETATM   28  C   UNL     1     -13.225  15.449  72.884  1.00  0.00    -0.518 C  
ENDBRANCH   5  27
BRANCH   2  29
HETATM   29  O   UNL     1     -12.291  12.158  71.585  1.00  0.00    -0.029 OA 
HETATM   30  C   UNL     1     -13.576  11.854  72.114  1.00  0.00    -0.085 C  
ENDBRANCH   2  29
TORSDOF 4
ENDMDL
MODEL       21
REMARK 921   NORMALIZED FREE ENERGY PREDICTED BY IDOCK:   -5.88 KCAL/MOL
REMARK 922        TOTAL FREE ENERGY PREDICTED BY IDOCK:   -8.06 KCAL/MOL
REMARK 923 INTER-LIGAND FREE ENERGY PREDICTED BY IDOCK:   -7.15 KCAL/MOL
REMARK 924 INTRA-LIGAND FREE ENERGY PREDICTED BY IDOCK:   -0.91 KCAL/MOL
REMARK 927      BINDING AFFINITY PREDICTED BY RF-SCORE:    0.00 PKD
ROOT
HETATM    1  C   UNL     1      -8.809  11.832  68.326  1.00  0.00    -0.172 C  
HETATM    2  C   UNL     1     -10.430  14.052  65.861  1.00  0.00    -0.309 A  
HETATM    3  O   UNL     1      -7.885  12.947  68.216  1.00  0.00    -0.129 OA 
HETATM    4  C   UNL     1      -8.292  13.884  67.303  1.00  0.00    -0.185 C  
HETATM    5  C   UNL     1     -11.661  13.422  65.575  1.00  0.00    -0.325 A  
HETATM    6  C   UNL     1      -9.602  13.452  66.811  1.00  0.00    -0.262 A  
HETATM    7  O   UNL     1      -7.663  14.875  66.998  1.00  0.00    -0.185 OA 
HETATM    8  C   UNL     1     -12.025  12.265  66.296  1.00  0.00    -0.307 A  
HETATM    9  C   UNL     1     -11.175  11.698  67.251  1.00  0.00    -0.365 A  
HETATM   10  C   UNL     1      -9.939  12.279  67.463  1.00  0.00    -0.201 A  
ENDROOT
BRANCH   1  11
HETATM   11  C   UNL     1      -8.073  10.468  67.989  1.00  0.00    -0.111 C  
HETATM   12  C   UNL     1      -9.565   8.548  67.194  1.00  0.00    -0.232 A  
HETATM   13  C   UNL     1      -6.285  11.112  66.370  1.00  0.00    -0.127 C  
HETATM   14  C   UNL     1      -8.379  10.142  65.569  1.00  0.00    -0.158 C  
HETATM   15  C   UNL     1     -10.424   7.466  67.429  1.00  0.00    -0.366 A  
HETATM   16  C   UNL     1     -10.696   7.128  68.733  1.00  0.00    -0.169 A  
HETATM   17  N   UNL     1      -7.429  10.271  66.663  1.00  0.00    -0.106 NA 
HETATM   18  O   UNL     1     -11.528   6.118  69.108  1.00  0.00    -0.379 OA 
HETATM   19  C   UNL     1     -10.134   7.793  69.803  1.00  0.00    -0.194 A  
HETATM   20  C   UNL     1      -9.203   8.865  65.757  1.00  0.00    -0.283 C  
HETATM   21  O   UNL     1     -10.566   7.260  70.983  1.00  0.00    -0.219 OA 
HETATM   22  C   UNL     1      -9.262   8.860  69.619  1.00  0.00    -0.152 A  
HETATM   23  C   UNL     1      -8.987   9.262  68.286  1.00  0.00    -0.129 A  
HETATM   24  C   UNL     1     -11.525   6.287  70.533  1.00  0.00    -0.338 C  
BRANCH  22  25
HETATM   25  O   UNL     1      -8.649   9.583  70.606  1.00  0.00    -0.211 OA 
HETATM   26  C   UNL     1      -7.567   8.967  71.298  1.00  0.00    -0.103 C  
ENDBRANCH  22  25
ENDBRANCH   1  11
BRANCH   5  27
HETATM   27  O   UNL     1     -12.431  13.957  64.577  1.00  0.00    -0.584 OA 
HETATM   28  C   UNL     1     -12.349  13.385  63.280  1.00  0.00    -0.169 C  
ENDBRANCH   5  27
BRANCH   2  29
HETATM   29  O   UNL     1      -9.924  15.154  65.228  1.00  0.00    -0.338 OA 
HETATM   30  C   UNL     1     -10.412  16.425  65.641  1.00  0.00    -0.347 C  
ENDBRANCH   2  29
TORSDOF 4
ENDMDL
MODEL       22
REMARK 921   NORMALIZED FREE ENERGY PREDICTED BY IDOCK:   -5.85 KCAL/MOL
REMARK 922        TOTAL FREE ENERGY PREDICTED BY IDOCK:   -8.02 KCAL/MOL
REMARK 923 INTER-LIGAND FREE ENERGY PREDICTED BY IDOCK:   -7.76 KCAL/MOL
REMARK 924 INTRA-LIGAND FREE ENERGY PREDICTED BY IDOCK:   -0.26 KCAL/MOL
REMARK 927      BINDING AFFINITY PREDICTED BY RF-SCORE:    0.00 PKD
ROOT
HETATM    1  C   UNL     1     -11.281  10.464  67.825  1.00  0.00    -0.237 C  
HETATM    2  C   UNL     1      -9.225   9.828  64.825  1.00  0.00    -0.261 A  
HETATM    3  O   UNL     1     -11.681  11.519  66.912  1.00  0.00    -0.533 OA 
HETATM    4  C   UNL     1     -10.992  11.484  65.728  1.00  0.00    -0.246 C  
HETATM    5  C   UNL     1      -8.521   8.642  65.126  1.00  0.00    -0.179 A  
HETATM    6  C   UNL     1     -10.131  10.300  65.777  1.00  0.00    -0.325 A  
HETATM    7  O   UNL     1     -11.111  12.292  64.832  1.00  0.00    -0.295 OA 
HETATM    8  C   UNL     1      -8.803   7.960  66.328  1.00  0.00    -0.188 A  
HETATM    9  C   UNL     1      -9.727   8.456  67.254  1.00  0.00    -0.240 A  
HETATM   10  C   UNL     1     -10.350   9.661  66.984  1.00  0.00    -0.315 A  
ENDROOT
BRANCH   1  11
HETATM   11  C   UNL     1     -10.752  11.081  69.187  1.00  0.00    -0.234 C  
HETATM   12  C   UNL     1     -11.942  13.191  70.010  1.00  0.00    -0.391 A  
HETATM   13  C   UNL     1     -10.821   9.174  70.798  1.00  0.00    -0.268 C  
HETATM   14  C   UNL     1     -12.611  10.836  70.781  1.00  0.00    -0.383 C  
HETATM   15  C   UNL     1     -12.140  14.577  70.021  1.00  0.00    -0.395 A  
HETATM   16  C   UNL     1     -11.331  15.353  69.225  1.00  0.00    -0.315 A  
HETATM   17  N   UNL     1     -11.218  10.534  70.490  1.00  0.00    -0.310 NA 
HETATM   18  O   UNL     1     -11.427  16.707  69.119  1.00  0.00    -0.165 OA 
HETATM   19  C   UNL     1     -10.325  14.817  68.449  1.00  0.00    -0.233 A  
HETATM   20  C   UNL     1     -12.781  12.348  70.950  1.00  0.00    -0.273 C  
HETATM   21  O   UNL     1      -9.673  15.799  67.760  1.00  0.00    -0.215 OA 
HETATM   22  C   UNL     1     -10.079  13.450  68.420  1.00  0.00    -0.244 A  
HETATM   23  C   UNL     1     -10.919  12.613  69.200  1.00  0.00    -0.195 A  
HETATM   24  C   UNL     1     -10.447  16.963  68.102  1.00  0.00    -0.350 C  
BRANCH  22  25
HETATM   25  O   UNL     1      -9.107  12.818  67.691  1.00  0.00    -0.176 OA 
HETATM   26  C   UNL     1      -7.757  12.982  68.113  1.00  0.00    -0.143 C  
ENDBRANCH  22  25
ENDBRANCH   1  11
BRANCH   5  27
HETATM   27  O   UNL     1      -7.565   8.228  64.237  1.00  0.00    -0.107 OA 
HETATM   28  C   UNL     1      -7.677   6.926  63.681  1.00  0.00    -0.111 C  
ENDBRANCH   5  27
BRANCH   2  29
HETATM   29  O   UNL     1      -9.040  10.616  63.723  1.00  0.00    -0.198 OA 
HETATM   30  C   UNL     1      -9.507  10.113  62.476  1.00  0.00    -0.235 C  
ENDBRANCH   2  29
TORSDOF 4
ENDMDL
MODEL       23
REMARK 921   NORMALIZED FREE ENERGY PREDICTED BY IDOCK:   -5.80 KCAL/MOL
REMARK 922        TOTAL FREE ENERGY PREDICTED BY IDOCK:   -7.97 KCAL/MOL
REMARK 923 INTER-LIGAND FREE ENERGY PREDICTED BY IDOCK:   -7.31 KCAL/MOL
REMARK 924 INTRA-LIGAND FREE ENERGY PREDICTED BY IDOCK:   -0.66 KCAL/MOL
REMARK 927      BINDING AFFINITY PREDICTED BY RF-SCORE:    0.00 PKD
ROOT
HETATM    1  C   UNL     1     -11.033  10.718  67.350  1.00  0.00    -0.300 C  
HETATM    2  C   UNL     1      -9.534   9.983  64.057  1.00  0.00    -0.237 A  
HETATM    3  O   UNL     1     -11.647  11.698  66.472  1.00  0.00    -0.473 OA 
HETATM    4  C   UNL     1     -11.187  11.618  65.184  1.00  0.00    -0.197 C  
HETATM    5  C   UNL     1      -8.727   8.847  64.282  1.00  0.00    -0.063 A  
HETATM    6  C   UNL     1     -10.272  10.476  65.134  1.00  0.00    -0.358 A  
HETATM    7  O   UNL     1     -11.511  12.365  64.285  1.00  0.00    -0.323 OA 
HETATM    8  C   UNL     1      -8.748   8.229  65.550  1.00  0.00    -0.173 A  
HETATM    9  C   UNL     1      -9.511   8.743  66.604  1.00  0.00    -0.263 A  
HETATM   10  C   UNL     1     -10.233   9.903  66.392  1.00  0.00    -0.292 A  
ENDROOT
BRANCH   1  11
HETATM   11  C   UNL     1     -10.295  11.438  68.555  1.00  0.00    -0.205 C  
HETATM   12  C   UNL     1      -8.704   9.985  69.934  1.00  0.00    -0.169 A  
HETATM   13  C   UNL     1      -9.214  13.434  67.514  1.00  0.00    -0.219 C  
HETATM   14  C   UNL     1      -7.906  11.420  67.961  1.00  0.00    -0.121 C  
HETATM   15  C   UNL     1      -8.437   9.064  70.955  1.00  0.00    -0.253 A  
HETATM   16  C   UNL     1      -9.491   8.622  71.719  1.00  0.00    -0.284 A  
HETATM   17  N   UNL     1      -9.060  12.233  68.311  1.00  0.00    -0.198 NA 
HETATM   18  O   UNL     1      -9.382   7.713  72.726  1.00  0.00    -0.152 OA 
HETATM   19  C   UNL     1     -10.781   9.072  71.530  1.00  0.00    -0.351 A  
HETATM   20  C   UNL     1      -7.528  10.532  69.149  1.00  0.00    -0.114 C  
HETATM   21  O   UNL     1     -11.633   8.479  72.417  1.00  0.00    -0.372 OA 
HETATM   22  C   UNL     1     -11.091   9.999  70.542  1.00  0.00    -0.331 A  
HETATM   23  C   UNL     1     -10.034  10.451  69.709  1.00  0.00    -0.167 A  
HETATM   24  C   UNL     1     -10.763   7.547  73.083  1.00  0.00    -0.398 C  
BRANCH  22  25
HETATM   25  O   UNL     1     -12.331  10.513  70.275  1.00  0.00    -0.303 OA 
HETATM   26  C   UNL     1     -12.878  11.432  71.215  1.00  0.00    -0.379 C  
ENDBRANCH  22  25
ENDBRANCH   1  11
BRANCH   5  27
HETATM   27  O   UNL     1      -7.932   8.419  63.253  1.00  0.00    -0.149 OA 
HETATM   28  C   UNL     1      -6.573   8.113  63.532  1.00  0.00    -0.076 C  
ENDBRANCH   5  27
BRANCH   2  29
HETATM   29  O   UNL     1      -9.596  10.709  62.899  1.00  0.00    -0.298 OA 
HETATM   30  C   UNL     1      -8.388  11.298  62.433  1.00  0.00    -0.090 C  
ENDBRANCH   2  29
TORSDOF 4
ENDMDL
MODEL       24
REMARK 921   NORMALIZED FREE ENERGY PREDICTED BY IDOCK:   -5.74 KCAL/MOL
REMARK 922        TOTAL FREE ENERGY PREDICTED BY IDOCK:   -7.89 KCAL/MOL
REMARK 923 INTER-LIGAND FREE ENERGY PREDICTED BY IDOCK:   -7.14 KCAL/MOL
REMARK 924 INTRA-LIGAND FREE ENERGY PREDICTED BY IDOCK:   -0.75 KCAL/MOL
REMARK 927      BINDING AFFINITY PREDICTED BY RF-SCORE:    0.00 PKD
ROOT
HETATM    1  C   UNL     1      -9.584  13.808  68.282  1.00  0.00    -0.219 C  
HETATM    2  C   UNL     1     -12.379  12.734  70.442  1.00  0.00    -0.247 A  
HETATM    3  O   UNL     1     -10.181  15.060  68.709  1.00  0.00    -0.221 OA 
HETATM    4  C   UNL     1     -11.282  14.878  69.505  1.00  0.00    -0.277 C  
HETATM    5  C   UNL     1     -12.265  11.327  70.493  1.00  0.00    -0.383 A  
HETATM    6  C   UNL     1     -11.414  13.435  69.717  1.00  0.00    -0.236 A  
HETATM    7  O   UNL     1     -11.979  15.770  69.940  1.00  0.00    -0.355 OA 
HETATM    8  C   UNL     1     -11.163  10.703  69.871  1.00  0.00    -0.378 A  
HETATM    9  C   UNL     1     -10.207  11.440  69.163  1.00  0.00    -0.084 A  
HETATM   10  C   UNL     1     -10.375  12.808  69.053  1.00  0.00     0.040 A  
ENDROOT
BRANCH   1  11
HETATM   11  C   UNL     1      -9.560  13.717  66.698  1.00  0.00    -0.288 C  
HETATM   12  C   UNL     1     -10.516  11.576  65.675  1.00  0.00    -0.317 A  
HETATM   13  C   UNL     1     -10.696  15.808  65.941  1.00  0.00    -0.313 C  
HETATM   14  C   UNL     1     -11.923  13.697  66.009  1.00  0.00    -0.413 C  
HETATM   15  C   UNL     1     -10.407  10.240  65.271  1.00  0.00    -0.218 A  
HETATM   16  C   UNL     1      -9.196   9.611  65.437  1.00  0.00    -0.238 A  
HETATM   17  N   UNL     1     -10.634  14.361  65.894  1.00  0.00    -0.296 NA 
HETATM   18  O   UNL     1      -8.953   8.312  65.111  1.00  0.00    -0.054 OA 
HETATM   19  C   UNL     1      -8.093  10.255  65.957  1.00  0.00    -0.139 A  
HETATM   20  C   UNL     1     -11.828  12.290  65.415  1.00  0.00    -0.418 C  
HETATM   21  O   UNL     1      -7.023   9.409  66.014  1.00  0.00    -0.087 OA 
HETATM   22  C   UNL     1      -8.149  11.585  66.355  1.00  0.00    -0.069 A  
HETATM   23  C   UNL     1      -9.393  12.257  66.233  1.00  0.00    -0.206 A  
HETATM   24  C   UNL     1      -7.607   8.166  65.587  1.00  0.00    -0.083 C  
BRANCH  22  25
HETATM   25  O   UNL     1      -7.117  12.318  66.877  1.00  0.00    -0.081 OA 
HETATM   26  C   UNL     1      -6.594  11.913  68.138  1.00  0.00    -0.057 C  
ENDBRANCH  22  25
ENDBRANCH   1  11
BRANCH   5  27
HETATM   27  O   UNL     1     -13.262  10.632  71.124  1.00  0.00    -0.345 OA 
HETATM   28  C   UNL     1     -12.902   9.533  71.947  1.00  0.00    -0.420 C  
ENDBRANCH   5  27
BRANCH   2  29
HETATM   29  O   UNL     1     -13.402  13.478  70.964  1.00  0.00    -0.151 OA 
HETATM   30  C   UNL     1     -13.422  13.658  72.375  1.00  0.00    -0.584 C  
ENDBRANCH   2  29
TORSDOF 4
ENDMDL
MODEL       25
REMARK 921   NORMALIZED FREE ENERGY PREDICTED BY IDOCK:   -5.74 KCAL/MOL
REMARK 922        TOTAL FREE ENERGY PREDICTED BY IDOCK:   -7.89 KCAL/MOL
REMARK 923 INTER-LIGAND FREE ENERGY PREDICTED BY IDOCK:   -7.09 KCAL/MOL
REMARK 924 INTRA-LIGAND FREE ENERGY PREDICTED BY IDOCK:   -0.80 KCAL/MOL
REMARK 927      BINDING AFFINITY PREDICTED BY RF-SCORE:    0.00 PKD
ROOT
HETATM    1  C   UNL     1     -10.524   9.198  67.278  1.00  0.00    -0.265 C  
HETATM    2  C   UNL     1     -10.826   7.184  70.358  1.00  0.00    -0.246 A  
HETATM    3  O   UNL     1     -10.737   7.850  66.781  1.00  0.00    -0.304 OA 
HETATM    4  C   UNL     1     -10.838   6.925  67.787  1.00  0.00    -0.241 C  
HETATM    5  C   UNL     1     -10.759   8.129  71.405  1.00  0.00    -0.232 A  
HETATM    6  C   UNL     1     -10.779   7.666  69.048  1.00  0.00    -0.134 A  
HETATM    7  O   UNL     1     -10.963   5.731  67.619  1.00  0.00    -0.240 OA 
HETATM    8  C   UNL     1     -10.711   9.503  71.090  1.00  0.00    -0.408 A  
HETATM    9  C   UNL     1     -10.678   9.951  69.764  1.00  0.00    -0.298 A  
HETATM   10  C   UNL     1     -10.663   9.011  68.750  1.00  0.00    -0.140 A  
ENDROOT
BRANCH   1  11
HETATM   11  C   UNL     1      -9.173   9.795  66.700  1.00  0.00    -0.150 C  
HETATM   12  C   UNL     1      -8.460  12.072  67.621  1.00  0.00    -0.160 A  
HETATM   13  C   UNL     1      -7.494   7.979  67.050  1.00  0.00    -0.092 C  
HETATM   14  C   UNL     1      -7.619   9.858  68.607  1.00  0.00    -0.080 C  
HETATM   15  C   UNL     1      -8.506  13.473  67.637  1.00  0.00    -0.184 A  
HETATM   16  C   UNL     1      -9.310  14.104  66.717  1.00  0.00    -0.282 A  
HETATM   17  N   UNL     1      -7.863   9.366  67.261  1.00  0.00    -0.098 NA 
HETATM   18  O   UNL     1      -9.468  15.453  66.633  1.00  0.00    -0.228 OA 
HETATM   19  C   UNL     1     -10.040  13.411  65.774  1.00  0.00    -0.288 A  
HETATM   20  C   UNL     1      -7.511  11.384  68.581  1.00  0.00    -0.119 C  
HETATM   21  O   UNL     1     -10.748  14.272  64.985  1.00  0.00    -0.369 OA 
HETATM   22  C   UNL     1     -10.012  12.023  65.708  1.00  0.00    -0.241 A  
HETATM   23  C   UNL     1      -9.222  11.335  66.666  1.00  0.00    -0.191 A  
HETATM   24  C   UNL     1     -10.469  15.539  65.607  1.00  0.00    -0.374 C  
BRANCH  22  25
HETATM   25  O   UNL     1     -10.691  11.242  64.813  1.00  0.00    -0.310 OA 
HETATM   26  C   UNL     1     -10.231  11.232  63.465  1.00  0.00    -0.403 C  
ENDBRANCH  22  25
ENDBRANCH   1  11
BRANCH   5  27
HETATM   27  O   UNL     1     -10.710   7.652  72.688  1.00  0.00    -0.262 OA 
HETATM   28  C   UNL     1      -9.497   7.787  73.413  1.00  0.00    -0.287 C  
ENDBRANCH   5  27
BRANCH   2  29
HETATM   29  O   UNL     1     -10.844   5.824  70.501  1.00  0.00    -0.283 OA 
HETATM   30  C   UNL     1      -9.596   5.175  70.721  1.00  0.00    -0.179 C  
ENDBRANCH   2  29
TORSDOF 4
ENDMDL
MODEL       26
REMARK 921   NORMALIZED FREE ENERGY PREDICTED BY IDOCK:   -5.72 KCAL/MOL
REMARK 922        TOTAL FREE ENERGY PREDICTED BY IDOCK:   -7.86 KCAL/MOL
REMARK 923 INTER-LIGAND FREE ENERGY PREDICTED BY IDOCK:   -7.21 KCAL/MOL
REMARK 924 INTRA-LIGAND FREE ENERGY PREDICTED BY IDOCK:   -0.65 KCAL/MOL
REMARK 927      BINDING AFFINITY PREDICTED BY RF-SCORE:    0.00 PKD
ROOT
HETATM    1  C   UNL     1     -10.843   9.333  67.014  1.00  0.00    -0.007 C  
HETATM    2  C   UNL     1      -9.945   7.617  70.158  1.00  0.00    -0.186 A  
HETATM    3  O   UNL     1     -10.511   7.987  66.582  1.00  0.00    -0.303 OA 
HETATM    4  C   UNL     1     -10.106   7.184  67.615  1.00  0.00    -0.180 C  
HETATM    5  C   UNL     1     -10.181   8.579  71.164  1.00  0.00    -0.214 A  
HETATM    6  C   UNL     1     -10.241   7.974  68.841  1.00  0.00    -0.220 A  
HETATM    7  O   UNL     1      -9.727   6.038  67.495  1.00  0.00    -0.111 OA 
HETATM    8  C   UNL     1     -10.754   9.819  70.810  1.00  0.00    -0.393 A  
HETATM    9  C   UNL     1     -11.050  10.137  69.480  1.00  0.00    -0.295 A  
HETATM   10  C   UNL     1     -10.739   9.217  68.496  1.00  0.00    -0.185 A  
ENDROOT
BRANCH   1  11
HETATM   11  C   UNL     1      -9.941  10.396  66.259  1.00  0.00    -0.226 C  
HETATM   12  C   UNL     1      -8.868  12.206  67.715  1.00  0.00    -0.172 A  
HETATM   13  C   UNL     1      -8.304   9.017  64.971  1.00  0.00    -0.166 C  
HETATM   14  C   UNL     1      -7.656  10.029  67.098  1.00  0.00    -0.092 C  
HETATM   15  C   UNL     1      -8.899  13.432  68.392  1.00  0.00    -0.133 A  
HETATM   16  C   UNL     1     -10.047  14.185  68.315  1.00  0.00    -0.241 A  
HETATM   17  N   UNL     1      -8.524  10.081  65.932  1.00  0.00    -0.129 NA 
HETATM   18  O   UNL     1     -10.225  15.381  68.939  1.00  0.00    -0.203 OA 
HETATM   19  C   UNL     1     -11.144  13.787  67.578  1.00  0.00    -0.278 A  
HETATM   20  C   UNL     1      -7.573  11.419  67.734  1.00  0.00    -0.105 C  
HETATM   21  O   UNL     1     -12.144  14.712  67.668  1.00  0.00    -0.333 OA 
HETATM   22  C   UNL     1     -11.152  12.588  66.876  1.00  0.00    -0.278 A  
HETATM   23  C   UNL     1      -9.998  11.767  66.962  1.00  0.00    -0.224 A  
HETATM   24  C   UNL     1     -11.597  15.648  68.614  1.00  0.00    -0.382 C  
BRANCH  22  25
HETATM   25  O   UNL     1     -12.182  12.105  66.115  1.00  0.00    -0.611 OA 
HETATM   26  C   UNL     1     -12.400  12.708  64.843  1.00  0.00    -0.498 C  
ENDBRANCH  22  25
ENDBRANCH   1  11
BRANCH   5  27
HETATM   27  O   UNL     1      -9.804   8.265  72.443  1.00  0.00    -0.249 OA 
HETATM   28  C   UNL     1     -10.735   7.587  73.273  1.00  0.00    -0.382 C  
ENDBRANCH   5  27
BRANCH   2  29
HETATM   29  O   UNL     1      -9.367   6.390  70.337  1.00  0.00    -0.160 OA 
HETATM   30  C   UNL     1     -10.235   5.292  70.593  1.00  0.00    -0.257 C  
ENDBRANCH   2  29
TORSDOF 4
ENDMDL
MODEL       27
REMARK 921   NORMALIZED FREE ENERGY PREDICTED BY IDOCK:   -5.67 KCAL/MOL
REMARK 922        TOTAL FREE ENERGY PREDICTED BY IDOCK:   -7.80 KCAL/MOL
REMARK 923 INTER-LIGAND FREE ENERGY PREDICTED BY IDOCK:   -6.95 KCAL/MOL
REMARK 924 INTRA-LIGAND FREE ENERGY PREDICTED BY IDOCK:   -0.85 KCAL/MOL
REMARK 927      BINDING AFFINITY PREDICTED BY RF-SCORE:    0.00 PKD
ROOT
HETATM    1  C   UNL     1      -9.754  10.542  67.119  1.00  0.00    -0.171 C  
HETATM    2  C   UNL     1      -8.523   7.471  65.480  1.00  0.00    -0.119 A  
HETATM    3  O   UNL     1      -8.878  11.043  66.076  1.00  0.00    -0.182 OA 
HETATM    4  C   UNL     1      -8.277  10.040  65.361  1.00  0.00    -0.149 C  
HETATM    5  C   UNL     1      -9.208   6.423  66.134  1.00  0.00    -0.106 A  
HETATM    6  C   UNL     1      -8.821   8.778  65.867  1.00  0.00    -0.222 A  
HETATM    7  O   UNL     1      -7.465  10.210  64.477  1.00  0.00    -0.141 OA 
HETATM    8  C   UNL     1     -10.195   6.739  67.092  1.00  0.00    -0.291 A  
HETATM    9  C   UNL     1     -10.477   8.063  67.445  1.00  0.00    -0.357 A  
HETATM   10  C   UNL     1      -9.742   9.075  66.856  1.00  0.00    -0.260 A  
ENDROOT
BRANCH   1  11
HETATM   11  C   UNL     1      -9.289  11.075  68.538  1.00  0.00    -0.188 C  
HETATM   12  C   UNL     1      -9.426   9.407  70.472  1.00  0.00    -0.327 A  
HETATM   13  C   UNL     1      -6.999  11.988  68.136  1.00  0.00    -0.079 C  
HETATM   14  C   UNL     1      -7.285   9.764  69.104  1.00  0.00    -0.073 C  
HETATM   15  C   UNL     1     -10.124   8.743  71.489  1.00  0.00    -0.371 A  
HETATM   16  C   UNL     1     -11.448   9.061  71.679  1.00  0.00    -0.361 A  
HETATM   17  N   UNL     1      -7.845  11.090  68.897  1.00  0.00    -0.137 NA 
HETATM   18  O   UNL     1     -12.252   8.481  72.612  1.00  0.00    -0.379 OA 
HETATM   19  C   UNL     1     -12.093  10.021  70.928  1.00  0.00    -0.355 A  
HETATM   20  C   UNL     1      -7.947   9.113  70.320  1.00  0.00    -0.139 C  
HETATM   21  O   UNL     1     -13.396  10.144  71.318  1.00  0.00    -0.368 OA 
HETATM   22  C   UNL     1     -11.437  10.718  69.920  1.00  0.00    -0.321 A  
HETATM   23  C   UNL     1     -10.079  10.390  69.670  1.00  0.00    -0.226 A  
HETATM   24  C   UNL     1     -13.511   9.094  72.295  1.00  0.00    -0.486 C  
BRANCH  22  25
HETATM   25  O   UNL     1     -11.980  11.688  69.122  1.00  0.00    -0.323 OA 
HETATM   26  C   UNL     1     -12.011  13.018  69.631  1.00  0.00    -0.302 C  
ENDBRANCH  22  25
ENDBRANCH   1  11
BRANCH   5  27
HETATM   27  O   UNL     1      -8.850   5.139  65.823  1.00  0.00    -0.133 OA 
HETATM   28  C   UNL     1      -9.803   4.312  65.171  1.00  0.00    -0.200 C  
ENDBRANCH   5  27
BRANCH   2  29
HETATM   29  O   UNL     1      -7.522   7.326  64.560  1.00  0.00    -0.078 OA 
HETATM   30  C   UNL     1      -7.901   6.970  63.235  1.00  0.00    -0.110 C  
ENDBRANCH   2  29
TORSDOF 4
ENDMDL
MODEL       28
REMARK 921   NORMALIZED FREE ENERGY PREDICTED BY IDOCK:   -5.57 KCAL/MOL
REMARK 922        TOTAL FREE ENERGY PREDICTED BY IDOCK:   -7.68 KCAL/MOL
REMARK 923 INTER-LIGAND FREE ENERGY PREDICTED BY IDOCK:   -7.54 KCAL/MOL
REMARK 924 INTRA-LIGAND FREE ENERGY PREDICTED BY IDOCK:   -0.15 KCAL/MOL
REMARK 927      BINDING AFFINITY PREDICTED BY RF-SCORE:    0.00 PKD
ROOT
HETATM    1  C   UNL     1     -10.958  10.354  69.188  1.00  0.00    -0.241 C  
HETATM    2  C   UNL     1     -11.346  12.865  66.510  1.00  0.00    -0.318 A  
HETATM    3  O   UNL     1     -11.554  11.487  69.872  1.00  0.00    -0.297 OA 
HETATM    4  C   UNL     1     -11.748  12.562  69.045  1.00  0.00    -0.318 C  
HETATM    5  C   UNL     1     -10.917  12.202  65.340  1.00  0.00    -0.302 A  
HETATM    6  C   UNL     1     -11.350  12.137  67.701  1.00  0.00    -0.379 A  
HETATM    7  O   UNL     1     -12.181  13.639  69.397  1.00  0.00    -0.324 OA 
HETATM    8  C   UNL     1     -10.577  10.835  65.409  1.00  0.00    -0.224 A  
HETATM    9  C   UNL     1     -10.606  10.132  66.619  1.00  0.00    -0.214 A  
HETATM   10  C   UNL     1     -10.949  10.815  67.771  1.00  0.00    -0.354 A  
ENDROOT
BRANCH   1  11
HETATM   11  C   UNL     1      -9.588   9.949  69.876  1.00  0.00    -0.227 C  
HETATM   12  C   UNL     1      -8.897   7.496  69.660  1.00  0.00    -0.141 A  
HETATM   13  C   UNL     1      -7.927  11.565  68.945  1.00  0.00    -0.057 C  
HETATM   14  C   UNL     1      -8.094   9.307  68.029  1.00  0.00    -0.104 C  
HETATM   15  C   UNL     1      -8.938   6.156  70.067  1.00  0.00    -0.148 A  
HETATM   16  C   UNL     1      -9.710   5.835  71.158  1.00  0.00    -0.169 A  
HETATM   17  N   UNL     1      -8.298  10.182  69.172  1.00  0.00    -0.142 NA 
HETATM   18  O   UNL     1      -9.861   4.574  71.649  1.00  0.00    -0.172 OA 
HETATM   19  C   UNL     1     -10.412   6.783  71.872  1.00  0.00    -0.199 A  
HETATM   20  C   UNL     1      -7.981   7.858  68.508  1.00  0.00    -0.121 C  
HETATM   21  O   UNL     1     -11.092   6.203  72.904  1.00  0.00    -0.254 OA 
HETATM   22  C   UNL     1     -10.387   8.126  71.517  1.00  0.00    -0.209 A  
HETATM   23  C   UNL     1      -9.630   8.491  70.373  1.00  0.00    -0.189 A  
HETATM   24  C   UNL     1     -10.829   4.806  72.683  1.00  0.00    -0.175 C  
BRANCH  22  25
HETATM   25  O   UNL     1     -11.041   9.144  72.157  1.00  0.00    -0.316 OA 
HETATM   26  C   UNL     1     -12.463   9.089  72.200  1.00  0.00    -0.380 C  
ENDBRANCH  22  25
ENDBRANCH   1  11
BRANCH   5  27
HETATM   27  O   UNL     1     -10.823  12.940  64.190  1.00  0.00    -0.370 OA 
HETATM   28  C   UNL     1     -11.966  13.034  63.353  1.00  0.00    -0.520 C  
ENDBRANCH   5  27
BRANCH   2  29
HETATM   29  O   UNL     1     -11.675  14.189  66.610  1.00  0.00    -0.365 OA 
HETATM   30  C   UNL     1     -10.607  15.129  66.606  1.00  0.00    -0.304 C  
ENDBRANCH   2  29
TORSDOF 4
ENDMDL
MODEL       29
REMARK 921   NORMALIZED FREE ENERGY PREDICTED BY IDOCK:   -5.51 KCAL/MOL
REMARK 922        TOTAL FREE ENERGY PREDICTED BY IDOCK:   -7.60 KCAL/MOL
REMARK 923 INTER-LIGAND FREE ENERGY PREDICTED BY IDOCK:   -7.42 KCAL/MOL
REMARK 924 INTRA-LIGAND FREE ENERGY PREDICTED BY IDOCK:   -0.18 KCAL/MOL
REMARK 927      BINDING AFFINITY PREDICTED BY RF-SCORE:    0.00 PKD
ROOT
HETATM    1  C   UNL     1      -8.449  14.331  68.326  1.00  0.00    -0.167 C  
HETATM    2  C   UNL     1      -7.892  17.938  67.764  1.00  0.00    -0.221 A  
HETATM    3  O   UNL     1      -7.093  14.387  67.811  1.00  0.00    -0.143 OA 
HETATM    4  C   UNL     1      -6.698  15.661  67.497  1.00  0.00    -0.191 C  
HETATM    5  C   UNL     1      -9.071  18.554  68.236  1.00  0.00    -0.317 A  
HETATM    6  C   UNL     1      -7.794  16.550  67.887  1.00  0.00    -0.162 A  
HETATM    7  O   UNL     1      -5.631  15.954  67.002  1.00  0.00    -0.334 OA 
HETATM    8  C   UNL     1     -10.059  17.763  68.860  1.00  0.00    -0.350 A  
HETATM    9  C   UNL     1      -9.921  16.376  68.977  1.00  0.00    -0.267 A  
HETATM   10  C   UNL     1      -8.799  15.776  68.439  1.00  0.00    -0.185 A  
ENDROOT
BRANCH   1  11
HETATM   11  C   UNL     1      -9.347  13.389  67.420  1.00  0.00    -0.221 C  
HETATM   12  C   UNL     1     -11.370  12.317  68.562  1.00  0.00    -0.332 A  
HETATM   13  C   UNL     1      -9.920  14.798  65.439  1.00  0.00    -0.334 C  
HETATM   14  C   UNL     1     -11.526  14.522  67.258  1.00  0.00    -0.365 C  
HETATM   15  C   UNL     1     -11.967  11.321  69.346  1.00  0.00    -0.410 A  
HETATM   16  C   UNL     1     -11.172  10.302  69.813  1.00  0.00    -0.282 A  
HETATM   17  N   UNL     1     -10.391  13.973  66.534  1.00  0.00    -0.280 NA 
HETATM   18  O   UNL     1     -11.612   9.283  70.602  1.00  0.00    -0.267 OA 
HETATM   19  C   UNL     1      -9.828  10.216  69.514  1.00  0.00    -0.232 A  
HETATM   20  C   UNL     1     -12.265  13.393  67.981  1.00  0.00    -0.136 C  
HETATM   21  O   UNL     1      -9.274   9.113  70.098  1.00  0.00    -0.174 OA 
HETATM   22  C   UNL     1      -9.196  11.170  68.726  1.00  0.00    -0.145 A  
HETATM   23  C   UNL     1      -9.977  12.258  68.256  1.00  0.00    -0.216 A  
HETATM   24  C   UNL     1     -10.377   8.602  70.868  1.00  0.00    -0.211 C  
BRANCH  22  25
HETATM   25  O   UNL     1      -7.875  11.176  68.367  1.00  0.00    -0.117 OA 
HETATM   26  C   UNL     1      -6.909  11.220  69.413  1.00  0.00    -0.121 C  
ENDBRANCH  22  25
ENDBRANCH   1  11
BRANCH   5  27
HETATM   27  O   UNL     1      -9.208  19.901  68.032  1.00  0.00    -0.334 OA 
HETATM   28  C   UNL     1     -10.018  20.341  66.951  1.00  0.00    -0.452 C  
ENDBRANCH   5  27
BRANCH   2  29
HETATM   29  O   UNL     1      -6.864  18.561  67.111  1.00  0.00    -0.198 OA 
HETATM   30  C   UNL     1      -7.010  18.765  65.711  1.00  0.00    -0.256 C  
ENDBRANCH   2  29
TORSDOF 4
ENDMDL
MODEL       30
REMARK 921   NORMALIZED FREE ENERGY PREDICTED BY IDOCK:   -5.49 KCAL/MOL
REMARK 922        TOTAL FREE ENERGY PREDICTED BY IDOCK:   -7.59 KCAL/MOL
REMARK 923 INTER-LIGAND FREE ENERGY PREDICTED BY IDOCK:   -7.38 KCAL/MOL
REMARK 924 INTRA-LIGAND FREE ENERGY PREDICTED BY IDOCK:   -0.21 KCAL/MOL
REMARK 927      BINDING AFFINITY PREDICTED BY RF-SCORE:    0.00 PKD
ROOT
HETATM    1  C   UNL     1      -6.758  14.974  67.720  1.00  0.00    -0.168 C  
HETATM    2  C   UNL     1      -7.106  18.568  68.490  1.00  0.00    -0.277 A  
HETATM    3  O   UNL     1      -7.533  15.485  66.604  1.00  0.00    -0.087 OA 
HETATM    4  C   UNL     1      -7.810  16.822  66.720  1.00  0.00    -0.246 C  
HETATM    5  C   UNL     1      -6.349  18.751  69.668  1.00  0.00    -0.221 A  
HETATM    6  C   UNL     1      -7.127  17.291  67.927  1.00  0.00    -0.174 A  
HETATM    7  O   UNL     1      -8.487  17.460  65.942  1.00  0.00    -0.530 OA 
HETATM    8  C   UNL     1      -5.607  17.668  70.184  1.00  0.00    -0.248 A  
HETATM    9  C   UNL     1      -5.642  16.404  69.586  1.00  0.00    -0.155 A  
HETATM   10  C   UNL     1      -6.450  16.219  68.480  1.00  0.00    -0.129 A  
ENDROOT
BRANCH   1  11
HETATM   11  C   UNL     1      -7.538  13.800  68.446  1.00  0.00    -0.135 C  
HETATM   12  C   UNL     1      -8.818  12.186  66.929  1.00  0.00    -0.202 A  
HETATM   13  C   UNL     1      -5.813  12.704  69.881  1.00  0.00    -0.133 C  
HETATM   14  C   UNL     1      -6.421  11.729  67.725  1.00  0.00    -0.075 C  
HETATM   15  C   UNL     1      -9.942  11.818  66.179  1.00  0.00    -0.254 A  
HETATM   16  C   UNL     1     -11.018  12.674  66.163  1.00  0.00    -0.282 A  
HETATM   17  N   UNL     1      -6.822  12.560  68.850  1.00  0.00    -0.097 NA 
HETATM   18  O   UNL     1     -12.164  12.456  65.461  1.00  0.00    -0.568 OA 
HETATM   19  C   UNL     1     -11.034  13.854  66.877  1.00  0.00    -0.295 A  
HETATM   20  C   UNL     1      -7.668  11.203  67.010  1.00  0.00    -0.139 C  
HETATM   21  O   UNL     1     -12.215  14.514  66.691  1.00  0.00    -0.379 OA 
HETATM   22  C   UNL     1      -9.950  14.252  67.649  1.00  0.00    -0.225 A  
HETATM   23  C   UNL     1      -8.806  13.412  67.660  1.00  0.00    -0.200 A  
HETATM   24  C   UNL     1     -12.866  13.682  65.713  1.00  0.00    -0.333 C  
BRANCH  22  25
HETATM   25  O   UNL     1      -9.864  15.396  68.395  1.00  0.00    -0.209 OA 
HETATM   26  C   UNL     1     -10.593  15.440  69.619  1.00  0.00    -0.279 C  
ENDBRANCH  22  25
ENDBRANCH   1  11
BRANCH   5  27
HETATM   27  O   UNL     1      -6.403  19.979  70.272  1.00  0.00    -0.358 OA 
HETATM   28  C   UNL     1      -5.713  20.158  71.500  1.00  0.00    -0.362 C  
ENDBRANCH   5  27
BRANCH   2  29
HETATM   29  O   UNL     1      -7.900  19.507  67.889  1.00  0.00    -0.279 OA 
HETATM   30  C   UNL     1      -9.216  19.672  68.403  1.00  0.00    -0.339 C  
ENDBRANCH   2  29
TORSDOF 4
ENDMDL
MODEL       31
REMARK 921   NORMALIZED FREE ENERGY PREDICTED BY IDOCK:   -5.44 KCAL/MOL
REMARK 922        TOTAL FREE ENERGY PREDICTED BY IDOCK:   -7.52 KCAL/MOL
REMARK 923 INTER-LIGAND FREE ENERGY PREDICTED BY IDOCK:   -6.67 KCAL/MOL
REMARK 924 INTRA-LIGAND FREE ENERGY PREDICTED BY IDOCK:   -0.85 KCAL/MOL
REMARK 927      BINDING AFFINITY PREDICTED BY RF-SCORE:    0.00 PKD
ROOT
HETATM    1  C   UNL     1      -8.102   8.923  68.137  1.00  0.00    -0.106 C  
HETATM    2  C   UNL     1     -10.005  11.313  66.063  1.00  0.00    -0.231 A  
HETATM    3  O   UNL     1      -7.171   9.267  67.078  1.00  0.00    -0.085 OA 
HETATM    4  C   UNL     1      -7.709  10.132  66.160  1.00  0.00    -0.113 C  
HETATM    5  C   UNL     1     -11.226  11.483  66.751  1.00  0.00    -0.285 A  
HETATM    6  C   UNL     1      -9.047  10.479  66.642  1.00  0.00    -0.172 A  
HETATM    7  O   UNL     1      -7.144  10.520  65.160  1.00  0.00    -0.112 OA 
HETATM    8  C   UNL     1     -11.400  10.864  68.007  1.00  0.00    -0.382 A  
HETATM    9  C   UNL     1     -10.412  10.044  68.564  1.00  0.00    -0.229 A  
HETATM   10  C   UNL     1      -9.255   9.821  67.841  1.00  0.00    -0.133 A  
ENDROOT
BRANCH   1  11
HETATM   11  C   UNL     1      -8.337   7.356  68.181  1.00  0.00    -0.124 C  
HETATM   12  C   UNL     1     -10.571   6.576  69.154  1.00  0.00    -0.286 A  
HETATM   13  C   UNL     1      -7.924   6.601  65.837  1.00  0.00    -0.112 C  
HETATM   14  C   UNL     1     -10.207   6.932  66.639  1.00  0.00    -0.145 C  
HETATM   15  C   UNL     1     -11.407   6.244  70.228  1.00  0.00    -0.457 A  
HETATM   16  C   UNL     1     -10.887   6.315  71.499  1.00  0.00    -0.254 A  
HETATM   17  N   UNL     1      -8.823   6.636  66.973  1.00  0.00    -0.112 NA 
HETATM   18  O   UNL     1     -11.590   6.044  72.633  1.00  0.00    -0.279 OA 
HETATM   19  C   UNL     1      -9.577   6.671  71.742  1.00  0.00    -0.158 A  
HETATM   20  C   UNL     1     -11.123   6.417  67.752  1.00  0.00    -0.376 C  
HETATM   21  O   UNL     1      -9.317   6.662  73.083  1.00  0.00    -0.131 OA 
HETATM   22  C   UNL     1      -8.706   6.991  70.708  1.00  0.00    -0.148 A  
HETATM   23  C   UNL     1      -9.218   6.965  69.385  1.00  0.00    -0.147 A  
HETATM   24  C   UNL     1     -10.616   6.378  73.633  1.00  0.00    -0.269 C  
BRANCH  22  25
HETATM   25  O   UNL     1      -7.392   7.351  70.840  1.00  0.00    -0.071 OA 
HETATM   26  C   UNL     1      -6.457   6.325  71.159  1.00  0.00    -0.049 C  
ENDBRANCH  22  25
ENDBRANCH   1  11
BRANCH   5  27
HETATM   27  O   UNL     1     -12.201  12.224  66.140  1.00  0.00    -0.647 OA 
HETATM   28  C   UNL     1     -12.169  13.636  66.288  1.00  0.00    -0.436 C  
ENDBRANCH   5  27
BRANCH   2  29
HETATM   29  O   UNL     1      -9.700  11.818  64.829  1.00  0.00    -0.233 OA 
HETATM   30  C   UNL     1     -10.267  11.164  63.699  1.00  0.00    -0.387 C  
ENDBRANCH   2  29
TORSDOF 4
ENDMDL
MODEL       32
REMARK 921   NORMALIZED FREE ENERGY PREDICTED BY IDOCK:   -5.42 KCAL/MOL
REMARK 922        TOTAL FREE ENERGY PREDICTED BY IDOCK:   -7.49 KCAL/MOL
REMARK 923 INTER-LIGAND FREE ENERGY PREDICTED BY IDOCK:   -6.79 KCAL/MOL
REMARK 924 INTRA-LIGAND FREE ENERGY PREDICTED BY IDOCK:   -0.70 KCAL/MOL
REMARK 927      BINDING AFFINITY PREDICTED BY RF-SCORE:    0.00 PKD
ROOT
HETATM    1  C   UNL     1     -10.900   9.871  67.754  1.00  0.00    -0.264 C  
HETATM    2  C   UNL     1     -11.168  13.412  66.745  1.00  0.00    -0.310 A  
HETATM    3  O   UNL     1     -11.432  10.520  68.939  1.00  0.00    -0.255 OA 
HETATM    4  C   UNL     1     -11.573  11.874  68.782  1.00  0.00    -0.309 C  
HETATM    5  C   UNL     1     -10.781  13.422  65.387  1.00  0.00    -0.300 A  
HETATM    6  C   UNL     1     -11.205  12.179  67.397  1.00  0.00    -0.362 A  
HETATM    7  O   UNL     1     -11.946  12.637  69.647  1.00  0.00    -0.315 OA 
HETATM    8  C   UNL     1     -10.513  12.198  64.739  1.00  0.00    -0.332 A  
HETATM    9  C   UNL     1     -10.573  10.978  65.422  1.00  0.00    -0.270 A  
HETATM   10  C   UNL     1     -10.874  10.990  66.771  1.00  0.00    -0.307 A  
ENDROOT
BRANCH   1  11
HETATM   11  C   UNL     1      -9.549   9.113  68.096  1.00  0.00    -0.144 C  
HETATM   12  C   UNL     1      -8.344   8.009  66.129  1.00  0.00    -0.125 A  
HETATM   13  C   UNL     1      -8.179  10.810  69.313  1.00  0.00    -0.078 C  
HETATM   14  C   UNL     1      -7.781  10.377  66.943  1.00  0.00    -0.111 C  
HETATM   15  C   UNL     1      -8.145   6.951  65.233  1.00  0.00    -0.134 A  
HETATM   16  C   UNL     1      -8.936   5.834  65.366  1.00  0.00    -0.036 A  
HETATM   17  N   UNL     1      -8.274   9.870  68.213  1.00  0.00    -0.108 NA 
HETATM   18  O   UNL     1      -8.868   4.743  64.554  1.00  0.00    -0.150 OA 
HETATM   19  C   UNL     1      -9.887   5.715  66.358  1.00  0.00    -0.154 A  
HETATM   20  C   UNL     1      -7.415   9.203  66.031  1.00  0.00    -0.095 C  
HETATM   21  O   UNL     1     -10.529   4.513  66.268  1.00  0.00    -0.259 OA 
HETATM   22  C   UNL     1     -10.107   6.731  67.279  1.00  0.00    -0.182 A  
HETATM   23  C   UNL     1      -9.335   7.915  67.151  1.00  0.00    -0.190 A  
HETATM   24  C   UNL     1      -9.959   3.964  65.066  1.00  0.00    -0.184 C  
BRANCH  22  25
HETATM   25  O   UNL     1     -11.018   6.713  68.300  1.00  0.00    -0.262 OA 
HETATM   26  C   UNL     1     -10.688   5.962  69.465  1.00  0.00    -0.343 C  
ENDBRANCH  22  25
ENDBRANCH   1  11
BRANCH   5  27
HETATM   27  O   UNL     1     -10.654  14.639  64.772  1.00  0.00    -0.421 OA 
HETATM   28  C   UNL     1     -11.824  15.266  64.267  1.00  0.00    -0.225 C  
ENDBRANCH   5  27
BRANCH   2  29
HETATM   29  O   UNL     1     -11.426  14.512  67.516  1.00  0.00    -0.323 OA 
HETATM   30  C   UNL     1     -10.307  15.240  68.009  1.00  0.00    -0.244 C  
ENDBRANCH   2  29
TORSDOF 4
ENDMDL
MODEL       33
REMARK 921   NORMALIZED FREE ENERGY PREDICTED BY IDOCK:   -5.40 KCAL/MOL
REMARK 922        TOTAL FREE ENERGY PREDICTED BY IDOCK:   -7.47 KCAL/MOL
REMARK 923 INTER-LIGAND FREE ENERGY PREDICTED BY IDOCK:   -7.47 KCAL/MOL
REMARK 924 INTRA-LIGAND FREE ENERGY PREDICTED BY IDOCK:   -0.00 KCAL/MOL
REMARK 927      BINDING AFFINITY PREDICTED BY RF-SCORE:    0.00 PKD
ROOT
HETATM    1  C   UNL     1     -10.261   8.198  67.739  1.00  0.00    -0.228 C  
HETATM    2  C   UNL     1      -9.637   5.346  70.000  1.00  0.00    -0.169 A  
HETATM    3  O   UNL     1      -9.361   7.353  66.976  1.00  0.00    -0.137 OA 
HETATM    4  C   UNL     1      -8.970   6.236  67.667  1.00  0.00    -0.115 C  
HETATM    5  C   UNL     1     -10.458   5.599  71.120  1.00  0.00    -0.241 A  
HETATM    6  C   UNL     1      -9.694   6.253  68.940  1.00  0.00    -0.144 A  
HETATM    7  O   UNL     1      -8.181   5.410  67.260  1.00  0.00    -0.104 OA 
HETATM    8  C   UNL     1     -11.334   6.704  71.097  1.00  0.00    -0.355 A  
HETATM    9  C   UNL     1     -11.373   7.586  70.011  1.00  0.00    -0.115 A  
HETATM   10  C   UNL     1     -10.507   7.372  68.955  1.00  0.00    -0.217 A  
ENDROOT
BRANCH   1  11
HETATM   11  C   UNL     1      -9.649   9.652  67.905  1.00  0.00    -0.139 C  
HETATM   12  C   UNL     1     -11.295  11.600  67.701  1.00  0.00    -0.362 A  
HETATM   13  C   UNL     1      -8.431   9.566  70.084  1.00  0.00    -0.205 C  
HETATM   14  C   UNL     1     -10.661  10.556  69.959  1.00  0.00    -0.169 C  
HETATM   15  C   UNL     1     -12.036  12.523  66.953  1.00  0.00    -0.306 A  
HETATM   16  C   UNL     1     -11.903  12.502  65.584  1.00  0.00    -0.438 A  
HETATM   17  N   UNL     1      -9.429  10.223  69.262  1.00  0.00    -0.209 NA 
HETATM   18  O   UNL     1     -12.577  13.323  64.734  1.00  0.00    -0.577 OA 
HETATM   19  C   UNL     1     -11.052  11.630  64.938  1.00  0.00    -0.253 A  
HETATM   20  C   UNL     1     -11.381  11.682  69.212  1.00  0.00    -0.353 C  
HETATM   21  O   UNL     1     -11.108  11.816  63.586  1.00  0.00    -0.389 OA 
HETATM   22  C   UNL     1     -10.284  10.709  65.639  1.00  0.00    -0.253 A  
HETATM   23  C   UNL     1     -10.423  10.676  67.052  1.00  0.00    -0.295 A  
HETATM   24  C   UNL     1     -12.150  12.800  63.467  1.00  0.00    -0.559 C  
BRANCH  22  25
HETATM   25  O   UNL     1      -9.409   9.806  65.098  1.00  0.00    -0.225 OA 
HETATM   26  C   UNL     1      -8.189  10.310  64.565  1.00  0.00    -0.158 C  
ENDBRANCH  22  25
ENDBRANCH   1  11
BRANCH   5  27
HETATM   27  O   UNL     1     -10.335   4.763  72.198  1.00  0.00    -0.193 OA 
HETATM   28  C   UNL     1     -11.254   4.905  73.271  1.00  0.00    -0.345 C  
ENDBRANCH   5  27
BRANCH   2  29
HETATM   29  O   UNL     1      -8.717   4.340  69.886  1.00  0.00    -0.067 OA 
HETATM   30  C   UNL     1      -9.207   3.042  69.573  1.00  0.00    -0.147 C  
ENDBRANCH   2  29
TORSDOF 4
ENDMDL
MODEL       34
REMARK 921   NORMALIZED FREE ENERGY PREDICTED BY IDOCK:   -5.40 KCAL/MOL
REMARK 922        TOTAL FREE ENERGY PREDICTED BY IDOCK:   -7.47 KCAL/MOL
REMARK 923 INTER-LIGAND FREE ENERGY PREDICTED BY IDOCK:   -8.74 KCAL/MOL
REMARK 924 INTRA-LIGAND FREE ENERGY PREDICTED BY IDOCK:    1.27 KCAL/MOL
REMARK 927      BINDING AFFINITY PREDICTED BY RF-SCORE:    0.00 PKD
ROOT
HETATM    1  C   UNL     1     -11.112  10.579  67.913  1.00  0.00    -0.304 C  
HETATM    2  C   UNL     1      -9.091   9.836  64.913  1.00  0.00    -0.229 A  
HETATM    3  O   UNL     1     -11.135  11.827  67.172  1.00  0.00    -0.262 OA 
HETATM    4  C   UNL     1     -10.396  11.773  66.019  1.00  0.00    -0.239 C  
HETATM    5  C   UNL     1      -8.766   8.467  65.037  1.00  0.00    -0.088 A  
HETATM    6  C   UNL     1      -9.901  10.400  65.900  1.00  0.00    -0.294 A  
HETATM    7  O   UNL     1     -10.221  12.705  65.264  1.00  0.00    -0.286 OA 
HETATM    8  C   UNL     1      -9.315   7.723  66.103  1.00  0.00    -0.162 A  
HETATM    9  C   UNL     1     -10.133   8.320  67.068  1.00  0.00    -0.353 A  
HETATM   10  C   UNL     1     -10.378   9.677  66.979  1.00  0.00    -0.315 A  
ENDROOT
BRANCH   1  11
HETATM   11  C   UNL     1     -10.537  10.811  69.372  1.00  0.00    -0.221 C  
HETATM   12  C   UNL     1     -12.248  10.810  71.273  1.00  0.00    -0.426 A  
HETATM   13  C   UNL     1      -8.742   9.091  69.612  1.00  0.00    -0.143 C  
HETATM   14  C   UNL     1     -10.952   8.707  70.580  1.00  0.00    -0.238 C  
HETATM   15  C   UNL     1     -13.210  11.438  72.076  1.00  0.00    -0.432 A  
HETATM   16  C   UNL     1     -13.474  12.768  71.848  1.00  0.00    -0.358 A  
HETATM   17  N   UNL     1      -9.959   9.675  70.140  1.00  0.00    -0.246 NA 
HETATM   18  O   UNL     1     -14.397  13.496  72.534  1.00  0.00    -0.713 OA 
HETATM   19  C   UNL     1     -12.811  13.499  70.885  1.00  0.00    -0.226 A  
HETATM   20  C   UNL     1     -11.901   9.368  71.582  1.00  0.00    -0.464 C  
HETATM   21  O   UNL     1     -13.260  14.788  70.865  1.00  0.00    -0.371 OA 
HETATM   22  C   UNL     1     -11.838  12.924  70.077  1.00  0.00    -0.286 A  
HETATM   23  C   UNL     1     -11.563  11.543  70.259  1.00  0.00    -0.305 A  
HETATM   24  C   UNL     1     -14.331  14.742  71.824  1.00  0.00    -0.569 C  
BRANCH  22  25
HETATM   25  O   UNL     1     -11.120  13.558  69.099  1.00  0.00    -0.256 OA 
HETATM   26  C   UNL     1     -11.803  14.517  68.298  1.00  0.00    -0.312 C  
ENDBRANCH  22  25
ENDBRANCH   1  11
BRANCH   5  27
HETATM   27  O   UNL     1      -7.897   7.936  64.121  1.00  0.00    -0.126 OA 
HETATM   28  C   UNL     1      -6.657   7.423  64.585  1.00  0.00    -0.040 C  
ENDBRANCH   5  27
BRANCH   2  29
HETATM   29  O   UNL     1      -8.614  10.693  63.959  1.00  0.00    -0.168 OA 
HETATM   30  C   UNL     1      -9.174  10.595  62.655  1.00  0.00    -0.309 C  
ENDBRANCH   2  29
TORSDOF 4
ENDMDL
MODEL       35
REMARK 921   NORMALIZED FREE ENERGY PREDICTED BY IDOCK:   -5.39 KCAL/MOL
REMARK 922        TOTAL FREE ENERGY PREDICTED BY IDOCK:   -7.46 KCAL/MOL
REMARK 923 INTER-LIGAND FREE ENERGY PREDICTED BY IDOCK:   -7.00 KCAL/MOL
REMARK 924 INTRA-LIGAND FREE ENERGY PREDICTED BY IDOCK:   -0.45 KCAL/MOL
REMARK 927      BINDING AFFINITY PREDICTED BY RF-SCORE:    0.00 PKD
ROOT
HETATM    1  C   UNL     1      -9.013  12.881  68.411  1.00  0.00    -0.124 C  
HETATM    2  C   UNL     1      -9.345   9.231  68.865  1.00  0.00    -0.150 A  
HETATM    3  O   UNL     1     -10.449  12.668  68.401  1.00  0.00    -0.228 OA 
HETATM    4  C   UNL     1     -10.790  11.346  68.521  1.00  0.00    -0.211 C  
HETATM    5  C   UNL     1      -8.020   8.776  69.040  1.00  0.00    -0.111 A  
HETATM    6  C   UNL     1      -9.541  10.605  68.709  1.00  0.00    -0.190 A  
HETATM    7  O   UNL     1     -11.923  10.916  68.484  1.00  0.00    -0.520 OA 
HETATM    8  C   UNL     1      -6.972   9.719  69.113  1.00  0.00    -0.055 A  
HETATM    9  C   UNL     1      -7.208  11.090  68.965  1.00  0.00    -0.111 A  
HETATM   10  C   UNL     1      -8.499  11.515  68.713  1.00  0.00    -0.057 A  
ENDROOT
BRANCH   1  11
HETATM   11  C   UNL     1      -8.551  13.601  67.076  1.00  0.00    -0.159 C  
HETATM   12  C   UNL     1     -10.375  14.815  65.757  1.00  0.00    -0.358 A  
HETATM   13  C   UNL     1      -6.658  15.066  67.788  1.00  0.00    -0.169 C  
HETATM   14  C   UNL     1      -8.891  16.005  67.480  1.00  0.00    -0.189 C  
HETATM   15  C   UNL     1     -11.428  14.841  64.833  1.00  0.00    -0.412 A  
HETATM   16  C   UNL     1     -11.771  13.664  64.211  1.00  0.00    -0.403 A  
HETATM   17  N   UNL     1      -7.944  14.959  67.129  1.00  0.00    -0.210 NA 
HETATM   18  O   UNL     1     -12.785  13.537  63.311  1.00  0.00    -0.726 OA 
HETATM   19  C   UNL     1     -11.101  12.481  64.445  1.00  0.00    -0.339 A  
HETATM   20  C   UNL     1      -9.947  16.129  66.378  1.00  0.00    -0.315 C  
HETATM   21  O   UNL     1     -11.638  11.468  63.702  1.00  0.00    -0.394 OA 
HETATM   22  C   UNL     1     -10.040  12.411  65.339  1.00  0.00    -0.269 A  
HETATM   23  C   UNL     1      -9.681  13.599  66.028  1.00  0.00    -0.239 A  
HETATM   24  C   UNL     1     -12.762  12.120  63.084  1.00  0.00    -0.116 C  
BRANCH  22  25
HETATM   25  O   UNL     1      -9.308  11.294  65.639  1.00  0.00    -0.216 OA 
HETATM   26  C   UNL     1      -8.569  10.688  64.584  1.00  0.00    -0.120 C  
ENDBRANCH  22  25
ENDBRANCH   1  11
BRANCH   5  27
HETATM   27  O   UNL     1      -7.816   7.423  69.100  1.00  0.00    -0.112 OA 
HETATM   28  C   UNL     1      -7.273   6.874  70.291  1.00  0.00    -0.076 C  
ENDBRANCH   5  27
BRANCH   2  29
HETATM   29  O   UNL     1     -10.456   8.444  68.742  1.00  0.00    -0.214 OA 
HETATM   30  C   UNL     1     -10.750   7.927  67.449  1.00  0.00    -0.208 C  
ENDBRANCH   2  29
TORSDOF 4
ENDMDL
MODEL       36
REMARK 921   NORMALIZED FREE ENERGY PREDICTED BY IDOCK:   -5.36 KCAL/MOL
REMARK 922        TOTAL FREE ENERGY PREDICTED BY IDOCK:   -7.42 KCAL/MOL
REMARK 923 INTER-LIGAND FREE ENERGY PREDICTED BY IDOCK:   -6.81 KCAL/MOL
REMARK 924 INTRA-LIGAND FREE ENERGY PREDICTED BY IDOCK:   -0.61 KCAL/MOL
REMARK 927      BINDING AFFINITY PREDICTED BY RF-SCORE:    0.00 PKD
ROOT
HETATM    1  C   UNL     1      -9.378   9.388  66.674  1.00  0.00    -0.163 C  
HETATM    2  C   UNL     1      -9.484  12.851  67.949  1.00  0.00    -0.208 A  
HETATM    3  O   UNL     1     -10.785   9.599  66.962  1.00  0.00    -0.230 OA 
HETATM    4  C   UNL     1     -11.037  10.837  67.493  1.00  0.00    -0.308 C  
HETATM    5  C   UNL     1      -8.155  13.312  67.827  1.00  0.00    -0.166 A  
HETATM    6  C   UNL     1      -9.764  11.560  67.498  1.00  0.00    -0.189 A  
HETATM    7  O   UNL     1     -12.125  11.224  67.863  1.00  0.00    -0.634 OA 
HETATM    8  C   UNL     1      -7.194  12.487  67.207  1.00  0.00    -0.114 A  
HETATM    9  C   UNL     1      -7.514  11.202  66.754  1.00  0.00    -0.146 A  
HETATM   10  C   UNL     1      -8.799  10.732  66.953  1.00  0.00    -0.144 A  
ENDROOT
BRANCH   1  11
HETATM   11  C   UNL     1      -8.831   8.132  67.473  1.00  0.00    -0.135 C  
HETATM   12  C   UNL     1     -10.592   6.633  68.566  1.00  0.00    -0.276 A  
HETATM   13  C   UNL     1      -7.358   6.952  65.838  1.00  0.00    -0.079 C  
HETATM   14  C   UNL     1      -9.636   6.166  66.231  1.00  0.00    -0.085 C  
HETATM   15  C   UNL     1     -11.467   6.307  69.611  1.00  0.00    -0.425 A  
HETATM   16  C   UNL     1     -11.498   7.133  70.710  1.00  0.00    -0.305 A  
HETATM   17  N   UNL     1      -8.481   6.878  66.751  1.00  0.00    -0.115 NA 
HETATM   18  O   UNL     1     -12.313   6.952  71.785  1.00  0.00    -0.337 OA 
HETATM   19  C   UNL     1     -10.685   8.242  70.825  1.00  0.00    -0.218 A  
HETATM   20  C   UNL     1     -10.501   5.676  67.395  1.00  0.00    -0.306 C  
HETATM   21  O   UNL     1     -10.912   8.885  72.008  1.00  0.00    -0.352 OA 
HETATM   22  C   UNL     1      -9.790   8.594  69.823  1.00  0.00    -0.183 A  
HETATM   23  C   UNL     1      -9.756   7.786  68.657  1.00  0.00    -0.159 A  
HETATM   24  C   UNL     1     -12.013   8.131  72.546  1.00  0.00    -0.350 C  
BRANCH  22  25
HETATM   25  O   UNL     1      -8.939   9.666  69.839  1.00  0.00    -0.189 OA 
HETATM   26  C   UNL     1      -7.671   9.490  70.464  1.00  0.00    -0.157 C  
ENDBRANCH  22  25
ENDBRANCH   1  11
BRANCH   5  27
HETATM   27  O   UNL     1      -7.859  14.541  68.354  1.00  0.00    -0.120 OA 
HETATM   28  C   UNL     1      -7.490  15.586  67.466  1.00  0.00    -0.182 C  
ENDBRANCH   5  27
BRANCH   2  29
HETATM   29  O   UNL     1     -10.515  13.517  68.553  1.00  0.00    -0.238 OA 
HETATM   30  C   UNL     1     -11.182  14.516  67.790  1.00  0.00    -0.298 C  
ENDBRANCH   2  29
TORSDOF 4
ENDMDL
MODEL       37
REMARK 921   NORMALIZED FREE ENERGY PREDICTED BY IDOCK:   -5.34 KCAL/MOL
REMARK 922        TOTAL FREE ENERGY PREDICTED BY IDOCK:   -7.39 KCAL/MOL
REMARK 923 INTER-LIGAND FREE ENERGY PREDICTED BY IDOCK:   -7.14 KCAL/MOL
REMARK 924 INTRA-LIGAND FREE ENERGY PREDICTED BY IDOCK:   -0.25 KCAL/MOL
REMARK 927      BINDING AFFINITY PREDICTED BY RF-SCORE:    0.00 PKD
ROOT
HETATM    1  C   UNL     1      -9.656  11.712  65.701  1.00  0.00    -0.229 C  
HETATM    2  C   UNL     1      -7.108   9.080  65.237  1.00  0.00    -0.084 A  
HETATM    3  O   UNL     1      -8.767  11.900  66.833  1.00  0.00    -0.180 OA 
HETATM    4  C   UNL     1      -7.753  10.978  66.868  1.00  0.00    -0.140 C  
HETATM    5  C   UNL     1      -7.453   8.468  64.012  1.00  0.00    -0.116 A  
HETATM    6  C   UNL     1      -7.885  10.160  65.661  1.00  0.00    -0.145 A  
HETATM    7  O   UNL     1      -6.919  10.898  67.745  1.00  0.00    -0.075 OA 
HETATM    8  C   UNL     1      -8.512   9.004  63.249  1.00  0.00    -0.180 A  
HETATM    9  C   UNL     1      -9.261  10.097  63.700  1.00  0.00    -0.320 A  
HETATM   10  C   UNL     1      -8.965  10.635  64.938  1.00  0.00    -0.218 A  
ENDROOT
BRANCH   1  11
HETATM   11  C   UNL     1     -11.143  11.474  66.197  1.00  0.00    -0.244 C  
HETATM   12  C   UNL     1     -11.570  11.825  68.695  1.00  0.00    -0.367 A  
HETATM   13  C   UNL     1     -12.532  12.920  64.709  1.00  0.00    -0.455 C  
HETATM   14  C   UNL     1     -11.940  13.675  66.955  1.00  0.00    -0.410 C  
HETATM   15  C   UNL     1     -11.570  11.389  70.026  1.00  0.00    -0.382 A  
HETATM   16  C   UNL     1     -11.158  10.103  70.285  1.00  0.00    -0.317 A  
HETATM   17  N   UNL     1     -12.161  12.550  66.061  1.00  0.00    -0.620 NA 
HETATM   18  O   UNL     1     -11.086   9.555  71.529  1.00  0.00    -0.367 OA 
HETATM   19  C   UNL     1     -10.778   9.233  69.285  1.00  0.00    -0.196 A  
HETATM   20  C   UNL     1     -12.103  13.214  68.405  1.00  0.00    -0.216 C  
HETATM   21  O   UNL     1     -10.417   8.025  69.809  1.00  0.00    -0.219 OA 
HETATM   22  C   UNL     1     -10.779   9.615  67.949  1.00  0.00    -0.247 A  
HETATM   23  C   UNL     1     -11.163  10.948  67.646  1.00  0.00    -0.379 A  
HETATM   24  C   UNL     1     -10.506   8.278  71.222  1.00  0.00    -0.211 C  
BRANCH  22  25
HETATM   25  O   UNL     1     -10.425   8.833  66.883  1.00  0.00    -0.285 OA 
HETATM   26  C   UNL     1     -10.677   7.434  66.981  1.00  0.00    -0.319 C  
ENDBRANCH  22  25
ENDBRANCH   1  11
BRANCH   5  27
HETATM   27  O   UNL     1      -6.752   7.352  63.641  1.00  0.00    -0.051 OA 
HETATM   28  C   UNL     1      -7.386   6.087  63.755  1.00  0.00    -0.066 C  
ENDBRANCH   5  27
BRANCH   2  29
HETATM   29  O   UNL     1      -6.135   8.660  66.101  1.00  0.00    -0.047 OA 
HETATM   30  C   UNL     1      -6.482   7.635  67.025  1.00  0.00    -0.054 C  
ENDBRANCH   2  29
TORSDOF 4
ENDMDL
MODEL       38
REMARK 921   NORMALIZED FREE ENERGY PREDICTED BY IDOCK:   -5.29 KCAL/MOL
REMARK 922        TOTAL FREE ENERGY PREDICTED BY IDOCK:   -7.33 KCAL/MOL
REMARK 923 INTER-LIGAND FREE ENERGY PREDICTED BY IDOCK:   -6.47 KCAL/MOL
REMARK 924 INTRA-LIGAND FREE ENERGY PREDICTED BY IDOCK:   -0.86 KCAL/MOL
REMARK 927      BINDING AFFINITY PREDICTED BY RF-SCORE:    0.00 PKD
ROOT
HETATM    1  C   UNL     1     -10.714   9.718  68.038  1.00  0.00    -0.247 C  
HETATM    2  C   UNL     1     -11.686  13.270  67.771  1.00  0.00    -0.358 A  
HETATM    3  O   UNL     1     -11.283  10.012  69.341  1.00  0.00    -0.231 OA 
HETATM    4  C   UNL     1     -11.679  11.318  69.464  1.00  0.00    -0.345 C  
HETATM    5  C   UNL     1     -11.390  13.617  66.435  1.00  0.00    -0.316 A  
HETATM    6  C   UNL     1     -11.457  11.950  68.162  1.00  0.00    -0.384 A  
HETATM    7  O   UNL     1     -12.132  11.813  70.474  1.00  0.00    -0.363 OA 
HETATM    8  C   UNL     1     -10.942  12.616  65.547  1.00  0.00    -0.313 A  
HETATM    9  C   UNL     1     -10.736  11.299  65.971  1.00  0.00    -0.301 A  
HETATM   10  C   UNL     1     -10.953  10.991  67.301  1.00  0.00    -0.356 A  
ENDROOT
BRANCH   1  11
HETATM   11  C   UNL     1      -9.229   9.182  68.190  1.00  0.00    -0.131 C  
HETATM   12  C   UNL     1      -7.490  10.211  66.621  1.00  0.00    -0.106 A  
HETATM   13  C   UNL     1      -8.712   9.467  70.617  1.00  0.00    -0.211 C  
HETATM   14  C   UNL     1      -7.918  11.105  68.988  1.00  0.00    -0.086 C  
HETATM   15  C   UNL     1      -6.821  10.289  65.393  1.00  0.00    -0.140 A  
HETATM   16  C   UNL     1      -7.165   9.390  64.411  1.00  0.00    -0.105 A  
HETATM   17  N   UNL     1      -8.335   9.735  69.243  1.00  0.00    -0.130 NA 
HETATM   18  O   UNL     1      -6.616   9.365  63.165  1.00  0.00    -0.097 OA 
HETATM   19  C   UNL     1      -8.115   8.410  64.605  1.00  0.00    -0.156 A  
HETATM   20  C   UNL     1      -7.051  11.149  67.727  1.00  0.00    -0.086 C  
HETATM   21  O   UNL     1      -8.265   7.654  63.478  1.00  0.00    -0.081 OA 
HETATM   22  C   UNL     1      -8.792   8.282  65.812  1.00  0.00    -0.155 A  
HETATM   23  C   UNL     1      -8.490   9.216  66.838  1.00  0.00    -0.124 A  
HETATM   24  C   UNL     1      -7.403   8.335  62.550  1.00  0.00    -0.098 C  
BRANCH  22  25
HETATM   25  O   UNL     1      -9.745   7.346  66.110  1.00  0.00    -0.070 OA 
HETATM   26  C   UNL     1      -9.300   6.030  66.422  1.00  0.00    -0.154 C  
ENDBRANCH  22  25
ENDBRANCH   1  11
BRANCH   5  27
HETATM   27  O   UNL     1     -11.525  14.931  66.075  1.00  0.00    -0.343 OA 
HETATM   28  C   UNL     1     -10.354  15.666  65.749  1.00  0.00    -0.365 C  
ENDBRANCH   5  27
BRANCH   2  29
HETATM   29  O   UNL     1     -12.094  14.129  68.754  1.00  0.00    -0.341 OA 
HETATM   30  C   UNL     1     -11.093  14.917  69.388  1.00  0.00    -0.280 C  
ENDBRANCH   2  29
TORSDOF 4
ENDMDL
MODEL       39
REMARK 921   NORMALIZED FREE ENERGY PREDICTED BY IDOCK:   -5.27 KCAL/MOL
REMARK 922        TOTAL FREE ENERGY PREDICTED BY IDOCK:   -7.31 KCAL/MOL
REMARK 923 INTER-LIGAND FREE ENERGY PREDICTED BY IDOCK:   -7.60 KCAL/MOL
REMARK 924 INTRA-LIGAND FREE ENERGY PREDICTED BY IDOCK:    0.29 KCAL/MOL
REMARK 927      BINDING AFFINITY PREDICTED BY RF-SCORE:    0.00 PKD
ROOT
HETATM    1  C   UNL     1     -10.080  10.601  67.910  1.00  0.00    -0.168 C  
HETATM    2  C   UNL     1     -10.050   7.216  69.383  1.00  0.00    -0.176 A  
HETATM    3  O   UNL     1      -9.705  10.838  69.292  1.00  0.00    -0.198 OA 
HETATM    4  C   UNL     1      -9.673   9.688  70.037  1.00  0.00    -0.241 C  
HETATM    5  C   UNL     1     -10.327   6.357  68.298  1.00  0.00    -0.191 A  
HETATM    6  C   UNL     1      -9.955   8.583  69.117  1.00  0.00    -0.194 A  
HETATM    7  O   UNL     1      -9.440   9.638  71.226  1.00  0.00    -0.154 OA 
HETATM    8  C   UNL     1     -10.432   6.899  67.000  1.00  0.00    -0.374 A  
HETATM    9  C   UNL     1     -10.318   8.275  66.769  1.00  0.00    -0.361 A  
HETATM   10  C   UNL     1     -10.128   9.113  67.851  1.00  0.00    -0.246 A  
ENDROOT
BRANCH   1  11
HETATM   11  C   UNL     1     -11.381  11.430  67.539  1.00  0.00    -0.292 C  
HETATM   12  C   UNL     1     -11.548  13.778  68.540  1.00  0.00    -0.373 A  
HETATM   13  C   UNL     1     -11.460  11.374  65.044  1.00  0.00     0.059 C  
HETATM   14  C   UNL     1     -10.582  13.336  66.204  1.00  0.00    -0.287 C  
HETATM   15  C   UNL     1     -11.868  14.663  69.577  1.00  0.00    -0.374 A  
HETATM   16  C   UNL     1     -12.395  14.140  70.735  1.00  0.00    -0.369 A  
HETATM   17  N   UNL     1     -11.455  12.174  66.253  1.00  0.00    -0.365 NA 
HETATM   18  O   UNL     1     -12.729  14.878  71.829  1.00  0.00    -0.302 OA 
HETATM   19  C   UNL     1     -12.641  12.793  70.892  1.00  0.00    -0.255 A  
HETATM   20  C   UNL     1     -11.045  14.366  67.237  1.00  0.00    -0.318 C  
HETATM   21  O   UNL     1     -13.164  12.539  72.128  1.00  0.00    -0.483 OA 
HETATM   22  C   UNL     1     -12.357  11.879  69.884  1.00  0.00    -0.099 A  
HETATM   23  C   UNL     1     -11.777  12.377  68.689  1.00  0.00    -0.372 A  
HETATM   24  C   UNL     1     -13.107  13.839  72.743  1.00  0.00    -0.331 C  
BRANCH  22  25
HETATM   25  O   UNL     1     -12.565  10.527  69.936  1.00  0.00    -0.244 OA 
HETATM   26  C   UNL     1     -13.231  10.007  71.082  1.00  0.00    -0.361 C  
ENDBRANCH  22  25
ENDBRANCH   1  11
BRANCH   5  27
HETATM   27  O   UNL     1     -10.512   5.028  68.572  1.00  0.00    -0.084 OA 
HETATM   28  C   UNL     1      -9.634   4.086  67.974  1.00  0.00    -0.136 C  
ENDBRANCH   5  27
BRANCH   2  29
HETATM   29  O   UNL     1      -9.953   6.847  70.697  1.00  0.00    -0.186 OA 
HETATM   30  C   UNL     1      -8.718   6.289  71.128  1.00  0.00    -0.128 C  
ENDBRANCH   2  29
TORSDOF 4
ENDMDL
MODEL       40
REMARK 921   NORMALIZED FREE ENERGY PREDICTED BY IDOCK:   -5.26 KCAL/MOL
REMARK 922        TOTAL FREE ENERGY PREDICTED BY IDOCK:   -7.30 KCAL/MOL
REMARK 923 INTER-LIGAND FREE ENERGY PREDICTED BY IDOCK:   -6.84 KCAL/MOL
REMARK 924 INTRA-LIGAND FREE ENERGY PREDICTED BY IDOCK:   -0.46 KCAL/MOL
REMARK 927      BINDING AFFINITY PREDICTED BY RF-SCORE:    0.00 PKD
ROOT
HETATM    1  C   UNL     1     -10.023   9.964  69.550  1.00  0.00    -0.222 C  
HETATM    2  C   UNL     1      -7.737   7.993  71.677  1.00  0.00    -0.091 A  
HETATM    3  O   UNL     1     -10.812   9.697  70.738  1.00  0.00    -0.282 OA 
HETATM    4  C   UNL     1     -10.145   8.929  71.656  1.00  0.00    -0.341 C  
HETATM    5  C   UNL     1      -6.524   7.959  70.954  1.00  0.00    -0.037 A  
HETATM    6  C   UNL     1      -8.796   8.718  71.128  1.00  0.00    -0.275 A  
HETATM    7  O   UNL     1     -10.616   8.531  72.700  1.00  0.00    -0.304 OA 
HETATM    8  C   UNL     1      -6.415   8.698  69.758  1.00  0.00    -0.038 A  
HETATM    9  C   UNL     1      -7.495   9.425  69.244  1.00  0.00    -0.076 A  
HETATM   10  C   UNL     1      -8.700   9.384  69.919  1.00  0.00    -0.209 A  
ENDROOT
BRANCH   1  11
HETATM   11  C   UNL     1     -10.767   9.425  68.257  1.00  0.00    -0.171 C  
HETATM   12  C   UNL     1      -9.796  10.161  66.007  1.00  0.00    -0.308 A  
HETATM   13  C   UNL     1     -10.848   6.950  68.575  1.00  0.00    -0.180 C  
HETATM   14  C   UNL     1      -9.146   7.951  67.137  1.00  0.00    -0.137 C  
HETATM   15  C   UNL     1      -9.660  11.077  64.956  1.00  0.00    -0.291 A  
HETATM   16  C   UNL     1     -10.380  12.247  65.020  1.00  0.00    -0.291 A  
HETATM   17  N   UNL     1     -10.468   8.066  67.731  1.00  0.00    -0.228 NA 
HETATM   18  O   UNL     1     -10.327  13.234  64.084  1.00  0.00    -0.407 OA 
HETATM   19  C   UNL     1     -11.241  12.529  66.059  1.00  0.00    -0.315 A  
HETATM   20  C   UNL     1      -9.066   8.838  65.893  1.00  0.00    -0.271 C  
HETATM   21  O   UNL     1     -11.829  13.748  65.880  1.00  0.00    -0.348 OA 
HETATM   22  C   UNL     1     -11.422  11.643  67.115  1.00  0.00    -0.271 A  
HETATM   23  C   UNL     1     -10.668  10.441  67.102  1.00  0.00    -0.316 A  
HETATM   24  C   UNL     1     -11.162  14.227  64.699  1.00  0.00    -0.366 C  
BRANCH  22  25
HETATM   25  O   UNL     1     -12.252  11.823  68.188  1.00  0.00    -0.507 OA 
HETATM   26  C   UNL     1     -11.947  12.887  69.085  1.00  0.00    -0.259 C  
ENDBRANCH  22  25
ENDBRANCH   1  11
BRANCH   5  27
HETATM   27  O   UNL     1      -5.516   7.173  71.444  1.00  0.00    -0.031 OA 
HETATM   28  C   UNL     1      -5.373   5.858  70.927  1.00  0.00    -0.013 C  
ENDBRANCH   5  27
BRANCH   2  29
HETATM   29  O   UNL     1      -8.007   7.306  72.828  1.00  0.00    -0.099 OA 
HETATM   30  C   UNL     1      -7.496   7.842  74.043  1.00  0.00    -0.158 C  
ENDBRANCH   2  29
TORSDOF 4
ENDMDL
MODEL       41
REMARK 921   NORMALIZED FREE ENERGY PREDICTED BY IDOCK:   -5.25 KCAL/MOL
REMARK 922        TOTAL FREE ENERGY PREDICTED BY IDOCK:   -7.29 KCAL/MOL
REMARK 923 INTER-LIGAND FREE ENERGY PREDICTED BY IDOCK:   -7.09 KCAL/MOL
REMARK 924 INTRA-LIGAND FREE ENERGY PREDICTED BY IDOCK:   -0.20 KCAL/MOL
REMARK 927      BINDING AFFINITY PREDICTED BY RF-SCORE:    0.00 PKD
ROOT
HETATM    1  C   UNL     1     -11.202   6.428  70.394  1.00  0.00    -0.372 C  
HETATM    2  C   UNL     1      -9.084   4.231  68.315  1.00  0.00    -0.131 A  
HETATM    3  O   UNL     1     -11.654   6.703  69.042  1.00  0.00    -0.165 OA 
HETATM    4  C   UNL     1     -10.953   6.002  68.096  1.00  0.00    -0.246 C  
HETATM    5  C   UNL     1      -8.314   3.500  69.245  1.00  0.00    -0.060 A  
HETATM    6  C   UNL     1     -10.025   5.131  68.819  1.00  0.00    -0.237 A  
HETATM    7  O   UNL     1     -11.112   6.105  66.898  1.00  0.00    -0.334 OA 
HETATM    8  C   UNL     1      -8.567   3.659  70.624  1.00  0.00    -0.112 A  
HETATM    9  C   UNL     1      -9.528   4.562  71.094  1.00  0.00    -0.226 A  
HETATM   10  C   UNL     1     -10.218   5.330  70.174  1.00  0.00    -0.350 A  
ENDROOT
BRANCH   1  11
HETATM   11  C   UNL     1     -10.722   7.763  71.102  1.00  0.00    -0.227 C  
HETATM   12  C   UNL     1     -12.123   9.853  70.638  1.00  0.00    -0.343 A  
HETATM   13  C   UNL     1     -10.558   7.159  73.519  1.00  0.00    -0.374 C  
HETATM   14  C   UNL     1     -12.519   8.348  72.679  1.00  0.00    -0.194 C  
HETATM   15  C   UNL     1     -12.472  10.963  69.858  1.00  0.00    -0.292 A  
HETATM   16  C   UNL     1     -11.764  11.190  68.701  1.00  0.00    -0.320 A  
HETATM   17  N   UNL     1     -11.106   8.045  72.511  1.00  0.00    -0.348 NA 
HETATM   18  O   UNL     1     -12.009  12.214  67.839  1.00  0.00    -0.489 OA 
HETATM   19  C   UNL     1     -10.718  10.384  68.305  1.00  0.00    -0.235 A  
HETATM   20  C   UNL     1     -12.850   9.654  71.952  1.00  0.00    -0.515 C  
HETATM   21  O   UNL     1     -10.188  10.827  67.127  1.00  0.00    -0.196 OA 
HETATM   22  C   UNL     1     -10.324   9.282  69.055  1.00  0.00    -0.214 A  
HETATM   23  C   UNL     1     -11.056   8.995  70.237  1.00  0.00    -0.263 A  
HETATM   24  C   UNL     1     -11.079  11.905  66.790  1.00  0.00    -0.308 C  
BRANCH  22  25
HETATM   25  O   UNL     1      -9.301   8.424  68.756  1.00  0.00    -0.143 OA 
HETATM   26  C   UNL     1      -7.976   8.848  69.060  1.00  0.00    -0.106 C  
ENDBRANCH  22  25
ENDBRANCH   1  11
BRANCH   5  27
HETATM   27  O   UNL     1      -7.328   2.687  68.753  1.00  0.00    -0.047 OA 
HETATM   28  C   UNL     1      -6.378   2.151  69.663  1.00  0.00    -0.025 C  
ENDBRANCH   5  27
BRANCH   2  29
HETATM   29  O   UNL     1      -8.936   4.211  66.955  1.00  0.00    -0.115 OA 
HETATM   30  C   UNL     1      -7.837   4.931  66.408  1.00  0.00    -0.099 C  
ENDBRANCH   2  29
TORSDOF 4
ENDMDL
MODEL       42
REMARK 921   NORMALIZED FREE ENERGY PREDICTED BY IDOCK:   -5.21 KCAL/MOL
REMARK 922        TOTAL FREE ENERGY PREDICTED BY IDOCK:   -7.24 KCAL/MOL
REMARK 923 INTER-LIGAND FREE ENERGY PREDICTED BY IDOCK:   -6.41 KCAL/MOL
REMARK 924 INTRA-LIGAND FREE ENERGY PREDICTED BY IDOCK:   -0.83 KCAL/MOL
REMARK 927      BINDING AFFINITY PREDICTED BY RF-SCORE:    0.00 PKD
ROOT
HETATM    1  C   UNL     1      -8.407  11.216  68.986  1.00  0.00    -0.049 C  
HETATM    2  C   UNL     1      -9.973  13.640  66.683  1.00  0.00    -0.283 A  
HETATM    3  O   UNL     1      -7.292  12.037  68.551  1.00  0.00    -0.100 OA 
HETATM    4  C   UNL     1      -7.662  12.994  67.643  1.00  0.00    -0.161 C  
HETATM    5  C   UNL     1     -11.352  13.344  66.744  1.00  0.00    -0.325 A  
HETATM    6  C   UNL     1      -9.116  12.897  67.498  1.00  0.00    -0.191 A  
HETATM    7  O   UNL     1      -6.900  13.762  67.096  1.00  0.00    -0.141 OA 
HETATM    8  C   UNL     1     -11.807  12.369  67.657  1.00  0.00    -0.363 A  
HETATM    9  C   UNL     1     -10.920  11.653  68.468  1.00  0.00    -0.264 A  
HETATM   10  C   UNL     1      -9.565  11.896  68.340  1.00  0.00    -0.196 A  
ENDROOT
BRANCH   1  11
HETATM   11  C   UNL     1      -8.131   9.688  68.662  1.00  0.00    -0.100 C  
HETATM   12  C   UNL     1     -10.123   8.103  68.907  1.00  0.00    -0.211 A  
HETATM   13  C   UNL     1      -7.119   9.713  66.379  1.00  0.00    -0.093 C  
HETATM   14  C   UNL     1      -9.486   9.187  66.670  1.00  0.00    -0.185 C  
HETATM   15  C   UNL     1     -10.973   7.287  69.667  1.00  0.00    -0.204 A  
HETATM   16  C   UNL     1     -10.718   7.164  71.012  1.00  0.00    -0.232 A  
HETATM   17  N   UNL     1      -8.155   9.203  67.256  1.00  0.00    -0.106 NA 
HETATM   18  O   UNL     1     -11.472   6.426  71.872  1.00  0.00    -0.275 OA 
HETATM   19  C   UNL     1      -9.650   7.787  71.623  1.00  0.00    -0.155 A  
HETATM   20  C   UNL     1     -10.358   8.170  67.412  1.00  0.00    -0.351 C  
HETATM   21  O   UNL     1      -9.624   7.501  72.958  1.00  0.00    -0.174 OA 
HETATM   22  C   UNL     1      -8.771   8.591  70.907  1.00  0.00    -0.166 A  
HETATM   23  C   UNL     1      -9.023   8.772  69.523  1.00  0.00    -0.145 A  
HETATM   24  C   UNL     1     -10.835   6.740  73.119  1.00  0.00    -0.284 C  
BRANCH  22  25
HETATM   25  O   UNL     1      -7.682   9.249  71.413  1.00  0.00    -0.334 OA 
HETATM   26  C   UNL     1      -6.586   8.458  71.863  1.00  0.00    -0.072 C  
ENDBRANCH  22  25
ENDBRANCH   1  11
BRANCH   5  27
HETATM   27  O   UNL     1     -12.182  14.006  65.879  1.00  0.00    -0.408 OA 
HETATM   28  C   UNL     1     -12.722  13.289  64.779  1.00  0.00    -0.274 C  
ENDBRANCH   5  27
BRANCH   2  29
HETATM   29  O   UNL     1      -9.378  14.530  65.832  1.00  0.00    -0.231 OA 
HETATM   30  C   UNL     1      -9.515  15.913  66.134  1.00  0.00    -0.340 C  
ENDBRANCH   2  29
TORSDOF 4
ENDMDL
MODEL       43
REMARK 921   NORMALIZED FREE ENERGY PREDICTED BY IDOCK:   -5.21 KCAL/MOL
REMARK 922        TOTAL FREE ENERGY PREDICTED BY IDOCK:   -7.23 KCAL/MOL
REMARK 923 INTER-LIGAND FREE ENERGY PREDICTED BY IDOCK:   -6.49 KCAL/MOL
REMARK 924 INTRA-LIGAND FREE ENERGY PREDICTED BY IDOCK:   -0.74 KCAL/MOL
REMARK 927      BINDING AFFINITY PREDICTED BY RF-SCORE:    0.00 PKD
ROOT
HETATM    1  C   UNL     1     -11.873  13.553  66.999  1.00  0.00    -0.402 C  
HETATM    2  C   UNL     1      -9.629  16.331  67.938  1.00  0.00    -0.227 A  
HETATM    3  O   UNL     1     -12.491  14.096  68.195  1.00  0.00    -0.115 OA 
HETATM    4  C   UNL     1     -11.777  15.134  68.735  1.00  0.00    -0.342 C  
HETATM    5  C   UNL     1      -8.665  16.369  66.908  1.00  0.00    -0.204 A  
HETATM    6  C   UNL     1     -10.653  15.388  67.831  1.00  0.00    -0.267 A  
HETATM    7  O   UNL     1     -12.063  15.712  69.762  1.00  0.00    -0.361 OA 
HETATM    8  C   UNL     1      -8.809  15.509  65.798  1.00  0.00     0.216 A  
HETATM    9  C   UNL     1      -9.857  14.585  65.718  1.00  0.00    -0.343 A  
HETATM   10  C   UNL     1     -10.747  14.503  66.772  1.00  0.00    -0.291 A  
ENDROOT
BRANCH   1  11
HETATM   11  C   UNL     1     -11.556  12.011  67.190  1.00  0.00    -0.316 C  
HETATM   12  C   UNL     1      -9.150  11.286  66.711  1.00  0.00    -0.181 A  
HETATM   13  C   UNL     1     -12.335  11.501  69.507  1.00  0.00    -0.124 C  
HETATM   14  C   UNL     1      -9.966  11.899  69.066  1.00  0.00     0.100 C  
HETATM   15  C   UNL     1      -8.123  10.894  65.842  1.00  0.00    -0.120 A  
HETATM   16  C   UNL     1      -8.415  10.782  64.504  1.00  0.00    -0.005 A  
HETATM   17  N   UNL     1     -11.253  11.470  68.543  1.00  0.00    -0.233 NA 
HETATM   18  O   UNL     1      -7.513  10.435  63.546  1.00  0.00    -0.126 OA 
HETATM   19  C   UNL     1      -9.679  11.014  64.001  1.00  0.00    -0.288 A  
HETATM   20  C   UNL     1      -8.844  11.328  68.195  1.00  0.00    -0.159 C  
HETATM   21  O   UNL     1      -9.699  10.834  62.648  1.00  0.00    -0.280 OA 
HETATM   22  C   UNL     1     -10.732  11.388  64.826  1.00  0.00    -0.298 A  
HETATM   23  C   UNL     1     -10.460  11.549  66.210  1.00  0.00    -0.294 A  
HETATM   24  C   UNL     1      -8.312  10.583  62.363  1.00  0.00    -0.206 C  
BRANCH  22  25
HETATM   25  O   UNL     1     -12.019  11.636  64.432  1.00  0.00    -0.196 OA 
HETATM   26  C   UNL     1     -12.238  12.733  63.550  1.00  0.00    -0.525 C  
ENDBRANCH  22  25
ENDBRANCH   1  11
BRANCH   5  27
HETATM   27  O   UNL     1      -7.609  17.228  67.058  1.00  0.00    -0.175 OA 
HETATM   28  C   UNL     1      -7.463  18.288  66.125  1.00  0.00    -0.256 C  
ENDBRANCH   5  27
BRANCH   2  29
HETATM   29  O   UNL     1      -9.609  17.073  69.087  1.00  0.00    -0.230 OA 
HETATM   30  C   UNL     1     -10.111  18.402  69.014  1.00  0.00    -0.244 C  
ENDBRANCH   2  29
TORSDOF 4
ENDMDL
MODEL       44
REMARK 921   NORMALIZED FREE ENERGY PREDICTED BY IDOCK:   -5.19 KCAL/MOL
REMARK 922        TOTAL FREE ENERGY PREDICTED BY IDOCK:   -7.22 KCAL/MOL
REMARK 923 INTER-LIGAND FREE ENERGY PREDICTED BY IDOCK:   -6.65 KCAL/MOL
REMARK 924 INTRA-LIGAND FREE ENERGY PREDICTED BY IDOCK:   -0.57 KCAL/MOL
REMARK 927      BINDING AFFINITY PREDICTED BY RF-SCORE:    0.00 PKD
ROOT
HETATM    1  C   UNL     1     -10.974  12.886  66.481  1.00  0.00    -0.275 C  
HETATM    2  C   UNL     1     -11.011  15.475  69.114  1.00  0.00    -0.259 A  
HETATM    3  O   UNL     1     -11.379  12.155  67.668  1.00  0.00    -0.271 OA 
HETATM    4  C   UNL     1     -11.418  12.944  68.788  1.00  0.00    -0.303 C  
HETATM    5  C   UNL     1     -10.707  16.674  68.434  1.00  0.00    -0.353 A  
HETATM    6  C   UNL     1     -11.110  14.308  68.354  1.00  0.00    -0.274 A  
HETATM    7  O   UNL     1     -11.674  12.548  69.906  1.00  0.00    -0.303 OA 
HETATM    8  C   UNL     1     -10.579  16.655  67.029  1.00  0.00    -0.247 A  
HETATM    9  C   UNL     1     -10.698  15.467  66.298  1.00  0.00    -0.307 A  
HETATM   10  C   UNL     1     -10.916  14.288  66.985  1.00  0.00    -0.305 A  
ENDROOT
BRANCH   1  11
HETATM   11  C   UNL     1      -9.672  12.239  65.848  1.00  0.00    -0.235 C  
HETATM   12  C   UNL     1      -8.850  10.070  66.927  1.00  0.00    -0.142 A  
HETATM   13  C   UNL     1     -10.202  12.035  63.416  1.00  0.00    -0.426 C  
HETATM   14  C   UNL     1     -10.409  10.096  64.888  1.00  0.00     0.059 C  
HETATM   15  C   UNL     1      -8.138   9.364  67.905  1.00  0.00    -0.103 A  
HETATM   16  C   UNL     1      -7.453  10.087  68.854  1.00  0.00    -0.083 A  
HETATM   17  N   UNL     1      -9.774  11.380  64.637  1.00  0.00    -0.245 NA 
HETATM   18  O   UNL     1      -6.741   9.535  69.874  1.00  0.00    -0.051 OA 
HETATM   19  C   UNL     1      -7.424  11.466  68.855  1.00  0.00    -0.113 A  
HETATM   20  C   UNL     1      -9.535   9.271  65.836  1.00  0.00    -0.325 C  
HETATM   21  O   UNL     1      -6.676  11.931  69.898  1.00  0.00    -0.041 OA 
HETATM   22  C   UNL     1      -8.101  12.208  67.894  1.00  0.00    -0.153 A  
HETATM   23  C   UNL     1      -8.849  11.497  66.920  1.00  0.00    -0.182 A  
HETATM   24  C   UNL     1      -6.349  10.715  70.592  1.00  0.00    -0.011 C  
BRANCH  22  25
HETATM   25  O   UNL     1      -8.133  13.573  67.801  1.00  0.00    -0.147 OA 
HETATM   26  C   UNL     1      -6.901  14.246  67.565  1.00  0.00    -0.135 C  
ENDBRANCH  22  25
ENDBRANCH   1  11
BRANCH   5  27
HETATM   27  O   UNL     1     -10.517  17.801  69.188  1.00  0.00    -0.312 OA 
HETATM   28  C   UNL     1      -9.959  18.947  68.562  1.00  0.00    -0.406 C  
ENDBRANCH   5  27
BRANCH   2  29
HETATM   29  O   UNL     1     -11.131  15.326  70.468  1.00  0.00    -0.286 OA 
HETATM   30  C   UNL     1     -12.357  15.739  71.063  1.00  0.00    -0.415 C  
ENDBRANCH   2  29
TORSDOF 4
ENDMDL
MODEL       45
REMARK 921   NORMALIZED FREE ENERGY PREDICTED BY IDOCK:   -5.15 KCAL/MOL
REMARK 922        TOTAL FREE ENERGY PREDICTED BY IDOCK:   -7.16 KCAL/MOL
REMARK 923 INTER-LIGAND FREE ENERGY PREDICTED BY IDOCK:   -6.55 KCAL/MOL
REMARK 924 INTRA-LIGAND FREE ENERGY PREDICTED BY IDOCK:   -0.60 KCAL/MOL
REMARK 927      BINDING AFFINITY PREDICTED BY RF-SCORE:    0.00 PKD
ROOT
HETATM    1  C   UNL     1     -11.475  11.620  67.497  1.00  0.00    -0.289 C  
HETATM    2  C   UNL     1      -9.368  10.141  64.850  1.00  0.00    -0.254 A  
HETATM    3  O   UNL     1     -11.507  12.618  66.442  1.00  0.00    -0.315 OA 
HETATM    4  C   UNL     1     -10.739  12.271  65.362  1.00  0.00    -0.284 C  
HETATM    5  C   UNL     1      -9.018   8.868  65.349  1.00  0.00    -0.182 A  
HETATM    6  C   UNL     1     -10.213  10.932  65.632  1.00  0.00    -0.323 A  
HETATM    7  O   UNL     1     -10.565  12.966  64.383  1.00  0.00    -0.351 OA 
HETATM    8  C   UNL     1      -9.576   8.429  66.568  1.00  0.00    -0.304 A  
HETATM    9  C   UNL     1     -10.430   9.244  67.319  1.00  0.00    -0.334 A  
HETATM   10  C   UNL     1     -10.701  10.519  66.858  1.00  0.00    -0.281 A  
ENDROOT
BRANCH   1  11
HETATM   11  C   UNL     1     -10.941  12.257  68.847  1.00  0.00    -0.219 C  
HETATM   12  C   UNL     1     -10.606  14.793  68.845  1.00  0.00    -0.250 A  
HETATM   13  C   UNL     1     -12.530  11.437  70.590  1.00  0.00    -0.327 C  
HETATM   14  C   UNL     1     -12.771  13.684  69.665  1.00  0.00     0.271 C  
HETATM   15  C   UNL     1      -9.856  15.944  68.572  1.00  0.00    -0.210 A  
HETATM   16  C   UNL     1      -8.607  15.786  68.021  1.00  0.00    -0.163 A  
HETATM   17  N   UNL     1     -11.884  12.569  69.955  1.00  0.00    -0.329 NA 
HETATM   18  O   UNL     1      -7.780  16.814  67.683  1.00  0.00    -0.161 OA 
HETATM   19  C   UNL     1      -8.065  14.545  67.759  1.00  0.00    -0.158 A  
HETATM   20  C   UNL     1     -11.948  14.968  69.528  1.00  0.00    -0.346 C  
HETATM   21  O   UNL     1      -6.818  14.668  67.216  1.00  0.00    -0.254 OA 
HETATM   22  C   UNL     1      -8.765  13.375  68.029  1.00  0.00    -0.178 A  
HETATM   23  C   UNL     1     -10.073  13.500  68.565  1.00  0.00    -0.215 A  
HETATM   24  C   UNL     1      -6.700  16.094  67.070  1.00  0.00    -0.148 C  
BRANCH  22  25
HETATM   25  O   UNL     1      -8.320  12.099  67.813  1.00  0.00    -0.140 OA 
HETATM   26  C   UNL     1      -7.516  11.502  68.825  1.00  0.00    -0.119 C  
ENDBRANCH  22  25
ENDBRANCH   1  11
BRANCH   5  27
HETATM   27  O   UNL     1      -8.116   8.130  64.629  1.00  0.00    -0.145 OA 
HETATM   28  C   UNL     1      -7.820   6.812  65.065  1.00  0.00    -0.118 C  
ENDBRANCH   5  27
BRANCH   2  29
HETATM   29  O   UNL     1      -8.887  10.718  63.707  1.00  0.00    -0.177 OA 
HETATM   30  C   UNL     1      -9.482  10.324  62.477  1.00  0.00    -0.248 C  
ENDBRANCH   2  29
TORSDOF 4
ENDMDL
MODEL       46
REMARK 921   NORMALIZED FREE ENERGY PREDICTED BY IDOCK:   -5.12 KCAL/MOL
REMARK 922        TOTAL FREE ENERGY PREDICTED BY IDOCK:   -7.13 KCAL/MOL
REMARK 923 INTER-LIGAND FREE ENERGY PREDICTED BY IDOCK:   -6.29 KCAL/MOL
REMARK 924 INTRA-LIGAND FREE ENERGY PREDICTED BY IDOCK:   -0.84 KCAL/MOL
REMARK 927      BINDING AFFINITY PREDICTED BY RF-SCORE:    0.00 PKD
ROOT
HETATM    1  C   UNL     1      -8.405   9.338  68.946  1.00  0.00    -0.120 C  
HETATM    2  C   UNL     1     -11.411  11.408  69.506  1.00  0.00    -0.312 A  
HETATM    3  O   UNL     1      -8.273  10.399  67.964  1.00  0.00    -0.112 OA 
HETATM    4  C   UNL     1      -9.330  11.271  67.981  1.00  0.00    -0.166 C  
HETATM    5  C   UNL     1     -12.049  10.810  70.615  1.00  0.00    -0.370 A  
HETATM    6  C   UNL     1     -10.201  10.855  69.082  1.00  0.00    -0.215 A  
HETATM    7  O   UNL     1      -9.471  12.203  67.218  1.00  0.00    -0.178 OA 
HETATM    8  C   UNL     1     -11.417   9.736  71.276  1.00  0.00    -0.457 A  
HETATM    9  C   UNL     1     -10.197   9.216  70.830  1.00  0.00    -0.325 A  
HETATM   10  C   UNL     1      -9.623   9.758  69.695  1.00  0.00    -0.239 A  
ENDROOT
BRANCH   1  11
HETATM   11  C   UNL     1      -8.386   7.920  68.238  1.00  0.00    -0.124 C  
HETATM   12  C   UNL     1     -10.109   6.221  69.066  1.00  0.00    -0.206 A  
HETATM   13  C   UNL     1      -8.553   8.442  65.802  1.00  0.00    -0.159 C  
HETATM   14  C   UNL     1     -10.535   7.753  67.052  1.00  0.00    -0.349 C  
HETATM   15  C   UNL     1     -10.546   5.231  69.956  1.00  0.00    -0.300 A  
HETATM   16  C   UNL     1      -9.700   4.859  70.975  1.00  0.00    -0.185 A  
HETATM   17  N   UNL     1      -9.086   7.720  66.940  1.00  0.00    -0.137 NA 
HETATM   18  O   UNL     1     -10.002   3.930  71.923  1.00  0.00    -0.174 OA 
HETATM   19  C   UNL     1      -8.442   5.402  71.127  1.00  0.00    -0.125 A  
HETATM   20  C   UNL     1     -11.010   6.569  67.898  1.00  0.00    -0.382 C  
HETATM   21  O   UNL     1      -7.811   4.861  72.211  1.00  0.00    -0.095 OA 
HETATM   22  C   UNL     1      -7.959   6.373  70.258  1.00  0.00    -0.112 A  
HETATM   23  C   UNL     1      -8.818   6.810  69.216  1.00  0.00    -0.137 A  
HETATM   24  C   UNL     1      -8.843   4.025  72.764  1.00  0.00    -0.102 C  
BRANCH  22  25
HETATM   25  O   UNL     1      -6.730   6.972  70.317  1.00  0.00    -0.050 OA 
HETATM   26  C   UNL     1      -5.605   6.209  69.891  1.00  0.00    -0.013 C  
ENDBRANCH  22  25
ENDBRANCH   1  11
BRANCH   5  27
HETATM   27  O   UNL     1     -13.280  11.291  70.974  1.00  0.00    -0.167 OA 
HETATM   28  C   UNL     1     -13.363  12.171  72.085  1.00  0.00    -0.333 C  
ENDBRANCH   5  27
BRANCH   2  29
HETATM   29  O   UNL     1     -11.910  12.428  68.745  1.00  0.00    -0.314 OA 
HETATM   30  C   UNL     1     -11.743  13.752  69.239  1.00  0.00    -0.327 C  
ENDBRANCH   2  29
TORSDOF 4
ENDMDL
MODEL       47
REMARK 921   NORMALIZED FREE ENERGY PREDICTED BY IDOCK:   -5.09 KCAL/MOL
REMARK 922        TOTAL FREE ENERGY PREDICTED BY IDOCK:   -7.08 KCAL/MOL
REMARK 923 INTER-LIGAND FREE ENERGY PREDICTED BY IDOCK:   -6.74 KCAL/MOL
REMARK 924 INTRA-LIGAND FREE ENERGY PREDICTED BY IDOCK:   -0.34 KCAL/MOL
REMARK 927      BINDING AFFINITY PREDICTED BY RF-SCORE:    0.00 PKD
ROOT
HETATM    1  C   UNL     1     -10.377  10.060  66.938  1.00  0.00    -0.234 C  
HETATM    2  C   UNL     1     -10.149   7.573  69.657  1.00  0.00    -0.189 A  
HETATM    3  O   UNL     1     -10.329   8.792  66.233  1.00  0.00    -0.231 OA 
HETATM    4  C   UNL     1     -10.202   7.721  67.078  1.00  0.00    -0.305 C  
HETATM    5  C   UNL     1     -10.237   8.337  70.842  1.00  0.00    -0.191 A  
HETATM    6  C   UNL     1     -10.249   8.252  68.442  1.00  0.00    -0.242 A  
HETATM    7  O   UNL     1     -10.087   6.568  66.722  1.00  0.00    -0.175 OA 
HETATM    8  C   UNL     1     -10.481   9.723  70.750  1.00  0.00    -0.339 A  
HETATM    9  C   UNL     1     -10.589  10.369  69.513  1.00  0.00    -0.274 A  
HETATM   10  C   UNL     1     -10.421   9.623  68.362  1.00  0.00    -0.258 A  
ENDROOT
BRANCH   1  11
HETATM   11  C   UNL     1      -9.198  11.007  66.458  1.00  0.00    -0.171 C  
HETATM   12  C   UNL     1      -9.408  13.478  67.084  1.00  0.00    -0.240 A  
HETATM   13  C   UNL     1      -7.129   9.906  67.322  1.00  0.00    -0.085 C  
HETATM   14  C   UNL     1      -8.111  11.794  68.521  1.00  0.00    -0.140 C  
HETATM   15  C   UNL     1      -9.889  14.776  66.866  1.00  0.00    -0.248 A  
HETATM   16  C   UNL     1     -10.670  14.998  65.755  1.00  0.00    -0.342 A  
HETATM   17  N   UNL     1      -7.943  11.104  67.252  1.00  0.00    -0.131 NA 
HETATM   18  O   UNL     1     -11.223  16.199  65.433  1.00  0.00    -0.154 OA 
HETATM   19  C   UNL     1     -10.965  14.002  64.848  1.00  0.00    -0.392 A  
HETATM   20  C   UNL     1      -8.481  13.256  68.262  1.00  0.00    -0.160 C  
HETATM   21  O   UNL     1     -11.752  14.485  63.842  1.00  0.00    -0.154 OA 
HETATM   22  C   UNL     1     -10.495  12.705  65.013  1.00  0.00    -0.308 A  
HETATM   23  C   UNL     1      -9.717  12.429  66.167  1.00  0.00    -0.254 A  
HETATM   24  C   UNL     1     -11.998  15.833  64.282  1.00  0.00    -0.058 C  
BRANCH  22  25
HETATM   25  O   UNL     1     -10.725  11.648  64.174  1.00  0.00    -0.307 OA 
HETATM   26  C   UNL     1      -9.941  11.568  62.987  1.00  0.00    -0.322 C  
ENDBRANCH  22  25
ENDBRANCH   1  11
BRANCH   5  27
HETATM   27  O   UNL     1     -10.045   7.686  72.031  1.00  0.00    -0.179 OA 
HETATM   28  C   UNL     1     -11.051   7.792  73.028  1.00  0.00    -0.359 C  
ENDBRANCH   5  27
BRANCH   2  29
HETATM   29  O   UNL     1      -9.883   6.234  69.581  1.00  0.00    -0.158 OA 
HETATM   30  C   UNL     1     -10.876   5.343  70.077  1.00  0.00    -0.137 C  
ENDBRANCH   2  29
TORSDOF 4
ENDMDL
MODEL       48
REMARK 921   NORMALIZED FREE ENERGY PREDICTED BY IDOCK:   -5.05 KCAL/MOL
REMARK 922        TOTAL FREE ENERGY PREDICTED BY IDOCK:   -7.04 KCAL/MOL
REMARK 923 INTER-LIGAND FREE ENERGY PREDICTED BY IDOCK:   -7.23 KCAL/MOL
REMARK 924 INTRA-LIGAND FREE ENERGY PREDICTED BY IDOCK:    0.19 KCAL/MOL
REMARK 927      BINDING AFFINITY PREDICTED BY RF-SCORE:    0.00 PKD
ROOT
HETATM    1  C   UNL     1     -10.143  12.978  66.459  1.00  0.00    -0.270 C  
HETATM    2  C   UNL     1     -10.453   9.440  67.468  1.00  0.00    -0.280 A  
HETATM    3  O   UNL     1     -10.155  12.265  65.194  1.00  0.00    -0.271 OA 
HETATM    4  C   UNL     1     -10.227  10.906  65.352  1.00  0.00    -0.277 C  
HETATM    5  C   UNL     1     -10.582   9.484  68.873  1.00  0.00    -0.216 A  
HETATM    6  C   UNL     1     -10.358  10.656  66.789  1.00  0.00    -0.299 A  
HETATM    7  O   UNL     1     -10.197  10.100  64.447  1.00  0.00    -0.221 OA 
HETATM    8  C   UNL     1     -10.671  10.736  69.517  1.00  0.00    -0.268 A  
HETATM    9  C   UNL     1     -10.584  11.936  68.802  1.00  0.00    -0.234 A  
HETATM   10  C   UNL     1     -10.377  11.878  67.437  1.00  0.00    -0.228 A  
ENDROOT
BRANCH   1  11
HETATM   11  C   UNL     1      -8.830  13.858  66.588  1.00  0.00    -0.081 C  
HETATM   12  C   UNL     1      -8.868  15.689  68.373  1.00  0.00    -0.184 A  
HETATM   13  C   UNL     1      -6.993  12.190  66.872  1.00  0.00     0.009 C  
HETATM   14  C   UNL     1      -7.917  13.346  68.815  1.00  0.00     0.019 C  
HETATM   15  C   UNL     1      -9.192  16.976  68.823  1.00  0.00    -0.252 A  
HETATM   16  C   UNL     1      -9.813  17.830  67.943  1.00  0.00    -0.306 A  
HETATM   17  N   UNL     1      -7.672  13.365  67.382  1.00  0.00    -0.159 NA 
HETATM   18  O   UNL     1     -10.205  19.097  68.250  1.00  0.00    -0.381 OA 
HETATM   19  C   UNL     1     -10.098  17.474  66.642  1.00  0.00    -0.328 A  
HETATM   20  C   UNL     1      -8.110  14.779  69.319  1.00  0.00    -0.088 C  
HETATM   21  O   UNL     1     -10.712  18.501  65.984  1.00  0.00    -0.386 OA 
HETATM   22  C   UNL     1      -9.779  16.215  66.146  1.00  0.00    -0.323 A  
HETATM   23  C   UNL     1      -9.170  15.292  67.036  1.00  0.00    -0.235 A  
HETATM   24  C   UNL     1     -10.874  19.469  67.036  1.00  0.00    -0.427 C  
BRANCH  22  25
HETATM   25  O   UNL     1     -10.012  15.763  64.876  1.00  0.00    -0.341 OA 
HETATM   26  C   UNL     1     -11.369  15.632  64.462  1.00  0.00    -0.320 C  
ENDBRANCH  22  25
ENDBRANCH   1  11
BRANCH   5  27
HETATM   27  O   UNL     1     -10.581   8.292  69.548  1.00  0.00    -0.227 OA 
HETATM   28  C   UNL     1     -11.095   8.265  70.872  1.00  0.00    -0.261 C  
ENDBRANCH   5  27
BRANCH   2  29
HETATM   29  O   UNL     1     -10.321   8.311  66.707  1.00  0.00    -0.310 OA 
HETATM   30  C   UNL     1     -11.119   7.188  67.063  1.00  0.00    -0.089 C  
ENDBRANCH   2  29
TORSDOF 4
ENDMDL
MODEL       49
REMARK 921   NORMALIZED FREE ENERGY PREDICTED BY IDOCK:   -5.04 KCAL/MOL
REMARK 922        TOTAL FREE ENERGY PREDICTED BY IDOCK:   -7.03 KCAL/MOL
REMARK 923 INTER-LIGAND FREE ENERGY PREDICTED BY IDOCK:   -6.96 KCAL/MOL
REMARK 924 INTRA-LIGAND FREE ENERGY PREDICTED BY IDOCK:   -0.07 KCAL/MOL
REMARK 927      BINDING AFFINITY PREDICTED BY RF-SCORE:    0.00 PKD
ROOT
HETATM    1  C   UNL     1      -9.666  13.567  66.534  1.00  0.00    -0.283 C  
HETATM    2  C   UNL     1      -8.874  10.660  68.668  1.00  0.00    -0.151 A  
HETATM    3  O   UNL     1      -8.667  14.084  67.452  1.00  0.00    -0.184 OA 
HETATM    4  C   UNL     1      -8.260  13.153  68.371  1.00  0.00    -0.130 C  
HETATM    5  C   UNL     1      -9.633   9.603  68.120  1.00  0.00    -0.143 A  
HETATM    6  C   UNL     1      -8.940  11.901  68.031  1.00  0.00    -0.185 A  
HETATM    7  O   UNL     1      -7.476  13.364  69.272  1.00  0.00     0.071 OA 
HETATM    8  C   UNL     1     -10.365   9.824  66.935  1.00  0.00    -0.301 A  
HETATM    9  C   UNL     1     -10.398  11.079  66.316  1.00  0.00    -0.304 A  
HETATM   10  C   UNL     1      -9.715  12.125  66.908  1.00  0.00    -0.213 A  
ENDROOT
BRANCH   1  11
HETATM   11  C   UNL     1     -10.994  14.431  66.615  1.00  0.00    -0.318 C  
HETATM   12  C   UNL     1     -10.980  16.369  68.284  1.00  0.00    -0.355 A  
HETATM   13  C   UNL     1     -11.430  15.118  64.254  1.00  0.00    -0.136 C  
HETATM   14  C   UNL     1     -10.366  16.670  65.810  1.00  0.00    -0.321 C  
HETATM   15  C   UNL     1     -11.135  16.896  69.573  1.00  0.00     0.067 A  
HETATM   16  C   UNL     1     -11.498  16.038  70.583  1.00  0.00    -0.402 A  
HETATM   17  N   UNL     1     -11.239  15.521  65.633  1.00  0.00    -0.218 NA 
HETATM   18  O   UNL     1     -11.661  16.407  71.883  1.00  0.00    -0.493 OA 
HETATM   19  C   UNL     1     -11.740  14.698  70.364  1.00  0.00    -0.295 A  
HETATM   20  C   UNL     1     -10.660  17.332  67.159  1.00  0.00    -0.256 C  
HETATM   21  O   UNL     1     -12.084  14.074  71.529  1.00  0.00    -0.281 OA 
HETATM   22  C   UNL     1     -11.616  14.134  69.100  1.00  0.00    -0.307 A  
HETATM   23  C   UNL     1     -11.206  14.982  68.038  1.00  0.00    -0.324 A  
HETATM   24  C   UNL     1     -11.920  15.132  72.490  1.00  0.00    -0.391 C  
BRANCH  22  25
HETATM   25  O   UNL     1     -11.836  12.823  68.775  1.00  0.00    -0.304 OA 
HETATM   26  C   UNL     1     -12.155  11.926  69.834  1.00  0.00    -0.272 C  
ENDBRANCH  22  25
ENDBRANCH   1  11
BRANCH   5  27
HETATM   27  O   UNL     1      -9.643   8.412  68.796  1.00  0.00    -0.147 OA 
HETATM   28  C   UNL     1     -10.548   8.259  69.880  1.00  0.00    -0.232 C  
ENDBRANCH   5  27
BRANCH   2  29
HETATM   29  O   UNL     1      -8.144  10.611  69.824  1.00  0.00    -0.061 OA 
HETATM   30  C   UNL     1      -6.865   9.990  69.761  1.00  0.00    -0.094 C  
ENDBRANCH   2  29
TORSDOF 4
ENDMDL
MODEL       50
REMARK 921   NORMALIZED FREE ENERGY PREDICTED BY IDOCK:   -5.02 KCAL/MOL
REMARK 922        TOTAL FREE ENERGY PREDICTED BY IDOCK:   -7.00 KCAL/MOL
REMARK 923 INTER-LIGAND FREE ENERGY PREDICTED BY IDOCK:   -6.35 KCAL/MOL
REMARK 924 INTRA-LIGAND FREE ENERGY PREDICTED BY IDOCK:   -0.65 KCAL/MOL
REMARK 927      BINDING AFFINITY PREDICTED BY RF-SCORE:    0.00 PKD
ROOT
HETATM    1  C   UNL     1      -9.742   6.886  70.072  1.00  0.00    -0.167 C  
HETATM    2  C   UNL     1      -8.279   5.730  66.885  1.00  0.00    -0.101 A  
HETATM    3  O   UNL     1     -10.884   6.828  69.178  1.00  0.00    -0.238 OA 
HETATM    4  C   UNL     1     -10.542   6.450  67.906  1.00  0.00    -0.258 C  
HETATM    5  C   UNL     1      -6.920   5.494  67.187  1.00  0.00    -0.065 A  
HETATM    6  C   UNL     1      -9.109   6.145  67.928  1.00  0.00    -0.117 A  
HETATM    7  O   UNL     1     -11.312   6.382  66.972  1.00  0.00    -0.314 OA 
HETATM    8  C   UNL     1      -6.478   5.623  68.520  1.00  0.00    -0.043 A  
HETATM    9  C   UNL     1      -7.342   6.029  69.543  1.00  0.00    -0.076 A  
HETATM   10  C   UNL     1      -8.651   6.335  69.219  1.00  0.00    -0.124 A  
ENDROOT
BRANCH   1  11
HETATM   11  C   UNL     1      -9.586   8.342  70.679  1.00  0.00    -0.171 C  
HETATM   12  C   UNL     1     -11.478   9.987  70.170  1.00  0.00    -0.344 A  
HETATM   13  C   UNL     1      -9.193   7.959  73.116  1.00  0.00    -0.267 C  
HETATM   14  C   UNL     1     -11.416   8.570  72.309  1.00  0.00    -0.375 C  
HETATM   15  C   UNL     1     -12.119  10.923  69.348  1.00  0.00    -0.362 A  
HETATM   16  C   UNL     1     -11.530  11.239  68.147  1.00  0.00    -0.306 A  
HETATM   17  N   UNL     1      -9.979   8.614  72.089  1.00  0.00    -0.318 NA 
HETATM   18  O   UNL     1     -12.052  12.112  67.242  1.00  0.00    -0.565 OA 
HETATM   19  C   UNL     1     -10.330  10.692  67.744  1.00  0.00    -0.204 A  
HETATM   20  C   UNL     1     -12.087   9.703  71.529  1.00  0.00    -0.482 C  
HETATM   21  O   UNL     1      -9.968  11.172  66.519  1.00  0.00    -0.202 OA 
HETATM   22  C   UNL     1      -9.649   9.773  68.534  1.00  0.00    -0.149 A  
HETATM   23  C   UNL     1     -10.245   9.394  69.765  1.00  0.00    -0.238 A  
HETATM   24  C   UNL     1     -11.111  11.973  66.167  1.00  0.00    -0.322 C  
BRANCH  22  25
HETATM   25  O   UNL     1      -8.456   9.175  68.232  1.00  0.00    -0.123 OA 
HETATM   26  C   UNL     1      -7.277   9.967  68.344  1.00  0.00    -0.073 C  
ENDBRANCH  22  25
ENDBRANCH   1  11
BRANCH   5  27
HETATM   27  O   UNL     1      -6.086   5.178  66.148  1.00  0.00    -0.028 OA 
HETATM   28  C   UNL     1      -5.422   6.234  65.469  1.00  0.00    -0.017 C  
ENDBRANCH   5  27
BRANCH   2  29
HETATM   29  O   UNL     1      -8.849   5.679  65.643  1.00  0.00    -0.152 OA 
HETATM   30  C   UNL     1      -9.088   4.390  65.088  1.00  0.00    -0.148 C  
ENDBRANCH   2  29
TORSDOF 4
ENDMDL
MODEL       51
REMARK 921   NORMALIZED FREE ENERGY PREDICTED BY IDOCK:   -5.02 KCAL/MOL
REMARK 922        TOTAL FREE ENERGY PREDICTED BY IDOCK:   -7.00 KCAL/MOL
REMARK 923 INTER-LIGAND FREE ENERGY PREDICTED BY IDOCK:   -6.83 KCAL/MOL
REMARK 924 INTRA-LIGAND FREE ENERGY PREDICTED BY IDOCK:   -0.17 KCAL/MOL
REMARK 927      BINDING AFFINITY PREDICTED BY RF-SCORE:    0.00 PKD
ROOT
HETATM    1  C   UNL     1      -8.454  14.982  66.348  1.00  0.00     0.068 C  
HETATM    2  C   UNL     1      -8.318  18.591  67.113  1.00  0.00    -0.249 A  
HETATM    3  O   UNL     1      -9.782  15.452  65.997  1.00  0.00    -0.287 OA 
HETATM    4  C   UNL     1      -9.954  16.788  66.247  1.00  0.00    -0.320 C  
HETATM    5  C   UNL     1      -6.983  18.816  67.515  1.00  0.00    -0.202 A  
HETATM    6  C   UNL     1      -8.664  17.299  66.715  1.00  0.00    -0.275 A  
HETATM    7  O   UNL     1     -10.991  17.395  66.087  1.00  0.00    -0.029 OA 
HETATM    8  C   UNL     1      -6.054  17.757  67.440  1.00  0.00    -0.164 A  
HETATM    9  C   UNL     1      -6.434  16.477  67.023  1.00  0.00    -0.221 A  
HETATM   10  C   UNL     1      -7.761  16.250  66.710  1.00  0.00    -0.295 A  
ENDROOT
BRANCH   1  11
HETATM   11  C   UNL     1      -8.544  13.818  67.422  1.00  0.00    -0.203 C  
HETATM   12  C   UNL     1     -10.897  13.155  68.175  1.00  0.00    -0.271 A  
HETATM   13  C   UNL     1      -7.226  11.948  66.420  1.00  0.00     0.314 C  
HETATM   14  C   UNL     1      -9.664  11.953  66.272  1.00  0.00    -0.229 C  
HETATM   15  C   UNL     1     -12.036  13.322  68.973  1.00  0.00    -0.336 A  
HETATM   16  C   UNL     1     -12.030  14.334  69.905  1.00  0.00    -0.339 A  
HETATM   17  N   UNL     1      -8.481  12.395  66.993  1.00  0.00    -0.182 NA 
HETATM   18  O   UNL     1     -13.074  14.625  70.729  1.00  0.00    -0.360 OA 
HETATM   19  C   UNL     1     -10.942  15.159  70.094  1.00  0.00    -0.253 A  
HETATM   20  C   UNL     1     -10.875  11.989  67.208  1.00  0.00    -0.290 C  
HETATM   21  O   UNL     1     -11.195  16.074  71.075  1.00  0.00    -0.361 OA 
HETATM   22  C   UNL     1      -9.784  15.020  69.338  1.00  0.00    -0.153 A  
HETATM   23  C   UNL     1      -9.766  14.010  68.341  1.00  0.00    -0.223 A  
HETATM   24  C   UNL     1     -12.573  15.800  71.384  1.00  0.00    -0.455 C  
BRANCH  22  25
HETATM   25  O   UNL     1      -8.650  15.779  69.448  1.00  0.00    -0.251 OA 
HETATM   26  C   UNL     1      -7.516  15.183  70.069  1.00  0.00     0.076 C  
ENDBRANCH  22  25
ENDBRANCH   1  11
BRANCH   5  27
HETATM   27  O   UNL     1      -6.666  20.059  67.994  1.00  0.00    -0.258 OA 
HETATM   28  C   UNL     1      -6.282  20.180  69.356  1.00  0.00    -0.334 C  
ENDBRANCH   5  27
BRANCH   2  29
HETATM   29  O   UNL     1      -9.337  19.502  67.160  1.00  0.00    -0.307 OA 
HETATM   30  C   UNL     1      -9.928  19.754  68.430  1.00  0.00    -0.439 C  
ENDBRANCH   2  29
TORSDOF 4
ENDMDL
MODEL       52
REMARK 921   NORMALIZED FREE ENERGY PREDICTED BY IDOCK:   -5.01 KCAL/MOL
REMARK 922        TOTAL FREE ENERGY PREDICTED BY IDOCK:   -6.99 KCAL/MOL
REMARK 923 INTER-LIGAND FREE ENERGY PREDICTED BY IDOCK:   -7.24 KCAL/MOL
REMARK 924 INTRA-LIGAND FREE ENERGY PREDICTED BY IDOCK:    0.25 KCAL/MOL
REMARK 927      BINDING AFFINITY PREDICTED BY RF-SCORE:    0.00 PKD
ROOT
HETATM    1  C   UNL     1     -10.434   9.144  70.405  1.00  0.00    -0.223 C  
HETATM    2  C   UNL     1      -9.905  10.786  67.141  1.00  0.00    -0.185 A  
HETATM    3  O   UNL     1      -9.204   8.543  69.920  1.00  0.00    -0.151 OA 
HETATM    4  C   UNL     1      -8.847   8.999  68.679  1.00  0.00    -0.137 C  
HETATM    5  C   UNL     1     -10.952  11.728  67.047  1.00  0.00    -0.285 A  
HETATM    6  C   UNL     1      -9.821  10.028  68.310  1.00  0.00    -0.163 A  
HETATM    7  O   UNL     1      -7.890   8.606  68.045  1.00  0.00    -0.101 OA 
HETATM    8  C   UNL     1     -11.818  11.907  68.146  1.00  0.00    -0.338 A  
HETATM    9  C   UNL     1     -11.696  11.138  69.309  1.00  0.00    -0.401 A  
HETATM   10  C   UNL     1     -10.717  10.163  69.356  1.00  0.00    -0.266 A  
ENDROOT
BRANCH   1  11
HETATM   11  C   UNL     1     -11.517   8.025  70.706  1.00  0.00    -0.263 C  
HETATM   12  C   UNL     1     -10.628   5.813  71.633  1.00  0.00    -0.302 A  
HETATM   13  C   UNL     1     -13.183   9.156  72.182  1.00  0.00    -0.458 C  
HETATM   14  C   UNL     1     -11.469   7.707  73.145  1.00  0.00    -0.079 C  
HETATM   15  C   UNL     1     -10.063   4.540  71.476  1.00  0.00    -0.239 A  
HETATM   16  C   UNL     1      -9.800   4.102  70.199  1.00  0.00    -0.172 A  
HETATM   17  N   UNL     1     -12.278   8.041  71.984  1.00  0.00    -0.316 NA 
HETATM   18  O   UNL     1      -9.233   2.901  69.900  1.00  0.00    -0.120 OA 
HETATM   19  C   UNL     1     -10.099   4.855  69.083  1.00  0.00    -0.159 A  
HETATM   20  C   UNL     1     -10.991   6.257  73.035  1.00  0.00    -0.271 C  
HETATM   21  O   UNL     1      -9.741   4.192  67.944  1.00  0.00    -0.160 OA 
HETATM   22  C   UNL     1     -10.676   6.115  69.189  1.00  0.00    -0.316 A  
HETATM   23  C   UNL     1     -10.927   6.616  70.493  1.00  0.00    -0.337 A  
HETATM   24  C   UNL     1      -9.097   3.021  68.476  1.00  0.00    -0.158 C  
BRANCH  22  25
HETATM   25  O   UNL     1     -11.015   6.939  68.150  1.00  0.00    -0.207 OA 
HETATM   26  C   UNL     1     -10.746   6.479  66.829  1.00  0.00    -0.273 C  
ENDBRANCH  22  25
ENDBRANCH   1  11
BRANCH   5  27
HETATM   27  O   UNL     1     -11.093  12.405  65.865  1.00  0.00    -0.290 OA 
HETATM   28  C   UNL     1     -12.346  13.005  65.574  1.00  0.00    -0.472 C  
ENDBRANCH   5  27
BRANCH   2  29
HETATM   29  O   UNL     1      -9.011  10.476  66.154  1.00  0.00    -0.152 OA 
HETATM   30  C   UNL     1      -9.493   9.715  65.052  1.00  0.00    -0.245 C  
ENDBRANCH   2  29
TORSDOF 4
ENDMDL
MODEL       53
REMARK 921   NORMALIZED FREE ENERGY PREDICTED BY IDOCK:   -4.99 KCAL/MOL
REMARK 922        TOTAL FREE ENERGY PREDICTED BY IDOCK:   -6.96 KCAL/MOL
REMARK 923 INTER-LIGAND FREE ENERGY PREDICTED BY IDOCK:   -7.29 KCAL/MOL
REMARK 924 INTRA-LIGAND FREE ENERGY PREDICTED BY IDOCK:    0.33 KCAL/MOL
REMARK 927      BINDING AFFINITY PREDICTED BY RF-SCORE:    0.00 PKD
ROOT
HETATM    1  C   UNL     1      -9.459  13.001  66.732  1.00  0.00    -0.250 C  
HETATM    2  C   UNL     1      -8.403   9.464  66.644  1.00  0.00    -0.119 A  
HETATM    3  O   UNL     1      -8.920  12.776  68.061  1.00  0.00    -0.183 OA 
HETATM    4  C   UNL     1      -8.500  11.486  68.251  1.00  0.00    -0.159 C  
HETATM    5  C   UNL     1      -8.653   9.054  65.317  1.00  0.00    -0.174 A  
HETATM    6  C   UNL     1      -8.671  10.794  66.971  1.00  0.00    -0.136 A  
HETATM    7  O   UNL     1      -8.064  11.045  69.293  1.00  0.00    -0.110 OA 
HETATM    8  C   UNL     1      -9.098  10.005  64.375  1.00  0.00    -0.289 A  
HETATM    9  C   UNL     1      -9.344  11.334  64.736  1.00  0.00    -0.166 A  
HETATM   10  C   UNL     1      -9.172  11.703  66.057  1.00  0.00    -0.218 A  
ENDROOT
BRANCH   1  11
HETATM   11  C   UNL     1     -10.959  13.509  66.819  1.00  0.00    -0.292 C  
HETATM   12  C   UNL     1     -11.751  14.297  69.120  1.00  0.00    -0.360 A  
HETATM   13  C   UNL     1     -11.130  15.242  65.030  1.00  0.00    -0.426 C  
HETATM   14  C   UNL     1     -10.805  15.905  67.358  1.00  0.00    -0.291 C  
HETATM   15  C   UNL     1     -12.266  14.062  70.402  1.00  0.00    -0.433 A  
HETATM   16  C   UNL     1     -12.567  12.766  70.750  1.00  0.00    -0.225 A  
HETATM   17  N   UNL     1     -11.302  14.903  66.429  1.00  0.00    -0.335 NA 
HETATM   18  O   UNL     1     -13.050  12.389  71.966  1.00  0.00    -0.430 OA 
HETATM   19  C   UNL     1     -12.406  11.710  69.878  1.00  0.00    -0.159 A  
HETATM   20  C   UNL     1     -11.498  15.735  68.712  1.00  0.00    -0.391 C  
HETATM   21  O   UNL     1     -12.777  10.536  70.469  1.00  0.00    -0.338 OA 
HETATM   22  C   UNL     1     -11.916  11.897  68.591  1.00  0.00    -0.233 A  
HETATM   23  C   UNL     1     -11.559  13.216  68.209  1.00  0.00    -0.370 A  
HETATM   24  C   UNL     1     -13.070  10.962  71.812  1.00  0.00    -0.459 C  
BRANCH  22  25
HETATM   25  O   UNL     1     -11.723  10.923  67.650  1.00  0.00    -0.566 OA 
HETATM   26  C   UNL     1     -11.380   9.620  68.111  1.00  0.00     0.220 C  
ENDBRANCH  22  25
ENDBRANCH   1  11
BRANCH   5  27
HETATM   27  O   UNL     1      -8.480   7.729  65.019  1.00  0.00    -0.128 OA 
HETATM   28  C   UNL     1      -7.819   7.390  63.808  1.00  0.00    -0.108 C  
ENDBRANCH   5  27
BRANCH   2  29
HETATM   29  O   UNL     1      -8.004   8.657  67.674  1.00  0.00    -0.105 OA 
HETATM   30  C   UNL     1      -6.626   8.305  67.731  1.00  0.00    -0.061 C  
ENDBRANCH   2  29
TORSDOF 4
ENDMDL
MODEL       54
REMARK 921   NORMALIZED FREE ENERGY PREDICTED BY IDOCK:   -4.98 KCAL/MOL
REMARK 922        TOTAL FREE ENERGY PREDICTED BY IDOCK:   -6.95 KCAL/MOL
REMARK 923 INTER-LIGAND FREE ENERGY PREDICTED BY IDOCK:   -6.09 KCAL/MOL
REMARK 924 INTRA-LIGAND FREE ENERGY PREDICTED BY IDOCK:   -0.87 KCAL/MOL
REMARK 927      BINDING AFFINITY PREDICTED BY RF-SCORE:    0.00 PKD
ROOT
HETATM    1  C   UNL     1      -9.944   8.557  71.453  1.00  0.00    -0.233 C  
HETATM    2  C   UNL     1      -7.659   5.880  72.570  1.00  0.00    -0.100 A  
HETATM    3  O   UNL     1     -10.352   8.314  72.825  1.00  0.00    -0.318 OA 
HETATM    4  C   UNL     1      -9.638   7.308  73.420  1.00  0.00    -0.226 C  
HETATM    5  C   UNL     1      -6.789   5.680  71.476  1.00  0.00    -0.066 A  
HETATM    6  C   UNL     1      -8.625   6.881  72.453  1.00  0.00    -0.128 A  
HETATM    7  O   UNL     1      -9.834   6.888  74.541  1.00  0.00    -0.275 OA 
HETATM    8  C   UNL     1      -6.889   6.528  70.353  1.00  0.00    -0.062 A  
HETATM    9  C   UNL     1      -7.862   7.531  70.276  1.00  0.00    -0.094 A  
HETATM   10  C   UNL     1      -8.759   7.663  71.319  1.00  0.00    -0.137 A  
ENDROOT
BRANCH   1  11
HETATM   11  C   UNL     1     -11.170   8.365  70.467  1.00  0.00    -0.238 C  
HETATM   12  C   UNL     1     -10.595   7.691  68.067  1.00  0.00    -0.213 A  
HETATM   13  C   UNL     1     -12.670   6.756  71.649  1.00  0.00    -0.312 C  
HETATM   14  C   UNL     1     -11.172   5.974  69.885  1.00  0.00    -0.368 C  
HETATM   15  C   UNL     1     -10.209   7.991  66.754  1.00  0.00    -0.367 A  
HETATM   16  C   UNL     1     -10.006   9.310  66.424  1.00  0.00    -0.286 A  
HETATM   17  N   UNL     1     -11.925   7.083  70.449  1.00  0.00    -0.256 NA 
HETATM   18  O   UNL     1      -9.609   9.743  65.197  1.00  0.00    -0.273 OA 
HETATM   19  C   UNL     1     -10.196  10.335  67.327  1.00  0.00    -0.218 A  
HETATM   20  C   UNL     1     -10.897   6.245  68.404  1.00  0.00    -0.394 C  
HETATM   21  O   UNL     1      -9.929  11.543  66.748  1.00  0.00    -0.202 OA 
HETATM   22  C   UNL     1     -10.595  10.088  68.635  1.00  0.00    -0.212 A  
HETATM   23  C   UNL     1     -10.779   8.735  69.023  1.00  0.00    -0.134 A  
HETATM   24  C   UNL     1      -9.454  11.148  65.449  1.00  0.00    -0.222 C  
BRANCH  22  25
HETATM   25  O   UNL     1     -10.816  11.028  69.605  1.00  0.00    -0.240 OA 
HETATM   26  C   UNL     1     -11.991  11.825  69.495  1.00  0.00    -0.300 C  
ENDBRANCH  22  25
ENDBRANCH   1  11
BRANCH   5  27
HETATM   27  O   UNL     1      -5.904   4.638  71.551  1.00  0.00    -0.015 OA 
HETATM   28  C   UNL     1      -5.458   4.041  70.342  1.00  0.00    -0.012 C  
ENDBRANCH   5  27
BRANCH   2  29
HETATM   29  O   UNL     1      -7.708   5.123  73.708  1.00  0.00    -0.097 OA 
HETATM   30  C   UNL     1      -8.293   3.830  73.607  1.00  0.00    -0.087 C  
ENDBRANCH   2  29
TORSDOF 4
ENDMDL
MODEL       55
REMARK 921   NORMALIZED FREE ENERGY PREDICTED BY IDOCK:   -4.98 KCAL/MOL
REMARK 922        TOTAL FREE ENERGY PREDICTED BY IDOCK:   -6.95 KCAL/MOL
REMARK 923 INTER-LIGAND FREE ENERGY PREDICTED BY IDOCK:   -7.06 KCAL/MOL
REMARK 924 INTRA-LIGAND FREE ENERGY PREDICTED BY IDOCK:    0.11 KCAL/MOL
REMARK 927      BINDING AFFINITY PREDICTED BY RF-SCORE:    0.00 PKD
ROOT
HETATM    1  C   UNL     1     -10.238   9.059  71.868  1.00  0.00    -0.272 C  
HETATM    2  C   UNL     1      -7.891   6.226  72.178  1.00  0.00    -0.104 A  
HETATM    3  O   UNL     1     -10.885   8.187  72.832  1.00  0.00    -0.357 OA 
HETATM    4  C   UNL     1     -10.180   7.036  73.063  1.00  0.00    -0.233 C  
HETATM    5  C   UNL     1      -6.794   6.587  71.365  1.00  0.00    -0.063 A  
HETATM    6  C   UNL     1      -8.939   7.141  72.292  1.00  0.00    -0.147 A  
HETATM    7  O   UNL     1     -10.544   6.132  73.784  1.00  0.00    -0.265 OA 
HETATM    8  C   UNL     1      -6.774   7.862  70.763  1.00  0.00    -0.037 A  
HETATM    9  C   UNL     1      -7.837   8.759  70.910  1.00  0.00    -0.137 A  
HETATM   10  C   UNL     1      -8.940   8.362  71.642  1.00  0.00    -0.261 A  
ENDROOT
BRANCH   1  11
HETATM   11  C   UNL     1     -11.195   9.327  70.632  1.00  0.00    -0.276 C  
HETATM   12  C   UNL     1     -11.317  11.744  69.802  1.00  0.00    -0.245 A  
HETATM   13  C   UNL     1     -10.448   7.688  68.903  1.00  0.00    -0.199 C  
HETATM   14  C   UNL     1      -9.711  10.014  68.794  1.00  0.00    -0.171 C  
HETATM   15  C   UNL     1     -11.821  13.049  69.857  1.00  0.00    -0.377 A  
HETATM   16  C   UNL     1     -12.777  13.334  70.803  1.00  0.00    -0.209 A  
HETATM   17  N   UNL     1     -10.720   9.070  69.246  1.00  0.00    -0.210 NA 
HETATM   18  O   UNL     1     -13.336  14.562  70.985  1.00  0.00    -0.369 OA 
HETATM   19  C   UNL     1     -13.269  12.379  71.668  1.00  0.00    -0.269 A  
HETATM   20  C   UNL     1     -10.324  11.414  68.705  1.00  0.00    -0.222 C  
HETATM   21  O   UNL     1     -14.205  12.920  72.502  1.00  0.00    -0.526 OA 
HETATM   22  C   UNL     1     -12.812  11.067  71.639  1.00  0.00    -0.435 A  
HETATM   23  C   UNL     1     -11.798  10.744  70.700  1.00  0.00    -0.460 A  
HETATM   24  C   UNL     1     -14.154  14.312  72.138  1.00  0.00    -0.540 C  
BRANCH  22  25
HETATM   25  O   UNL     1     -13.234  10.046  72.446  1.00  0.00    -0.364 OA 
HETATM   26  C   UNL     1     -14.333   9.260  71.993  1.00  0.00    -0.090 C  
ENDBRANCH  22  25
ENDBRANCH   1  11
BRANCH   5  27
HETATM   27  O   UNL     1      -5.809   5.653  71.177  1.00  0.00    -0.022 OA 
HETATM   28  C   UNL     1      -5.853   4.852  70.006  1.00  0.00    -0.017 C  
ENDBRANCH   5  27
BRANCH   2  29
HETATM   29  O   UNL     1      -8.070   5.020  72.798  1.00  0.00    -0.103 OA 
HETATM   30  C   UNL     1      -7.358   4.797  74.009  1.00  0.00    -0.078 C  
ENDBRANCH   2  29
TORSDOF 4
ENDMDL
MODEL       56
REMARK 921   NORMALIZED FREE ENERGY PREDICTED BY IDOCK:   -4.95 KCAL/MOL
REMARK 922        TOTAL FREE ENERGY PREDICTED BY IDOCK:   -6.92 KCAL/MOL
REMARK 923 INTER-LIGAND FREE ENERGY PREDICTED BY IDOCK:   -6.11 KCAL/MOL
REMARK 924 INTRA-LIGAND FREE ENERGY PREDICTED BY IDOCK:   -0.81 KCAL/MOL
REMARK 927      BINDING AFFINITY PREDICTED BY RF-SCORE:    0.00 PKD
ROOT
HETATM    1  C   UNL     1     -10.979  11.680  67.196  1.00  0.00    -0.280 C  
HETATM    2  C   UNL     1     -10.056  14.746  69.033  1.00  0.00    -0.232 A  
HETATM    3  O   UNL     1     -11.994  11.772  68.229  1.00  0.00    -0.487 OA 
HETATM    4  C   UNL     1     -11.806  12.845  69.062  1.00  0.00    -0.306 C  
HETATM    5  C   UNL     1      -8.954  15.266  68.321  1.00  0.00    -0.176 A  
HETATM    6  C   UNL     1     -10.657  13.587  68.539  1.00  0.00    -0.257 A  
HETATM    7  O   UNL     1     -12.491  13.100  70.029  1.00  0.00    -0.203 OA 
HETATM    8  C   UNL     1      -8.550  14.638  67.124  1.00  0.00    -0.244 A  
HETATM    9  C   UNL     1      -9.185  13.485  66.651  1.00  0.00    -0.221 A  
HETATM   10  C   UNL     1     -10.211  12.941  67.400  1.00  0.00    -0.230 A  
ENDROOT
BRANCH   1  11
HETATM   11  C   UNL     1     -10.219  10.290  67.288  1.00  0.00    -0.218 C  
HETATM   12  C   UNL     1      -7.671  10.381  67.080  1.00  0.00    -0.100 A  
HETATM   13  C   UNL     1     -11.035   9.278  69.420  1.00  0.00    -0.120 C  
HETATM   14  C   UNL     1      -8.875  10.416  69.346  1.00  0.00    -0.123 C  
HETATM   15  C   UNL     1      -6.489  10.427  66.329  1.00  0.00    -0.102 A  
HETATM   16  C   UNL     1      -6.593  10.407  64.958  1.00  0.00    -0.075 A  
HETATM   17  N   UNL     1      -9.904   9.694  68.614  1.00  0.00    -0.157 NA 
HETATM   18  O   UNL     1      -5.533  10.469  64.106  1.00  0.00    -0.142 OA 
HETATM   19  C   UNL     1      -7.807  10.315  64.310  1.00  0.00    -0.117 A  
HETATM   20  C   UNL     1      -7.548  10.320  68.589  1.00  0.00    -0.089 C  
HETATM   21  O   UNL     1      -7.631  10.313  62.956  1.00  0.00    -0.143 OA 
HETATM   22  C   UNL     1      -9.004  10.249  65.013  1.00  0.00    -0.196 A  
HETATM   23  C   UNL     1      -8.939  10.305  66.430  1.00  0.00    -0.166 A  
HETATM   24  C   UNL     1      -6.212  10.524  62.843  1.00  0.00    -0.109 C  
BRANCH  22  25
HETATM   25  O   UNL     1     -10.256  10.153  64.470  1.00  0.00    -0.256 OA 
HETATM   26  C   UNL     1     -10.701  11.225  63.644  1.00  0.00    -0.367 C  
ENDBRANCH  22  25
ENDBRANCH   1  11
BRANCH   5  27
HETATM   27  O   UNL     1      -8.306  16.347  68.856  1.00  0.00    -0.218 OA 
HETATM   28  C   UNL     1      -8.448  17.606  68.213  1.00  0.00    -0.271 C  
ENDBRANCH   5  27
BRANCH   2  29
HETATM   29  O   UNL     1     -10.543  15.220  70.221  1.00  0.00    -0.285 OA 
HETATM   30  C   UNL     1     -11.445  16.318  70.164  1.00  0.00    -0.216 C  
ENDBRANCH   2  29
TORSDOF 4
ENDMDL
MODEL       57
REMARK 921   NORMALIZED FREE ENERGY PREDICTED BY IDOCK:   -4.95 KCAL/MOL
REMARK 922        TOTAL FREE ENERGY PREDICTED BY IDOCK:   -6.91 KCAL/MOL
REMARK 923 INTER-LIGAND FREE ENERGY PREDICTED BY IDOCK:   -6.24 KCAL/MOL
REMARK 924 INTRA-LIGAND FREE ENERGY PREDICTED BY IDOCK:   -0.67 KCAL/MOL
REMARK 927      BINDING AFFINITY PREDICTED BY RF-SCORE:    0.00 PKD
ROOT
HETATM    1  C   UNL     1      -8.928  12.184  68.147  1.00  0.00    -0.195 C  
HETATM    2  C   UNL     1      -8.412   8.884  66.575  1.00  0.00    -0.119 A  
HETATM    3  O   UNL     1      -8.703  11.303  69.278  1.00  0.00     0.051 OA 
HETATM    4  C   UNL     1      -8.525   9.996  68.905  1.00  0.00    -0.132 C  
HETATM    5  C   UNL     1      -8.452   9.144  65.188  1.00  0.00    -0.167 A  
HETATM    6  C   UNL     1      -8.540   9.972  67.440  1.00  0.00    -0.125 A  
HETATM    7  O   UNL     1      -8.375   9.070  69.672  1.00  0.00    -0.114 OA 
HETATM    8  C   UNL     1      -8.555  10.478  64.741  1.00  0.00    -0.173 A  
HETATM    9  C   UNL     1      -8.668  11.546  65.638  1.00  0.00     0.050 A  
HETATM   10  C   UNL     1      -8.708  11.269  66.992  1.00  0.00    -0.152 A  
ENDROOT
BRANCH   1  11
HETATM   11  C   UNL     1     -10.323  12.925  68.291  1.00  0.00    -0.244 C  
HETATM   12  C   UNL     1     -11.035  14.384  66.314  1.00  0.00    -0.318 A  
HETATM   13  C   UNL     1     -11.937  11.104  68.851  1.00  0.00    -0.298 C  
HETATM   14  C   UNL     1     -11.768  11.937  66.561  1.00  0.00    -0.170 C  
HETATM   15  C   UNL     1     -11.020  15.583  65.589  1.00  0.00    -0.307 A  
HETATM   16  C   UNL     1     -10.285  16.632  66.089  1.00  0.00    -0.348 A  
HETATM   17  N   UNL     1     -11.589  12.208  67.978  1.00  0.00    -0.330 NA 
HETATM   18  O   UNL     1     -10.163  17.844  65.481  1.00  0.00    -0.576 OA 
HETATM   19  C   UNL     1      -9.594  16.549  67.280  1.00  0.00    -0.242 A  
HETATM   20  C   UNL     1     -11.912  13.259  65.802  1.00  0.00    -0.463 C  
HETATM   21  O   UNL     1      -8.951  17.724  67.547  1.00  0.00    -0.241 OA 
HETATM   22  C   UNL     1      -9.593  15.387  68.041  1.00  0.00    -0.206 A  
HETATM   23  C   UNL     1     -10.312  14.271  67.539  1.00  0.00    -0.248 A  
HETATM   24  C   UNL     1      -9.224  18.486  66.357  1.00  0.00    -0.277 C  
BRANCH  22  25
HETATM   25  O   UNL     1      -8.948  15.201  69.234  1.00  0.00    -0.218 OA 
HETATM   26  C   UNL     1      -7.523  15.194  69.217  1.00  0.00    -0.193 C  
ENDBRANCH  22  25
ENDBRANCH   1  11
BRANCH   5  27
HETATM   27  O   UNL     1      -8.422   8.070  64.339  1.00  0.00    -0.071 OA 
HETATM   28  C   UNL     1      -7.954   8.269  63.014  1.00  0.00    -0.156 C  
ENDBRANCH   5  27
BRANCH   2  29
HETATM   29  O   UNL     1      -8.350   7.649  67.160  1.00  0.00    -0.118 OA 
HETATM   30  C   UNL     1      -9.552   6.890  67.212  1.00  0.00    -0.142 C  
ENDBRANCH   2  29
TORSDOF 4
ENDMDL
MODEL       58
REMARK 921   NORMALIZED FREE ENERGY PREDICTED BY IDOCK:   -4.93 KCAL/MOL
REMARK 922        TOTAL FREE ENERGY PREDICTED BY IDOCK:   -6.89 KCAL/MOL
REMARK 923 INTER-LIGAND FREE ENERGY PREDICTED BY IDOCK:   -6.64 KCAL/MOL
REMARK 924 INTRA-LIGAND FREE ENERGY PREDICTED BY IDOCK:   -0.25 KCAL/MOL
REMARK 927      BINDING AFFINITY PREDICTED BY RF-SCORE:    0.00 PKD
ROOT
HETATM    1  C   UNL     1     -10.406   9.547  66.569  1.00  0.00    -0.193 C  
HETATM    2  C   UNL     1     -11.535  13.037  66.994  1.00  0.00    -0.333 A  
HETATM    3  O   UNL     1     -11.153   9.512  67.813  1.00  0.00    -0.186 OA 
HETATM    4  C   UNL     1     -11.634  10.742  68.178  1.00  0.00    -0.197 C  
HETATM    5  C   UNL     1     -11.091  13.696  65.827  1.00  0.00    -0.287 A  
HETATM    6  C   UNL     1     -11.284  11.667  67.098  1.00  0.00    -0.371 A  
HETATM    7  O   UNL     1     -12.239  10.973  69.202  1.00  0.00    -0.434 OA 
HETATM    8  C   UNL     1     -10.478  12.943  64.803  1.00  0.00    -0.371 A  
HETATM    9  C   UNL     1     -10.254  11.569  64.937  1.00  0.00    -0.324 A  
HETATM   10  C   UNL     1     -10.620  10.951  66.118  1.00  0.00    -0.270 A  
ENDROOT
BRANCH   1  11
HETATM   11  C   UNL     1      -8.925   9.027  66.795  1.00  0.00    -0.135 C  
HETATM   12  C   UNL     1      -8.655   7.045  68.390  1.00  0.00    -0.126 A  
HETATM   13  C   UNL     1      -8.056   8.611  64.491  1.00  0.00    -0.162 C  
HETATM   14  C   UNL     1      -8.879   6.756  65.850  1.00  0.00    -0.110 C  
HETATM   15  C   UNL     1      -8.528   6.494  69.671  1.00  0.00    -0.131 A  
HETATM   16  C   UNL     1      -8.511   7.352  70.746  1.00  0.00    -0.131 A  
HETATM   17  N   UNL     1      -8.302   8.090  65.821  1.00  0.00    -0.131 NA 
HETATM   18  O   UNL     1      -8.416   6.955  72.044  1.00  0.00    -0.111 OA 
HETATM   19  C   UNL     1      -8.585   8.721  70.600  1.00  0.00    -0.178 A  
HETATM   20  C   UNL     1      -8.591   6.104  67.204  1.00  0.00    -0.103 C  
HETATM   21  O   UNL     1      -8.546   9.338  71.817  1.00  0.00    -0.289 OA 
HETATM   22  C   UNL     1      -8.694   9.314  69.348  1.00  0.00    -0.148 A  
HETATM   23  C   UNL     1      -8.752   8.459  68.217  1.00  0.00    -0.143 A  
HETATM   24  C   UNL     1      -8.555   8.215  72.717  1.00  0.00    -0.206 C  
BRANCH  22  25
HETATM   25  O   UNL     1      -8.769  10.657  69.093  1.00  0.00    -0.163 OA 
HETATM   26  C   UNL     1      -7.545  11.380  69.004  1.00  0.00    -0.084 C  
ENDBRANCH  22  25
ENDBRANCH   1  11
BRANCH   5  27
HETATM   27  O   UNL     1     -11.253  15.054  65.764  1.00  0.00    -0.340 OA 
HETATM   28  C   UNL     1     -10.093  15.872  65.734  1.00  0.00    -0.361 C  
ENDBRANCH   5  27
BRANCH   2  29
HETATM   29  O   UNL     1     -12.113  13.630  68.082  1.00  0.00    -0.359 OA 
HETATM   30  C   UNL     1     -11.248  14.279  69.007  1.00  0.00    -0.266 C  
ENDBRANCH   2  29
TORSDOF 4
ENDMDL
MODEL       59
REMARK 921   NORMALIZED FREE ENERGY PREDICTED BY IDOCK:   -4.92 KCAL/MOL
REMARK 922        TOTAL FREE ENERGY PREDICTED BY IDOCK:   -6.87 KCAL/MOL
REMARK 923 INTER-LIGAND FREE ENERGY PREDICTED BY IDOCK:   -6.21 KCAL/MOL
REMARK 924 INTRA-LIGAND FREE ENERGY PREDICTED BY IDOCK:   -0.66 KCAL/MOL
REMARK 927      BINDING AFFINITY PREDICTED BY RF-SCORE:    0.00 PKD
ROOT
HETATM    1  C   UNL     1     -11.897   7.181  70.982  1.00  0.00    -0.333 C  
HETATM    2  C   UNL     1      -9.783   4.164  71.237  1.00  0.00    -0.185 A  
HETATM    3  O   UNL     1     -11.378   7.017  69.636  1.00  0.00    -0.220 OA 
HETATM    4  C   UNL     1     -10.523   5.952  69.524  1.00  0.00    -0.278 C  
HETATM    5  C   UNL     1      -9.962   3.720  72.565  1.00  0.00    -0.163 A  
HETATM    6  C   UNL     1     -10.506   5.287  70.828  1.00  0.00    -0.298 A  
HETATM    7  O   UNL     1      -9.924   5.647  68.515  1.00  0.00    -0.138 OA 
HETATM    8  C   UNL     1     -10.894   4.381  73.393  1.00  0.00    -0.347 A  
HETATM    9  C   UNL     1     -11.610   5.496  72.945  1.00  0.00    -0.280 A  
HETATM   10  C   UNL     1     -11.367   5.969  71.669  1.00  0.00    -0.313 A  
ENDROOT
BRANCH   1  11
HETATM   11  C   UNL     1     -11.523   8.614  71.549  1.00  0.00    -0.295 C  
HETATM   12  C   UNL     1     -10.449  10.240  69.892  1.00  0.00    -0.304 A  
HETATM   13  C   UNL     1     -13.644   9.448  72.571  1.00  0.00    -0.370 C  
HETATM   14  C   UNL     1     -12.975  10.193  70.343  1.00  0.00    -0.059 C  
HETATM   15  C   UNL     1      -9.345  10.759  69.203  1.00  0.00    -0.141 A  
HETATM   16  C   UNL     1      -8.109  10.213  69.457  1.00  0.00    -0.170 A  
HETATM   17  N   UNL     1     -12.559   9.679  71.638  1.00  0.00    -0.373 NA 
HETATM   18  O   UNL     1      -6.957  10.601  68.845  1.00  0.00    -0.063 OA 
HETATM   19  C   UNL     1      -7.922   9.203  70.377  1.00  0.00    -0.145 A  
HETATM   20  C   UNL     1     -11.796  10.899  69.670  1.00  0.00    -0.416 C  
HETATM   21  O   UNL     1      -6.606   8.845  70.438  1.00  0.00    -0.038 OA 
HETATM   22  C   UNL     1      -8.984   8.669  71.097  1.00  0.00    -0.201 A  
HETATM   23  C   UNL     1     -10.281   9.183  70.835  1.00  0.00    -0.351 A  
HETATM   24  C   UNL     1      -6.033   9.649  69.392  1.00  0.00    -0.033 C  
BRANCH  22  25
HETATM   25  O   UNL     1      -8.908   7.674  72.033  1.00  0.00    -0.112 OA 
HETATM   26  C   UNL     1      -8.443   8.026  73.333  1.00  0.00    -0.235 C  
ENDBRANCH  22  25
ENDBRANCH   1  11
BRANCH   5  27
HETATM   27  O   UNL     1      -9.185   2.678  72.996  1.00  0.00    -0.086 OA 
HETATM   28  C   UNL     1      -7.940   2.972  73.611  1.00  0.00    -0.068 C  
ENDBRANCH   5  27
BRANCH   2  29
HETATM   29  O   UNL     1      -8.898   3.652  70.329  1.00  0.00    -0.075 OA 
HETATM   30  C   UNL     1      -9.277   2.462  69.648  1.00  0.00    -0.122 C  
ENDBRANCH   2  29
TORSDOF 4
ENDMDL
MODEL       60
REMARK 921   NORMALIZED FREE ENERGY PREDICTED BY IDOCK:   -4.89 KCAL/MOL
REMARK 922        TOTAL FREE ENERGY PREDICTED BY IDOCK:   -6.84 KCAL/MOL
REMARK 923 INTER-LIGAND FREE ENERGY PREDICTED BY IDOCK:   -6.57 KCAL/MOL
REMARK 924 INTRA-LIGAND FREE ENERGY PREDICTED BY IDOCK:   -0.26 KCAL/MOL
REMARK 927      BINDING AFFINITY PREDICTED BY RF-SCORE:    0.00 PKD
ROOT
HETATM    1  C   UNL     1      -8.596  12.266  67.356  1.00  0.00    -0.178 C  
HETATM    2  C   UNL     1      -7.188   8.857  67.182  1.00  0.00    -0.083 A  
HETATM    3  O   UNL     1      -8.110  12.032  68.704  1.00  0.00    -0.137 OA 
HETATM    4  C   UNL     1      -7.574  10.781  68.864  1.00  0.00    -0.121 C  
HETATM    5  C   UNL     1      -7.324   8.488  65.826  1.00  0.00    -0.080 A  
HETATM    6  C   UNL     1      -7.606  10.138  67.549  1.00  0.00    -0.091 A  
HETATM    7  O   UNL     1      -7.154  10.336  69.910  1.00  0.00    -0.121 OA 
HETATM    8  C   UNL     1      -7.810   9.436  64.901  1.00  0.00    -0.117 A  
HETATM    9  C   UNL     1      -8.207  10.716  65.302  1.00  0.00    -0.105 A  
HETATM   10  C   UNL     1      -8.144  11.037  66.645  1.00  0.00    -0.155 A  
ENDROOT
BRANCH   1  11
HETATM   11  C   UNL     1     -10.141  12.622  67.377  1.00  0.00    -0.218 C  
HETATM   12  C   UNL     1     -10.999  14.045  65.432  1.00  0.00    -0.321 A  
HETATM   13  C   UNL     1     -11.281  10.412  67.607  1.00  0.00    -0.213 C  
HETATM   14  C   UNL     1     -11.100  11.481  65.418  1.00  0.00    -0.186 C  
HETATM   15  C   UNL     1     -11.219  15.276  64.799  1.00  0.00    -0.405 A  
HETATM   16  C   UNL     1     -10.833  16.420  65.457  1.00  0.00    -0.215 A  
HETATM   17  N   UNL     1     -11.142  11.648  66.862  1.00  0.00    -0.295 NA 
HETATM   18  O   UNL     1     -10.964  17.677  64.953  1.00  0.00    -0.886 OA 
HETATM   19  C   UNL     1     -10.268  16.395  66.715  1.00  0.00    -0.285 A  
HETATM   20  C   UNL     1     -11.501  12.794  64.740  1.00  0.00    -0.356 C  
HETATM   21  O   UNL     1      -9.980  17.660  67.139  1.00  0.00    -0.294 OA 
HETATM   22  C   UNL     1     -10.047  15.200  67.389  1.00  0.00    -0.229 A  
HETATM   23  C   UNL     1     -10.399  13.995  66.726  1.00  0.00    -0.271 A  
HETATM   24  C   UNL     1     -10.316  18.443  65.980  1.00  0.00    -0.375 C  
BRANCH  22  25
HETATM   25  O   UNL     1      -9.500  15.064  68.636  1.00  0.00    -0.198 OA 
HETATM   26  C   UNL     1     -10.319  15.394  69.754  1.00  0.00    -0.286 C  
ENDBRANCH  22  25
ENDBRANCH   1  11
BRANCH   5  27
HETATM   27  O   UNL     1      -7.003   7.202  65.483  1.00  0.00    -0.054 OA 
HETATM   28  C   UNL     1      -8.033   6.357  64.991  1.00  0.00    -0.120 C  
ENDBRANCH   5  27
BRANCH   2  29
HETATM   29  O   UNL     1      -6.767   8.045  68.199  1.00  0.00    -0.061 OA 
HETATM   30  C   UNL     1      -7.723   7.149  68.756  1.00  0.00    -0.116 C  
ENDBRANCH   2  29
TORSDOF 4
ENDMDL
MODEL       61
REMARK 921   NORMALIZED FREE ENERGY PREDICTED BY IDOCK:   -4.87 KCAL/MOL
REMARK 922        TOTAL FREE ENERGY PREDICTED BY IDOCK:   -6.82 KCAL/MOL
REMARK 923 INTER-LIGAND FREE ENERGY PREDICTED BY IDOCK:   -6.87 KCAL/MOL
REMARK 924 INTRA-LIGAND FREE ENERGY PREDICTED BY IDOCK:    0.05 KCAL/MOL
REMARK 927      BINDING AFFINITY PREDICTED BY RF-SCORE:    0.00 PKD
ROOT
HETATM    1  C   UNL     1      -8.923  12.197  67.966  1.00  0.00    -0.189 C  
HETATM    2  C   UNL     1      -8.798   8.511  68.157  1.00  0.00    -0.142 A  
HETATM    3  O   UNL     1      -8.139  11.947  69.162  1.00  0.00     0.096 OA 
HETATM    4  C   UNL     1      -8.005  10.611  69.438  1.00  0.00    -0.111 C  
HETATM    5  C   UNL     1      -9.463   8.075  66.991  1.00  0.00    -0.174 A  
HETATM    6  C   UNL     1      -8.651   9.887  68.341  1.00  0.00    -0.116 A  
HETATM    7  O   UNL     1      -7.440  10.157  70.410  1.00  0.00    -0.247 OA 
HETATM    8  C   UNL     1      -9.889   9.030  66.043  1.00  0.00    -0.312 A  
HETATM    9  C   UNL     1      -9.712  10.402  66.255  1.00  0.00    -0.256 A  
HETATM   10  C   UNL     1      -9.132  10.819  67.438  1.00  0.00    -0.148 A  
ENDROOT
BRANCH   1  11
HETATM   11  C   UNL     1     -10.187  13.092  68.309  1.00  0.00    -0.246 C  
HETATM   12  C   UNL     1     -10.857  14.820  66.547  1.00  0.00    -0.319 A  
HETATM   13  C   UNL     1     -11.981  11.444  68.859  1.00  0.00    -0.304 C  
HETATM   14  C   UNL     1     -11.894  12.475  66.647  1.00  0.00    -0.352 C  
HETATM   15  C   UNL     1     -10.741  16.075  65.933  1.00  0.00    -0.287 A  
HETATM   16  C   UNL     1      -9.830  16.965  66.450  1.00  0.00    -0.305 A  
HETATM   17  N   UNL     1     -11.560  12.577  68.058  1.00  0.00    -0.322 NA 
HETATM   18  O   UNL     1      -9.595  18.206  65.942  1.00  0.00    -0.519 OA 
HETATM   19  C   UNL     1      -9.058  16.676  67.556  1.00  0.00    -0.202 A  
HETATM   20  C   UNL     1     -11.919  13.874  66.025  1.00  0.00    -0.436 C  
HETATM   21  O   UNL     1      -8.241  17.726  67.862  1.00  0.00    -0.227 OA 
HETATM   22  C   UNL     1      -9.152  15.452  68.208  1.00  0.00    -0.187 A  
HETATM   23  C   UNL     1     -10.055  14.493  67.681  1.00  0.00    -0.228 A  
HETATM   24  C   UNL     1      -8.507  18.632  66.776  1.00  0.00    -0.286 C  
BRANCH  22  25
HETATM   25  O   UNL     1      -8.439  15.067  69.311  1.00  0.00    -0.200 OA 
HETATM   26  C   UNL     1      -7.019  15.155  69.241  1.00  0.00    -0.161 C  
ENDBRANCH  22  25
ENDBRANCH   1  11
BRANCH   5  27
HETATM   27  O   UNL     1      -9.692   6.732  66.855  1.00  0.00    -0.153 OA 
HETATM   28  C   UNL     1     -11.035   6.272  66.848  1.00  0.00    -0.329 C  
ENDBRANCH   5  27
BRANCH   2  29
HETATM   29  O   UNL     1      -8.359   7.715  69.179  1.00  0.00    -0.128 OA 
HETATM   30  C   UNL     1      -7.117   7.046  68.996  1.00  0.00    -0.084 C  
ENDBRANCH   2  29
TORSDOF 4
ENDMDL
MODEL       62
REMARK 921   NORMALIZED FREE ENERGY PREDICTED BY IDOCK:   -4.86 KCAL/MOL
REMARK 922        TOTAL FREE ENERGY PREDICTED BY IDOCK:   -6.81 KCAL/MOL
REMARK 923 INTER-LIGAND FREE ENERGY PREDICTED BY IDOCK:   -6.18 KCAL/MOL
REMARK 924 INTRA-LIGAND FREE ENERGY PREDICTED BY IDOCK:   -0.63 KCAL/MOL
REMARK 927      BINDING AFFINITY PREDICTED BY RF-SCORE:    0.00 PKD
ROOT
HETATM    1  C   UNL     1      -9.117  13.455  67.926  1.00  0.00    -0.208 C  
HETATM    2  C   UNL     1     -11.775  14.635  70.201  1.00  0.00    -0.297 A  
HETATM    3  O   UNL     1      -8.833  14.872  68.072  1.00  0.00    -0.160 OA 
HETATM    4  C   UNL     1      -9.747  15.516  68.864  1.00  0.00    -0.223 C  
HETATM    5  C   UNL     1     -12.489  13.466  70.545  1.00  0.00    -0.279 A  
HETATM    6  C   UNL     1     -10.664  14.492  69.367  1.00  0.00    -0.213 A  
HETATM    7  O   UNL     1      -9.751  16.708  69.089  1.00  0.00    -0.262 OA 
HETATM    8  C   UNL     1     -12.021  12.215  70.090  1.00  0.00    -0.394 A  
HETATM    9  C   UNL     1     -10.896  12.109  69.265  1.00  0.00    -0.105 A  
HETATM   10  C   UNL     1     -10.254  13.268  68.871  1.00  0.00    -0.033 A  
ENDROOT
BRANCH   1  11
HETATM   11  C   UNL     1      -9.315  13.084  66.397  1.00  0.00    -0.182 C  
HETATM   12  C   UNL     1     -10.279  10.764  65.915  1.00  0.00    -0.319 A  
HETATM   13  C   UNL     1     -10.670  14.967  65.473  1.00  0.00    -0.356 C  
HETATM   14  C   UNL     1     -11.746  12.862  66.089  1.00  0.00    -0.396 C  
HETATM   15  C   UNL     1     -10.149   9.381  65.734  1.00  0.00    -0.166 A  
HETATM   16  C   UNL     1      -8.891   8.832  65.820  1.00  0.00    -0.195 A  
HETATM   17  N   UNL     1     -10.529  13.537  65.666  1.00  0.00    -0.286 NA 
HETATM   18  O   UNL     1      -8.621   7.504  65.689  1.00  0.00    -0.145 OA 
HETATM   19  C   UNL     1      -7.765   9.596  66.048  1.00  0.00    -0.102 A  
HETATM   20  C   UNL     1     -11.654  11.375  65.737  1.00  0.00     0.176 C  
HETATM   21  O   UNL     1      -6.650   8.810  66.086  1.00  0.00    -0.063 OA 
HETATM   22  C   UNL     1      -7.843  10.973  66.215  1.00  0.00    -0.141 A  
HETATM   23  C   UNL     1      -9.129  11.570  66.170  1.00  0.00    -0.217 A  
HETATM   24  C   UNL     1      -7.214   7.491  65.973  1.00  0.00    -0.070 C  
BRANCH  22  25
HETATM   25  O   UNL     1      -6.792  11.821  66.440  1.00  0.00     0.030 OA 
HETATM   26  C   UNL     1      -6.044  11.638  67.638  1.00  0.00    -0.068 C  
ENDBRANCH  22  25
ENDBRANCH   1  11
BRANCH   5  27
HETATM   27  O   UNL     1     -13.631  13.615  71.285  1.00  0.00    -0.206 OA 
HETATM   28  C   UNL     1     -13.536  13.527  72.699  1.00  0.00    -0.461 C  
ENDBRANCH   5  27
BRANCH   2  29
HETATM   29  O   UNL     1     -12.120  15.915  70.535  1.00  0.00    -0.375 OA 
HETATM   30  C   UNL     1     -11.837  16.342  71.863  1.00  0.00    -0.462 C  
ENDBRANCH   2  29
TORSDOF 4
ENDMDL
MODEL       63
REMARK 921   NORMALIZED FREE ENERGY PREDICTED BY IDOCK:   -4.80 KCAL/MOL
REMARK 922        TOTAL FREE ENERGY PREDICTED BY IDOCK:   -6.73 KCAL/MOL
REMARK 923 INTER-LIGAND FREE ENERGY PREDICTED BY IDOCK:   -6.08 KCAL/MOL
REMARK 924 INTRA-LIGAND FREE ENERGY PREDICTED BY IDOCK:   -0.65 KCAL/MOL
REMARK 927      BINDING AFFINITY PREDICTED BY RF-SCORE:    0.00 PKD
ROOT
HETATM    1  C   UNL     1      -8.735  11.818  66.964  1.00  0.00    -0.181 C  
HETATM    2  C   UNL     1      -6.214   9.170  67.477  1.00  0.00    -0.058 A  
HETATM    3  O   UNL     1      -8.323  12.006  68.343  1.00  0.00    -0.160 OA 
HETATM    4  C   UNL     1      -7.400  11.080  68.751  1.00  0.00    -0.111 C  
HETATM    5  C   UNL     1      -6.088   8.553  66.213  1.00  0.00    -0.052 A  
HETATM    6  C   UNL     1      -7.085  10.256  67.582  1.00  0.00    -0.086 A  
HETATM    7  O   UNL     1      -6.948  11.000  69.874  1.00  0.00    -0.138 OA 
HETATM    8  C   UNL     1      -6.788   9.091  65.112  1.00  0.00    -0.076 A  
HETATM    9  C   UNL     1      -7.643  10.190  65.253  1.00  0.00    -0.144 A  
HETATM   10  C   UNL     1      -7.819  10.733  66.512  1.00  0.00    -0.145 A  
ENDROOT
BRANCH   1  11
HETATM   11  C   UNL     1     -10.302  11.590  66.879  1.00  0.00    -0.223 C  
HETATM   12  C   UNL     1     -11.627  12.045  69.019  1.00  0.00    -0.370 A  
HETATM   13  C   UNL     1     -11.022  12.961  64.920  1.00  0.00    -0.301 C  
HETATM   14  C   UNL     1     -11.304  13.816  67.190  1.00  0.00    -0.324 C  
HETATM   15  C   UNL     1     -12.128  11.666  70.272  1.00  0.00    -0.443 A  
HETATM   16  C   UNL     1     -11.854  10.395  70.720  1.00  0.00    -0.368 A  
HETATM   17  N   UNL     1     -11.186  12.652  66.327  1.00  0.00    -0.296 NA 
HETATM   18  O   UNL     1     -12.256   9.901  71.923  1.00  0.00    -0.372 OA 
HETATM   19  C   UNL     1     -11.136   9.486  69.972  1.00  0.00    -0.237 A  
HETATM   20  C   UNL     1     -12.000  13.416  68.494  1.00  0.00    -0.363 C  
HETATM   21  O   UNL     1     -11.008   8.304  70.643  1.00  0.00    -0.233 OA 
HETATM   22  C   UNL     1     -10.635   9.811  68.717  1.00  0.00    -0.219 A  
HETATM   23  C   UNL     1     -10.866  11.126  68.237  1.00  0.00    -0.258 A  
HETATM   24  C   UNL     1     -11.616   8.617  71.909  1.00  0.00    -0.350 C  
BRANCH  22  25
HETATM   25  O   UNL     1      -9.916   8.986  67.895  1.00  0.00    -0.161 OA 
HETATM   26  C   UNL     1     -10.629   7.970  67.195  1.00  0.00    -0.297 C  
ENDBRANCH  22  25
ENDBRANCH   1  11
BRANCH   5  27
HETATM   27  O   UNL     1      -5.307   7.432  66.129  1.00  0.00    -0.023 OA 
HETATM   28  C   UNL     1      -5.782   6.334  65.364  1.00  0.00    -0.021 C  
ENDBRANCH   5  27
BRANCH   2  29
HETATM   29  O   UNL     1      -5.629   8.748  68.640  1.00  0.00    -0.040 OA 
HETATM   30  C   UNL     1      -6.224   7.639  69.303  1.00  0.00    -0.035 C  
ENDBRANCH   2  29
TORSDOF 4
ENDMDL
MODEL       64
REMARK 921   NORMALIZED FREE ENERGY PREDICTED BY IDOCK:   -4.80 KCAL/MOL
REMARK 922        TOTAL FREE ENERGY PREDICTED BY IDOCK:   -6.73 KCAL/MOL
REMARK 923 INTER-LIGAND FREE ENERGY PREDICTED BY IDOCK:   -6.78 KCAL/MOL
REMARK 924 INTRA-LIGAND FREE ENERGY PREDICTED BY IDOCK:    0.05 KCAL/MOL
REMARK 927      BINDING AFFINITY PREDICTED BY RF-SCORE:    0.00 PKD
ROOT
HETATM    1  C   UNL     1      -9.258  11.456  66.066  1.00  0.00    -0.214 C  
HETATM    2  C   UNL     1      -8.277   8.411  67.909  1.00  0.00    -0.127 A  
HETATM    3  O   UNL     1      -8.679  11.975  67.292  1.00  0.00    -0.161 OA 
HETATM    4  C   UNL     1      -8.279  10.984  68.150  1.00  0.00    -0.124 C  
HETATM    5  C   UNL     1      -8.580   7.352  67.027  1.00  0.00    -0.119 A  
HETATM    6  C   UNL     1      -8.507   9.713  67.460  1.00  0.00    -0.125 A  
HETATM    7  O   UNL     1      -7.818  11.169  69.256  1.00  0.00    -0.103 OA 
HETATM    8  C   UNL     1      -9.037   7.649  65.725  1.00  0.00    -0.042 A  
HETATM    9  C   UNL     1      -9.244   8.968  65.305  1.00  0.00    -0.205 A  
HETATM   10  C   UNL     1      -9.020   9.992  66.206  1.00  0.00    -0.170 A  
ENDROOT
BRANCH   1  11
HETATM   11  C   UNL     1     -10.743  11.983  65.887  1.00  0.00    -0.275 C  
HETATM   12  C   UNL     1     -11.346  14.117  67.161  1.00  0.00    -0.348 A  
HETATM   13  C   UNL     1     -11.047  12.148  63.414  1.00  0.00    -0.420 C  
HETATM   14  C   UNL     1     -10.534  14.143  64.727  1.00  0.00    -0.408 C  
HETATM   15  C   UNL     1     -11.758  14.798  68.314  1.00  0.00    -0.340 A  
HETATM   16  C   UNL     1     -12.037  14.057  69.438  1.00  0.00    -0.340 A  
HETATM   17  N   UNL     1     -11.109  12.807  64.703  1.00  0.00    -0.303 NA 
HETATM   18  O   UNL     1     -12.425  14.586  70.631  1.00  0.00    -0.304 OA 
HETATM   19  C   UNL     1     -11.952  12.680  69.456  1.00  0.00    -0.270 A  
HETATM   20  C   UNL     1     -11.119  14.930  65.902  1.00  0.00    -0.338 C  
HETATM   21  O   UNL     1     -12.282  12.193  70.688  1.00  0.00    -0.372 OA 
HETATM   22  C   UNL     1     -11.564  11.961  68.332  1.00  0.00    -0.317 A  
HETATM   23  C   UNL     1     -11.232  12.695  67.163  1.00  0.00    -0.348 A  
HETATM   24  C   UNL     1     -12.465  13.403  71.444  1.00  0.00    -0.223 C  
BRANCH  22  25
HETATM   25  O   UNL     1     -11.452  10.600  68.242  1.00  0.00    -0.306 OA 
HETATM   26  C   UNL     1     -11.369   9.864  69.459  1.00  0.00    -0.124 C  
ENDBRANCH  22  25
ENDBRANCH   1  11
BRANCH   5  27
HETATM   27  O   UNL     1      -8.443   6.074  67.499  1.00  0.00    -0.108 OA 
HETATM   28  C   UNL     1      -8.768   4.996  66.633  1.00  0.00    -0.108 C  
ENDBRANCH   5  27
BRANCH   2  29
HETATM   29  O   UNL     1      -7.860   8.284  69.206  1.00  0.00    -0.104 OA 
HETATM   30  C   UNL     1      -6.487   7.978  69.422  1.00  0.00    -0.035 C  
ENDBRANCH   2  29
TORSDOF 4
ENDMDL
MODEL       65
REMARK 921   NORMALIZED FREE ENERGY PREDICTED BY IDOCK:   -4.77 KCAL/MOL
REMARK 922        TOTAL FREE ENERGY PREDICTED BY IDOCK:   -6.69 KCAL/MOL
REMARK 923 INTER-LIGAND FREE ENERGY PREDICTED BY IDOCK:   -6.31 KCAL/MOL
REMARK 924 INTRA-LIGAND FREE ENERGY PREDICTED BY IDOCK:   -0.38 KCAL/MOL
REMARK 927      BINDING AFFINITY PREDICTED BY RF-SCORE:    0.00 PKD
ROOT
HETATM    1  C   UNL     1     -11.077   9.920  67.507  1.00  0.00    -0.071 C  
HETATM    2  C   UNL     1     -10.774  13.559  66.963  1.00  0.00    -0.277 A  
HETATM    3  O   UNL     1     -11.384  10.483  68.809  1.00  0.00    -0.255 OA 
HETATM    4  C   UNL     1     -11.287  11.850  68.832  1.00  0.00    -0.278 C  
HETATM    5  C   UNL     1     -10.502  13.688  65.583  1.00  0.00    -0.299 A  
HETATM    6  C   UNL     1     -10.983  12.273  67.463  1.00  0.00    -0.298 A  
HETATM    7  O   UNL     1     -11.444  12.540  69.816  1.00  0.00    -0.233 OA 
HETATM    8  C   UNL     1     -10.515  12.536  64.769  1.00  0.00    -0.336 A  
HETATM    9  C   UNL     1     -10.742  11.263  65.303  1.00  0.00    -0.302 A  
HETATM   10  C   UNL     1     -10.926  11.142  66.668  1.00  0.00    -0.289 A  
ENDROOT
BRANCH   1  11
HETATM   11  C   UNL     1      -9.864   8.903  67.614  1.00  0.00    -0.182 C  
HETATM   12  C   UNL     1      -8.648   8.830  69.863  1.00  0.00    -0.133 A  
HETATM   13  C   UNL     1     -10.828   6.713  66.900  1.00  0.00    -0.345 C  
HETATM   14  C   UNL     1     -10.562   7.226  69.273  1.00  0.00    -0.221 C  
HETATM   15  C   UNL     1      -7.697   9.307  70.774  1.00  0.00    -0.164 A  
HETATM   16  C   UNL     1      -6.916  10.373  70.395  1.00  0.00    -0.010 A  
HETATM   17  N   UNL     1     -10.113   7.467  67.912  1.00  0.00    -0.169 NA 
HETATM   18  O   UNL     1      -5.971  10.953  71.185  1.00  0.00    -0.351 OA 
HETATM   19  C   UNL     1      -7.019  10.960  69.151  1.00  0.00    -0.096 A  
HETATM   20  C   UNL     1      -9.449   7.604  70.253  1.00  0.00    -0.161 C  
HETATM   21  O   UNL     1      -6.133  11.992  69.030  1.00  0.00    -0.063 OA 
HETATM   22  C   UNL     1      -7.935  10.509  68.208  1.00  0.00    -0.113 A  
HETATM   23  C   UNL     1      -8.784   9.434  68.577  1.00  0.00    -0.128 A  
HETATM   24  C   UNL     1      -5.564  12.048  70.350  1.00  0.00    -0.160 C  
BRANCH  22  25
HETATM   25  O   UNL     1      -8.115  11.015  66.949  1.00  0.00    -0.130 OA 
HETATM   26  C   UNL     1      -7.120  10.721  65.973  1.00  0.00    -0.102 C  
ENDBRANCH  22  25
ENDBRANCH   1  11
BRANCH   5  27
HETATM   27  O   UNL     1     -10.205  14.938  65.109  1.00  0.00    -0.383 OA 
HETATM   28  C   UNL     1     -11.243  15.696  64.506  1.00  0.00    -0.325 C  
ENDBRANCH   5  27
BRANCH   2  29
HETATM   29  O   UNL     1     -10.764  14.571  67.883  1.00  0.00    -0.241 OA 
HETATM   30  C   UNL     1      -9.496  15.007  68.360  1.00  0.00    -0.201 C  
ENDBRANCH   2  29
TORSDOF 4
ENDMDL
MODEL       66
REMARK 921   NORMALIZED FREE ENERGY PREDICTED BY IDOCK:   -4.76 KCAL/MOL
REMARK 922        TOTAL FREE ENERGY PREDICTED BY IDOCK:   -6.68 KCAL/MOL
REMARK 923 INTER-LIGAND FREE ENERGY PREDICTED BY IDOCK:   -5.88 KCAL/MOL
REMARK 924 INTRA-LIGAND FREE ENERGY PREDICTED BY IDOCK:   -0.80 KCAL/MOL
REMARK 927      BINDING AFFINITY PREDICTED BY RF-SCORE:    0.00 PKD
ROOT
HETATM    1  C   UNL     1      -7.452   8.093  67.593  1.00  0.00    -0.094 C  
HETATM    2  C   UNL     1      -8.682   9.925  64.632  1.00  0.00    -0.194 A  
HETATM    3  O   UNL     1      -6.353   7.988  66.650  1.00  0.00    -0.052 OA 
HETATM    4  C   UNL     1      -6.629   8.583  65.447  1.00  0.00    -0.059 C  
HETATM    5  C   UNL     1      -9.937  10.434  65.029  1.00  0.00    -0.330 A  
HETATM    6  C   UNL     1      -7.946   9.208  65.578  1.00  0.00    -0.104 A  
HETATM    7  O   UNL     1      -5.890   8.578  64.486  1.00  0.00    -0.062 OA 
HETATM    8  C   UNL     1     -10.362  10.255  66.363  1.00  0.00    -0.262 A  
HETATM    9  C   UNL     1      -9.592   9.542  67.288  1.00  0.00    -0.192 A  
HETATM   10  C   UNL     1      -8.403   8.979  66.864  1.00  0.00    -0.119 A  
ENDROOT
BRANCH   1  11
HETATM   11  C   UNL     1      -7.934   6.652  68.046  1.00  0.00    -0.110 C  
HETATM   12  C   UNL     1     -10.414   6.422  68.630  1.00  0.00    -0.260 A  
HETATM   13  C   UNL     1      -7.170   5.138  66.212  1.00  0.00    -0.077 C  
HETATM   14  C   UNL     1      -9.489   5.901  66.293  1.00  0.00    -0.139 C  
HETATM   15  C   UNL     1     -11.494   6.531  69.515  1.00  0.00    -0.384 A  
HETATM   16  C   UNL     1     -11.242   6.971  70.793  1.00  0.00    -0.285 A  
HETATM   17  N   UNL     1      -8.267   5.618  67.029  1.00  0.00    -0.102 NA 
HETATM   18  O   UNL     1     -12.196   7.146  71.748  1.00  0.00    -0.312 OA 
HETATM   19  C   UNL     1      -9.971   7.277  71.232  1.00  0.00    -0.188 A  
HETATM   20  C   UNL     1     -10.683   5.858  67.249  1.00  0.00    -0.380 C  
HETATM   21  O   UNL     1      -9.997   7.687  72.534  1.00  0.00    -0.178 OA 
HETATM   22  C   UNL     1      -8.866   7.168  70.395  1.00  0.00    -0.151 A  
HETATM   23  C   UNL     1      -9.093   6.751  69.058  1.00  0.00    -0.137 A  
HETATM   24  C   UNL     1     -11.409   7.708  72.808  1.00  0.00    -0.367 C  
BRANCH  22  25
HETATM   25  O   UNL     1      -7.568   7.441  70.730  1.00  0.00    -0.081 OA 
HETATM   26  C   UNL     1      -7.251   8.779  71.101  1.00  0.00    -0.093 C  
ENDBRANCH  22  25
ENDBRANCH   1  11
BRANCH   5  27
HETATM   27  O   UNL     1     -10.700  11.056  64.077  1.00  0.00    -0.379 OA 
HETATM   28  C   UNL     1     -10.543  12.455  63.894  1.00  0.00    -0.437 C  
ENDBRANCH   5  27
BRANCH   2  29
HETATM   29  O   UNL     1      -8.149   9.988  63.374  1.00  0.00    -0.144 OA 
HETATM   30  C   UNL     1      -8.667   9.088  62.401  1.00  0.00    -0.207 C  
ENDBRANCH   2  29
TORSDOF 4
ENDMDL
MODEL       67
REMARK 921   NORMALIZED FREE ENERGY PREDICTED BY IDOCK:   -4.73 KCAL/MOL
REMARK 922        TOTAL FREE ENERGY PREDICTED BY IDOCK:   -6.65 KCAL/MOL
REMARK 923 INTER-LIGAND FREE ENERGY PREDICTED BY IDOCK:   -6.34 KCAL/MOL
REMARK 924 INTRA-LIGAND FREE ENERGY PREDICTED BY IDOCK:   -0.30 KCAL/MOL
REMARK 927      BINDING AFFINITY PREDICTED BY RF-SCORE:    0.00 PKD
ROOT
HETATM    1  C   UNL     1     -11.080  10.068  67.004  1.00  0.00     0.065 C  
HETATM    2  C   UNL     1      -9.909   8.191  69.960  1.00  0.00    -0.182 A  
HETATM    3  O   UNL     1     -10.518   8.857  66.434  1.00  0.00    -0.219 OA 
HETATM    4  C   UNL     1      -9.983   8.025  67.382  1.00  0.00    -0.207 C  
HETATM    5  C   UNL     1     -10.311   8.979  71.060  1.00  0.00    -0.278 A  
HETATM    6  C   UNL     1     -10.257   8.637  68.684  1.00  0.00    -0.214 A  
HETATM    7  O   UNL     1      -9.410   6.983  67.146  1.00  0.00    -0.134 OA 
HETATM    8  C   UNL     1     -11.091  10.133  70.832  1.00  0.00    -0.326 A  
HETATM    9  C   UNL     1     -11.432  10.543  69.538  1.00  0.00    -0.339 A  
HETATM   10  C   UNL     1     -10.963   9.807  68.466  1.00  0.00    -0.195 A  
ENDROOT
BRANCH   1  11
HETATM   11  C   UNL     1     -10.374  11.349  66.391  1.00  0.00    -0.242 C  
HETATM   12  C   UNL     1      -9.621  11.165  63.953  1.00  0.00    -0.286 A  
HETATM   13  C   UNL     1     -11.981  13.210  66.827  1.00  0.00    -0.373 C  
HETATM   14  C   UNL     1     -11.892  12.151  64.628  1.00  0.00    -0.328 C  
HETATM   15  C   UNL     1      -8.705  10.784  62.964  1.00  0.00    -0.201 A  
HETATM   16  C   UNL     1      -7.531  10.191  63.364  1.00  0.00    -0.139 A  
HETATM   17  N   UNL     1     -11.191  12.474  65.860  1.00  0.00    -0.305 NA 
HETATM   18  O   UNL     1      -6.564   9.750  62.513  1.00  0.00    -0.101 OA 
HETATM   19  C   UNL     1      -7.220   9.988  64.692  1.00  0.00    -0.140 A  
HETATM   20  C   UNL     1     -10.875  11.893  63.513  1.00  0.00    -0.502 C  
HETATM   21  O   UNL     1      -6.001   9.385  64.815  1.00  0.00    -0.067 OA 
HETATM   22  C   UNL     1      -8.089  10.365  65.708  1.00  0.00    -0.155 A  
HETATM   23  C   UNL     1      -9.328  10.948  65.332  1.00  0.00    -0.240 A  
HETATM   24  C   UNL     1      -5.654   9.139  63.440  1.00  0.00    -0.071 C  
BRANCH  22  25
HETATM   25  O   UNL     1      -7.877  10.214  67.052  1.00  0.00    -0.102 OA 
HETATM   26  C   UNL     1      -7.006  11.144  67.689  1.00  0.00    -0.084 C  
ENDBRANCH  22  25
ENDBRANCH   1  11
BRANCH   5  27
HETATM   27  O   UNL     1      -9.891   8.594  72.305  1.00  0.00    -0.305 OA 
HETATM   28  C   UNL     1     -10.772   7.821  73.106  1.00  0.00    -0.351 C  
ENDBRANCH   5  27
BRANCH   2  29
HETATM   29  O   UNL     1      -9.127   7.071  70.016  1.00  0.00    -0.145 OA 
HETATM   30  C   UNL     1      -9.782   5.829  70.247  1.00  0.00    -0.175 C  
ENDBRANCH   2  29
TORSDOF 4
ENDMDL
MODEL       68
REMARK 921   NORMALIZED FREE ENERGY PREDICTED BY IDOCK:   -4.73 KCAL/MOL
REMARK 922        TOTAL FREE ENERGY PREDICTED BY IDOCK:   -6.64 KCAL/MOL
REMARK 923 INTER-LIGAND FREE ENERGY PREDICTED BY IDOCK:   -6.69 KCAL/MOL
REMARK 924 INTRA-LIGAND FREE ENERGY PREDICTED BY IDOCK:    0.05 KCAL/MOL
REMARK 927      BINDING AFFINITY PREDICTED BY RF-SCORE:    0.00 PKD
ROOT
HETATM    1  C   UNL     1     -10.874   9.343  67.715  1.00  0.00    -0.159 C  
HETATM    2  C   UNL     1     -10.624  13.024  67.576  1.00  0.00    -0.230 A  
HETATM    3  O   UNL     1     -11.388   9.765  69.006  1.00  0.00    -0.109 OA 
HETATM    4  C   UNL     1     -11.344  11.124  69.174  1.00  0.00    -0.273 C  
HETATM    5  C   UNL     1     -10.159  13.296  66.271  1.00  0.00    -0.294 A  
HETATM    6  C   UNL     1     -10.858  11.689  67.913  1.00  0.00    -0.255 A  
HETATM    7  O   UNL     1     -11.667  11.708  70.186  1.00  0.00    -0.323 OA 
HETATM    8  C   UNL     1     -10.013  12.232  65.356  1.00  0.00    -0.264 A  
HETATM    9  C   UNL     1     -10.269  10.907  65.726  1.00  0.00    -0.318 A  
HETATM   10  C   UNL     1     -10.646  10.646  67.030  1.00  0.00    -0.317 A  
ENDROOT
BRANCH   1  11
HETATM   11  C   UNL     1      -9.655   8.346  67.903  1.00  0.00    -0.156 C  
HETATM   12  C   UNL     1     -10.022   6.406  69.530  1.00  0.00    -0.190 A  
HETATM   13  C   UNL     1      -9.073   7.636  65.580  1.00  0.00     0.084 C  
HETATM   14  C   UNL     1     -10.430   6.189  67.005  1.00  0.00    -0.277 C  
HETATM   15  C   UNL     1     -10.042   5.856  70.818  1.00  0.00    -0.253 A  
HETATM   16  C   UNL     1      -9.689   6.664  71.872  1.00  0.00    -0.153 A  
HETATM   17  N   UNL     1      -9.431   7.243  66.929  1.00  0.00    -0.156 NA 
HETATM   18  O   UNL     1      -9.686   6.270  73.175  1.00  0.00    -0.156 OA 
HETATM   19  C   UNL     1      -9.293   7.974  71.700  1.00  0.00    -0.160 A  
HETATM   20  C   UNL     1     -10.332   5.490  68.363  1.00  0.00    -0.243 C  
HETATM   21  O   UNL     1      -8.996   8.550  72.902  1.00  0.00    -0.300 OA 
HETATM   22  C   UNL     1      -9.239   8.558  70.440  1.00  0.00    -0.160 A  
HETATM   23  C   UNL     1      -9.633   7.765  69.330  1.00  0.00    -0.156 A  
HETATM   24  C   UNL     1      -9.356   7.507  73.825  1.00  0.00    -0.279 C  
BRANCH  22  25
HETATM   25  O   UNL     1      -8.858   9.842  70.158  1.00  0.00    -0.218 OA 
HETATM   26  C   UNL     1      -7.462  10.115  70.095  1.00  0.00    -0.133 C  
ENDBRANCH  22  25
ENDBRANCH   1  11
BRANCH   5  27
HETATM   27  O   UNL     1      -9.840  14.593  65.969  1.00  0.00    -0.291 OA 
HETATM   28  C   UNL     1     -10.717  15.326  65.126  1.00  0.00    -0.436 C  
ENDBRANCH   5  27
BRANCH   2  29
HETATM   29  O   UNL     1     -10.784  13.938  68.581  1.00  0.00    -0.248 OA 
HETATM   30  C   UNL     1     -11.990  14.694  68.588  1.00  0.00    -0.270 C  
ENDBRANCH   2  29
TORSDOF 4
ENDMDL
MODEL       69
REMARK 921   NORMALIZED FREE ENERGY PREDICTED BY IDOCK:   -4.71 KCAL/MOL
REMARK 922        TOTAL FREE ENERGY PREDICTED BY IDOCK:   -6.62 KCAL/MOL
REMARK 923 INTER-LIGAND FREE ENERGY PREDICTED BY IDOCK:   -6.92 KCAL/MOL
REMARK 924 INTRA-LIGAND FREE ENERGY PREDICTED BY IDOCK:    0.30 KCAL/MOL
REMARK 927      BINDING AFFINITY PREDICTED BY RF-SCORE:    0.00 PKD
ROOT
HETATM    1  C   UNL     1     -10.499   7.202  69.671  1.00  0.00    -0.229 C  
HETATM    2  C   UNL     1      -9.902   4.146  71.654  1.00  0.00    -0.184 A  
HETATM    3  O   UNL     1      -9.489   6.494  68.905  1.00  0.00    -0.131 OA 
HETATM    4  C   UNL     1      -9.093   5.326  69.502  1.00  0.00    -0.112 C  
HETATM    5  C   UNL     1     -10.828   4.228  72.717  1.00  0.00    -0.099 A  
HETATM    6  C   UNL     1      -9.922   5.163  70.699  1.00  0.00    -0.296 A  
HETATM    7  O   UNL     1      -8.225   4.592  69.081  1.00  0.00    -0.078 OA 
HETATM    8  C   UNL     1     -11.762   5.285  72.735  1.00  0.00    -0.214 A  
HETATM    9  C   UNL     1     -11.761   6.282  71.752  1.00  0.00    -0.355 A  
HETATM   10  C   UNL     1     -10.797   6.232  70.762  1.00  0.00    -0.339 A  
ENDROOT
BRANCH   1  11
HETATM   11  C   UNL     1      -9.990   8.656  70.049  1.00  0.00    -0.185 C  
HETATM   12  C   UNL     1     -11.574  10.587  69.496  1.00  0.00    -0.332 A  
HETATM   13  C   UNL     1      -9.383   8.491  72.466  1.00  0.00    -0.246 C  
HETATM   14  C   UNL     1     -11.527   9.452  71.798  1.00  0.00    -0.343 C  
HETATM   15  C   UNL     1     -12.117  11.532  68.616  1.00  0.00    -0.197 A  
HETATM   16  C   UNL     1     -11.630  11.573  67.331  1.00  0.00    -0.228 A  
HETATM   17  N   UNL     1     -10.147   9.169  71.437  1.00  0.00    -0.325 NA 
HETATM   18  O   UNL     1     -12.079  12.422  66.366  1.00  0.00    -0.607 OA 
HETATM   19  C   UNL     1     -10.617  10.744  66.897  1.00  0.00    -0.258 A  
HETATM   20  C   UNL     1     -12.056  10.599  70.933  1.00  0.00    -0.489 C  
HETATM   21  O   UNL     1     -10.321  10.989  65.587  1.00  0.00    -0.246 OA 
HETATM   22  C   UNL     1     -10.036   9.803  67.739  1.00  0.00    -0.180 A  
HETATM   23  C   UNL     1     -10.539   9.706  69.063  1.00  0.00    -0.237 A  
HETATM   24  C   UNL     1     -11.321  11.963  65.237  1.00  0.00    -0.275 C  
BRANCH  22  25
HETATM   25  O   UNL     1      -9.027   8.938  67.412  1.00  0.00    -0.131 OA 
HETATM   26  C   UNL     1      -7.692   9.351  67.686  1.00  0.00    -0.088 C  
ENDBRANCH  22  25
ENDBRANCH   1  11
BRANCH   5  27
HETATM   27  O   UNL     1     -10.747   3.283  73.704  1.00  0.00    -0.174 OA 
HETATM   28  C   UNL     1     -11.533   2.107  73.578  1.00  0.00    -0.200 C  
ENDBRANCH   5  27
BRANCH   2  29
HETATM   29  O   UNL     1      -8.918   3.205  71.516  1.00  0.00    -0.084 OA 
HETATM   30  C   UNL     1      -7.723   3.397  72.264  1.00  0.00    -0.059 C  
ENDBRANCH   2  29
TORSDOF 4
ENDMDL
MODEL       70
REMARK 921   NORMALIZED FREE ENERGY PREDICTED BY IDOCK:   -4.70 KCAL/MOL
REMARK 922        TOTAL FREE ENERGY PREDICTED BY IDOCK:   -6.61 KCAL/MOL
REMARK 923 INTER-LIGAND FREE ENERGY PREDICTED BY IDOCK:   -5.82 KCAL/MOL
REMARK 924 INTRA-LIGAND FREE ENERGY PREDICTED BY IDOCK:   -0.79 KCAL/MOL
REMARK 927      BINDING AFFINITY PREDICTED BY RF-SCORE:    0.00 PKD
ROOT
HETATM    1  C   UNL     1     -10.429   8.619  68.548  1.00  0.00    -0.172 C  
HETATM    2  C   UNL     1     -11.168  12.013  67.296  1.00  0.00    -0.311 A  
HETATM    3  O   UNL     1     -11.124   9.244  69.658  1.00  0.00    -0.212 OA 
HETATM    4  C   UNL     1     -11.459  10.549  69.406  1.00  0.00    -0.262 C  
HETATM    5  C   UNL     1     -10.705  12.005  65.962  1.00  0.00    -0.279 A  
HETATM    6  C   UNL     1     -11.058  10.827  68.025  1.00  0.00    -0.359 A  
HETATM    7  O   UNL     1     -11.995  11.293  70.199  1.00  0.00    -0.311 OA 
HETATM    8  C   UNL     1     -10.216  10.802  65.411  1.00  0.00    -0.341 A  
HETATM    9  C   UNL     1     -10.131   9.629  66.168  1.00  0.00    -0.328 A  
HETATM   10  C   UNL     1     -10.513   9.671  67.496  1.00  0.00    -0.321 A  
ENDROOT
BRANCH   1  11
HETATM   11  C   UNL     1      -9.003   8.100  69.008  1.00  0.00    -0.144 C  
HETATM   12  C   UNL     1      -7.057   8.591  67.422  1.00  0.00    -0.080 A  
HETATM   13  C   UNL     1      -8.713   9.041  71.304  1.00  0.00    -0.171 C  
HETATM   14  C   UNL     1      -7.661  10.128  69.386  1.00  0.00    -0.138 C  
HETATM   15  C   UNL     1      -6.265   8.300  66.304  1.00  0.00    -0.046 A  
HETATM   16  C   UNL     1      -6.564   7.172  65.576  1.00  0.00    -0.048 A  
HETATM   17  N   UNL     1      -8.185   8.900  69.961  1.00  0.00    -0.113 NA 
HETATM   18  O   UNL     1      -5.897   6.780  64.456  1.00  0.00    -0.030 OA 
HETATM   19  C   UNL     1      -7.588   6.316  65.926  1.00  0.00    -0.084 A  
HETATM   20  C   UNL     1      -6.673   9.789  68.268  1.00  0.00    -0.060 C  
HETATM   21  O   UNL     1      -7.671   5.278  65.042  1.00  0.00    -0.080 OA 
HETATM   22  C   UNL     1      -8.387   6.555  67.037  1.00  0.00    -0.113 A  
HETATM   23  C   UNL     1      -8.132   7.729  67.791  1.00  0.00    -0.125 A  
HETATM   24  C   UNL     1      -6.680   5.643  64.065  1.00  0.00    -0.045 C  
BRANCH  22  25
HETATM   25  O   UNL     1      -9.421   5.771  67.473  1.00  0.00    -0.111 OA 
HETATM   26  C   UNL     1     -10.523   5.584  66.590  1.00  0.00    -0.294 C  
ENDBRANCH  22  25
ENDBRANCH   1  11
BRANCH   5  27
HETATM   27  O   UNL     1     -10.726  13.190  65.276  1.00  0.00    -0.289 OA 
HETATM   28  C   UNL     1     -11.822  13.450  64.411  1.00  0.00    -0.408 C  
ENDBRANCH   5  27
BRANCH   2  29
HETATM   29  O   UNL     1     -11.637  13.101  67.979  1.00  0.00    -0.291 OA 
HETATM   30  C   UNL     1     -10.675  14.033  68.460  1.00  0.00    -0.256 C  
ENDBRANCH   2  29
TORSDOF 4
ENDMDL
MODEL       71
REMARK 921   NORMALIZED FREE ENERGY PREDICTED BY IDOCK:   -4.68 KCAL/MOL
REMARK 922        TOTAL FREE ENERGY PREDICTED BY IDOCK:   -6.59 KCAL/MOL
REMARK 923 INTER-LIGAND FREE ENERGY PREDICTED BY IDOCK:   -6.00 KCAL/MOL
REMARK 924 INTRA-LIGAND FREE ENERGY PREDICTED BY IDOCK:   -0.59 KCAL/MOL
REMARK 927      BINDING AFFINITY PREDICTED BY RF-SCORE:    0.00 PKD
ROOT
HETATM    1  C   UNL     1     -10.501  10.010  66.960  1.00  0.00    -0.238 C  
HETATM    2  C   UNL     1     -11.919  11.713  69.914  1.00  0.00    -0.340 A  
HETATM    3  O   UNL     1     -10.552   8.962  67.963  1.00  0.00    -0.221 OA 
HETATM    4  C   UNL     1     -11.022   9.406  69.171  1.00  0.00    -0.090 C  
HETATM    5  C   UNL     1     -12.207  13.019  69.463  1.00  0.00    -0.140 A  
HETATM    6  C   UNL     1     -11.400  10.809  68.985  1.00  0.00    -0.349 A  
HETATM    7  O   UNL     1     -11.105   8.729  70.174  1.00  0.00    -0.251 OA 
HETATM    8  C   UNL     1     -12.022  13.334  68.100  1.00  0.00    -0.340 A  
HETATM    9  C   UNL     1     -11.511  12.397  67.195  1.00  0.00    -0.423 A  
HETATM   10  C   UNL     1     -11.157  11.147  67.666  1.00  0.00    -0.348 A  
ENDROOT
BRANCH   1  11
HETATM   11  C   UNL     1      -9.021  10.189  66.420  1.00  0.00    -0.144 C  
HETATM   12  C   UNL     1      -7.272   8.577  67.360  1.00  0.00    -0.084 A  
HETATM   13  C   UNL     1      -9.255  10.108  63.935  1.00  0.00    -0.280 C  
HETATM   14  C   UNL     1      -8.529   8.129  65.168  1.00  0.00    -0.116 C  
HETATM   15  C   UNL     1      -6.350   8.180  68.338  1.00  0.00    -0.050 A  
HETATM   16  C   UNL     1      -6.171   8.998  69.428  1.00  0.00    -0.040 A  
HETATM   17  N   UNL     1      -8.616   9.580  65.124  1.00  0.00    -0.151 NA 
HETATM   18  O   UNL     1      -5.328   8.728  70.462  1.00  0.00    -0.021 OA 
HETATM   19  C   UNL     1      -6.841  10.195  69.572  1.00  0.00    -0.079 A  
HETATM   20  C   UNL     1      -7.406   7.713  66.122  1.00  0.00    -0.078 C  
HETATM   21  O   UNL     1      -6.481  10.811  70.736  1.00  0.00    -0.348 OA 
HETATM   22  C   UNL     1      -7.751  10.639  68.620  1.00  0.00    -0.110 A  
HETATM   23  C   UNL     1      -7.990   9.802  67.498  1.00  0.00    -0.106 A  
HETATM   24  C   UNL     1      -5.620   9.827  71.336  1.00  0.00    -0.067 C  
BRANCH  22  25
HETATM   25  O   UNL     1      -8.462  11.807  68.663  1.00  0.00    -0.142 OA 
HETATM   26  C   UNL     1      -7.800  12.997  68.246  1.00  0.00    -0.143 C  
ENDBRANCH  22  25
ENDBRANCH   1  11
BRANCH   5  27
HETATM   27  O   UNL     1     -12.627  13.933  70.392  1.00  0.00    -0.326 OA 
HETATM   28  C   UNL     1     -12.165  15.271  70.281  1.00  0.00    -0.363 C  
ENDBRANCH   5  27
BRANCH   2  29
HETATM   29  O   UNL     1     -12.014  11.267  71.204  1.00  0.00    -0.224 OA 
HETATM   30  C   UNL     1     -13.285  10.798  71.639  1.00  0.00    -0.383 C  
ENDBRANCH   2  29
TORSDOF 4
ENDMDL
MODEL       72
REMARK 921   NORMALIZED FREE ENERGY PREDICTED BY IDOCK:   -4.68 KCAL/MOL
REMARK 922        TOTAL FREE ENERGY PREDICTED BY IDOCK:   -6.59 KCAL/MOL
REMARK 923 INTER-LIGAND FREE ENERGY PREDICTED BY IDOCK:   -5.84 KCAL/MOL
REMARK 924 INTRA-LIGAND FREE ENERGY PREDICTED BY IDOCK:   -0.74 KCAL/MOL
REMARK 927      BINDING AFFINITY PREDICTED BY RF-SCORE:    0.00 PKD
ROOT
HETATM    1  C   UNL     1      -7.842   7.505  70.403  1.00  0.00    -0.097 C  
HETATM    2  C   UNL     1      -8.055   4.009  71.571  1.00  0.00    -0.077 A  
HETATM    3  O   UNL     1      -6.469   7.180  70.746  1.00  0.00    -0.042 OA 
HETATM    4  C   UNL     1      -6.335   5.912  71.247  1.00  0.00    -0.044 C  
HETATM    5  C   UNL     1      -9.407   3.654  71.376  1.00  0.00    -0.141 A  
HETATM    6  C   UNL     1      -7.658   5.287  71.173  1.00  0.00    -0.096 A  
HETATM    7  O   UNL     1      -5.298   5.433  71.653  1.00  0.00    -0.008 OA 
HETATM    8  C   UNL     1     -10.274   4.568  70.740  1.00  0.00    -0.164 A  
HETATM    9  C   UNL     1      -9.838   5.837  70.343  1.00  0.00    -0.241 A  
HETATM   10  C   UNL     1      -8.532   6.201  70.613  1.00  0.00    -0.134 A  
ENDROOT
BRANCH   1  11
HETATM   11  C   UNL     1      -8.330   8.777  71.216  1.00  0.00    -0.176 C  
HETATM   12  C   UNL     1     -10.764   9.479  70.858  1.00  0.00    -0.403 A  
HETATM   13  C   UNL     1      -7.755   8.252  73.589  1.00  0.00    -0.145 C  
HETATM   14  C   UNL     1     -10.037   7.937  72.777  1.00  0.00    -0.300 C  
HETATM   15  C   UNL     1     -11.769  10.149  70.148  1.00  0.00    -0.330 A  
HETATM   16  C   UNL     1     -11.406  10.863  69.031  1.00  0.00    -0.281 A  
HETATM   17  N   UNL     1      -8.772   8.638  72.630  1.00  0.00    -0.408 NA 
HETATM   18  O   UNL     1     -12.278  11.541  68.236  1.00  0.00    -0.561 OA 
HETATM   19  C   UNL     1     -10.097  10.963  68.611  1.00  0.00    -0.191 A  
HETATM   20  C   UNL     1     -11.156   8.762  72.134  1.00  0.00    -0.406 C  
HETATM   21  O   UNL     1     -10.010  11.727  67.483  1.00  0.00    -0.189 OA 
HETATM   22  C   UNL     1      -9.064  10.331  69.292  1.00  0.00    -0.194 A  
HETATM   23  C   UNL     1      -9.405   9.554  70.430  1.00  0.00    -0.311 A  
HETATM   24  C   UNL     1     -11.395  11.987  67.196  1.00  0.00    -0.333 C  
BRANCH  22  25
HETATM   25  O   UNL     1      -7.736  10.369  68.964  1.00  0.00    -0.096 OA 
HETATM   26  C   UNL     1      -7.011  11.553  69.286  1.00  0.00    -0.098 C  
ENDBRANCH  22  25
ENDBRANCH   1  11
BRANCH   5  27
HETATM   27  O   UNL     1      -9.818   2.437  71.851  1.00  0.00    -0.144 OA 
HETATM   28  C   UNL     1     -10.594   2.403  73.039  1.00  0.00    -0.153 C  
ENDBRANCH   5  27
BRANCH   2  29
HETATM   29  O   UNL     1      -7.106   3.250  72.199  1.00  0.00    -0.036 OA 
HETATM   30  C   UNL     1      -7.087   3.275  73.621  1.00  0.00    -0.045 C  
ENDBRANCH   2  29
TORSDOF 4
ENDMDL
MODEL       73
REMARK 921   NORMALIZED FREE ENERGY PREDICTED BY IDOCK:   -4.67 KCAL/MOL
REMARK 922        TOTAL FREE ENERGY PREDICTED BY IDOCK:   -6.57 KCAL/MOL
REMARK 923 INTER-LIGAND FREE ENERGY PREDICTED BY IDOCK:   -5.84 KCAL/MOL
REMARK 924 INTRA-LIGAND FREE ENERGY PREDICTED BY IDOCK:   -0.72 KCAL/MOL
REMARK 927      BINDING AFFINITY PREDICTED BY RF-SCORE:    0.00 PKD
ROOT
HETATM    1  C   UNL     1      -8.830   7.622  67.773  1.00  0.00    -0.125 C  
HETATM    2  C   UNL     1      -8.501   5.198  65.007  1.00  0.00    -0.148 A  
HETATM    3  O   UNL     1      -7.544   7.951  67.187  1.00  0.00    -0.096 OA 
HETATM    4  C   UNL     1      -7.209   7.124  66.146  1.00  0.00    -0.074 C  
HETATM    5  C   UNL     1      -9.722   4.488  65.014  1.00  0.00    -0.124 A  
HETATM    6  C   UNL     1      -8.348   6.229  65.936  1.00  0.00    -0.142 A  
HETATM    7  O   UNL     1      -6.162   7.168  65.536  1.00  0.00    -0.036 OA 
HETATM    8  C   UNL     1     -10.744   4.885  65.901  1.00  0.00    -0.233 A  
HETATM    9  C   UNL     1     -10.560   5.933  66.810  1.00  0.00    -0.368 A  
HETATM   10  C   UNL     1      -9.332   6.566  66.848  1.00  0.00    -0.166 A  
ENDROOT
BRANCH   1  11
HETATM   11  C   UNL     1      -8.668   7.285  69.314  1.00  0.00    -0.137 C  
HETATM   12  C   UNL     1     -10.762   6.430  70.509  1.00  0.00    -0.311 A  
HETATM   13  C   UNL     1      -6.727   5.715  69.403  1.00  0.00    -0.059 C  
HETATM   14  C   UNL     1      -9.012   4.854  69.490  1.00  0.00    -0.092 C  
HETATM   15  C   UNL     1     -11.976   6.631  71.178  1.00  0.00    -0.412 A  
HETATM   16  C   UNL     1     -12.392   7.925  71.390  1.00  0.00    -0.312 A  
HETATM   17  N   UNL     1      -8.114   5.971  69.740  1.00  0.00    -0.112 NA 
HETATM   18  O   UNL     1     -13.558   8.266  72.003  1.00  0.00    -0.341 OA 
HETATM   19  C   UNL     1     -11.646   9.015  70.995  1.00  0.00    -0.300 A  
HETATM   20  C   UNL     1     -10.268   5.006  70.351  1.00  0.00    -0.324 C  
HETATM   21  O   UNL     1     -12.280  10.178  71.325  1.00  0.00    -0.340 OA 
HETATM   22  C   UNL     1     -10.426   8.865  70.345  1.00  0.00    -0.210 A  
HETATM   23  C   UNL     1      -9.982   7.544  70.076  1.00  0.00    -0.186 A  
HETATM   24  C   UNL     1     -13.528   9.694  71.852  1.00  0.00    -0.413 C  
BRANCH  22  25
HETATM   25  O   UNL     1      -9.608   9.876  69.917  1.00  0.00    -0.222 OA 
HETATM   26  C   UNL     1     -10.135  10.788  68.959  1.00  0.00    -0.211 C  
ENDBRANCH  22  25
ENDBRANCH   1  11
BRANCH   5  27
HETATM   27  O   UNL     1      -9.837   3.417  64.168  1.00  0.00    -0.151 OA 
HETATM   28  C   UNL     1      -9.453   2.136  64.645  1.00  0.00    -0.093 C  
ENDBRANCH   5  27
BRANCH   2  29
HETATM   29  O   UNL     1      -7.409   4.914  64.234  1.00  0.00    -0.057 OA 
HETATM   30  C   UNL     1      -7.450   5.323  62.872  1.00  0.00    -0.051 C  
ENDBRANCH   2  29
TORSDOF 4
ENDMDL
MODEL       74
REMARK 921   NORMALIZED FREE ENERGY PREDICTED BY IDOCK:   -4.65 KCAL/MOL
REMARK 922        TOTAL FREE ENERGY PREDICTED BY IDOCK:   -6.54 KCAL/MOL
REMARK 923 INTER-LIGAND FREE ENERGY PREDICTED BY IDOCK:   -5.89 KCAL/MOL
REMARK 924 INTRA-LIGAND FREE ENERGY PREDICTED BY IDOCK:   -0.65 KCAL/MOL
REMARK 927      BINDING AFFINITY PREDICTED BY RF-SCORE:    0.00 PKD
ROOT
HETATM    1  C   UNL     1      -9.304  12.531  68.208  1.00  0.00    -0.193 C  
HETATM    2  C   UNL     1     -11.639  10.325  70.028  1.00  0.00    -0.276 A  
HETATM    3  O   UNL     1     -10.334  13.441  68.676  1.00  0.00    -0.240 OA 
HETATM    4  C   UNL     1     -11.336  12.802  69.357  1.00  0.00    -0.202 C  
HETATM    5  C   UNL     1     -11.030   9.052  69.981  1.00  0.00    -0.214 A  
HETATM    6  C   UNL     1     -10.952  11.391  69.445  1.00  0.00    -0.260 A  
HETATM    7  O   UNL     1     -12.330  13.341  69.796  1.00  0.00    -0.240 OA 
HETATM    8  C   UNL     1      -9.745   8.924  69.412  1.00  0.00    -0.169 A  
HETATM    9  C   UNL     1      -9.081  10.019  68.848  1.00  0.00    -0.159 A  
HETATM   10  C   UNL     1      -9.723  11.243  68.829  1.00  0.00    -0.184 A  
ENDROOT
BRANCH   1  11
HETATM   11  C   UNL     1      -9.163  12.618  66.630  1.00  0.00    -0.218 C  
HETATM   12  C   UNL     1      -9.439  10.420  65.350  1.00  0.00    -0.285 A  
HETATM   13  C   UNL     1     -10.779  14.401  65.961  1.00  0.00    -0.302 C  
HETATM   14  C   UNL     1     -11.387  12.045  65.744  1.00  0.00    -0.331 C  
HETATM   15  C   UNL     1      -8.947   9.211  64.843  1.00  0.00    -0.201 A  
HETATM   16  C   UNL     1      -7.622   8.911  65.057  1.00  0.00    -0.100 A  
HETATM   17  N   UNL     1     -10.323  13.034  65.796  1.00  0.00    -0.282 NA 
HETATM   18  O   UNL     1      -7.017   7.765  64.643  1.00  0.00    -0.060 OA 
HETATM   19  C   UNL     1      -6.769   9.767  65.722  1.00  0.00    -0.093 A  
HETATM   20  C   UNL     1     -10.878  10.784  65.041  1.00  0.00    -0.055 C  
HETATM   21  O   UNL     1      -5.514   9.233  65.797  1.00  0.00    -0.040 OA 
HETATM   22  C   UNL     1      -7.208  10.985  66.227  1.00  0.00    -0.095 A  
HETATM   23  C   UNL     1      -8.578  11.312  66.057  1.00  0.00    -0.130 A  
HETATM   24  C   UNL     1      -5.712   7.932  65.218  1.00  0.00    -0.037 C  
BRANCH  22  25
HETATM   25  O   UNL     1      -6.446  11.905  66.895  1.00  0.00    -0.148 OA 
HETATM   26  C   UNL     1      -5.808  11.483  68.097  1.00  0.00    -0.045 C  
ENDBRANCH  22  25
ENDBRANCH   1  11
BRANCH   5  27
HETATM   27  O   UNL     1     -11.742   7.989  70.468  1.00  0.00    -0.206 OA 
HETATM   28  C   UNL     1     -11.168   6.693  70.380  1.00  0.00    -0.344 C  
ENDBRANCH   5  27
BRANCH   2  29
HETATM   29  O   UNL     1     -12.887  10.602  70.514  1.00  0.00    -0.349 OA 
HETATM   30  C   UNL     1     -13.031  10.693  71.927  1.00  0.00    -0.437 C  
ENDBRANCH   2  29
TORSDOF 4
ENDMDL
MODEL       75
REMARK 921   NORMALIZED FREE ENERGY PREDICTED BY IDOCK:   -4.64 KCAL/MOL
REMARK 922        TOTAL FREE ENERGY PREDICTED BY IDOCK:   -6.53 KCAL/MOL
REMARK 923 INTER-LIGAND FREE ENERGY PREDICTED BY IDOCK:   -5.93 KCAL/MOL
REMARK 924 INTRA-LIGAND FREE ENERGY PREDICTED BY IDOCK:   -0.60 KCAL/MOL
REMARK 927      BINDING AFFINITY PREDICTED BY RF-SCORE:    0.00 PKD
ROOT
HETATM    1  C   UNL     1      -7.870   8.742  69.719  1.00  0.00    -0.090 C  
HETATM    2  C   UNL     1      -7.554   5.966  72.133  1.00  0.00    -0.101 A  
HETATM    3  O   UNL     1      -8.023   9.395  71.007  1.00  0.00    -0.303 OA 
HETATM    4  C   UNL     1      -7.974   8.514  72.056  1.00  0.00    -0.105 C  
HETATM    5  C   UNL     1      -7.265   4.837  71.335  1.00  0.00    -0.060 A  
HETATM    6  C   UNL     1      -7.689   7.196  71.486  1.00  0.00    -0.089 A  
HETATM    7  O   UNL     1      -8.131   8.814  73.220  1.00  0.00    -0.407 OA 
HETATM    8  C   UNL     1      -7.067   5.006  69.949  1.00  0.00    -0.054 A  
HETATM    9  C   UNL     1      -7.198   6.257  69.337  1.00  0.00    -0.082 A  
HETATM   10  C   UNL     1      -7.560   7.340  70.117  1.00  0.00    -0.090 A  
ENDROOT
BRANCH   1  11
HETATM   11  C   UNL     1      -9.134   9.022  68.802  1.00  0.00    -0.137 C  
HETATM   12  C   UNL     1     -10.823  10.723  69.696  1.00  0.00    -0.294 A  
HETATM   13  C   UNL     1      -8.165   9.615  66.578  1.00  0.00    -0.119 C  
HETATM   14  C   UNL     1      -8.922  11.370  68.098  1.00  0.00    -0.169 C  
HETATM   15  C   UNL     1     -11.923  11.079  70.486  1.00  0.00    -0.474 A  
HETATM   16  C   UNL     1     -12.536  10.094  71.224  1.00  0.00    -0.404 A  
HETATM   17  N   UNL     1      -9.041   9.985  67.672  1.00  0.00    -0.134 NA 
HETATM   18  O   UNL     1     -13.597  10.300  72.051  1.00  0.00    -0.339 OA 
HETATM   19  C   UNL     1     -12.124   8.778  71.187  1.00  0.00    -0.267 A  
HETATM   20  C   UNL     1     -10.202  11.794  68.823  1.00  0.00    -0.175 C  
HETATM   21  O   UNL     1     -12.899   8.007  72.005  1.00  0.00    -0.314 OA 
HETATM   22  C   UNL     1     -11.050   8.374  70.404  1.00  0.00    -0.231 A  
HETATM   23  C   UNL     1     -10.368   9.371  69.657  1.00  0.00    -0.229 A  
HETATM   24  C   UNL     1     -13.743   8.993  72.626  1.00  0.00    -0.359 C  
BRANCH  22  25
HETATM   25  O   UNL     1     -10.564   7.099  70.292  1.00  0.00    -0.216 OA 
HETATM   26  C   UNL     1     -11.223   6.221  69.384  1.00  0.00    -0.420 C  
ENDBRANCH  22  25
ENDBRANCH   1  11
BRANCH   5  27
HETATM   27  O   UNL     1      -7.225   3.616  71.955  1.00  0.00    -0.047 OA 
HETATM   28  C   UNL     1      -7.614   2.469  71.213  1.00  0.00    -0.040 C  
ENDBRANCH   5  27
BRANCH   2  29
HETATM   29  O   UNL     1      -7.804   5.958  73.477  1.00  0.00    -0.104 OA 
HETATM   30  C   UNL     1      -6.696   5.757  74.346  1.00  0.00    -0.076 C  
ENDBRANCH   2  29
TORSDOF 4
ENDMDL
MODEL       76
REMARK 921   NORMALIZED FREE ENERGY PREDICTED BY IDOCK:   -4.62 KCAL/MOL
REMARK 922        TOTAL FREE ENERGY PREDICTED BY IDOCK:   -6.51 KCAL/MOL
REMARK 923 INTER-LIGAND FREE ENERGY PREDICTED BY IDOCK:   -6.33 KCAL/MOL
REMARK 924 INTRA-LIGAND FREE ENERGY PREDICTED BY IDOCK:   -0.18 KCAL/MOL
REMARK 927      BINDING AFFINITY PREDICTED BY RF-SCORE:    0.00 PKD
ROOT
HETATM    1  C   UNL     1      -9.542   8.719  70.906  1.00  0.00    -0.221 C  
HETATM    2  C   UNL     1      -7.432   5.901  72.019  1.00  0.00    -0.096 A  
HETATM    3  O   UNL     1      -9.911   8.550  72.299  1.00  0.00    -0.290 OA 
HETATM    4  C   UNL     1      -9.255   7.507  72.899  1.00  0.00    -0.168 C  
HETATM    5  C   UNL     1      -6.627   5.599  70.899  1.00  0.00    -0.044 A  
HETATM    6  C   UNL     1      -8.320   6.973  71.907  1.00  0.00    -0.106 A  
HETATM    7  O   UNL     1      -9.437   7.138  74.039  1.00  0.00    -0.231 OA 
HETATM    8  C   UNL     1      -6.706   6.420  69.754  1.00  0.00    -0.053 A  
HETATM    9  C   UNL     1      -7.598   7.494  69.682  1.00  0.00    -0.094 A  
HETATM   10  C   UNL     1      -8.438   7.729  70.755  1.00  0.00    -0.121 A  
ENDROOT
BRANCH   1  11
HETATM   11  C   UNL     1     -10.819   8.597  69.974  1.00  0.00    -0.221 C  
HETATM   12  C   UNL     1     -10.753   9.922  67.787  1.00  0.00    -0.332 A  
HETATM   13  C   UNL     1     -11.133   6.139  69.671  1.00  0.00    -0.419 C  
HETATM   14  C   UNL     1     -10.036   7.463  67.936  1.00  0.00    -0.178 C  
HETATM   15  C   UNL     1     -10.922  11.098  67.044  1.00  0.00    -0.348 A  
HETATM   16  C   UNL     1     -11.369  12.220  67.702  1.00  0.00    -0.311 A  
HETATM   17  N   UNL     1     -10.968   7.439  69.052  1.00  0.00    -0.078 NA 
HETATM   18  O   UNL     1     -11.556  13.433  67.112  1.00  0.00    -0.321 OA 
HETATM   19  C   UNL     1     -11.679  12.215  69.045  1.00  0.00    -0.322 A  
HETATM   20  C   UNL     1     -10.339   8.669  67.043  1.00  0.00    -0.368 C  
HETATM   21  O   UNL     1     -12.100  13.450  69.447  1.00  0.00    -0.309 OA 
HETATM   22  C   UNL     1     -11.545  11.068  69.819  1.00  0.00    -0.325 A  
HETATM   23  C   UNL     1     -11.050   9.900  69.182  1.00  0.00    -0.197 A  
HETATM   24  C   UNL     1     -11.909  14.229  68.253  1.00  0.00    -0.335 C  
BRANCH  22  25
HETATM   25  O   UNL     1     -11.828  10.954  71.153  1.00  0.00    -0.269 OA 
HETATM   26  C   UNL     1     -13.167  10.636  71.517  1.00  0.00    -0.360 C  
ENDBRANCH  22  25
ENDBRANCH   1  11
BRANCH   5  27
HETATM   27  O   UNL     1      -5.825   4.492  70.974  1.00  0.00    -0.015 OA 
HETATM   28  C   UNL     1      -6.130   3.379  70.147  1.00  0.00    -0.023 C  
ENDBRANCH   5  27
BRANCH   2  29
HETATM   29  O   UNL     1      -7.494   5.184  73.183  1.00  0.00    -0.089 OA 
HETATM   30  C   UNL     1      -8.266   3.989  73.172  1.00  0.00    -0.089 C  
ENDBRANCH   2  29
TORSDOF 4
ENDMDL
MODEL       77
REMARK 921   NORMALIZED FREE ENERGY PREDICTED BY IDOCK:   -4.60 KCAL/MOL
REMARK 922        TOTAL FREE ENERGY PREDICTED BY IDOCK:   -6.49 KCAL/MOL
REMARK 923 INTER-LIGAND FREE ENERGY PREDICTED BY IDOCK:   -5.75 KCAL/MOL
REMARK 924 INTRA-LIGAND FREE ENERGY PREDICTED BY IDOCK:   -0.74 KCAL/MOL
REMARK 927      BINDING AFFINITY PREDICTED BY RF-SCORE:    0.00 PKD
ROOT
HETATM    1  C   UNL     1      -7.378  11.036  68.349  1.00  0.00    -0.096 C  
HETATM    2  C   UNL     1      -9.605  13.955  67.957  1.00  0.00    -0.219 A  
HETATM    3  O   UNL     1      -6.477  12.094  67.928  1.00  0.00    -0.063 OA 
HETATM    4  C   UNL     1      -7.126  13.277  67.687  1.00  0.00    -0.159 C  
HETATM    5  C   UNL     1     -10.872  13.490  68.371  1.00  0.00    -0.267 A  
HETATM    6  C   UNL     1      -8.532  13.065  68.036  1.00  0.00    -0.181 A  
HETATM    7  O   UNL     1      -6.596  14.287  67.275  1.00  0.00    -0.278 OA 
HETATM    8  C   UNL     1     -10.987  12.186  68.899  1.00  0.00    -0.269 A  
HETATM    9  C   UNL     1      -9.887  11.326  68.975  1.00  0.00    -0.101 A  
HETATM   10  C   UNL     1      -8.669  11.766  68.491  1.00  0.00    -0.118 A  
ENDROOT
BRANCH   1  11
HETATM   11  C   UNL     1      -7.292   9.806  67.352  1.00  0.00    -0.090 C  
HETATM   12  C   UNL     1      -9.503   8.642  66.801  1.00  0.00    -0.250 A  
HETATM   13  C   UNL     1      -6.087  10.707  65.358  1.00  0.00    -0.090 C  
HETATM   14  C   UNL     1      -8.522  10.510  65.339  1.00  0.00    -0.170 C  
HETATM   15  C   UNL     1     -10.523   7.724  67.080  1.00  0.00    -0.413 A  
HETATM   16  C   UNL     1     -10.409   6.956  68.215  1.00  0.00    -0.193 A  
HETATM   17  N   UNL     1      -7.259  10.033  65.881  1.00  0.00    -0.108 NA 
HETATM   18  O   UNL     1     -11.334   6.042  68.620  1.00  0.00    -0.251 OA 
HETATM   19  C   UNL     1      -9.323   7.041  69.060  1.00  0.00    -0.136 A  
HETATM   20  C   UNL     1      -9.591   9.427  65.508  1.00  0.00    -0.328 C  
HETATM   21  O   UNL     1      -9.457   6.174  70.106  1.00  0.00    -0.156 OA 
HETATM   22  C   UNL     1      -8.279   7.925  68.815  1.00  0.00    -0.127 A  
HETATM   23  C   UNL     1      -8.378   8.760  67.672  1.00  0.00    -0.114 A  
HETATM   24  C   UNL     1     -10.772   5.638  69.878  1.00  0.00    -0.329 C  
BRANCH  22  25
HETATM   25  O   UNL     1      -7.157   8.085  69.583  1.00  0.00    -0.058 OA 
HETATM   26  C   UNL     1      -7.333   8.575  70.909  1.00  0.00    -0.068 C  
ENDBRANCH  22  25
ENDBRANCH   1  11
BRANCH   5  27
HETATM   27  O   UNL     1     -11.941  14.329  68.207  1.00  0.00    -0.341 OA 
HETATM   28  C   UNL     1     -12.139  15.364  69.159  1.00  0.00    -0.242 C  
ENDBRANCH   5  27
BRANCH   2  29
HETATM   29  O   UNL     1      -9.339  15.174  67.396  1.00  0.00    -0.192 OA 
HETATM   30  C   UNL     1      -9.677  15.349  66.025  1.00  0.00    -0.338 C  
ENDBRANCH   2  29
TORSDOF 4
ENDMDL
MODEL       78
REMARK 921   NORMALIZED FREE ENERGY PREDICTED BY IDOCK:   -4.59 KCAL/MOL
REMARK 922        TOTAL FREE ENERGY PREDICTED BY IDOCK:   -6.47 KCAL/MOL
REMARK 923 INTER-LIGAND FREE ENERGY PREDICTED BY IDOCK:   -5.87 KCAL/MOL
REMARK 924 INTRA-LIGAND FREE ENERGY PREDICTED BY IDOCK:   -0.60 KCAL/MOL
REMARK 927      BINDING AFFINITY PREDICTED BY RF-SCORE:    0.00 PKD
ROOT
HETATM    1  C   UNL     1     -10.576   9.895  70.397  1.00  0.00    -0.302 C  
HETATM    2  C   UNL     1     -10.306   7.236  72.944  1.00  0.00    -0.262 A  
HETATM    3  O   UNL     1     -11.959   9.548  70.671  1.00  0.00    -0.263 OA 
HETATM    4  C   UNL     1     -12.079   8.531  71.582  1.00  0.00    -0.321 C  
HETATM    5  C   UNL     1      -8.922   7.140  73.208  1.00  0.00    -0.143 A  
HETATM    6  C   UNL     1     -10.724   8.207  72.032  1.00  0.00    -0.343 A  
HETATM    7  O   UNL     1     -13.128   8.032  71.929  1.00  0.00    -0.324 OA 
HETATM    8  C   UNL     1      -8.040   8.056  72.597  1.00  0.00    -0.197 A  
HETATM    9  C   UNL     1      -8.497   9.025  71.697  1.00  0.00    -0.030 A  
HETATM   10  C   UNL     1      -9.843   9.056  71.386  1.00  0.00    -0.381 A  
ENDROOT
BRANCH   1  11
HETATM   11  C   UNL     1     -10.257   9.724  68.853  1.00  0.00    -0.200 C  
HETATM   12  C   UNL     1      -7.914  10.421  68.100  1.00  0.00    -0.110 A  
HETATM   13  C   UNL     1     -10.822   7.341  68.365  1.00  0.00    -0.058 C  
HETATM   14  C   UNL     1      -8.501   8.005  68.736  1.00  0.00    -0.127 C  
HETATM   15  C   UNL     1      -6.977  11.379  67.692  1.00  0.00    -0.081 A  
HETATM   16  C   UNL     1      -7.394  12.684  67.576  1.00  0.00    -0.151 A  
HETATM   17  N   UNL     1      -9.835   8.402  68.317  1.00  0.00    -0.163 NA 
HETATM   18  O   UNL     1      -6.588  13.719  67.213  1.00  0.00    -0.259 OA 
HETATM   19  C   UNL     1      -8.697  13.068  67.818  1.00  0.00    -0.188 A  
HETATM   20  C   UNL     1      -7.471   8.972  68.148  1.00  0.00    -0.084 C  
HETATM   21  O   UNL     1      -8.845  14.412  67.630  1.00  0.00    -0.176 OA 
HETATM   22  C   UNL     1      -9.665  12.150  68.207  1.00  0.00    -0.216 A  
HETATM   23  C   UNL     1      -9.262  10.799  68.374  1.00  0.00    -0.164 A  
HETATM   24  C   UNL     1      -7.493  14.823  67.363  1.00  0.00    -0.194 C  
BRANCH  22  25
HETATM   25  O   UNL     1     -10.980  12.424  68.467  1.00  0.00    -0.222 OA 
HETATM   26  C   UNL     1     -11.823  12.720  67.357  1.00  0.00    -0.342 C  
ENDBRANCH  22  25
ENDBRANCH   1  11
BRANCH   5  27
HETATM   27  O   UNL     1      -8.501   6.128  74.029  1.00  0.00    -0.115 OA 
HETATM   28  C   UNL     1      -7.164   6.157  74.506  1.00  0.00    -0.090 C  
ENDBRANCH   5  27
BRANCH   2  29
HETATM   29  O   UNL     1     -11.277   6.404  73.430  1.00  0.00    -0.125 OA 
HETATM   30  C   UNL     1     -11.407   5.126  72.818  1.00  0.00    -0.239 C  
ENDBRANCH   2  29
TORSDOF 4
ENDMDL
MODEL       79
REMARK 921   NORMALIZED FREE ENERGY PREDICTED BY IDOCK:   -4.58 KCAL/MOL
REMARK 922        TOTAL FREE ENERGY PREDICTED BY IDOCK:   -6.46 KCAL/MOL
REMARK 923 INTER-LIGAND FREE ENERGY PREDICTED BY IDOCK:   -5.71 KCAL/MOL
REMARK 924 INTRA-LIGAND FREE ENERGY PREDICTED BY IDOCK:   -0.75 KCAL/MOL
REMARK 927      BINDING AFFINITY PREDICTED BY RF-SCORE:    0.00 PKD
ROOT
HETATM    1  C   UNL     1      -7.705   8.420  69.382  1.00  0.00    -0.097 C  
HETATM    2  C   UNL     1      -9.132   5.312  67.991  1.00  0.00    -0.110 A  
HETATM    3  O   UNL     1      -7.049   7.375  70.148  1.00  0.00    -0.062 OA 
HETATM    4  C   UNL     1      -7.477   6.120  69.805  1.00  0.00    -0.081 C  
HETATM    5  C   UNL     1      -9.966   5.747  66.939  1.00  0.00    -0.171 A  
HETATM    6  C   UNL     1      -8.412   6.283  68.690  1.00  0.00    -0.122 A  
HETATM    7  O   UNL     1      -7.116   5.094  70.341  1.00  0.00    -0.053 OA 
HETATM    8  C   UNL     1      -9.990   7.117  66.601  1.00  0.00    -0.234 A  
HETATM    9  C   UNL     1      -9.245   8.061  67.316  1.00  0.00    -0.164 A  
HETATM   10  C   UNL     1      -8.495   7.632  68.395  1.00  0.00    -0.125 A  
ENDROOT
BRANCH   1  11
HETATM   11  C   UNL     1      -8.460   9.425  70.349  1.00  0.00    -0.214 C  
HETATM   12  C   UNL     1     -10.890   9.955  69.752  1.00  0.00    -0.300 A  
HETATM   13  C   UNL     1      -8.158   8.440  72.624  1.00  0.00    -0.110 C  
HETATM   14  C   UNL     1     -10.245   8.099  71.403  1.00  0.00    -0.198 C  
HETATM   15  C   UNL     1     -11.865  10.667  69.041  1.00  0.00    -0.256 A  
HETATM   16  C   UNL     1     -11.446  11.645  68.170  1.00  0.00    -0.313 A  
HETATM   17  N   UNL     1      -9.072   8.933  71.613  1.00  0.00    -0.318 NA 
HETATM   18  O   UNL     1     -12.278  12.397  67.400  1.00  0.00    -0.459 OA 
HETATM   19  C   UNL     1     -10.114  11.960  67.998  1.00  0.00    -0.195 A  
HETATM   20  C   UNL     1     -11.360   8.936  70.771  1.00  0.00    -0.325 C  
HETATM   21  O   UNL     1      -9.970  12.962  67.082  1.00  0.00    -0.233 OA 
HETATM   22  C   UNL     1      -9.113  11.293  68.695  1.00  0.00    -0.151 A  
HETATM   23  C   UNL     1      -9.506  10.252  69.576  1.00  0.00    -0.207 A  
HETATM   24  C   UNL     1     -11.325  13.147  66.633  1.00  0.00    -0.325 C  
BRANCH  22  25
HETATM   25  O   UNL     1      -7.768  11.530  68.602  1.00  0.00    -0.129 OA 
HETATM   26  C   UNL     1      -7.148  11.319  67.337  1.00  0.00    -0.109 C  
ENDBRANCH  22  25
ENDBRANCH   1  11
BRANCH   5  27
HETATM   27  O   UNL     1     -10.743   4.808  66.315  1.00  0.00    -0.283 OA 
HETATM   28  C   UNL     1     -10.311   4.298  65.062  1.00  0.00    -0.183 C  
ENDBRANCH   5  27
BRANCH   2  29
HETATM   29  O   UNL     1      -9.026   4.030  68.457  1.00  0.00    -0.101 OA 
HETATM   30  C   UNL     1      -8.101   3.172  67.799  1.00  0.00    -0.079 C  
ENDBRANCH   2  29
TORSDOF 4
ENDMDL
MODEL       80
REMARK 921   NORMALIZED FREE ENERGY PREDICTED BY IDOCK:   -4.56 KCAL/MOL
REMARK 922        TOTAL FREE ENERGY PREDICTED BY IDOCK:   -6.44 KCAL/MOL
REMARK 923 INTER-LIGAND FREE ENERGY PREDICTED BY IDOCK:   -6.74 KCAL/MOL
REMARK 924 INTRA-LIGAND FREE ENERGY PREDICTED BY IDOCK:    0.30 KCAL/MOL
REMARK 927      BINDING AFFINITY PREDICTED BY RF-SCORE:    0.00 PKD
ROOT
HETATM    1  C   UNL     1     -10.907  10.127  68.479  1.00  0.00    -0.237 C  
HETATM    2  C   UNL     1     -12.042  13.368  69.835  1.00  0.00    -0.322 A  
HETATM    3  O   UNL     1     -11.375   9.790  69.811  1.00  0.00    -0.228 OA 
HETATM    4  C   UNL     1     -11.812  10.884  70.511  1.00  0.00    -0.360 C  
HETATM    5  C   UNL     1     -11.876  14.275  68.767  1.00  0.00    -0.341 A  
HETATM    6  C   UNL     1     -11.728  12.028  69.601  1.00  0.00    -0.405 A  
HETATM    7  O   UNL     1     -12.197  10.863  71.661  1.00  0.00    -0.228 OA 
HETATM    8  C   UNL     1     -11.465  13.788  67.508  1.00  0.00    -0.359 A  
HETATM    9  C   UNL     1     -11.170  12.435  67.306  1.00  0.00    -0.357 A  
HETATM   10  C   UNL     1     -11.260  11.572  68.382  1.00  0.00    -0.314 A  
ENDROOT
BRANCH   1  11
HETATM   11  C   UNL     1      -9.394   9.688  68.295  1.00  0.00    -0.133 C  
HETATM   12  C   UNL     1      -8.822   8.503  66.101  1.00  0.00    -0.200 A  
HETATM   13  C   UNL     1      -8.089  11.778  68.698  1.00  0.00    -0.104 C  
HETATM   14  C   UNL     1      -8.547  11.035  66.417  1.00  0.00    -0.165 C  
HETATM   15  C   UNL     1      -8.746   7.362  65.292  1.00  0.00     0.057 A  
HETATM   16  C   UNL     1      -9.146   6.161  65.828  1.00  0.00    -0.040 A  
HETATM   17  N   UNL     1      -8.382  10.667  67.814  1.00  0.00    -0.115 NA 
HETATM   18  O   UNL     1      -9.148   4.980  65.151  1.00  0.00    -0.157 OA 
HETATM   19  C   UNL     1      -9.587   6.042  67.129  1.00  0.00    -0.123 A  
HETATM   20  C   UNL     1      -8.302   9.809  65.534  1.00  0.00    -0.141 C  
HETATM   21  O   UNL     1      -9.921   4.748  67.408  1.00  0.00    -0.179 OA 
HETATM   22  C   UNL     1      -9.663   7.142  67.974  1.00  0.00    -0.138 A  
HETATM   23  C   UNL     1      -9.293   8.406  67.445  1.00  0.00    -0.178 A  
HETATM   24  C   UNL     1      -9.748   4.116  66.127  1.00  0.00    -0.205 C  
BRANCH  22  25
HETATM   25  O   UNL     1     -10.080   7.134  69.278  1.00  0.00    -0.168 OA 
HETATM   26  C   UNL     1     -11.317   6.490  69.569  1.00  0.00    -0.357 C  
ENDBRANCH  22  25
ENDBRANCH   1  11
BRANCH   5  27
HETATM   27  O   UNL     1     -12.094  15.603  69.021  1.00  0.00    -0.337 OA 
HETATM   28  C   UNL     1     -11.103  16.539  68.625  1.00  0.00    -0.329 C  
ENDBRANCH   5  27
BRANCH   2  29
HETATM   29  O   UNL     1     -12.400  13.690  71.116  1.00  0.00    -0.355 OA 
HETATM   30  C   UNL     1     -13.769  13.998  71.352  1.00  0.00    -0.222 C  
ENDBRANCH   2  29
TORSDOF 4
ENDMDL
MODEL       81
REMARK 921   NORMALIZED FREE ENERGY PREDICTED BY IDOCK:   -4.56 KCAL/MOL
REMARK 922        TOTAL FREE ENERGY PREDICTED BY IDOCK:   -6.43 KCAL/MOL
REMARK 923 INTER-LIGAND FREE ENERGY PREDICTED BY IDOCK:   -5.73 KCAL/MOL
REMARK 924 INTRA-LIGAND FREE ENERGY PREDICTED BY IDOCK:   -0.70 KCAL/MOL
REMARK 927      BINDING AFFINITY PREDICTED BY RF-SCORE:    0.00 PKD
ROOT
HETATM    1  C   UNL     1     -10.786   9.422  68.220  1.00  0.00    -0.171 C  
HETATM    2  C   UNL     1      -8.856   7.194  65.997  1.00  0.00    -0.131 A  
HETATM    3  O   UNL     1     -10.782  10.130  66.952  1.00  0.00    -0.226 OA 
HETATM    4  C   UNL     1     -10.070   9.475  65.982  1.00  0.00    -0.249 C  
HETATM    5  C   UNL     1      -8.575   6.061  66.792  1.00  0.00    -0.110 A  
HETATM    6  C   UNL     1      -9.624   8.209  66.569  1.00  0.00    -0.303 A  
HETATM    7  O   UNL     1      -9.879   9.894  64.861  1.00  0.00    -0.315 OA 
HETATM    8  C   UNL     1      -9.126   5.975  68.087  1.00  0.00    -0.118 A  
HETATM    9  C   UNL     1      -9.903   7.008  68.623  1.00  0.00    -0.148 A  
HETATM   10  C   UNL     1     -10.103   8.146  67.865  1.00  0.00    -0.246 A  
ENDROOT
BRANCH   1  11
HETATM   11  C   UNL     1     -10.173  10.333  69.365  1.00  0.00    -0.235 C  
HETATM   12  C   UNL     1      -8.400   9.239  70.849  1.00  0.00    -0.196 A  
HETATM   13  C   UNL     1      -9.386  12.381  68.173  1.00  0.00    -0.209 C  
HETATM   14  C   UNL     1      -7.802  10.621  68.771  1.00  0.00    -0.125 C  
HETATM   15  C   UNL     1      -8.011   8.448  71.938  1.00  0.00    -0.180 A  
HETATM   16  C   UNL     1      -8.996   7.915  72.735  1.00  0.00    -0.198 A  
HETATM   17  N   UNL     1      -9.066  11.279  69.059  1.00  0.00    -0.046 NA 
HETATM   18  O   UNL     1      -8.765   7.111  73.809  1.00  0.00    -0.141 OA 
HETATM   19  C   UNL     1     -10.336   8.155  72.514  1.00  0.00    -0.330 A  
HETATM   20  C   UNL     1      -7.309   9.891  70.023  1.00  0.00    -0.159 C  
HETATM   21  O   UNL     1     -11.101   7.512  73.446  1.00  0.00    -0.344 OA 
HETATM   22  C   UNL     1     -10.769   8.948  71.458  1.00  0.00    -0.328 A  
HETATM   23  C   UNL     1      -9.781   9.485  70.592  1.00  0.00    -0.311 A  
HETATM   24  C   UNL     1     -10.110   6.772  74.180  1.00  0.00    -0.350 C  
BRANCH  22  25
HETATM   25  O   UNL     1     -12.068   9.252  71.154  1.00  0.00    -0.297 OA 
HETATM   26  C   UNL     1     -12.984   8.169  71.021  1.00  0.00     0.058 C  
ENDBRANCH  22  25
ENDBRANCH   1  11
BRANCH   5  27
HETATM   27  O   UNL     1      -7.744   5.108  66.266  1.00  0.00    -0.087 OA 
HETATM   28  C   UNL     1      -7.077   4.226  67.158  1.00  0.00    -0.067 C  
ENDBRANCH   5  27
BRANCH   2  29
HETATM   29  O   UNL     1      -8.370   7.437  64.742  1.00  0.00    -0.099 OA 
HETATM   30  C   UNL     1      -7.030   7.906  64.641  1.00  0.00    -0.067 C  
ENDBRANCH   2  29
TORSDOF 4
ENDMDL
MODEL       82
REMARK 921   NORMALIZED FREE ENERGY PREDICTED BY IDOCK:   -4.55 KCAL/MOL
REMARK 922        TOTAL FREE ENERGY PREDICTED BY IDOCK:   -6.43 KCAL/MOL
REMARK 923 INTER-LIGAND FREE ENERGY PREDICTED BY IDOCK:   -7.24 KCAL/MOL
REMARK 924 INTRA-LIGAND FREE ENERGY PREDICTED BY IDOCK:    0.81 KCAL/MOL
REMARK 927      BINDING AFFINITY PREDICTED BY RF-SCORE:    0.00 PKD
ROOT
HETATM    1  C   UNL     1      -9.945   8.270  70.467  1.00  0.00    -0.184 C  
HETATM    2  C   UNL     1     -10.429   5.053  72.213  1.00  0.00    -0.214 A  
HETATM    3  O   UNL     1     -10.345   8.668  71.804  1.00  0.00    -0.259 OA 
HETATM    4  C   UNL     1     -10.615   7.598  72.617  1.00  0.00    -0.299 C  
HETATM    5  C   UNL     1     -10.052   4.077  71.265  1.00  0.00    -0.062 A  
HETATM    6  C   UNL     1     -10.310   6.393  71.843  1.00  0.00    -0.228 A  
HETATM    7  O   UNL     1     -11.018   7.679  73.758  1.00  0.00    -0.220 OA 
HETATM    8  C   UNL     1      -9.519   4.491  70.026  1.00  0.00    -0.247 A  
HETATM    9  C   UNL     1      -9.402   5.845  69.694  1.00  0.00    -0.162 A  
HETATM   10  C   UNL     1      -9.850   6.788  70.599  1.00  0.00    -0.191 A  
ENDROOT
BRANCH   1  11
HETATM   11  C   UNL     1     -10.930   8.886  69.387  1.00  0.00    -0.048 C  
HETATM   12  C   UNL     1     -11.003  11.439  69.251  1.00  0.00    -0.282 A  
HETATM   13  C   UNL     1     -10.285   7.766  67.250  1.00  0.00    -0.273 C  
HETATM   14  C   UNL     1      -9.481  10.017  67.751  1.00  0.00    -0.140 C  
HETATM   15  C   UNL     1     -11.465  12.691  69.678  1.00  0.00    -0.252 A  
HETATM   16  C   UNL     1     -12.384  12.726  70.701  1.00  0.00    -0.297 A  
HETATM   17  N   UNL     1     -10.505   9.007  67.966  1.00  0.00    -0.226 NA 
HETATM   18  O   UNL     1     -12.900  13.869  71.230  1.00  0.00    -0.331 OA 
HETATM   19  C   UNL     1     -12.878  11.582  71.291  1.00  0.00    -0.360 A  
HETATM   20  C   UNL     1     -10.053  11.401  68.070  1.00  0.00    -0.193 C  
HETATM   21  O   UNL     1     -13.773  11.895  72.274  1.00  0.00    -0.260 OA 
HETATM   22  C   UNL     1     -12.462  10.319  70.888  1.00  0.00    -0.370 A  
HETATM   23  C   UNL     1     -11.487  10.243  69.860  1.00  0.00    -0.340 A  
HETATM   24  C   UNL     1     -13.690  13.331  72.301  1.00  0.00    -0.589 C  
BRANCH  22  25
HETATM   25  O   UNL     1     -12.891   9.125  71.401  1.00  0.00    -0.320 OA 
HETATM   26  C   UNL     1     -14.262   9.023  71.776  1.00  0.00    -0.253 C  
ENDBRANCH  22  25
ENDBRANCH   1  11
BRANCH   5  27
HETATM   27  O   UNL     1     -10.256   2.763  71.591  1.00  0.00    -0.072 OA 
HETATM   28  C   UNL     1      -9.122   1.927  71.772  1.00  0.00    -0.082 C  
ENDBRANCH   5  27
BRANCH   2  29
HETATM   29  O   UNL     1     -10.990   4.811  73.437  1.00  0.00    -0.265 OA 
HETATM   30  C   UNL     1     -10.111   4.456  74.498  1.00  0.00    -0.219 C  
ENDBRANCH   2  29
TORSDOF 4
ENDMDL
MODEL       83
REMARK 921   NORMALIZED FREE ENERGY PREDICTED BY IDOCK:   -4.54 KCAL/MOL
REMARK 922        TOTAL FREE ENERGY PREDICTED BY IDOCK:   -6.41 KCAL/MOL
REMARK 923 INTER-LIGAND FREE ENERGY PREDICTED BY IDOCK:   -5.85 KCAL/MOL
REMARK 924 INTRA-LIGAND FREE ENERGY PREDICTED BY IDOCK:   -0.56 KCAL/MOL
REMARK 927      BINDING AFFINITY PREDICTED BY RF-SCORE:    0.00 PKD
ROOT
HETATM    1  C   UNL     1      -8.092   8.032  70.730  1.00  0.00    -0.101 C  
HETATM    2  C   UNL     1     -11.340   9.782  70.878  1.00  0.00    -0.365 A  
HETATM    3  O   UNL     1      -7.898   9.179  69.862  1.00  0.00    -0.073 OA 
HETATM    4  C   UNL     1      -9.023   9.953  69.747  1.00  0.00    -0.221 C  
HETATM    5  C   UNL     1     -12.098   9.040  71.810  1.00  0.00    -0.368 A  
HETATM    6  C   UNL     1     -10.026   9.373  70.642  1.00  0.00    -0.349 A  
HETATM    7  O   UNL     1      -9.122  10.931  69.037  1.00  0.00    -0.163 OA 
HETATM    8  C   UNL     1     -11.486   7.972  72.500  1.00  0.00    -0.471 A  
HETATM    9  C   UNL     1     -10.162   7.598  72.247  1.00  0.00    -0.268 A  
HETATM   10  C   UNL     1      -9.457   8.282  71.274  1.00  0.00    -0.219 A  
ENDROOT
BRANCH   1  11
HETATM   11  C   UNL     1      -7.810   6.685  69.942  1.00  0.00    -0.115 C  
HETATM   12  C   UNL     1      -9.410   4.745  70.412  1.00  0.00    -0.216 A  
HETATM   13  C   UNL     1      -7.718   7.378  67.545  1.00  0.00    -0.111 C  
HETATM   14  C   UNL     1      -9.749   6.377  68.460  1.00  0.00    -0.132 C  
HETATM   15  C   UNL     1      -9.837   3.646  71.167  1.00  0.00    -0.200 A  
HETATM   16  C   UNL     1      -9.093   3.289  72.268  1.00  0.00    -0.101 A  
HETATM   17  N   UNL     1      -8.305   6.513  68.550  1.00  0.00    -0.121 NA 
HETATM   18  O   UNL     1      -9.402   2.260  73.103  1.00  0.00    -0.079 OA 
HETATM   19  C   UNL     1      -7.940   3.955  72.628  1.00  0.00    -0.082 A  
HETATM   20  C   UNL     1     -10.185   5.084  69.154  1.00  0.00    -0.227 C  
HETATM   21  O   UNL     1      -7.396   3.402  73.752  1.00  0.00    -0.050 OA 
HETATM   22  C   UNL     1      -7.468   5.039  71.899  1.00  0.00    -0.090 A  
HETATM   23  C   UNL     1      -8.230   5.460  70.777  1.00  0.00    -0.115 A  
HETATM   24  C   UNL     1      -8.383   2.415  74.102  1.00  0.00    -0.059 C  
BRANCH  22  25
HETATM   25  O   UNL     1      -6.338   5.764  72.167  1.00  0.00    -0.045 OA 
HETATM   26  C   UNL     1      -6.363   6.627  73.299  1.00  0.00    -0.063 C  
ENDBRANCH  22  25
ENDBRANCH   1  11
BRANCH   5  27
HETATM   27  O   UNL     1     -13.414   9.381  71.973  1.00  0.00    -0.397 OA 
HETATM   28  C   UNL     1     -14.407   8.424  71.636  1.00  0.00    -0.448 C  
ENDBRANCH   5  27
BRANCH   2  29
HETATM   29  O   UNL     1     -11.799  10.817  70.110  1.00  0.00    -0.282 OA 
HETATM   30  C   UNL     1     -12.348  11.939  70.790  1.00  0.00    -0.320 C  
ENDBRANCH   2  29
TORSDOF 4
ENDMDL
MODEL       84
REMARK 921   NORMALIZED FREE ENERGY PREDICTED BY IDOCK:   -4.47 KCAL/MOL
REMARK 922        TOTAL FREE ENERGY PREDICTED BY IDOCK:   -6.32 KCAL/MOL
REMARK 923 INTER-LIGAND FREE ENERGY PREDICTED BY IDOCK:   -6.74 KCAL/MOL
REMARK 924 INTRA-LIGAND FREE ENERGY PREDICTED BY IDOCK:    0.42 KCAL/MOL
REMARK 927      BINDING AFFINITY PREDICTED BY RF-SCORE:    0.00 PKD
ROOT
HETATM    1  C   UNL     1      -8.769  10.736  68.182  1.00  0.00    -0.130 C  
HETATM    2  C   UNL     1     -10.309  13.836  66.897  1.00  0.00    -0.266 A  
HETATM    3  O   UNL     1     -10.102  10.314  67.792  1.00  0.00    -0.167 OA 
HETATM    4  C   UNL     1     -10.865  11.347  67.314  1.00  0.00    -0.263 C  
HETATM    5  C   UNL     1      -9.275  14.796  66.962  1.00  0.00    -0.233 A  
HETATM    6  C   UNL     1     -10.004  12.531  67.288  1.00  0.00    -0.211 A  
HETATM    7  O   UNL     1     -12.027  11.253  66.978  1.00  0.00    -0.401 OA 
HETATM    8  C   UNL     1      -7.982  14.389  67.352  1.00  0.00    -0.220 A  
HETATM    9  C   UNL     1      -7.709  13.068  67.724  1.00  0.00    -0.151 A  
HETATM   10  C   UNL     1      -8.749  12.157  67.734  1.00  0.00    -0.171 A  
ENDROOT
BRANCH   1  11
HETATM   11  C   UNL     1      -8.508  10.405  69.711  1.00  0.00     0.028 C  
HETATM   12  C   UNL     1      -9.281   8.104  70.517  1.00  0.00    -0.157 A  
HETATM   13  C   UNL     1      -6.069  10.835  70.031  1.00  0.00    -0.107 C  
HETATM   14  C   UNL     1      -6.886   8.555  69.713  1.00  0.00    -0.043 C  
HETATM   15  C   UNL     1     -10.259   7.221  70.993  1.00  0.00    -0.198 A  
HETATM   16  C   UNL     1     -11.527   7.710  71.199  1.00  0.00    -0.275 A  
HETATM   17  N   UNL     1      -7.178   9.909  70.155  1.00  0.00    -0.141 NA 
HETATM   18  O   UNL     1     -12.578   6.963  71.635  1.00  0.00    -0.357 OA 
HETATM   19  C   UNL     1     -11.853   9.033  70.981  1.00  0.00    -0.285 A  
HETATM   20  C   UNL     1      -7.866   7.580  70.370  1.00  0.00    -0.097 C  
HETATM   21  O   UNL     1     -13.171   9.256  71.262  1.00  0.00    -0.326 OA 
HETATM   22  C   UNL     1     -10.913   9.949  70.527  1.00  0.00    -0.326 A  
HETATM   23  C   UNL     1      -9.601   9.471  70.267  1.00  0.00    -0.314 A  
HETATM   24  C   UNL     1     -13.638   7.928  71.561  1.00  0.00    -0.310 C  
BRANCH  22  25
HETATM   25  O   UNL     1     -11.130  11.278  70.283  1.00  0.00    -0.108 OA 
HETATM   26  C   UNL     1     -12.309  11.863  70.828  1.00  0.00    -0.320 C  
ENDBRANCH  22  25
ENDBRANCH   1  11
BRANCH   5  27
HETATM   27  O   UNL     1      -9.596  16.094  66.669  1.00  0.00    -0.222 OA 
HETATM   28  C   UNL     1      -9.298  17.097  67.629  1.00  0.00    -0.239 C  
ENDBRANCH   5  27
BRANCH   2  29
HETATM   29  O   UNL     1     -11.614  14.080  66.572  1.00  0.00    -0.341 OA 
HETATM   30  C   UNL     1     -11.943  14.134  65.189  1.00  0.00    -0.388 C  
ENDBRANCH   2  29
TORSDOF 4
ENDMDL
MODEL       85
REMARK 921   NORMALIZED FREE ENERGY PREDICTED BY IDOCK:   -4.45 KCAL/MOL
REMARK 922        TOTAL FREE ENERGY PREDICTED BY IDOCK:   -6.29 KCAL/MOL
REMARK 923 INTER-LIGAND FREE ENERGY PREDICTED BY IDOCK:   -5.43 KCAL/MOL
REMARK 924 INTRA-LIGAND FREE ENERGY PREDICTED BY IDOCK:   -0.86 KCAL/MOL
REMARK 927      BINDING AFFINITY PREDICTED BY RF-SCORE:    0.00 PKD
ROOT
HETATM    1  C   UNL     1      -7.388  11.163  66.978  1.00  0.00    -0.128 C  
HETATM    2  C   UNL     1      -6.989   7.818  65.466  1.00  0.00    -0.053 A  
HETATM    3  O   UNL     1      -6.353  10.547  67.788  1.00  0.00    -0.059 OA 
HETATM    4  C   UNL     1      -6.078   9.259  67.407  1.00  0.00    -0.050 C  
HETATM    5  C   UNL     1      -7.858   7.829  64.352  1.00  0.00    -0.138 A  
HETATM    6  C   UNL     1      -6.895   8.987  66.222  1.00  0.00    -0.078 A  
HETATM    7  O   UNL     1      -5.292   8.524  67.966  1.00  0.00    -0.033 OA 
HETATM    8  C   UNL     1      -8.535   9.021  64.019  1.00  0.00    -0.175 A  
HETATM    9  C   UNL     1      -8.406  10.178  64.794  1.00  0.00    -0.167 A  
HETATM   10  C   UNL     1      -7.615  10.130  65.927  1.00  0.00    -0.128 A  
ENDROOT
BRANCH   1  11
HETATM   11  C   UNL     1      -8.604  11.621  67.886  1.00  0.00    -0.150 C  
HETATM   12  C   UNL     1     -10.877  11.796  66.725  1.00  0.00    -0.312 A  
HETATM   13  C   UNL     1      -8.563  10.041  69.819  1.00  0.00    -0.173 C  
HETATM   14  C   UNL     1     -10.121   9.684  67.972  1.00  0.00    -0.178 C  
HETATM   15  C   UNL     1     -11.825  12.480  65.952  1.00  0.00    -0.489 A  
HETATM   16  C   UNL     1     -11.518  13.751  65.527  1.00  0.00    -0.311 A  
HETATM   17  N   UNL     1      -9.322  10.631  68.734  1.00  0.00    -0.173 NA 
HETATM   18  O   UNL     1     -12.332  14.520  64.753  1.00  0.00    -0.438 OA 
HETATM   19  C   UNL     1     -10.333  14.375  65.858  1.00  0.00    -0.314 A  
HETATM   20  C   UNL     1     -11.253  10.429  67.259  1.00  0.00    -0.153 C  
HETATM   21  O   UNL     1     -10.280  15.626  65.313  1.00  0.00    -0.359 OA 
HETATM   22  C   UNL     1      -9.371  13.743  66.637  1.00  0.00    -0.264 A  
HETATM   23  C   UNL     1      -9.637  12.416  67.063  1.00  0.00    -0.211 A  
HETATM   24  C   UNL     1     -11.487  15.659  64.531  1.00  0.00    -0.300 C  
BRANCH  22  25
HETATM   25  O   UNL     1      -8.170  14.272  67.024  1.00  0.00    -0.180 OA 
HETATM   26  C   UNL     1      -8.189  15.285  68.026  1.00  0.00    -0.141 C  
ENDBRANCH  22  25
ENDBRANCH   1  11
BRANCH   5  27
HETATM   27  O   UNL     1      -8.023   6.656  63.665  1.00  0.00    -0.118 OA 
HETATM   28  C   UNL     1      -7.112   6.352  62.619  1.00  0.00    -0.044 C  
ENDBRANCH   5  27
BRANCH   2  29
HETATM   29  O   UNL     1      -6.293   6.737  65.932  1.00  0.00    -0.046 OA 
HETATM   30  C   UNL     1      -7.012   5.781  66.702  1.00  0.00    -0.064 C  
ENDBRANCH   2  29
TORSDOF 4
ENDMDL
MODEL       86
REMARK 921   NORMALIZED FREE ENERGY PREDICTED BY IDOCK:   -4.44 KCAL/MOL
REMARK 922        TOTAL FREE ENERGY PREDICTED BY IDOCK:   -6.29 KCAL/MOL
REMARK 923 INTER-LIGAND FREE ENERGY PREDICTED BY IDOCK:   -6.29 KCAL/MOL
REMARK 924 INTRA-LIGAND FREE ENERGY PREDICTED BY IDOCK:    0.00 KCAL/MOL
REMARK 927      BINDING AFFINITY PREDICTED BY RF-SCORE:    0.00 PKD
ROOT
HETATM    1  C   UNL     1      -9.664   9.359  67.159  1.00  0.00    -0.173 C  
HETATM    2  C   UNL     1      -8.854   6.118  65.586  1.00  0.00    -0.092 A  
HETATM    3  O   UNL     1      -8.570   9.683  66.261  1.00  0.00    -0.125 OA 
HETATM    4  C   UNL     1      -8.088   8.587  65.596  1.00  0.00    -0.119 C  
HETATM    5  C   UNL     1      -9.817   5.225  66.103  1.00  0.00    -0.165 A  
HETATM    6  C   UNL     1      -8.936   7.456  65.978  1.00  0.00    -0.156 A  
HETATM    7  O   UNL     1      -7.144   8.597  64.835  1.00  0.00    -0.078 OA 
HETATM    8  C   UNL     1     -10.844   5.724  66.932  1.00  0.00    -0.337 A  
HETATM    9  C   UNL     1     -10.902   7.074  67.294  1.00  0.00    -0.403 A  
HETATM   10  C   UNL     1      -9.907   7.922  66.846  1.00  0.00    -0.309 A  
ENDROOT
BRANCH   1  11
HETATM   11  C   UNL     1      -9.301   9.773  68.646  1.00  0.00    -0.147 C  
HETATM   12  C   UNL     1     -11.244  10.593  70.095  1.00  0.00    -0.378 A  
HETATM   13  C   UNL     1      -8.106   7.785  69.570  1.00  0.00    -0.126 C  
HETATM   14  C   UNL     1     -10.467   8.147  70.080  1.00  0.00    -0.231 C  
HETATM   15  C   UNL     1     -12.120  11.589  70.545  1.00  0.00    -0.472 A  
HETATM   16  C   UNL     1     -11.973  12.858  70.037  1.00  0.00    -0.309 A  
HETATM   17  N   UNL     1      -9.190   8.737  69.708  1.00  0.00    -0.152 NA 
HETATM   18  O   UNL     1     -12.766  13.914  70.366  1.00  0.00    -0.305 OA 
HETATM   19  C   UNL     1     -10.985  13.182  69.131  1.00  0.00    -0.145 A  
HETATM   20  C   UNL     1     -11.356   9.216  70.719  1.00  0.00    -0.337 C  
HETATM   21  O   UNL     1     -11.058  14.502  68.790  1.00  0.00    -0.232 OA 
HETATM   22  C   UNL     1     -10.082  12.232  68.670  1.00  0.00    -0.144 A  
HETATM   23  C   UNL     1     -10.226  10.902  69.144  1.00  0.00    -0.215 A  
HETATM   24  C   UNL     1     -12.248  14.920  69.483  1.00  0.00    -0.233 C  
BRANCH  22  25
HETATM   25  O   UNL     1      -9.066  12.448  67.779  1.00  0.00    -0.177 OA 
HETATM   26  C   UNL     1      -9.408  12.993  66.509  1.00  0.00    -0.217 C  
ENDBRANCH  22  25
ENDBRANCH   1  11
BRANCH   5  27
HETATM   27  O   UNL     1      -9.682   3.898  65.794  1.00  0.00    -0.180 OA 
HETATM   28  C   UNL     1      -9.249   3.008  66.813  1.00  0.00    -0.142 C  
ENDBRANCH   5  27
BRANCH   2  29
HETATM   29  O   UNL     1      -7.784   5.783  64.801  1.00  0.00    -0.084 OA 
HETATM   30  C   UNL     1      -8.054   5.415  63.454  1.00  0.00    -0.106 C  
ENDBRANCH   2  29
TORSDOF 4
ENDMDL
MODEL       87
REMARK 921   NORMALIZED FREE ENERGY PREDICTED BY IDOCK:   -4.43 KCAL/MOL
REMARK 922        TOTAL FREE ENERGY PREDICTED BY IDOCK:   -6.28 KCAL/MOL
REMARK 923 INTER-LIGAND FREE ENERGY PREDICTED BY IDOCK:   -6.64 KCAL/MOL
REMARK 924 INTRA-LIGAND FREE ENERGY PREDICTED BY IDOCK:    0.37 KCAL/MOL
REMARK 927      BINDING AFFINITY PREDICTED BY RF-SCORE:    0.00 PKD
ROOT
HETATM    1  C   UNL     1      -8.408  13.186  68.118  1.00  0.00    -0.161 C  
HETATM    2  C   UNL     1     -10.914  13.847  65.488  1.00  0.00    -0.302 A  
HETATM    3  O   UNL     1      -9.115  14.354  68.611  1.00  0.00    -0.194 OA 
HETATM    4  C   UNL     1     -10.081  14.793  67.744  1.00  0.00    -0.224 C  
HETATM    5  C   UNL     1     -10.746  12.790  64.567  1.00  0.00    -0.358 A  
HETATM    6  C   UNL     1     -10.114  13.841  66.632  1.00  0.00    -0.277 A  
HETATM    7  O   UNL     1     -10.765  15.780  67.911  1.00  0.00    -0.284 OA 
HETATM    8  C   UNL     1      -9.836  11.754  64.867  1.00  0.00    -0.251 A  
HETATM    9  C   UNL     1      -9.060  11.774  66.031  1.00  0.00    -0.159 A  
HETATM   10  C   UNL     1      -9.176  12.856  66.884  1.00  0.00    -0.234 A  
ENDROOT
BRANCH   1  11
HETATM   11  C   UNL     1      -6.854  13.486  68.002  1.00  0.00    -0.136 C  
HETATM   12  C   UNL     1      -5.816  14.822  69.920  1.00  0.00    -0.123 A  
HETATM   13  C   UNL     1      -5.817  11.243  67.639  1.00  0.00    -0.050 C  
HETATM   14  C   UNL     1      -5.812  12.256  69.861  1.00  0.00    -0.140 C  
HETATM   15  C   UNL     1      -5.507  16.025  70.568  1.00  0.00    -0.144 A  
HETATM   16  C   UNL     1      -5.892  17.200  69.968  1.00  0.00    -0.225 A  
HETATM   17  N   UNL     1      -5.860  12.462  68.423  1.00  0.00    -0.054 NA 
HETATM   18  O   UNL     1      -5.680  18.437  70.494  1.00  0.00    -0.226 OA 
HETATM   19  C   UNL     1      -6.540  17.231  68.751  1.00  0.00    -0.197 A  
HETATM   20  C   UNL     1      -5.317  13.534  70.544  1.00  0.00    -0.131 C  
HETATM   21  O   UNL     1      -6.807  18.518  68.380  1.00  0.00    -0.237 OA 
HETATM   22  C   UNL     1      -6.851  16.065  68.063  1.00  0.00    -0.129 A  
HETATM   23  C   UNL     1      -6.501  14.830  68.669  1.00  0.00    -0.084 A  
HETATM   24  C   UNL     1      -6.365  19.255  69.534  1.00  0.00    -0.304 C  
BRANCH  22  25
HETATM   25  O   UNL     1      -7.484  15.984  66.852  1.00  0.00    -0.216 OA 
HETATM   26  C   UNL     1      -7.851  17.206  66.218  1.00  0.00    -0.316 C  
ENDBRANCH  22  25
ENDBRANCH   1  11
BRANCH   5  27
HETATM   27  O   UNL     1     -11.461  12.844  63.401  1.00  0.00    -0.475 OA 
HETATM   28  C   UNL     1     -12.595  12.000  63.265  1.00  0.00    -0.385 C  
ENDBRANCH   5  27
BRANCH   2  29
HETATM   29  O   UNL     1     -11.727  14.935  65.325  1.00  0.00    -0.335 OA 
HETATM   30  C   UNL     1     -11.250  15.986  64.493  1.00  0.00    -0.297 C  
ENDBRANCH   2  29
TORSDOF 4
ENDMDL
MODEL       88
REMARK 921   NORMALIZED FREE ENERGY PREDICTED BY IDOCK:   -4.40 KCAL/MOL
REMARK 922        TOTAL FREE ENERGY PREDICTED BY IDOCK:   -6.24 KCAL/MOL
REMARK 923 INTER-LIGAND FREE ENERGY PREDICTED BY IDOCK:   -5.82 KCAL/MOL
REMARK 924 INTRA-LIGAND FREE ENERGY PREDICTED BY IDOCK:   -0.42 KCAL/MOL
REMARK 927      BINDING AFFINITY PREDICTED BY RF-SCORE:    0.00 PKD
ROOT
HETATM    1  C   UNL     1     -10.377   8.369  68.832  1.00  0.00    -0.215 C  
HETATM    2  C   UNL     1     -11.735  11.698  69.671  1.00  0.00    -0.350 A  
HETATM    3  O   UNL     1     -10.738   8.243  70.232  1.00  0.00    -0.228 OA 
HETATM    4  C   UNL     1     -11.237   9.406  70.757  1.00  0.00    -0.302 C  
HETATM    5  C   UNL     1     -11.713  12.406  68.450  1.00  0.00    -0.336 A  
HETATM    6  C   UNL     1     -11.310  10.368  69.655  1.00  0.00    -0.333 A  
HETATM    7  O   UNL     1     -11.555   9.563  71.916  1.00  0.00    -0.371 OA 
HETATM    8  C   UNL     1     -11.327  11.733  67.271  1.00  0.00    -0.379 A  
HETATM    9  C   UNL     1     -10.918  10.395  67.291  1.00  0.00    -0.306 A  
HETATM   10  C   UNL     1     -10.868   9.738  68.506  1.00  0.00    -0.227 A  
ENDROOT
BRANCH   1  11
HETATM   11  C   UNL     1      -8.841   8.030  68.622  1.00  0.00    -0.134 C  
HETATM   12  C   UNL     1      -7.924   8.364  66.258  1.00  0.00    -0.099 A  
HETATM   13  C   UNL     1      -7.667   9.368  70.374  1.00  0.00    -0.153 C  
HETATM   14  C   UNL     1      -7.768  10.175  68.070  1.00  0.00    -0.089 C  
HETATM   15  C   UNL     1      -7.699   7.936  64.943  1.00  0.00    -0.112 A  
HETATM   16  C   UNL     1      -8.140   6.683  64.587  1.00  0.00    -0.088 A  
HETATM   17  N   UNL     1      -7.798   9.032  68.969  1.00  0.00    -0.089 NA 
HETATM   18  O   UNL     1      -8.011   6.148  63.342  1.00  0.00    -0.114 OA 
HETATM   19  C   UNL     1      -8.762   5.836  65.481  1.00  0.00    -0.138 A  
HETATM   20  C   UNL     1      -7.364   9.712  66.669  1.00  0.00    -0.090 C  
HETATM   21  O   UNL     1      -9.096   4.659  64.876  1.00  0.00    -0.153 OA 
HETATM   22  C   UNL     1      -8.990   6.211  66.799  1.00  0.00    -0.124 A  
HETATM   23  C   UNL     1      -8.582   7.512  67.194  1.00  0.00    -0.121 A  
HETATM   24  C   UNL     1      -8.722   4.913  63.510  1.00  0.00    -0.107 C  
BRANCH  22  25
HETATM   25  O   UNL     1      -9.591   5.449  67.764  1.00  0.00    -0.119 OA 
HETATM   26  C   UNL     1      -8.813   4.424  68.374  1.00  0.00    -0.105 C  
ENDBRANCH  22  25
ENDBRANCH   1  11
BRANCH   5  27
HETATM   27  O   UNL     1     -12.041  13.735  68.481  1.00  0.00    -0.363 OA 
HETATM   28  C   UNL     1     -11.836  14.509  67.308  1.00  0.00    -0.392 C  
ENDBRANCH   5  27
BRANCH   2  29
HETATM   29  O   UNL     1     -12.052  12.217  70.896  1.00  0.00    -0.303 OA 
HETATM   30  C   UNL     1     -13.280  12.927  71.006  1.00  0.00     0.122 C  
ENDBRANCH   2  29
TORSDOF 4
ENDMDL
MODEL       89
REMARK 921   NORMALIZED FREE ENERGY PREDICTED BY IDOCK:   -4.38 KCAL/MOL
REMARK 922        TOTAL FREE ENERGY PREDICTED BY IDOCK:   -6.22 KCAL/MOL
REMARK 923 INTER-LIGAND FREE ENERGY PREDICTED BY IDOCK:   -5.80 KCAL/MOL
REMARK 924 INTRA-LIGAND FREE ENERGY PREDICTED BY IDOCK:   -0.41 KCAL/MOL
REMARK 927      BINDING AFFINITY PREDICTED BY RF-SCORE:    0.00 PKD
ROOT
HETATM    1  C   UNL     1      -8.590   8.100  68.548  1.00  0.00    -0.130 C  
HETATM    2  C   UNL     1      -8.304   4.716  69.995  1.00  0.00    -0.067 A  
HETATM    3  O   UNL     1      -7.210   7.734  68.281  1.00  0.00    -0.084 OA 
HETATM    4  C   UNL     1      -6.883   6.502  68.783  1.00  0.00    -0.070 C  
HETATM    5  C   UNL     1      -9.608   4.414  70.446  1.00  0.00    -0.196 A  
HETATM    6  C   UNL     1      -8.110   5.940  69.353  1.00  0.00    -0.109 A  
HETATM    7  O   UNL     1      -5.779   6.004  68.733  1.00  0.00    -0.011 OA 
HETATM    8  C   UNL     1     -10.656   5.319  70.176  1.00  0.00    -0.297 A  
HETATM    9  C   UNL     1     -10.426   6.532  69.518  1.00  0.00    -0.265 A  
HETATM   10  C   UNL     1      -9.131   6.851  69.154  1.00  0.00    -0.136 A  
ENDROOT
BRANCH   1  11
HETATM   11  C   UNL     1      -8.655   9.451  69.376  1.00  0.00    -0.148 C  
HETATM   12  C   UNL     1     -10.924  10.630  69.437  1.00  0.00    -0.304 A  
HETATM   13  C   UNL     1      -7.759   8.841  71.626  1.00  0.00    -0.074 C  
HETATM   14  C   UNL     1     -10.169   8.989  71.260  1.00  0.00    -0.314 C  
HETATM   15  C   UNL     1     -11.893  11.483  68.893  1.00  0.00    -0.406 A  
HETATM   16  C   UNL     1     -11.613  12.100  67.697  1.00  0.00    -0.343 A  
HETATM   17  N   UNL     1      -8.841   9.417  70.852  1.00  0.00    -0.251 NA 
HETATM   18  O   UNL     1     -12.468  12.933  67.043  1.00  0.00    -0.273 OA 
HETATM   19  C   UNL     1     -10.413  11.928  67.039  1.00  0.00    -0.224 A  
HETATM   20  C   UNL     1     -11.203  10.017  70.795  1.00  0.00    -0.428 C  
HETATM   21  O   UNL     1     -10.391  12.650  65.880  1.00  0.00    -0.265 OA 
HETATM   22  C   UNL     1      -9.415  11.106  67.550  1.00  0.00    -0.168 A  
HETATM   23  C   UNL     1      -9.683  10.423  68.765  1.00  0.00    -0.184 A  
HETATM   24  C   UNL     1     -11.726  13.183  65.840  1.00  0.00    -0.384 C  
BRANCH  22  25
HETATM   25  O   UNL     1      -8.192  10.871  66.982  1.00  0.00    -0.126 OA 
HETATM   26  C   UNL     1      -7.190  11.871  67.139  1.00  0.00    -0.144 C  
ENDBRANCH  22  25
ENDBRANCH   1  11
BRANCH   5  27
HETATM   27  O   UNL     1      -9.781   3.257  71.158  1.00  0.00    -0.163 OA 
HETATM   28  C   UNL     1     -10.001   3.353  72.558  1.00  0.00    -0.159 C  
ENDBRANCH   5  27
BRANCH   2  29
HETATM   29  O   UNL     1      -7.184   3.960  70.208  1.00  0.00    -0.041 OA 
HETATM   30  C   UNL     1      -6.996   2.824  69.371  1.00  0.00    -0.040 C  
ENDBRANCH   2  29
TORSDOF 4
ENDMDL
MODEL       90
REMARK 921   NORMALIZED FREE ENERGY PREDICTED BY IDOCK:   -4.38 KCAL/MOL
REMARK 922        TOTAL FREE ENERGY PREDICTED BY IDOCK:   -6.21 KCAL/MOL
REMARK 923 INTER-LIGAND FREE ENERGY PREDICTED BY IDOCK:   -5.80 KCAL/MOL
REMARK 924 INTRA-LIGAND FREE ENERGY PREDICTED BY IDOCK:   -0.41 KCAL/MOL
REMARK 927      BINDING AFFINITY PREDICTED BY RF-SCORE:    0.00 PKD
ROOT
HETATM    1  C   UNL     1      -8.161  14.560  68.913  1.00  0.00    -0.124 C  
HETATM    2  C   UNL     1     -11.589  13.333  69.524  1.00  0.00    -0.286 A  
HETATM    3  O   UNL     1      -8.837  15.714  69.477  1.00  0.00    -0.264 OA 
HETATM    4  C   UNL     1     -10.160  15.475  69.743  1.00  0.00    -0.285 C  
HETATM    5  C   UNL     1     -11.543  11.968  69.168  1.00  0.00    -0.312 A  
HETATM    6  C   UNL     1     -10.403  14.064  69.434  1.00  0.00     0.113 A  
HETATM    7  O   UNL     1     -10.942  16.300  70.165  1.00  0.00    -0.344 OA 
HETATM    8  C   UNL     1     -10.308  11.392  68.804  1.00  0.00    -0.222 A  
HETATM    9  C   UNL     1      -9.136  12.153  68.738  1.00  0.00     0.103 A  
HETATM   10  C   UNL     1      -9.210  13.507  69.010  1.00  0.00     0.344 A  
ENDROOT
BRANCH   1  11
HETATM   11  C   UNL     1      -7.551  14.913  67.492  1.00  0.00    -0.195 C  
HETATM   12  C   UNL     1      -6.941  17.366  67.103  1.00  0.00    -0.204 A  
HETATM   13  C   UNL     1      -5.638  13.329  67.229  1.00  0.00     0.265 C  
HETATM   14  C   UNL     1      -5.240  15.634  67.934  1.00  0.00    -0.127 C  
HETATM   15  C   UNL     1      -7.264  18.684  66.753  1.00  0.00    -0.231 A  
HETATM   16  C   UNL     1      -8.562  18.956  66.389  1.00  0.00    -0.294 A  
HETATM   17  N   UNL     1      -6.102  14.703  67.225  1.00  0.00    -0.236 NA 
HETATM   18  O   UNL     1      -9.021  20.191  66.048  1.00  0.00    -0.307 OA 
HETATM   19  C   UNL     1      -9.534  17.979  66.331  1.00  0.00    -0.271 A  
HETATM   20  C   UNL     1      -5.493  17.055  67.424  1.00  0.00    -0.163 C  
HETATM   21  O   UNL     1     -10.729  18.512  65.941  1.00  0.00    -0.404 OA 
HETATM   22  C   UNL     1      -9.256  16.656  66.651  1.00  0.00    -0.253 A  
HETATM   23  C   UNL     1      -7.936  16.344  67.068  1.00  0.00    -0.240 A  
HETATM   24  C   UNL     1     -10.420  19.916  65.878  1.00  0.00    -0.461 C  
BRANCH  22  25
HETATM   25  O   UNL     1     -10.142  15.614  66.623  1.00  0.00    -0.257 OA 
HETATM   26  C   UNL     1     -10.324  14.939  65.382  1.00  0.00    -0.388 C  
ENDBRANCH  22  25
ENDBRANCH   1  11
BRANCH   5  27
HETATM   27  O   UNL     1     -12.723  11.273  69.165  1.00  0.00    -0.205 OA 
HETATM   28  C   UNL     1     -12.983  10.378  70.237  1.00  0.00    -0.032 C  
ENDBRANCH   5  27
BRANCH   2  29
HETATM   29  O   UNL     1     -12.710  14.039  69.864  1.00  0.00    -0.241 OA 
HETATM   30  C   UNL     1     -13.163  13.934  71.209  1.00  0.00    -0.282 C  
ENDBRANCH   2  29
TORSDOF 4
ENDMDL
MODEL       91
REMARK 921   NORMALIZED FREE ENERGY PREDICTED BY IDOCK:   -4.37 KCAL/MOL
REMARK 922        TOTAL FREE ENERGY PREDICTED BY IDOCK:   -6.20 KCAL/MOL
REMARK 923 INTER-LIGAND FREE ENERGY PREDICTED BY IDOCK:   -5.43 KCAL/MOL
REMARK 924 INTRA-LIGAND FREE ENERGY PREDICTED BY IDOCK:   -0.77 KCAL/MOL
REMARK 927      BINDING AFFINITY PREDICTED BY RF-SCORE:    0.00 PKD
ROOT
HETATM    1  C   UNL     1      -8.571  10.223  67.819  1.00  0.00    -0.118 C  
HETATM    2  C   UNL     1      -9.971  13.164  66.080  1.00  0.00    -0.280 A  
HETATM    3  O   UNL     1      -8.109  11.342  68.621  1.00  0.00    -0.137 OA 
HETATM    4  C   UNL     1      -8.497  12.554  68.113  1.00  0.00    -0.180 C  
HETATM    5  C   UNL     1     -10.744  12.619  65.032  1.00  0.00    -0.293 A  
HETATM    6  C   UNL     1      -9.341  12.272  66.950  1.00  0.00    -0.210 A  
HETATM    7  O   UNL     1      -8.187  13.631  68.576  1.00  0.00    -0.150 OA 
HETATM    8  C   UNL     1     -10.897  11.219  64.945  1.00  0.00    -0.299 A  
HETATM    9  C   UNL     1     -10.260  10.356  65.844  1.00  0.00    -0.302 A  
HETATM   10  C   UNL     1      -9.442  10.899  66.816  1.00  0.00    -0.200 A  
ENDROOT
BRANCH   1  11
HETATM   11  C   UNL     1      -7.342   9.357  67.314  1.00  0.00    -0.087 C  
HETATM   12  C   UNL     1      -7.839   7.659  65.467  1.00  0.00    -0.112 A  
HETATM   13  C   UNL     1      -5.602  11.044  66.711  1.00  0.00    -0.087 C  
HETATM   14  C   UNL     1      -6.986  10.029  64.974  1.00  0.00    -0.135 C  
HETATM   15  C   UNL     1      -8.282   6.408  65.020  1.00  0.00    -0.125 A  
HETATM   16  C   UNL     1      -8.686   5.490  65.962  1.00  0.00    -0.141 A  
HETATM   17  N   UNL     1      -6.403   9.908  66.300  1.00  0.00    -0.069 NA 
HETATM   18  O   UNL     1      -9.160   4.248  65.671  1.00  0.00    -0.124 OA 
HETATM   19  C   UNL     1      -8.642   5.752  67.315  1.00  0.00    -0.109 A  
HETATM   20  C   UNL     1      -7.318   8.636  64.432  1.00  0.00    -0.103 C  
HETATM   21  O   UNL     1      -9.095   4.679  68.028  1.00  0.00    -0.110 OA 
HETATM   22  C   UNL     1      -8.193   6.972  67.806  1.00  0.00    -0.114 A  
HETATM   23  C   UNL     1      -7.803   7.958  66.862  1.00  0.00    -0.104 A  
HETATM   24  C   UNL     1      -9.522   3.789  66.982  1.00  0.00    -0.200 C  
BRANCH  22  25
HETATM   25  O   UNL     1      -8.105   7.331  69.124  1.00  0.00    -0.117 OA 
HETATM   26  C   UNL     1      -9.318   7.413  69.866  1.00  0.00    -0.154 C  
ENDBRANCH  22  25
ENDBRANCH   1  11
BRANCH   5  27
HETATM   27  O   UNL     1     -11.285  13.489  64.123  1.00  0.00    -0.379 OA 
HETATM   28  C   UNL     1     -12.379  13.048  63.333  1.00  0.00    -0.394 C  
ENDBRANCH   5  27
BRANCH   2  29
HETATM   29  O   UNL     1      -9.703  14.491  66.276  1.00  0.00    -0.281 OA 
HETATM   30  C   UNL     1     -10.705  15.271  66.918  1.00  0.00    -0.313 C  
ENDBRANCH   2  29
TORSDOF 4
ENDMDL
MODEL       92
REMARK 921   NORMALIZED FREE ENERGY PREDICTED BY IDOCK:   -4.34 KCAL/MOL
REMARK 922        TOTAL FREE ENERGY PREDICTED BY IDOCK:   -6.17 KCAL/MOL
REMARK 923 INTER-LIGAND FREE ENERGY PREDICTED BY IDOCK:   -5.78 KCAL/MOL
REMARK 924 INTRA-LIGAND FREE ENERGY PREDICTED BY IDOCK:   -0.39 KCAL/MOL
REMARK 927      BINDING AFFINITY PREDICTED BY RF-SCORE:    0.00 PKD
ROOT
HETATM    1  C   UNL     1      -7.599   7.174  68.626  1.00  0.00    -0.111 C  
HETATM    2  C   UNL     1      -9.880   7.066  71.527  1.00  0.00    -0.172 A  
HETATM    3  O   UNL     1      -7.392   8.460  69.266  1.00  0.00    -0.068 OA 
HETATM    4  C   UNL     1      -8.190   8.639  70.365  1.00  0.00    -0.120 C  
HETATM    5  C   UNL     1     -10.439   5.770  71.488  1.00  0.00    -0.235 A  
HETATM    6  C   UNL     1      -8.930   7.390  70.556  1.00  0.00    -0.156 A  
HETATM    7  O   UNL     1      -8.236   9.651  71.031  1.00  0.00    -0.270 OA 
HETATM    8  C   UNL     1      -9.976   4.850  70.524  1.00  0.00    -0.311 A  
HETATM    9  C   UNL     1      -9.012   5.205  69.574  1.00  0.00    -0.128 A  
HETATM   10  C   UNL     1      -8.532   6.502  69.573  1.00  0.00    -0.131 A  
ENDROOT
BRANCH   1  11
HETATM   11  C   UNL     1      -8.042   7.371  67.116  1.00  0.00    -0.114 C  
HETATM   12  C   UNL     1      -7.990   9.770  66.228  1.00  0.00    -0.109 A  
HETATM   13  C   UNL     1      -6.608   5.776  65.836  1.00  0.00    -0.044 C  
HETATM   14  C   UNL     1      -6.024   8.145  65.939  1.00  0.00    -0.038 C  
HETATM   15  C   UNL     1      -8.555  11.039  66.053  1.00  0.00    -0.173 A  
HETATM   16  C   UNL     1      -9.810  11.265  66.568  1.00  0.00    -0.208 A  
HETATM   17  N   UNL     1      -7.071   7.139  66.013  1.00  0.00    -0.071 NA 
HETATM   18  O   UNL     1     -10.469  12.454  66.493  1.00  0.00    -0.227 OA 
HETATM   19  C   UNL     1     -10.530  10.284  67.218  1.00  0.00    -0.253 A  
HETATM   20  C   UNL     1      -6.643   9.501  65.588  1.00  0.00    -0.072 C  
HETATM   21  O   UNL     1     -11.740  10.766  67.628  1.00  0.00    -0.538 OA 
HETATM   22  C   UNL     1     -10.018   9.005  67.399  1.00  0.00    -0.209 A  
HETATM   23  C   UNL     1      -8.710   8.746  66.913  1.00  0.00    -0.136 A  
HETATM   24  C   UNL     1     -11.641  12.156  67.268  1.00  0.00    -0.334 C  
BRANCH  22  25
HETATM   25  O   UNL     1     -10.648   7.962  68.022  1.00  0.00    -0.200 OA 
HETATM   26  C   UNL     1     -11.237   6.961  67.197  1.00  0.00    -0.147 C  
ENDBRANCH  22  25
ENDBRANCH   1  11
BRANCH   5  27
HETATM   27  O   UNL     1     -11.438   5.483  72.379  1.00  0.00    -0.267 OA 
HETATM   28  C   UNL     1     -11.142   4.623  73.470  1.00  0.00    -0.331 C  
ENDBRANCH   5  27
BRANCH   2  29
HETATM   29  O   UNL     1     -10.247   8.075  72.374  1.00  0.00    -0.232 OA 
HETATM   30  C   UNL     1     -11.432   8.795  72.057  1.00  0.00    -0.371 C  
ENDBRANCH   2  29
TORSDOF 4
ENDMDL
MODEL       93
REMARK 921   NORMALIZED FREE ENERGY PREDICTED BY IDOCK:   -4.34 KCAL/MOL
REMARK 922        TOTAL FREE ENERGY PREDICTED BY IDOCK:   -6.16 KCAL/MOL
REMARK 923 INTER-LIGAND FREE ENERGY PREDICTED BY IDOCK:   -5.59 KCAL/MOL
REMARK 924 INTRA-LIGAND FREE ENERGY PREDICTED BY IDOCK:   -0.57 KCAL/MOL
REMARK 927      BINDING AFFINITY PREDICTED BY RF-SCORE:    0.00 PKD
ROOT
HETATM    1  C   UNL     1     -10.157   8.878  67.517  1.00  0.00    -0.227 C  
HETATM    2  C   UNL     1     -11.770  10.438  70.449  1.00  0.00    -0.331 A  
HETATM    3  O   UNL     1     -10.238   7.791  68.476  1.00  0.00    -0.195 OA 
HETATM    4  C   UNL     1     -10.783   8.179  69.672  1.00  0.00    -0.195 C  
HETATM    5  C   UNL     1     -12.064  11.754  70.031  1.00  0.00    -0.310 A  
HETATM    6  C   UNL     1     -11.182   9.580  69.518  1.00  0.00    -0.105 A  
HETATM    7  O   UNL     1     -10.905   7.464  70.643  1.00  0.00    -0.233 OA 
HETATM    8  C   UNL     1     -11.812  12.124  68.693  1.00  0.00    -0.358 A  
HETATM    9  C   UNL     1     -11.232  11.233  67.783  1.00  0.00    -0.354 A  
HETATM   10  C   UNL     1     -10.876   9.973  68.227  1.00  0.00    -0.286 A  
ENDROOT
BRANCH   1  11
HETATM   11  C   UNL     1      -8.654   9.108  67.065  1.00  0.00    -0.123 C  
HETATM   12  C   UNL     1      -6.932   7.456  67.988  1.00  0.00    -0.075 A  
HETATM   13  C   UNL     1      -8.762   9.187  64.572  1.00  0.00    -0.160 C  
HETATM   14  C   UNL     1      -8.071   7.139  65.710  1.00  0.00    -0.130 C  
HETATM   15  C   UNL     1      -6.055   7.007  68.983  1.00  0.00    -0.027 A  
HETATM   16  C   UNL     1      -5.942   7.754  70.132  1.00  0.00    -0.023 A  
HETATM   17  N   UNL     1      -8.177   8.588  65.755  1.00  0.00    -0.118 NA 
HETATM   18  O   UNL     1      -5.149   7.426  71.188  1.00  0.00    -0.026 OA 
HETATM   19  C   UNL     1      -6.635   8.932  70.318  1.00  0.00    -0.042 A  
HETATM   20  C   UNL     1      -6.992   6.674  66.691  1.00  0.00    -0.067 C  
HETATM   21  O   UNL     1      -6.344   9.474  71.537  1.00  0.00    -0.240 OA 
HETATM   22  C   UNL     1      -7.503   9.426  69.352  1.00  0.00    -0.080 A  
HETATM   23  C   UNL     1      -7.673   8.662  68.168  1.00  0.00    -0.102 A  
HETATM   24  C   UNL     1      -5.500   8.463  72.116  1.00  0.00    -0.041 C  
BRANCH  22  25
HETATM   25  O   UNL     1      -8.232  10.582  69.434  1.00  0.00    -0.158 OA 
HETATM   26  C   UNL     1      -7.629  11.777  68.948  1.00  0.00    -0.063 C  
ENDBRANCH  22  25
ENDBRANCH   1  11
BRANCH   5  27
HETATM   27  O   UNL     1     -12.554  12.623  70.969  1.00  0.00    -0.361 OA 
HETATM   28  C   UNL     1     -12.125  13.976  70.926  1.00  0.00    -0.329 C  
ENDBRANCH   5  27
BRANCH   2  29
HETATM   29  O   UNL     1     -11.925   9.942  71.714  1.00  0.00    -0.381 OA 
HETATM   30  C   UNL     1     -13.239   9.568  72.112  1.00  0.00    -0.451 C  
ENDBRANCH   2  29
TORSDOF 4
ENDMDL
MODEL       94
REMARK 921   NORMALIZED FREE ENERGY PREDICTED BY IDOCK:   -4.31 KCAL/MOL
REMARK 922        TOTAL FREE ENERGY PREDICTED BY IDOCK:   -6.12 KCAL/MOL
REMARK 923 INTER-LIGAND FREE ENERGY PREDICTED BY IDOCK:   -5.51 KCAL/MOL
REMARK 924 INTRA-LIGAND FREE ENERGY PREDICTED BY IDOCK:   -0.61 KCAL/MOL
REMARK 927      BINDING AFFINITY PREDICTED BY RF-SCORE:    0.00 PKD
ROOT
HETATM    1  C   UNL     1      -9.131   6.018  68.549  1.00  0.00    -0.112 C  
HETATM    2  C   UNL     1     -10.003   7.842  71.639  1.00  0.00    -0.174 A  
HETATM    3  O   UNL     1      -7.845   6.465  69.052  1.00  0.00    -0.106 OA 
HETATM    4  C   UNL     1      -7.954   7.209  70.198  1.00  0.00    -0.113 C  
HETATM    5  C   UNL     1     -11.399   7.675  71.765  1.00  0.00    -0.255 A  
HETATM    6  C   UNL     1      -9.372   7.215  70.564  1.00  0.00    -0.158 A  
HETATM    7  O   UNL     1      -7.025   7.736  70.773  1.00  0.00    -0.045 OA 
HETATM    8  C   UNL     1     -12.078   6.843  70.850  1.00  0.00    -0.424 A  
HETATM    9  C   UNL     1     -11.410   6.220  69.790  1.00  0.00    -0.506 A  
HETATM   10  C   UNL     1     -10.057   6.457  69.632  1.00  0.00    -0.209 A  
ENDROOT
BRANCH   1  11
HETATM   11  C   UNL     1      -9.364   6.549  67.073  1.00  0.00    -0.139 C  
HETATM   12  C   UNL     1      -7.327   7.559  65.902  1.00  0.00    -0.074 A  
HETATM   13  C   UNL     1     -10.379   4.610  65.870  1.00  0.00    -0.283 C  
HETATM   14  C   UNL     1      -7.997   5.096  65.633  1.00  0.00    -0.108 C  
HETATM   15  C   UNL     1      -6.454   8.620  65.627  1.00  0.00    -0.056 A  
HETATM   16  C   UNL     1      -6.703   9.833  66.223  1.00  0.00    -0.087 A  
HETATM   17  N   UNL     1      -9.327   5.607  65.922  1.00  0.00    -0.140 NA 
HETATM   18  O   UNL     1      -5.928  10.941  66.065  1.00  0.00    -0.127 OA 
HETATM   19  C   UNL     1      -7.788  10.043  67.048  1.00  0.00    -0.102 A  
HETATM   20  C   UNL     1      -7.095   6.247  65.179  1.00  0.00    -0.061 C  
HETATM   21  O   UNL     1      -7.805  11.329  67.505  1.00  0.00    -0.115 OA 
HETATM   22  C   UNL     1      -8.691   9.026  67.335  1.00  0.00    -0.119 A  
HETATM   23  C   UNL     1      -8.445   7.748  66.767  1.00  0.00    -0.126 A  
HETATM   24  C   UNL     1      -6.573  11.847  66.973  1.00  0.00    -0.128 C  
BRANCH  22  25
HETATM   25  O   UNL     1      -9.797   9.128  68.134  1.00  0.00    -0.154 OA 
HETATM   26  C   UNL     1     -10.905   9.869  67.632  1.00  0.00    -0.257 C  
ENDBRANCH  22  25
ENDBRANCH   1  11
BRANCH   5  27
HETATM   27  O   UNL     1     -12.033   8.365  72.764  1.00  0.00    -0.367 OA 
HETATM   28  C   UNL     1     -13.192   9.116  72.435  1.00  0.00    -0.444 C  
ENDBRANCH   5  27
BRANCH   2  29
HETATM   29  O   UNL     1      -9.214   8.638  72.423  1.00  0.00    -0.275 OA 
HETATM   30  C   UNL     1      -8.780   8.102  73.668  1.00  0.00    -0.241 C  
ENDBRANCH   2  29
TORSDOF 4
ENDMDL
MODEL       95
REMARK 921   NORMALIZED FREE ENERGY PREDICTED BY IDOCK:   -4.28 KCAL/MOL
REMARK 922        TOTAL FREE ENERGY PREDICTED BY IDOCK:   -6.09 KCAL/MOL
REMARK 923 INTER-LIGAND FREE ENERGY PREDICTED BY IDOCK:   -5.39 KCAL/MOL
REMARK 924 INTRA-LIGAND FREE ENERGY PREDICTED BY IDOCK:   -0.70 KCAL/MOL
REMARK 927      BINDING AFFINITY PREDICTED BY RF-SCORE:    0.00 PKD
ROOT
HETATM    1  C   UNL     1      -7.651  10.168  67.370  1.00  0.00    -0.094 C  
HETATM    2  C   UNL     1      -7.527   6.488  67.097  1.00  0.00    -0.088 A  
HETATM    3  O   UNL     1      -6.389   9.825  67.999  1.00  0.00    -0.055 OA 
HETATM    4  C   UNL     1      -6.165   8.473  68.036  1.00  0.00    -0.052 C  
HETATM    5  C   UNL     1      -8.686   6.149  66.365  1.00  0.00    -0.138 A  
HETATM    6  C   UNL     1      -7.280   7.843  67.325  1.00  0.00    -0.090 A  
HETATM    7  O   UNL     1      -5.208   7.943  68.558  1.00  0.00    -0.025 OA 
HETATM    8  C   UNL     1      -9.500   7.180  65.849  1.00  0.00     0.134 A  
HETATM    9  C   UNL     1      -9.213   8.529  66.087  1.00  0.00    -0.269 A  
HETATM   10  C   UNL     1      -8.121   8.843  66.873  1.00  0.00    -0.109 A  
ENDROOT
BRANCH   1  11
HETATM   11  C   UNL     1      -8.568  10.984  68.375  1.00  0.00    -0.149 C  
HETATM   12  C   UNL     1     -10.877  11.657  67.504  1.00  0.00    -0.287 A  
HETATM   13  C   UNL     1      -8.623   9.581  70.440  1.00  0.00    -0.206 C  
HETATM   14  C   UNL     1     -10.480   9.512  68.856  1.00  0.00    -0.216 C  
HETATM   15  C   UNL     1     -11.735  12.506  66.793  1.00  0.00    -0.453 A  
HETATM   16  C   UNL     1     -11.194  13.624  66.203  1.00  0.00    -0.302 A  
HETATM   17  N   UNL     1      -9.369  10.271  69.406  1.00  0.00    -0.211 NA 
HETATM   18  O   UNL     1     -11.903  14.522  65.464  1.00  0.00    -0.351 OA 
HETATM   19  C   UNL     1      -9.857  13.945  66.311  1.00  0.00    -0.306 A  
HETATM   20  C   UNL     1     -11.491  10.471  68.222  1.00  0.00    -0.272 C  
HETATM   21  O   UNL     1      -9.582  15.099  65.637  1.00  0.00    -0.334 OA 
HETATM   22  C   UNL     1      -8.972  13.142  67.021  1.00  0.00    -0.228 A  
HETATM   23  C   UNL     1      -9.487  11.959  67.613  1.00  0.00    -0.182 A  
HETATM   24  C   UNL     1     -10.849  15.388  65.018  1.00  0.00    -0.444 C  
BRANCH  22  25
HETATM   25  O   UNL     1      -7.634  13.370  67.193  1.00  0.00    -0.102 OA 
HETATM   26  C   UNL     1      -7.253  14.411  68.087  1.00  0.00    -0.128 C  
ENDBRANCH  22  25
ENDBRANCH   1  11
BRANCH   5  27
HETATM   27  O   UNL     1      -8.980   4.820  66.221  1.00  0.00    -0.116 OA 
HETATM   28  C   UNL     1     -10.319   4.452  65.926  1.00  0.00    -0.204 C  
ENDBRANCH   5  27
BRANCH   2  29
HETATM   29  O   UNL     1      -6.662   5.607  67.687  1.00  0.00    -0.055 OA 
HETATM   30  C   UNL     1      -7.069   5.020  68.918  1.00  0.00    -0.053 C  
ENDBRANCH   2  29
TORSDOF 4
ENDMDL
MODEL       96
REMARK 921   NORMALIZED FREE ENERGY PREDICTED BY IDOCK:   -4.28 KCAL/MOL
REMARK 922        TOTAL FREE ENERGY PREDICTED BY IDOCK:   -6.09 KCAL/MOL
REMARK 923 INTER-LIGAND FREE ENERGY PREDICTED BY IDOCK:   -7.06 KCAL/MOL
REMARK 924 INTRA-LIGAND FREE ENERGY PREDICTED BY IDOCK:    0.98 KCAL/MOL
REMARK 927      BINDING AFFINITY PREDICTED BY RF-SCORE:    0.00 PKD
ROOT
HETATM    1  C   UNL     1      -8.364  14.873  67.872  1.00  0.00    -0.146 C  
HETATM    2  C   UNL     1     -10.351  13.274  65.203  1.00  0.00    -0.323 A  
HETATM    3  O   UNL     1      -8.979  15.997  67.189  1.00  0.00    -0.191 OA 
HETATM    4  C   UNL     1      -9.744  15.612  66.119  1.00  0.00    -0.318 C  
HETATM    5  C   UNL     1     -10.188  11.888  65.423  1.00  0.00    -0.263 A  
HETATM    6  C   UNL     1      -9.736  14.148  66.100  1.00  0.00    -0.310 A  
HETATM    7  O   UNL     1     -10.312  16.372  65.365  1.00  0.00    -0.535 OA 
HETATM    8  C   UNL     1      -9.473  11.452  66.558  1.00  0.00    -0.218 A  
HETATM    9  C   UNL     1      -8.879  12.358  67.444  1.00  0.00    -0.188 A  
HETATM   10  C   UNL     1      -8.979  13.710  67.172  1.00  0.00    -0.235 A  
ENDROOT
BRANCH   1  11
HETATM   11  C   UNL     1      -6.785  15.024  67.876  1.00  0.00    -0.156 C  
HETATM   12  C   UNL     1      -5.768  16.200  69.907  1.00  0.00    -0.172 A  
HETATM   13  C   UNL     1      -5.940  12.702  67.510  1.00  0.00    -0.151 C  
HETATM   14  C   UNL     1      -6.003  13.648  69.761  1.00  0.00    -0.121 C  
HETATM   15  C   UNL     1      -5.395  17.349  70.616  1.00  0.00    -0.243 A  
HETATM   16  C   UNL     1      -5.623  18.572  70.031  1.00  0.00    -0.238 A  
HETATM   17  N   UNL     1      -5.925  13.897  68.330  1.00  0.00    -0.091 NA 
HETATM   18  O   UNL     1      -5.333  19.768  70.612  1.00  0.00    -0.211 OA 
HETATM   19  C   UNL     1      -6.173  18.699  68.772  1.00  0.00    -0.221 A  
HETATM   20  C   UNL     1      -5.441  14.853  70.520  1.00  0.00    -0.136 C  
HETATM   21  O   UNL     1      -6.290  20.015  68.428  1.00  0.00    -0.254 OA 
HETATM   22  C   UNL     1      -6.542  17.587  68.025  1.00  0.00    -0.172 A  
HETATM   23  C   UNL     1      -6.356  16.308  68.612  1.00  0.00    -0.124 A  
HETATM   24  C   UNL     1      -5.866  20.674  69.635  1.00  0.00    -0.330 C  
BRANCH  22  25
HETATM   25  O   UNL     1      -7.089  17.602  66.771  1.00  0.00    -0.173 OA 
HETATM   26  C   UNL     1      -6.372  18.284  65.747  1.00  0.00    -0.263 C  
ENDBRANCH  22  25
ENDBRANCH   1  11
BRANCH   5  27
HETATM   27  O   UNL     1     -10.712  11.032  64.492  1.00  0.00    -0.341 OA 
HETATM   28  C   UNL     1      -9.906  10.665  63.382  1.00  0.00    -0.321 C  
ENDBRANCH   5  27
BRANCH   2  29
HETATM   29  O   UNL     1     -10.985  13.849  64.136  1.00  0.00    -0.282 OA 
HETATM   30  C   UNL     1     -12.406  13.918  64.181  1.00  0.00    -0.335 C  
ENDBRANCH   2  29
TORSDOF 4
ENDMDL
MODEL       97
REMARK 921   NORMALIZED FREE ENERGY PREDICTED BY IDOCK:   -4.27 KCAL/MOL
REMARK 922        TOTAL FREE ENERGY PREDICTED BY IDOCK:   -6.08 KCAL/MOL
REMARK 923 INTER-LIGAND FREE ENERGY PREDICTED BY IDOCK:   -6.10 KCAL/MOL
REMARK 924 INTRA-LIGAND FREE ENERGY PREDICTED BY IDOCK:    0.03 KCAL/MOL
REMARK 927      BINDING AFFINITY PREDICTED BY RF-SCORE:    0.00 PKD
ROOT
HETATM    1  C   UNL     1      -8.632  14.607  67.154  1.00  0.00    -0.223 C  
HETATM    2  C   UNL     1      -8.685  18.163  68.146  1.00  0.00    -0.277 A  
HETATM    3  O   UNL     1     -10.024  14.843  67.492  1.00  0.00    -0.219 OA 
HETATM    4  C   UNL     1     -10.254  16.121  67.931  1.00  0.00    -0.261 C  
HETATM    5  C   UNL     1      -7.365  18.611  67.923  1.00  0.00    -0.236 A  
HETATM    6  C   UNL     1      -8.983  16.840  67.816  1.00  0.00    -0.216 A  
HETATM    7  O   UNL     1     -11.323  16.539  68.321  1.00  0.00    -0.331 OA 
HETATM    8  C   UNL     1      -6.433  17.736  67.326  1.00  0.00    -0.185 A  
HETATM    9  C   UNL     1      -6.771  16.419  66.995  1.00  0.00    -0.239 A  
HETATM   10  C   UNL     1      -8.044  15.969  67.294  1.00  0.00    -0.205 A  
ENDROOT
BRANCH   1  11
HETATM   11  C   UNL     1      -8.044  13.420  68.025  1.00  0.00    -0.160 C  
HETATM   12  C   UNL     1      -6.364  11.886  66.855  1.00  0.00    -0.107 A  
HETATM   13  C   UNL     1      -7.153  14.537  70.074  1.00  0.00     0.047 C  
HETATM   14  C   UNL     1      -5.643  13.909  68.259  1.00  0.00    -0.111 C  
HETATM   15  C   UNL     1      -6.043  10.798  66.032  1.00  0.00    -0.133 A  
HETATM   16  C   UNL     1      -7.075  10.054  65.511  1.00  0.00    -0.132 A  
HETATM   17  N   UNL     1      -6.900  13.660  68.947  1.00  0.00    -0.107 NA 
HETATM   18  O   UNL     1      -6.911   8.987  64.681  1.00  0.00    -0.083 OA 
HETATM   19  C   UNL     1      -8.398  10.325  65.793  1.00  0.00    -0.152 A  
HETATM   20  C   UNL     1      -5.223  12.652  67.493  1.00  0.00    -0.091 C  
HETATM   21  O   UNL     1      -9.217   9.439  65.154  1.00  0.00    -0.229 OA 
HETATM   22  C   UNL     1      -8.764  11.382  66.617  1.00  0.00    -0.178 A  
HETATM   23  C   UNL     1      -7.727  12.195  67.144  1.00  0.00    -0.151 A  
HETATM   24  C   UNL     1      -8.278   8.680  64.372  1.00  0.00    -0.162 C  
BRANCH  22  25
HETATM   25  O   UNL     1     -10.041  11.733  66.963  1.00  0.00    -0.206 OA 
HETATM   26  C   UNL     1     -10.926  12.112  65.914  1.00  0.00    -0.292 C  
ENDBRANCH  22  25
ENDBRANCH   1  11
BRANCH   5  27
HETATM   27  O   UNL     1      -7.047  19.878  68.333  1.00  0.00    -0.289 OA 
HETATM   28  C   UNL     1      -6.739  20.851  67.345  1.00  0.00    -0.367 C  
ENDBRANCH   5  27
BRANCH   2  29
HETATM   29  O   UNL     1      -9.687  18.878  68.743  1.00  0.00    -0.375 OA 
HETATM   30  C   UNL     1     -10.386  19.819  67.937  1.00  0.00    -0.433 C  
ENDBRANCH   2  29
TORSDOF 4
ENDMDL
MODEL       98
REMARK 921   NORMALIZED FREE ENERGY PREDICTED BY IDOCK:   -4.25 KCAL/MOL
REMARK 922        TOTAL FREE ENERGY PREDICTED BY IDOCK:   -6.06 KCAL/MOL
REMARK 923 INTER-LIGAND FREE ENERGY PREDICTED BY IDOCK:   -6.10 KCAL/MOL
REMARK 924 INTRA-LIGAND FREE ENERGY PREDICTED BY IDOCK:    0.04 KCAL/MOL
REMARK 927      BINDING AFFINITY PREDICTED BY RF-SCORE:    0.00 PKD
ROOT
HETATM    1  C   UNL     1     -10.139   9.053  67.857  1.00  0.00    -0.197 C  
HETATM    2  C   UNL     1     -11.365  12.259  66.497  1.00  0.00    -0.351 A  
HETATM    3  O   UNL     1     -10.839   9.651  68.980  1.00  0.00    -0.223 OA 
HETATM    4  C   UNL     1     -11.346  10.890  68.689  1.00  0.00    -0.295 C  
HETATM    5  C   UNL     1     -10.985  12.234  65.138  1.00  0.00    -0.303 A  
HETATM    6  C   UNL     1     -11.066  11.138  67.273  1.00  0.00    -0.366 A  
HETATM    7  O   UNL     1     -11.922  11.607  69.480  1.00  0.00    -0.307 OA 
HETATM    8  C   UNL     1     -10.385  11.070  64.612  1.00  0.00    -0.410 A  
HETATM    9  C   UNL     1     -10.112   9.959  65.418  1.00  0.00    -0.270 A  
HETATM   10  C   UNL     1     -10.415  10.028  66.765  1.00  0.00    -0.267 A  
ENDROOT
BRANCH   1  11
HETATM   11  C   UNL     1      -8.635   8.736  68.246  1.00  0.00    -0.134 C  
HETATM   12  C   UNL     1      -7.717   6.481  67.461  1.00  0.00    -0.106 A  
HETATM   13  C   UNL     1      -7.351  10.709  67.413  1.00  0.00    -0.093 C  
HETATM   14  C   UNL     1      -7.414   8.643  66.112  1.00  0.00    -0.086 C  
HETATM   15  C   UNL     1      -7.537   5.099  67.603  1.00  0.00    -0.087 A  
HETATM   16  C   UNL     1      -8.070   4.487  68.712  1.00  0.00    -0.081 A  
HETATM   17  N   UNL     1      -7.518   9.269  67.420  1.00  0.00    -0.087 NA 
HETATM   18  O   UNL     1      -7.992   3.152  68.966  1.00  0.00    -0.053 OA 
HETATM   19  C   UNL     1      -8.744   5.188  69.691  1.00  0.00    -0.092 A  
HETATM   20  C   UNL     1      -7.057   7.164  66.280  1.00  0.00    -0.074 C  
HETATM   21  O   UNL     1      -9.168   4.347  70.680  1.00  0.00    -0.112 OA 
HETATM   22  C   UNL     1      -8.932   6.562  69.603  1.00  0.00    -0.141 A  
HETATM   23  C   UNL     1      -8.427   7.223  68.452  1.00  0.00    -0.125 A  
HETATM   24  C   UNL     1      -8.790   3.062  70.156  1.00  0.00    -0.085 C  
BRANCH  22  25
HETATM   25  O   UNL     1      -9.578   7.350  70.516  1.00  0.00    -0.172 OA 
HETATM   26  C   UNL     1      -8.896   7.644  71.732  1.00  0.00    -0.116 C  
ENDBRANCH  22  25
ENDBRANCH   1  11
BRANCH   5  27
HETATM   27  O   UNL     1     -11.193  13.368  64.399  1.00  0.00    -0.358 OA 
HETATM   28  C   UNL     1     -12.144  13.323  63.345  1.00  0.00    -0.439 C  
ENDBRANCH   5  27
BRANCH   2  29
HETATM   29  O   UNL     1     -11.922  13.320  67.157  1.00  0.00    -0.368 OA 
HETATM   30  C   UNL     1     -11.066  14.409  67.482  1.00  0.00    -0.302 C  
ENDBRANCH   2  29
TORSDOF 4
ENDMDL
MODEL       99
REMARK 921   NORMALIZED FREE ENERGY PREDICTED BY IDOCK:   -4.25 KCAL/MOL
REMARK 922        TOTAL FREE ENERGY PREDICTED BY IDOCK:   -6.05 KCAL/MOL
REMARK 923 INTER-LIGAND FREE ENERGY PREDICTED BY IDOCK:   -5.47 KCAL/MOL
REMARK 924 INTRA-LIGAND FREE ENERGY PREDICTED BY IDOCK:   -0.57 KCAL/MOL
REMARK 927      BINDING AFFINITY PREDICTED BY RF-SCORE:    0.00 PKD
ROOT
HETATM    1  C   UNL     1     -10.210   8.977  68.216  1.00  0.00    -0.204 C  
HETATM    2  C   UNL     1      -9.024  12.472  68.100  1.00  0.00    -0.199 A  
HETATM    3  O   UNL     1     -11.245   9.660  67.460  1.00  0.00    -0.109 OA 
HETATM    4  C   UNL     1     -11.009  11.004  67.334  1.00  0.00    -0.291 C  
HETATM    5  C   UNL     1      -7.765  12.438  68.738  1.00  0.00    -0.007 A  
HETATM    6  C   UNL     1      -9.708  11.263  67.955  1.00  0.00    -0.185 A  
HETATM    7  O   UNL     1     -11.756  11.791  66.794  1.00  0.00    -0.555 OA 
HETATM    8  C   UNL     1      -7.230  11.196  69.140  1.00  0.00    -0.123 A  
HETATM    9  C   UNL     1      -7.939  10.002  68.967  1.00  0.00    -0.108 A  
HETATM   10  C   UNL     1      -9.205  10.059  68.414  1.00  0.00    -0.131 A  
ENDROOT
BRANCH   1  11
HETATM   11  C   UNL     1     -10.833   8.261  69.486  1.00  0.00    -0.116 C  
HETATM   12  C   UNL     1      -9.215   6.889  70.916  1.00  0.00    -0.157 A  
HETATM   13  C   UNL     1     -11.991  10.094  70.725  1.00  0.00    -0.348 C  
HETATM   14  C   UNL     1      -9.777   9.340  71.429  1.00  0.00    -0.199 C  
HETATM   15  C   UNL     1      -8.504   5.717  71.205  1.00  0.00    -0.128 A  
HETATM   16  C   UNL     1      -8.674   4.636  70.373  1.00  0.00    -0.089 A  
HETATM   17  N   UNL     1     -11.023   9.015  70.755  1.00  0.00    -0.241 NA 
HETATM   18  O   UNL     1      -8.031   3.445  70.520  1.00  0.00    -0.046 OA 
HETATM   19  C   UNL     1      -9.532   4.661  69.294  1.00  0.00    -0.162 A  
HETATM   20  C   UNL     1      -9.088   8.050  71.882  1.00  0.00    -0.210 C  
HETATM   21  O   UNL     1      -9.515   3.464  68.637  1.00  0.00    -0.170 OA 
HETATM   22  C   UNL     1     -10.270   5.795  68.978  1.00  0.00    -0.217 A  
HETATM   23  C   UNL     1     -10.094   6.943  69.793  1.00  0.00    -0.196 A  
HETATM   24  C   UNL     1      -8.487   2.752  69.348  1.00  0.00    -0.062 C  
BRANCH  22  25
HETATM   25  O   UNL     1     -11.149   5.924  67.937  1.00  0.00    -0.250 OA 
HETATM   26  C   UNL     1     -10.623   5.839  66.616  1.00  0.00    -0.280 C  
ENDBRANCH  22  25
ENDBRANCH   1  11
BRANCH   5  27
HETATM   27  O   UNL     1      -7.136  13.633  68.964  1.00  0.00    -0.110 OA 
HETATM   28  C   UNL     1      -6.231  13.724  70.054  1.00  0.00    -0.120 C  
ENDBRANCH   5  27
BRANCH   2  29
HETATM   29  O   UNL     1      -9.687  13.594  67.685  1.00  0.00    -0.218 OA 
HETATM   30  C   UNL     1     -10.360  14.358  68.679  1.00  0.00    -0.245 C  
ENDBRANCH   2  29
TORSDOF 4
ENDMDL
MODEL      100
REMARK 921   NORMALIZED FREE ENERGY PREDICTED BY IDOCK:   -4.23 KCAL/MOL
REMARK 922        TOTAL FREE ENERGY PREDICTED BY IDOCK:   -6.03 KCAL/MOL
REMARK 923 INTER-LIGAND FREE ENERGY PREDICTED BY IDOCK:   -5.48 KCAL/MOL
REMARK 924 INTRA-LIGAND FREE ENERGY PREDICTED BY IDOCK:   -0.55 KCAL/MOL
REMARK 927      BINDING AFFINITY PREDICTED BY RF-SCORE:    0.00 PKD
ROOT
HETATM    1  C   UNL     1      -9.990   9.068  70.842  1.00  0.00    -0.260 C  
HETATM    2  C   UNL     1      -9.468  11.697  68.303  1.00  0.00    -0.191 A  
HETATM    3  O   UNL     1      -8.549   9.096  70.676  1.00  0.00    -0.189 OA 
HETATM    4  C   UNL     1      -8.142   9.998  69.728  1.00  0.00    -0.177 C  
HETATM    5  C   UNL     1     -10.760  12.212  68.058  1.00  0.00    -0.213 A  
HETATM    6  C   UNL     1      -9.344  10.697  69.269  1.00  0.00    -0.136 A  
HETATM    7  O   UNL     1      -6.993  10.163  69.376  1.00  0.00    -0.058 OA 
HETATM    8  C   UNL     1     -11.844  11.746  68.830  1.00  0.00    -0.380 A  
HETATM    9  C   UNL     1     -11.680  10.750  69.799  1.00  0.00    -0.399 A  
HETATM   10  C   UNL     1     -10.425  10.198  69.973  1.00  0.00    -0.325 A  
ENDROOT
BRANCH   1  11
HETATM   11  C   UNL     1     -10.554   7.614  70.555  1.00  0.00    -0.226 C  
HETATM   12  C   UNL     1      -8.868   5.697  70.716  1.00  0.00    -0.146 A  
HETATM   13  C   UNL     1     -12.506   7.391  72.098  1.00  0.00    -0.177 C  
HETATM   14  C   UNL     1     -10.351   6.402  72.687  1.00  0.00    -0.195 C  
HETATM   15  C   UNL     1      -7.859   4.885  70.181  1.00  0.00    -0.066 A  
HETATM   16  C   UNL     1      -7.468   5.111  68.882  1.00  0.00    -0.069 A  
HETATM   17  N   UNL     1     -11.244   6.851  71.631  1.00  0.00    -0.240 NA 
HETATM   18  O   UNL     1      -6.487   4.417  68.243  1.00  0.00    -0.036 OA 
HETATM   19  C   UNL     1      -8.050   6.081  68.092  1.00  0.00    -0.110 A  
HETATM   20  C   UNL     1      -9.353   5.391  72.118  1.00  0.00    -0.161 C  
HETATM   21  O   UNL     1      -7.481   6.096  66.851  1.00  0.00    -0.084 OA 
HETATM   22  C   UNL     1      -9.066   6.897  68.574  1.00  0.00    -0.127 A  
HETATM   23  C   UNL     1      -9.471   6.718  69.922  1.00  0.00    -0.156 A  
HETATM   24  C   UNL     1      -6.428   5.127  66.997  1.00  0.00    -0.045 C  
BRANCH  22  25
HETATM   25  O   UNL     1      -9.711   7.882  67.876  1.00  0.00    -0.147 OA 
HETATM   26  C   UNL     1     -10.726   7.482  66.960  1.00  0.00    -0.297 C  
ENDBRANCH  22  25
ENDBRANCH   1  11
BRANCH   5  27
HETATM   27  O   UNL     1     -10.897  13.125  67.047  1.00  0.00    -0.260 OA 
HETATM   28  C   UNL     1     -11.271  14.453  67.382  1.00  0.00    -0.325 C  
ENDBRANCH   5  27
BRANCH   2  29
HETATM   29  O   UNL     1      -8.329  12.022  67.619  1.00  0.00    -0.142 OA 
HETATM   30  C   UNL     1      -7.654  13.214  68.005  1.00  0.00    -0.144 C  
ENDBRANCH   2  29
TORSDOF 4
ENDMDL
MODEL      101
REMARK 921   NORMALIZED FREE ENERGY PREDICTED BY IDOCK:   -4.20 KCAL/MOL
REMARK 922        TOTAL FREE ENERGY PREDICTED BY IDOCK:   -5.99 KCAL/MOL
REMARK 923 INTER-LIGAND FREE ENERGY PREDICTED BY IDOCK:   -5.73 KCAL/MOL
REMARK 924 INTRA-LIGAND FREE ENERGY PREDICTED BY IDOCK:   -0.26 KCAL/MOL
REMARK 927      BINDING AFFINITY PREDICTED BY RF-SCORE:    0.00 PKD
ROOT
HETATM    1  C   UNL     1      -8.515  14.089  68.780  1.00  0.00    -0.038 C  
HETATM    2  C   UNL     1     -10.799  11.205  69.086  1.00  0.00    -0.238 A  
HETATM    3  O   UNL     1      -9.811  14.706  68.997  1.00  0.00    -0.221 OA 
HETATM    4  C   UNL     1     -10.823  13.789  69.100  1.00  0.00    -0.170 C  
HETATM    5  C   UNL     1      -9.954  10.076  69.015  1.00  0.00    -0.196 A  
HETATM    6  C   UNL     1     -10.200  12.465  69.038  1.00  0.00     0.080 A  
HETATM    7  O   UNL     1     -11.997  14.064  69.228  1.00  0.00    -0.317 OA 
HETATM    8  C   UNL     1      -8.556  10.265  68.964  1.00  0.00    -0.162 A  
HETATM    9  C   UNL     1      -7.990  11.544  68.930  1.00  0.00    -0.057 A  
HETATM   10  C   UNL     1      -8.833  12.640  68.919  1.00  0.00     0.326 A  
ENDROOT
BRANCH   1  11
HETATM   11  C   UNL     1      -7.871  14.611  67.428  1.00  0.00    -0.202 C  
HETATM   12  C   UNL     1      -9.068  16.563  66.287  1.00  0.00    -0.348 A  
HETATM   13  C   UNL     1      -5.488  15.075  68.015  1.00  0.00    -0.132 C  
HETATM   14  C   UNL     1      -7.108  16.901  67.909  1.00  0.00    -0.152 C  
HETATM   15  C   UNL     1     -10.061  17.090  65.452  1.00  0.00     0.094 A  
HETATM   16  C   UNL     1     -10.921  16.212  64.835  1.00  0.00    -0.349 A  
HETATM   17  N   UNL     1      -6.733  15.569  67.460  1.00  0.00    -0.180 NA 
HETATM   18  O   UNL     1     -11.944  16.585  64.018  1.00  0.00    -0.964 OA 
HETATM   19  C   UNL     1     -10.817  14.846  64.988  1.00  0.00    -0.423 A  
HETATM   20  C   UNL     1      -8.072  17.528  66.899  1.00  0.00    -0.254 C  
HETATM   21  O   UNL     1     -11.787  14.206  64.271  1.00  0.00    -0.422 OA 
HETATM   22  C   UNL     1      -9.837  14.276  65.792  1.00  0.00    -0.287 A  
HETATM   23  C   UNL     1      -8.955  15.153  66.475  1.00  0.00    -0.326 A  
HETATM   24  C   UNL     1     -12.553  15.311  63.760  1.00  0.00     0.719 C  
BRANCH  22  25
HETATM   25  O   UNL     1      -9.645  12.938  66.008  1.00  0.00    -0.242 OA 
HETATM   26  C   UNL     1      -9.943  12.049  64.937  1.00  0.00    -0.227 C  
ENDBRANCH  22  25
ENDBRANCH   1  11
BRANCH   5  27
HETATM   27  O   UNL     1     -10.545   8.842  68.967  1.00  0.00    -0.226 OA 
HETATM   28  C   UNL     1     -10.468   8.011  70.116  1.00  0.00    -0.225 C  
ENDBRANCH   5  27
BRANCH   2  29
HETATM   29  O   UNL     1     -12.167  11.185  69.106  1.00  0.00    -0.410 OA 
HETATM   30  C   UNL     1     -12.797  10.953  70.361  1.00  0.00    -0.184 C  
ENDBRANCH   2  29
TORSDOF 4
ENDMDL
MODEL      102
REMARK 921   NORMALIZED FREE ENERGY PREDICTED BY IDOCK:   -4.17 KCAL/MOL
REMARK 922        TOTAL FREE ENERGY PREDICTED BY IDOCK:   -5.96 KCAL/MOL
REMARK 923 INTER-LIGAND FREE ENERGY PREDICTED BY IDOCK:   -5.18 KCAL/MOL
REMARK 924 INTRA-LIGAND FREE ENERGY PREDICTED BY IDOCK:   -0.78 KCAL/MOL
REMARK 927      BINDING AFFINITY PREDICTED BY RF-SCORE:    0.00 PKD
ROOT
HETATM    1  C   UNL     1      -9.198   7.670  69.268  1.00  0.00    -0.145 C  
HETATM    2  C   UNL     1     -11.477  10.467  70.052  1.00  0.00    -0.308 A  
HETATM    3  O   UNL     1      -9.510   7.468  70.672  1.00  0.00    -0.164 OA 
HETATM    4  C   UNL     1     -10.330   8.443  71.177  1.00  0.00    -0.212 C  
HETATM    5  C   UNL     1     -11.660  11.129  68.819  1.00  0.00    -0.322 A  
HETATM    6  C   UNL     1     -10.679   9.321  70.059  1.00  0.00    -0.259 A  
HETATM    7  O   UNL     1     -10.684   8.520  72.335  1.00  0.00    -0.341 OA 
HETATM    8  C   UNL     1     -11.091  10.578  67.651  1.00  0.00    -0.375 A  
HETATM    9  C   UNL     1     -10.307   9.420  67.694  1.00  0.00    -0.303 A  
HETATM   10  C   UNL     1     -10.069   8.828  68.920  1.00  0.00    -0.210 A  
ENDROOT
BRANCH   1  11
HETATM   11  C   UNL     1      -7.631   7.793  69.061  1.00  0.00    -0.100 C  
HETATM   12  C   UNL     1      -6.834   9.737  67.602  1.00  0.00    -0.085 A  
HETATM   13  C   UNL     1      -6.698   7.803  71.377  1.00  0.00    -0.045 C  
HETATM   14  C   UNL     1      -6.990   9.900  70.158  1.00  0.00    -0.138 C  
HETATM   15  C   UNL     1      -6.557  10.322  66.360  1.00  0.00    -0.092 A  
HETATM   16  C   UNL     1      -6.760   9.567  65.229  1.00  0.00    -0.083 A  
HETATM   17  N   UNL     1      -6.788   8.462  70.089  1.00  0.00    -0.042 NA 
HETATM   18  O   UNL     1      -6.555  10.013  63.959  1.00  0.00    -0.123 OA 
HETATM   19  C   UNL     1      -7.196   8.259  65.282  1.00  0.00    -0.079 A  
HETATM   20  C   UNL     1      -6.531  10.544  68.848  1.00  0.00    -0.048 C  
HETATM   21  O   UNL     1      -7.314   7.740  64.025  1.00  0.00    -0.085 OA 
HETATM   22  C   UNL     1      -7.467   7.631  66.491  1.00  0.00    -0.092 A  
HETATM   23  C   UNL     1      -7.304   8.392  67.679  1.00  0.00    -0.093 A  
HETATM   24  C   UNL     1      -7.019   8.884  63.204  1.00  0.00    -0.089 C  
BRANCH  22  25
HETATM   25  O   UNL     1      -7.897   6.343  66.655  1.00  0.00    -0.101 OA 
HETATM   26  C   UNL     1      -9.206   6.022  66.192  1.00  0.00    -0.138 C  
ENDBRANCH  22  25
ENDBRANCH   1  11
BRANCH   5  27
HETATM   27  O   UNL     1     -12.364  12.303  68.827  1.00  0.00    -0.083 OA 
HETATM   28  C   UNL     1     -11.906  13.371  68.011  1.00  0.00    -0.357 C  
ENDBRANCH   5  27
BRANCH   2  29
HETATM   29  O   UNL     1     -11.935  10.892  71.269  1.00  0.00    -0.279 OA 
HETATM   30  C   UNL     1     -13.285  10.588  71.600  1.00  0.00    -0.391 C  
ENDBRANCH   2  29
TORSDOF 4
ENDMDL
MODEL      103
REMARK 921   NORMALIZED FREE ENERGY PREDICTED BY IDOCK:   -4.15 KCAL/MOL
REMARK 922        TOTAL FREE ENERGY PREDICTED BY IDOCK:   -5.93 KCAL/MOL
REMARK 923 INTER-LIGAND FREE ENERGY PREDICTED BY IDOCK:   -5.18 KCAL/MOL
REMARK 924 INTRA-LIGAND FREE ENERGY PREDICTED BY IDOCK:   -0.75 KCAL/MOL
REMARK 927      BINDING AFFINITY PREDICTED BY RF-SCORE:    0.00 PKD
ROOT
HETATM    1  C   UNL     1      -9.887  10.690  67.345  1.00  0.00    -0.170 C  
HETATM    2  C   UNL     1      -8.698   7.637  69.046  1.00  0.00    -0.136 A  
HETATM    3  O   UNL     1     -10.524   9.619  66.601  1.00  0.00    -0.221 OA 
HETATM    4  C   UNL     1     -10.175   8.376  67.058  1.00  0.00    -0.307 C  
HETATM    5  C   UNL     1      -7.929   8.114  70.129  1.00  0.00    -0.107 A  
HETATM    6  C   UNL     1      -9.322   8.583  68.230  1.00  0.00    -0.143 A  
HETATM    7  O   UNL     1     -10.536   7.329  66.565  1.00  0.00    -0.162 OA 
HETATM    8  C   UNL     1      -7.875   9.501  70.377  1.00  0.00    -0.190 A  
HETATM    9  C   UNL     1      -8.524  10.420  69.545  1.00  0.00    -0.115 A  
HETATM   10  C   UNL     1      -9.207   9.945  68.441  1.00  0.00    -0.130 A  
ENDROOT
BRANCH   1  11
HETATM   11  C   UNL     1      -9.019  11.599  66.376  1.00  0.00    -0.198 C  
HETATM   12  C   UNL     1      -7.506  13.327  67.502  1.00  0.00    -0.163 A  
HETATM   13  C   UNL     1      -7.806   9.970  64.922  1.00  0.00    -0.141 C  
HETATM   14  C   UNL     1      -6.679  10.991  66.833  1.00  0.00    -0.120 C  
HETATM   15  C   UNL     1      -7.277  14.577  68.090  1.00  0.00    -0.132 A  
HETATM   16  C   UNL     1      -8.327  15.462  68.161  1.00  0.00    -0.145 A  
HETATM   17  N   UNL     1      -7.728  11.096  65.832  1.00  0.00    -0.013 NA 
HETATM   18  O   UNL     1      -8.254  16.698  68.725  1.00  0.00    -0.230 OA 
HETATM   19  C   UNL     1      -9.575  15.169  67.652  1.00  0.00    -0.206 A  
HETATM   20  C   UNL     1      -6.326  12.388  67.352  1.00  0.00    -0.157 C  
HETATM   21  O   UNL     1     -10.433  16.213  67.850  1.00  0.00    -0.272 OA 
HETATM   22  C   UNL     1      -9.845  13.949  67.044  1.00  0.00    -0.257 A  
HETATM   23  C   UNL     1      -8.795  12.996  66.985  1.00  0.00    -0.213 A  
HETATM   24  C   UNL     1      -9.623  17.117  68.623  1.00  0.00    -0.281 C  
BRANCH  22  25
HETATM   25  O   UNL     1     -11.042  13.562  66.505  1.00  0.00    -0.295 OA 
HETATM   26  C   UNL     1     -12.154  13.444  67.387  1.00  0.00    -0.293 C  
ENDBRANCH  22  25
ENDBRANCH   1  11
BRANCH   5  27
HETATM   27  O   UNL     1      -7.241   7.192  70.873  1.00  0.00    -0.068 OA 
HETATM   28  C   UNL     1      -5.875   6.958  70.563  1.00  0.00    -0.024 C  
ENDBRANCH   5  27
BRANCH   2  29
HETATM   29  O   UNL     1      -8.821   6.330  68.659  1.00  0.00    -0.120 OA 
HETATM   30  C   UNL     1      -9.804   5.544  69.322  1.00  0.00    -0.172 C  
ENDBRANCH   2  29
TORSDOF 4
ENDMDL
MODEL      104
REMARK 921   NORMALIZED FREE ENERGY PREDICTED BY IDOCK:   -4.09 KCAL/MOL
REMARK 922        TOTAL FREE ENERGY PREDICTED BY IDOCK:   -5.86 KCAL/MOL
REMARK 923 INTER-LIGAND FREE ENERGY PREDICTED BY IDOCK:   -5.12 KCAL/MOL
REMARK 924 INTRA-LIGAND FREE ENERGY PREDICTED BY IDOCK:   -0.74 KCAL/MOL
REMARK 927      BINDING AFFINITY PREDICTED BY RF-SCORE:    0.00 PKD
ROOT
HETATM    1  C   UNL     1      -9.772   8.042  67.166  1.00  0.00    -0.195 C  
HETATM    2  C   UNL     1      -8.890   4.642  66.026  1.00  0.00    -0.121 A  
HETATM    3  O   UNL     1      -9.138   8.270  65.880  1.00  0.00    -0.182 OA 
HETATM    4  C   UNL     1      -8.694   7.113  65.295  1.00  0.00     0.096 C  
HETATM    5  C   UNL     1      -9.415   3.790  67.021  1.00  0.00    -0.200 A  
HETATM    6  C   UNL     1      -9.110   6.014  66.168  1.00  0.00    -0.159 A  
HETATM    7  O   UNL     1      -8.086   7.055  64.247  1.00  0.00    -0.119 OA 
HETATM    8  C   UNL     1     -10.181   4.344  68.068  1.00  0.00     0.109 A  
HETATM    9  C   UNL     1     -10.392   5.723  68.172  1.00  0.00    -0.264 A  
HETATM   10  C   UNL     1      -9.804   6.553  67.236  1.00  0.00    -0.175 A  
ENDROOT
BRANCH   1  11
HETATM   11  C   UNL     1      -9.022   8.851  68.305  1.00  0.00    -0.137 C  
HETATM   12  C   UNL     1      -9.662   8.268  70.712  1.00  0.00    -0.197 A  
HETATM   13  C   UNL     1      -6.598   8.546  67.789  1.00  0.00    -0.062 C  
HETATM   14  C   UNL     1      -7.671   7.184  69.509  1.00  0.00    -0.113 C  
HETATM   15  C   UNL     1     -10.485   8.387  71.840  1.00  0.00    -0.366 A  
HETATM   16  C   UNL     1     -11.552   9.251  71.773  1.00  0.00    -0.388 A  
HETATM   17  N   UNL     1      -7.669   8.430  68.759  1.00  0.00    -0.100 NA 
HETATM   18  O   UNL     1     -12.445   9.449  72.781  1.00  0.00    -0.054 OA 
HETATM   19  C   UNL     1     -11.817  10.014  70.655  1.00  0.00    -0.325 A  
HETATM   20  C   UNL     1      -8.440   7.378  70.819  1.00  0.00    -0.131 C  
HETATM   21  O   UNL     1     -12.928  10.784  70.850  1.00  0.00    -0.348 OA 
HETATM   22  C   UNL     1     -11.019   9.943  69.520  1.00  0.00    -0.242 A  
HETATM   23  C   UNL     1      -9.929   9.034  69.538  1.00  0.00    -0.193 A  
HETATM   24  C   UNL     1     -13.375  10.336  72.142  1.00  0.00    -0.299 C  
BRANCH  22  25
HETATM   25  O   UNL     1     -11.190  10.656  68.365  1.00  0.00    -0.254 OA 
HETATM   26  C   UNL     1     -11.136  12.077  68.454  1.00  0.00    -0.245 C  
ENDBRANCH  22  25
ENDBRANCH   1  11
BRANCH   5  27
HETATM   27  O   UNL     1      -9.121   2.455  66.933  1.00  0.00    -0.139 OA 
HETATM   28  C   UNL     1      -9.173   1.672  68.117  1.00  0.00    -0.174 C  
ENDBRANCH   5  27
BRANCH   2  29
HETATM   29  O   UNL     1      -8.104   4.262  64.973  1.00  0.00    -0.096 OA 
HETATM   30  C   UNL     1      -6.720   4.059  65.233  1.00  0.00    -0.048 C  
ENDBRANCH   2  29
TORSDOF 4
ENDMDL
MODEL      105
REMARK 921   NORMALIZED FREE ENERGY PREDICTED BY IDOCK:   -4.09 KCAL/MOL
REMARK 922        TOTAL FREE ENERGY PREDICTED BY IDOCK:   -5.85 KCAL/MOL
REMARK 923 INTER-LIGAND FREE ENERGY PREDICTED BY IDOCK:   -5.03 KCAL/MOL
REMARK 924 INTRA-LIGAND FREE ENERGY PREDICTED BY IDOCK:   -0.82 KCAL/MOL
REMARK 927      BINDING AFFINITY PREDICTED BY RF-SCORE:    0.00 PKD
ROOT
HETATM    1  C   UNL     1      -7.905   9.266  69.495  1.00  0.00    -0.086 C  
HETATM    2  C   UNL     1      -9.373   6.208  70.952  1.00  0.00    -0.158 A  
HETATM    3  O   UNL     1      -8.117   9.623  70.886  1.00  0.00    -0.293 OA 
HETATM    4  C   UNL     1      -8.703   8.616  71.608  1.00  0.00    -0.203 C  
HETATM    5  C   UNL     1      -9.361   5.273  69.894  1.00  0.00    -0.141 A  
HETATM    6  C   UNL     1      -8.830   7.470  70.705  1.00  0.00    -0.148 A  
HETATM    7  O   UNL     1      -9.028   8.697  72.773  1.00  0.00    -0.356 OA 
HETATM    8  C   UNL     1      -8.754   5.625  68.671  1.00  0.00    -0.106 A  
HETATM    9  C   UNL     1      -8.207   6.897  68.463  1.00  0.00    -0.121 A  
HETATM   10  C   UNL     1      -8.297   7.829  69.480  1.00  0.00    -0.129 A  
ENDROOT
BRANCH   1  11
HETATM   11  C   UNL     1      -8.660  10.283  68.540  1.00  0.00    -0.126 C  
HETATM   12  C   UNL     1      -8.832   9.605  66.080  1.00  0.00    -0.178 A  
HETATM   13  C   UNL     1     -10.863  10.658  69.654  1.00  0.00    -0.268 C  
HETATM   14  C   UNL     1     -10.679   9.094  67.787  1.00  0.00    -0.179 C  
HETATM   15  C   UNL     1      -8.318   9.518  64.779  1.00  0.00    -0.155 A  
HETATM   16  C   UNL     1      -7.071  10.045  64.539  1.00  0.00    -0.139 A  
HETATM   17  N   UNL     1     -10.145  10.270  68.456  1.00  0.00    -0.159 NA 
HETATM   18  O   UNL     1      -6.441  10.010  63.333  1.00  0.00    -0.125 OA 
HETATM   19  C   UNL     1      -6.333  10.674  65.520  1.00  0.00    -0.081 A  
HETATM   20  C   UNL     1     -10.239   9.097  66.320  1.00  0.00    -0.257 C  
HETATM   21  O   UNL     1      -5.138  11.106  65.021  1.00  0.00    -0.268 OA 
HETATM   22  C   UNL     1      -6.809  10.800  66.820  1.00  0.00    -0.115 A  
HETATM   23  C   UNL     1      -8.077  10.235  67.114  1.00  0.00    -0.121 A  
HETATM   24  C   UNL     1      -5.172  10.583  63.681  1.00  0.00    -0.163 C  
BRANCH  22  25
HETATM   25  O   UNL     1      -6.162  11.407  67.862  1.00  0.00    -0.049 OA 
HETATM   26  C   UNL     1      -6.077  12.829  67.847  1.00  0.00    -0.116 C  
ENDBRANCH  22  25
ENDBRANCH   1  11
BRANCH   5  27
HETATM   27  O   UNL     1      -9.978   4.068  70.105  1.00  0.00    -0.188 OA 
HETATM   28  C   UNL     1      -9.166   2.927  70.343  1.00  0.00    -0.140 C  
ENDBRANCH   5  27
BRANCH   2  29
HETATM   29  O   UNL     1      -9.951   6.028  72.179  1.00  0.00    -0.165 OA 
HETATM   30  C   UNL     1     -11.371   6.088  72.246  1.00  0.00    -0.303 C  
ENDBRANCH   2  29
TORSDOF 4
ENDMDL
MODEL      106
REMARK 921   NORMALIZED FREE ENERGY PREDICTED BY IDOCK:   -4.09 KCAL/MOL
REMARK 922        TOTAL FREE ENERGY PREDICTED BY IDOCK:   -5.85 KCAL/MOL
REMARK 923 INTER-LIGAND FREE ENERGY PREDICTED BY IDOCK:   -5.34 KCAL/MOL
REMARK 924 INTRA-LIGAND FREE ENERGY PREDICTED BY IDOCK:   -0.51 KCAL/MOL
REMARK 927      BINDING AFFINITY PREDICTED BY RF-SCORE:    0.00 PKD
ROOT
HETATM    1  C   UNL     1     -10.582  10.792  68.611  1.00  0.00    -0.199 C  
HETATM    2  C   UNL     1      -8.667   7.646  68.861  1.00  0.00    -0.135 A  
HETATM    3  O   UNL     1     -11.357   9.861  67.812  1.00  0.00    -0.151 OA 
HETATM    4  C   UNL     1     -10.784   8.618  67.742  1.00  0.00    -0.110 C  
HETATM    5  C   UNL     1      -7.610   7.946  69.748  1.00  0.00    -0.090 A  
HETATM    6  C   UNL     1      -9.598   8.652  68.602  1.00  0.00    -0.159 A  
HETATM    7  O   UNL     1     -11.215   7.691  67.091  1.00  0.00    -0.020 OA 
HETATM    8  C   UNL     1      -7.575   9.209  70.374  1.00  0.00    -0.118 A  
HETATM    9  C   UNL     1      -8.534  10.191  70.099  1.00  0.00     0.073 A  
HETATM   10  C   UNL     1      -9.516   9.912  69.168  1.00  0.00    -0.201 A  
ENDROOT
BRANCH   1  11
HETATM   11  C   UNL     1     -10.166  12.054  67.746  1.00  0.00    -0.202 C  
HETATM   12  C   UNL     1     -10.917  12.044  65.300  1.00  0.00    -0.356 A  
HETATM   13  C   UNL     1     -10.995  14.008  69.062  1.00  0.00    -0.259 C  
HETATM   14  C   UNL     1     -12.280  13.171  67.161  1.00  0.00    -0.191 C  
HETATM   15  C   UNL     1     -10.762  11.677  63.957  1.00  0.00    -0.442 A  
HETATM   16  C   UNL     1      -9.656  10.936  63.613  1.00  0.00    -0.302 A  
HETATM   17  N   UNL     1     -10.979  13.300  67.797  1.00  0.00    -0.252 NA 
HETATM   18  O   UNL     1      -9.390  10.492  62.354  1.00  0.00    -0.265 OA 
HETATM   19  C   UNL     1      -8.694  10.572  64.533  1.00  0.00    -0.180 A  
HETATM   20  C   UNL     1     -12.093  12.929  65.661  1.00  0.00    -0.511 C  
HETATM   21  O   UNL     1      -7.705   9.845  63.934  1.00  0.00    -0.131 OA 
HETATM   22  C   UNL     1      -8.797  10.928  65.872  1.00  0.00    -0.186 A  
HETATM   23  C   UNL     1      -9.944  11.662  66.272  1.00  0.00    -0.247 A  
HETATM   24  C   UNL     1      -8.212   9.707  62.594  1.00  0.00    -0.139 C  
BRANCH  22  25
HETATM   25  O   UNL     1      -7.901  10.624  66.861  1.00  0.00    -0.113 OA 
HETATM   26  C   UNL     1      -6.786  11.494  67.029  1.00  0.00    -0.143 C  
ENDBRANCH  22  25
ENDBRANCH   1  11
BRANCH   5  27
HETATM   27  O   UNL     1      -6.645   6.992  69.931  1.00  0.00    -0.042 OA 
HETATM   28  C   UNL     1      -5.283   7.393  69.897  1.00  0.00    -0.023 C  
ENDBRANCH   5  27
BRANCH   2  29
HETATM   29  O   UNL     1      -8.819   6.484  68.155  1.00  0.00    -0.117 OA 
HETATM   30  C   UNL     1      -9.479   5.406  68.809  1.00  0.00    -0.130 C  
ENDBRANCH   2  29
TORSDOF 4
ENDMDL
MODEL      107
REMARK 921   NORMALIZED FREE ENERGY PREDICTED BY IDOCK:   -4.08 KCAL/MOL
REMARK 922        TOTAL FREE ENERGY PREDICTED BY IDOCK:   -5.84 KCAL/MOL
REMARK 923 INTER-LIGAND FREE ENERGY PREDICTED BY IDOCK:   -5.58 KCAL/MOL
REMARK 924 INTRA-LIGAND FREE ENERGY PREDICTED BY IDOCK:   -0.27 KCAL/MOL
REMARK 927      BINDING AFFINITY PREDICTED BY RF-SCORE:    0.00 PKD
ROOT
HETATM    1  C   UNL     1      -9.075   7.111  71.706  1.00  0.00    -0.139 C  
HETATM    2  C   UNL     1     -11.105  10.067  70.824  1.00  0.00    -0.334 A  
HETATM    3  O   UNL     1      -8.174   7.910  70.896  1.00  0.00    -0.099 OA 
HETATM    4  C   UNL     1      -8.759   9.057  70.427  1.00  0.00    -0.199 C  
HETATM    5  C   UNL     1     -12.322   9.877  71.514  1.00  0.00    -0.412 A  
HETATM    6  C   UNL     1     -10.105   9.109  71.002  1.00  0.00    -0.373 A  
HETATM    7  O   UNL     1      -8.225   9.855  69.687  1.00  0.00    -0.139 OA 
HETATM    8  C   UNL     1     -12.453   8.779  72.389  1.00  0.00    -0.421 A  
HETATM    9  C   UNL     1     -11.424   7.845  72.553  1.00  0.00    -0.455 A  
HETATM   10  C   UNL     1     -10.268   7.998  71.811  1.00  0.00    -0.260 A  
ENDROOT
BRANCH   1  11
HETATM   11  C   UNL     1      -9.244   5.662  71.083  1.00  0.00    -0.149 C  
HETATM   12  C   UNL     1      -7.185   4.686  69.921  1.00  0.00    -0.054 A  
HETATM   13  C   UNL     1     -10.108   4.273  72.970  1.00  0.00    -0.152 C  
HETATM   14  C   UNL     1      -7.738   4.213  72.382  1.00  0.00    -0.081 C  
HETATM   15  C   UNL     1      -6.341   4.536  68.813  1.00  0.00    -0.033 A  
HETATM   16  C   UNL     1      -6.674   5.196  67.653  1.00  0.00    -0.055 A  
HETATM   17  N   UNL     1      -9.103   4.455  71.942  1.00  0.00    -0.123 NA 
HETATM   18  O   UNL     1      -5.936   5.160  66.510  1.00  0.00    -0.021 OA 
HETATM   19  C   UNL     1      -7.812   5.966  67.541  1.00  0.00    -0.098 A  
HETATM   20  C   UNL     1      -6.860   3.892  71.170  1.00  0.00    -0.032 C  
HETATM   21  O   UNL     1      -7.907   6.507  66.291  1.00  0.00    -0.100 OA 
HETATM   22  C   UNL     1      -8.688   6.130  68.608  1.00  0.00    -0.112 A  
HETATM   23  C   UNL     1      -8.358   5.493  69.833  1.00  0.00    -0.105 A  
HETATM   24  C   UNL     1      -6.668   6.085  65.693  1.00  0.00    -0.048 C  
BRANCH  22  25
HETATM   25  O   UNL     1      -9.842   6.865  68.602  1.00  0.00    -0.142 OA 
HETATM   26  C   UNL     1     -11.032   6.219  68.163  1.00  0.00    -0.323 C  
ENDBRANCH  22  25
ENDBRANCH   1  11
BRANCH   5  27
HETATM   27  O   UNL     1     -13.336  10.764  71.267  1.00  0.00    -0.278 OA 
HETATM   28  C   UNL     1     -13.352  11.988  71.987  1.00  0.00    -0.341 C  
ENDBRANCH   5  27
BRANCH   2  29
HETATM   29  O   UNL     1     -10.838  11.058  69.920  1.00  0.00    -0.206 OA 
HETATM   30  C   UNL     1     -11.394  10.920  68.618  1.00  0.00    -0.295 C  
ENDBRANCH   2  29
TORSDOF 4
ENDMDL
MODEL      108
REMARK 921   NORMALIZED FREE ENERGY PREDICTED BY IDOCK:   -4.08 KCAL/MOL
REMARK 922        TOTAL FREE ENERGY PREDICTED BY IDOCK:   -5.84 KCAL/MOL
REMARK 923 INTER-LIGAND FREE ENERGY PREDICTED BY IDOCK:   -5.79 KCAL/MOL
REMARK 924 INTRA-LIGAND FREE ENERGY PREDICTED BY IDOCK:   -0.05 KCAL/MOL
REMARK 927      BINDING AFFINITY PREDICTED BY RF-SCORE:    0.00 PKD
ROOT
HETATM    1  C   UNL     1      -9.344   9.812  66.872  1.00  0.00    -0.149 C  
HETATM    2  C   UNL     1      -9.900  13.289  65.759  1.00  0.00    -0.197 A  
HETATM    3  O   UNL     1      -9.964   9.655  65.569  1.00  0.00    -0.311 OA 
HETATM    4  C   UNL     1     -10.292  10.853  64.990  1.00  0.00    -0.288 C  
HETATM    5  C   UNL     1      -9.327  14.081  66.778  1.00  0.00    -0.277 A  
HETATM    6  C   UNL     1      -9.803  11.902  65.888  1.00  0.00    -0.261 A  
HETATM    7  O   UNL     1     -10.868  10.977  63.930  1.00  0.00    -0.356 OA 
HETATM    8  C   UNL     1      -8.637  13.449  67.834  1.00  0.00    -0.184 A  
HETATM    9  C   UNL     1      -8.549  12.056  67.924  1.00  0.00    -0.165 A  
HETATM   10  C   UNL     1      -9.184  11.291  66.963  1.00  0.00    -0.173 A  
ENDROOT
BRANCH   1  11
HETATM   11  C   UNL     1     -10.188   9.058  67.983  1.00  0.00    -0.212 C  
HETATM   12  C   UNL     1      -8.856   8.037  69.913  1.00  0.00    -0.144 A  
HETATM   13  C   UNL     1     -11.906  10.725  68.694  1.00  0.00    -0.138 C  
HETATM   14  C   UNL     1      -9.895  10.381  70.037  1.00  0.00     0.096 C  
HETATM   15  C   UNL     1      -8.091   7.013  70.487  1.00  0.00    -0.114 A  
HETATM   16  C   UNL     1      -7.857   5.884  69.738  1.00  0.00    -0.100 A  
HETATM   17  N   UNL     1     -10.838   9.824  69.080  1.00  0.00    -0.221 NA 
HETATM   18  O   UNL     1      -7.114   4.823  70.159  1.00  0.00    -0.047 OA 
HETATM   19  C   UNL     1      -8.369   5.719  68.468  1.00  0.00    -0.107 A  
HETATM   20  C   UNL     1      -9.180   9.244  70.771  1.00  0.00    -0.316 C  
HETATM   21  O   UNL     1      -7.991   4.515  67.949  1.00  0.00    -0.087 OA 
HETATM   22  C   UNL     1      -9.148   6.700  67.865  1.00  0.00    -0.114 A  
HETATM   23  C   UNL     1      -9.380   7.896  68.594  1.00  0.00    -0.145 A  
HETATM   24  C   UNL     1      -7.113   4.015  68.973  1.00  0.00    -0.050 C  
BRANCH  22  25
HETATM   25  O   UNL     1      -9.705   6.636  66.617  1.00  0.00    -0.169 OA 
HETATM   26  C   UNL     1     -10.628   5.582  66.362  1.00  0.00    -0.228 C  
ENDBRANCH  22  25
ENDBRANCH   1  11
BRANCH   5  27
HETATM   27  O   UNL     1      -9.501  15.437  66.702  1.00  0.00    -0.228 OA 
HETATM   28  C   UNL     1      -8.473  16.218  66.112  1.00  0.00    -0.278 C  
ENDBRANCH   5  27
BRANCH   2  29
HETATM   29  O   UNL     1     -10.625  13.749  64.694  1.00  0.00    -0.406 OA 
HETATM   30  C   UNL     1     -11.976  14.120  64.938  1.00  0.00    -0.417 C  
ENDBRANCH   2  29
TORSDOF 4
ENDMDL
MODEL      109
REMARK 921   NORMALIZED FREE ENERGY PREDICTED BY IDOCK:   -4.04 KCAL/MOL
REMARK 922        TOTAL FREE ENERGY PREDICTED BY IDOCK:   -5.79 KCAL/MOL
REMARK 923 INTER-LIGAND FREE ENERGY PREDICTED BY IDOCK:   -5.48 KCAL/MOL
REMARK 924 INTRA-LIGAND FREE ENERGY PREDICTED BY IDOCK:   -0.32 KCAL/MOL
REMARK 927      BINDING AFFINITY PREDICTED BY RF-SCORE:    0.00 PKD
ROOT
HETATM    1  C   UNL     1     -10.959  14.811  67.740  1.00  0.00    -0.291 C  
HETATM    2  C   UNL     1     -10.286  11.754  65.783  1.00  0.00    -0.253 A  
HETATM    3  O   UNL     1     -10.697  15.316  66.405  1.00  0.00    -0.309 OA 
HETATM    4  C   UNL     1     -10.381  14.323  65.515  1.00  0.00    -0.355 C  
HETATM    5  C   UNL     1     -10.497  10.697  66.695  1.00  0.00    -0.237 A  
HETATM    6  C   UNL     1     -10.511  13.055  66.237  1.00  0.00    -0.285 A  
HETATM    7  O   UNL     1     -10.071  14.502  64.357  1.00  0.00    -0.067 OA 
HETATM    8  C   UNL     1     -10.978  10.991  67.988  1.00  0.00    -0.312 A  
HETATM    9  C   UNL     1     -11.205  12.307  68.405  1.00  0.00    -0.311 A  
HETATM   10  C   UNL     1     -10.917  13.337  67.529  1.00  0.00    -0.281 A  
ENDROOT
BRANCH   1  11
HETATM   11  C   UNL     1      -9.965  15.469  68.787  1.00  0.00    -0.214 C  
HETATM   12  C   UNL     1      -9.237  17.872  68.296  1.00  0.00    -0.283 A  
HETATM   13  C   UNL     1     -11.103  15.175  70.990  1.00  0.00    -0.238 C  
HETATM   14  C   UNL     1     -11.228  17.313  69.817  1.00  0.00     0.905 C  
HETATM   15  C   UNL     1      -8.419  18.813  67.659  1.00  0.00    -0.292 A  
HETATM   16  C   UNL     1      -7.422  18.351  66.833  1.00  0.00    -0.215 A  
HETATM   17  N   UNL     1     -10.490  16.080  70.038  1.00  0.00    -0.287 NA 
HETATM   18  O   UNL     1      -6.570  19.150  66.134  1.00  0.00    -0.194 OA 
HETATM   19  C   UNL     1      -7.188  17.005  66.639  1.00  0.00    -0.258 A  
HETATM   20  C   UNL     1     -10.281  18.384  69.269  1.00  0.00     0.030 C  
HETATM   21  O   UNL     1      -6.144  16.817  65.779  1.00  0.00     0.331 OA 
HETATM   22  C   UNL     1      -7.961  16.035  67.264  1.00  0.00    -0.178 A  
HETATM   23  C   UNL     1      -9.024  16.475  68.095  1.00  0.00    -0.207 A  
HETATM   24  C   UNL     1      -5.842  18.167  65.383  1.00  0.00    -0.165 C  
BRANCH  22  25
HETATM   25  O   UNL     1      -7.811  14.680  67.144  1.00  0.00    -0.197 OA 
HETATM   26  C   UNL     1      -6.721  14.075  67.833  1.00  0.00    -0.164 C  
ENDBRANCH  22  25
ENDBRANCH   1  11
BRANCH   5  27
HETATM   27  O   UNL     1     -10.188   9.430  66.281  1.00  0.00    -0.274 OA 
HETATM   28  C   UNL     1     -10.312   8.365  67.212  1.00  0.00    -0.299 C  
ENDBRANCH   5  27
BRANCH   2  29
HETATM   29  O   UNL     1      -9.793  11.634  64.512  1.00  0.00    -0.243 OA 
HETATM   30  C   UNL     1     -10.722  11.328  63.479  1.00  0.00    -0.335 C  
ENDBRANCH   2  29
TORSDOF 4
ENDMDL
MODEL      110
REMARK 921   NORMALIZED FREE ENERGY PREDICTED BY IDOCK:   -4.04 KCAL/MOL
REMARK 922        TOTAL FREE ENERGY PREDICTED BY IDOCK:   -5.79 KCAL/MOL
REMARK 923 INTER-LIGAND FREE ENERGY PREDICTED BY IDOCK:   -5.77 KCAL/MOL
REMARK 924 INTRA-LIGAND FREE ENERGY PREDICTED BY IDOCK:   -0.01 KCAL/MOL
REMARK 927      BINDING AFFINITY PREDICTED BY RF-SCORE:    0.00 PKD
ROOT
HETATM    1  C   UNL     1      -9.809  12.227  67.581  1.00  0.00    -0.196 C  
HETATM    2  C   UNL     1     -10.243  15.558  66.048  1.00  0.00    -0.330 A  
HETATM    3  O   UNL     1     -11.184  12.208  67.116  1.00  0.00    -0.275 OA 
HETATM    4  C   UNL     1     -11.564  13.391  66.539  1.00  0.00    -0.357 C  
HETATM    5  C   UNL     1      -8.969  16.157  66.142  1.00  0.00    -0.337 A  
HETATM    6  C   UNL     1     -10.378  14.250  66.519  1.00  0.00    -0.278 A  
HETATM    7  O   UNL     1     -12.678  13.635  66.126  1.00  0.00    -0.373 OA 
HETATM    8  C   UNL     1      -7.887  15.401  66.641  1.00  0.00     0.010 A  
HETATM    9  C   UNL     1      -8.057  14.088  67.093  1.00  0.00    -0.121 A  
HETATM   10  C   UNL     1      -9.326  13.541  67.070  1.00  0.00    -0.247 A  
ENDROOT
BRANCH   1  11
HETATM   11  C   UNL     1      -9.746  11.934  69.138  1.00  0.00     0.318 C  
HETATM   12  C   UNL     1     -11.993  11.644  70.325  1.00  0.00    -0.445 A  
HETATM   13  C   UNL     1      -8.223   9.964  69.337  1.00  0.00    -0.146 C  
HETATM   14  C   UNL     1     -10.645   9.660  69.413  1.00  0.00    -0.225 C  
HETATM   15  C   UNL     1     -13.135  12.151  70.958  1.00  0.00    -0.018 A  
HETATM   16  C   UNL     1     -13.242  13.514  71.105  1.00  0.00    -0.147 A  
HETATM   17  N   UNL     1      -9.516  10.549  69.632  1.00  0.00    -0.083 NA 
HETATM   18  O   UNL     1     -14.303  14.144  71.678  1.00  0.00    -0.398 OA 
HETATM   19  C   UNL     1     -12.259  14.383  70.680  1.00  0.00    -0.344 A  
HETATM   20  C   UNL     1     -11.841  10.138  70.239  1.00  0.00    -0.342 C  
HETATM   21  O   UNL     1     -12.610  15.675  70.945  1.00  0.00    -0.432 OA 
HETATM   22  C   UNL     1     -11.101  13.925  70.063  1.00  0.00     0.139 A  
HETATM   23  C   UNL     1     -10.972  12.526  69.861  1.00  0.00     0.421 A  
HETATM   24  C   UNL     1     -13.942  15.517  71.467  1.00  0.00    -0.421 C  
BRANCH  22  25
HETATM   25  O   UNL     1     -10.066  14.697  69.609  1.00  0.00    -0.067 OA 
HETATM   26  C   UNL     1     -10.232  16.111  69.654  1.00  0.00    -0.243 C  
ENDBRANCH  22  25
ENDBRANCH   1  11
BRANCH   5  27
HETATM   27  O   UNL     1      -8.856  17.470  65.767  1.00  0.00    -0.514 OA 
HETATM   28  C   UNL     1      -8.919  18.468  66.776  1.00  0.00    -0.293 C  
ENDBRANCH   5  27
BRANCH   2  29
HETATM   29  O   UNL     1     -11.390  16.168  65.620  1.00  0.00     0.033 OA 
HETATM   30  C   UNL     1     -11.651  16.158  64.221  1.00  0.00    -0.062 C  
ENDBRANCH   2  29
TORSDOF 4
ENDMDL
MODEL      111
REMARK 921   NORMALIZED FREE ENERGY PREDICTED BY IDOCK:   -4.03 KCAL/MOL
REMARK 922        TOTAL FREE ENERGY PREDICTED BY IDOCK:   -5.78 KCAL/MOL
REMARK 923 INTER-LIGAND FREE ENERGY PREDICTED BY IDOCK:   -5.17 KCAL/MOL
REMARK 924 INTRA-LIGAND FREE ENERGY PREDICTED BY IDOCK:   -0.61 KCAL/MOL
REMARK 927      BINDING AFFINITY PREDICTED BY RF-SCORE:    0.00 PKD
ROOT
HETATM    1  C   UNL     1     -10.881   6.271  70.094  1.00  0.00    -0.313 C  
HETATM    2  C   UNL     1      -9.691   4.139  67.324  1.00  0.00    -0.170 A  
HETATM    3  O   UNL     1     -11.394   6.937  68.910  1.00  0.00    -0.098 OA 
HETATM    4  C   UNL     1     -11.023   6.313  67.748  1.00  0.00    -0.332 C  
HETATM    5  C   UNL     1      -9.046   3.058  67.964  1.00  0.00    -0.179 A  
HETATM    6  C   UNL     1     -10.288   5.106  68.135  1.00  0.00    -0.140 A  
HETATM    7  O   UNL     1     -11.283   6.711  66.633  1.00  0.00    -0.231 OA 
HETATM    8  C   UNL     1      -9.087   2.967  69.371  1.00  0.00    -0.198 A  
HETATM    9  C   UNL     1      -9.707   3.949  70.151  1.00  0.00    -0.242 A  
HETATM   10  C   UNL     1     -10.263   5.044  69.516  1.00  0.00    -0.286 A  
ENDROOT
BRANCH   1  11
HETATM   11  C   UNL     1      -9.980   7.262  70.942  1.00  0.00    -0.185 C  
HETATM   12  C   UNL     1      -9.716   9.628  70.006  1.00  0.00    -0.280 A  
HETATM   13  C   UNL     1     -10.956   7.174  73.239  1.00  0.00    -0.286 C  
HETATM   14  C   UNL     1     -11.511   9.018  71.736  1.00  0.00    -0.372 C  
HETATM   15  C   UNL     1      -9.107  10.567  69.163  1.00  0.00    -0.177 A  
HETATM   16  C   UNL     1      -8.077  10.142  68.358  1.00  0.00    -0.104 A  
HETATM   17  N   UNL     1     -10.555   7.987  72.108  1.00  0.00    -0.250 NA 
HETATM   18  O   UNL     1      -7.412  10.937  67.476  1.00  0.00    -0.093 OA 
HETATM   19  C   UNL     1      -7.613   8.843  68.376  1.00  0.00    -0.091 A  
HETATM   20  C   UNL     1     -10.794  10.120  70.951  1.00  0.00    -0.154 C  
HETATM   21  O   UNL     1      -6.589   8.685  67.487  1.00  0.00    -0.057 OA 
HETATM   22  C   UNL     1      -8.174   7.882  69.208  1.00  0.00    -0.128 A  
HETATM   23  C   UNL     1      -9.264   8.275  70.027  1.00  0.00    -0.151 A  
HETATM   24  C   UNL     1      -6.550   9.975  66.850  1.00  0.00    -0.071 C  
BRANCH  22  25
HETATM   25  O   UNL     1      -7.788   6.572  69.306  1.00  0.00    -0.106 OA 
HETATM   26  C   UNL     1      -6.608   6.288  70.052  1.00  0.00    -0.048 C  
ENDBRANCH  22  25
ENDBRANCH   1  11
BRANCH   5  27
HETATM   27  O   UNL     1      -8.380   2.159  67.174  1.00  0.00    -0.076 OA 
HETATM   28  C   UNL     1      -6.961   2.207  67.146  1.00  0.00    -0.040 C  
ENDBRANCH   5  27
BRANCH   2  29
HETATM   29  O   UNL     1      -9.710   4.382  65.978  1.00  0.00    -0.175 OA 
HETATM   30  C   UNL     1      -8.579   5.039  65.418  1.00  0.00    -0.143 C  
ENDBRANCH   2  29
TORSDOF 4
ENDMDL
MODEL      112
REMARK 921   NORMALIZED FREE ENERGY PREDICTED BY IDOCK:   -4.03 KCAL/MOL
REMARK 922        TOTAL FREE ENERGY PREDICTED BY IDOCK:   -5.78 KCAL/MOL
REMARK 923 INTER-LIGAND FREE ENERGY PREDICTED BY IDOCK:   -5.77 KCAL/MOL
REMARK 924 INTRA-LIGAND FREE ENERGY PREDICTED BY IDOCK:   -0.01 KCAL/MOL
REMARK 927      BINDING AFFINITY PREDICTED BY RF-SCORE:    0.00 PKD
ROOT
HETATM    1  C   UNL     1     -11.247  11.824  67.838  1.00  0.00    -0.267 C  
HETATM    2  C   UNL     1     -10.957  11.776  64.157  1.00  0.00    -0.374 A  
HETATM    3  O   UNL     1     -12.092  12.927  67.418  1.00  0.00    -0.333 OA 
HETATM    4  C   UNL     1     -12.092  13.107  66.060  1.00  0.00    -0.436 C  
HETATM    5  C   UNL     1     -10.152  10.650  63.882  1.00  0.00    -0.289 A  
HETATM    6  C   UNL     1     -11.278  12.030  65.492  1.00  0.00    -0.372 A  
HETATM    7  O   UNL     1     -12.678  13.996  65.478  1.00  0.00    -0.520 OA 
HETATM    8  C   UNL     1      -9.764   9.805  64.943  1.00  0.00    -0.262 A  
HETATM    9  C   UNL     1     -10.116  10.083  66.268  1.00  0.00    -0.310 A  
HETATM   10  C   UNL     1     -10.836  11.233  66.533  1.00  0.00    -0.319 A  
ENDROOT
BRANCH   1  11
HETATM   11  C   UNL     1     -10.129  12.333  68.840  1.00  0.00     0.020 C  
HETATM   12  C   UNL     1      -7.728  11.631  68.305  1.00  0.00    -0.128 A  
HETATM   13  C   UNL     1     -10.472  14.804  68.948  1.00  0.00    -0.249 C  
HETATM   14  C   UNL     1      -8.722  13.866  67.526  1.00  0.00    -0.193 C  
HETATM   15  C   UNL     1      -6.664  10.720  68.344  1.00  0.00    -0.059 A  
HETATM   16  C   UNL     1      -6.861   9.524  68.994  1.00  0.00    -0.054 A  
HETATM   17  N   UNL     1      -9.563  13.702  68.701  1.00  0.00    -0.154 NA 
HETATM   18  O   UNL     1      -5.927   8.539  69.090  1.00  0.00    -0.041 OA 
HETATM   19  C   UNL     1      -8.048   9.211  69.623  1.00  0.00    -0.106 A  
HETATM   20  C   UNL     1      -7.480  12.980  67.660  1.00  0.00    -0.156 C  
HETATM   21  O   UNL     1      -7.980   7.971  70.190  1.00  0.00    -0.101 OA 
HETATM   22  C   UNL     1      -9.123  10.091  69.626  1.00  0.00    -0.210 A  
HETATM   23  C   UNL     1      -8.970  11.320  68.934  1.00  0.00    -0.054 A  
HETATM   24  C   UNL     1      -6.687   7.516  69.750  1.00  0.00    -0.043 C  
BRANCH  22  25
HETATM   25  O   UNL     1     -10.338   9.881  70.222  1.00  0.00    -0.265 OA 
HETATM   26  C   UNL     1     -10.960   8.616  70.020  1.00  0.00    -0.203 C  
ENDBRANCH  22  25
ENDBRANCH   1  11
BRANCH   5  27
HETATM   27  O   UNL     1      -9.758  10.453  62.585  1.00  0.00    -0.298 OA 
HETATM   28  C   UNL     1      -8.482   9.878  62.346  1.00  0.00    -0.159 C  
ENDBRANCH   5  27
BRANCH   2  29
HETATM   29  O   UNL     1     -11.383  12.703  63.246  1.00  0.00    -0.460 OA 
HETATM   30  C   UNL     1     -12.759  12.680  62.887  1.00  0.00     0.624 C  
ENDBRANCH   2  29
TORSDOF 4
ENDMDL
MODEL      113
REMARK 921   NORMALIZED FREE ENERGY PREDICTED BY IDOCK:   -4.03 KCAL/MOL
REMARK 922        TOTAL FREE ENERGY PREDICTED BY IDOCK:   -5.78 KCAL/MOL
REMARK 923 INTER-LIGAND FREE ENERGY PREDICTED BY IDOCK:   -5.68 KCAL/MOL
REMARK 924 INTRA-LIGAND FREE ENERGY PREDICTED BY IDOCK:   -0.10 KCAL/MOL
REMARK 927      BINDING AFFINITY PREDICTED BY RF-SCORE:    0.00 PKD
ROOT
HETATM    1  C   UNL     1      -7.807  10.828  68.434  1.00  0.00    -0.120 C  
HETATM    2  C   UNL     1      -9.311   7.644  67.324  1.00  0.00    -0.144 A  
HETATM    3  O   UNL     1      -9.155  10.886  68.969  1.00  0.00    -0.163 OA 
HETATM    4  C   UNL     1      -9.908   9.793  68.629  1.00  0.00    -0.157 C  
HETATM    5  C   UNL     1      -8.258   6.964  66.673  1.00  0.00    -0.115 A  
HETATM    6  C   UNL     1      -9.024   8.885  67.895  1.00  0.00    -0.142 A  
HETATM    7  O   UNL     1     -11.077   9.640  68.913  1.00  0.00    -0.170 OA 
HETATM    8  C   UNL     1      -6.965   7.530  66.681  1.00  0.00    -0.074 A  
HETATM    9  C   UNL     1      -6.711   8.771  67.276  1.00  0.00    -0.063 A  
HETATM   10  C   UNL     1      -7.768   9.462  67.838  1.00  0.00    -0.088 A  
ENDROOT
BRANCH   1  11
HETATM   11  C   UNL     1      -7.524  12.082  67.505  1.00  0.00    -0.140 C  
HETATM   12  C   UNL     1      -9.364  13.856  67.411  1.00  0.00    -0.228 A  
HETATM   13  C   UNL     1      -5.313  12.943  68.286  1.00  0.00    -0.072 C  
HETATM   14  C   UNL     1      -7.381  14.006  69.033  1.00  0.00    -0.081 C  
HETATM   15  C   UNL     1     -10.568  14.368  66.910  1.00  0.00    -0.278 A  
HETATM   16  C   UNL     1     -11.219  13.651  65.934  1.00  0.00    -0.304 A  
HETATM   17  N   UNL     1      -6.709  13.220  68.011  1.00  0.00    -0.109 NA 
HETATM   18  O   UNL     1     -12.405  14.016  65.375  1.00  0.00    -0.427 OA 
HETATM   19  C   UNL     1     -10.715  12.475  65.420  1.00  0.00    -0.280 A  
HETATM   20  C   UNL     1      -8.609  14.690  68.427  1.00  0.00    -0.169 C  
HETATM   21  O   UNL     1     -11.551  11.968  64.466  1.00  0.00    -0.339 OA 
HETATM   22  C   UNL     1      -9.515  11.939  65.873  1.00  0.00    -0.214 A  
HETATM   23  C   UNL     1      -8.833  12.631  66.907  1.00  0.00    -0.201 A  
HETATM   24  C   UNL     1     -12.659  12.883  64.530  1.00  0.00    -0.350 C  
BRANCH  22  25
HETATM   25  O   UNL     1      -8.926  10.786  65.429  1.00  0.00    -0.185 OA 
HETATM   26  C   UNL     1      -9.577  10.075  64.380  1.00  0.00    -0.258 C  
ENDBRANCH  22  25
ENDBRANCH   1  11
BRANCH   5  27
HETATM   27  O   UNL     1      -8.559   5.793  66.032  1.00  0.00    -0.128 OA 
HETATM   28  C   UNL     1      -8.402   5.734  64.622  1.00  0.00    -0.102 C  
ENDBRANCH   5  27
BRANCH   2  29
HETATM   29  O   UNL     1     -10.617   7.243  67.373  1.00  0.00    -0.251 OA 
HETATM   30  C   UNL     1     -10.974   6.302  68.379  1.00  0.00    -0.325 C  
ENDBRANCH   2  29
TORSDOF 4
ENDMDL
MODEL      114
REMARK 921   NORMALIZED FREE ENERGY PREDICTED BY IDOCK:   -4.02 KCAL/MOL
REMARK 922        TOTAL FREE ENERGY PREDICTED BY IDOCK:   -5.76 KCAL/MOL
REMARK 923 INTER-LIGAND FREE ENERGY PREDICTED BY IDOCK:   -5.29 KCAL/MOL
REMARK 924 INTRA-LIGAND FREE ENERGY PREDICTED BY IDOCK:   -0.48 KCAL/MOL
REMARK 927      BINDING AFFINITY PREDICTED BY RF-SCORE:    0.00 PKD
ROOT
HETATM    1  C   UNL     1      -8.511   8.965  70.860  1.00  0.00    -0.186 C  
HETATM    2  C   UNL     1      -9.918  10.582  67.853  1.00  0.00    -0.169 A  
HETATM    3  O   UNL     1      -7.413   8.928  69.911  1.00  0.00    -0.053 OA 
HETATM    4  C   UNL     1      -7.749   9.456  68.692  1.00  0.00    -0.084 C  
HETATM    5  C   UNL     1     -11.212  10.990  68.245  1.00  0.00    -0.277 A  
HETATM    6  C   UNL     1      -9.116   9.965  68.815  1.00  0.00    -0.147 A  
HETATM    7  O   UNL     1      -7.018   9.487  67.725  1.00  0.00    -0.078 OA 
HETATM    8  C   UNL     1     -11.611  10.817  69.587  1.00  0.00    -0.388 A  
HETATM    9  C   UNL     1     -10.775  10.206  70.528  1.00  0.00    -0.295 A  
HETATM   10  C   UNL     1      -9.542   9.739  70.111  1.00  0.00    -0.287 A  
ENDROOT
BRANCH   1  11
HETATM   11  C   UNL     1      -8.859   7.502  71.363  1.00  0.00    -0.132 C  
HETATM   12  C   UNL     1      -7.419   5.611  70.418  1.00  0.00    -0.080 A  
HETATM   13  C   UNL     1      -8.811   7.677  73.854  1.00  0.00    -0.258 C  
HETATM   14  C   UNL     1      -6.892   6.769  72.647  1.00  0.00    -0.063 C  
HETATM   15  C   UNL     1      -7.100   4.672  69.429  1.00  0.00    -0.051 A  
HETATM   16  C   UNL     1      -7.907   4.602  68.318  1.00  0.00    -0.081 A  
HETATM   17  N   UNL     1      -8.325   7.010  72.662  1.00  0.00    -0.108 NA 
HETATM   18  O   UNL     1      -7.704   3.756  67.272  1.00  0.00    -0.078 OA 
HETATM   19  C   UNL     1      -9.023   5.399  68.164  1.00  0.00    -0.108 A  
HETATM   20  C   UNL     1      -6.575   5.627  71.677  1.00  0.00    -0.053 C  
HETATM   21  O   UNL     1      -9.646   5.130  66.979  1.00  0.00    -0.130 OA 
HETATM   22  C   UNL     1      -9.389   6.331  69.127  1.00  0.00    -0.131 A  
HETATM   23  C   UNL     1      -8.558   6.458  70.270  1.00  0.00    -0.135 A  
HETATM   24  C   UNL     1      -8.746   4.181  66.381  1.00  0.00    -0.115 C  
BRANCH  22  25
HETATM   25  O   UNL     1     -10.474   7.164  69.075  1.00  0.00    -0.201 OA 
HETATM   26  C   UNL     1     -11.700   6.682  69.616  1.00  0.00    -0.153 C  
ENDBRANCH  22  25
ENDBRANCH   1  11
BRANCH   5  27
HETATM   27  O   UNL     1     -12.033  11.509  67.280  1.00  0.00    -0.605 OA 
HETATM   28  C   UNL     1     -11.841  12.859  66.885  1.00  0.00    -0.379 C  
ENDBRANCH   5  27
BRANCH   2  29
HETATM   29  O   UNL     1      -9.401  10.652  66.589  1.00  0.00    -0.161 OA 
HETATM   30  C   UNL     1      -9.789   9.638  65.669  1.00  0.00    -0.299 C  
ENDBRANCH   2  29
TORSDOF 4
ENDMDL
MODEL      115
REMARK 921   NORMALIZED FREE ENERGY PREDICTED BY IDOCK:   -3.99 KCAL/MOL
REMARK 922        TOTAL FREE ENERGY PREDICTED BY IDOCK:   -5.73 KCAL/MOL
REMARK 923 INTER-LIGAND FREE ENERGY PREDICTED BY IDOCK:   -4.95 KCAL/MOL
REMARK 924 INTRA-LIGAND FREE ENERGY PREDICTED BY IDOCK:   -0.78 KCAL/MOL
REMARK 927      BINDING AFFINITY PREDICTED BY RF-SCORE:    0.00 PKD
ROOT
HETATM    1  C   UNL     1      -7.999   6.826  67.280  1.00  0.00    -0.114 C  
HETATM    2  C   UNL     1      -9.622   9.600  65.463  1.00  0.00    -0.283 A  
HETATM    3  O   UNL     1      -7.648   6.574  65.894  1.00  0.00    -0.082 OA 
HETATM    4  C   UNL     1      -8.196   7.489  65.034  1.00  0.00    -0.103 C  
HETATM    5  C   UNL     1     -10.191  10.401  66.478  1.00  0.00    -0.229 A  
HETATM    6  C   UNL     1      -8.893   8.478  65.859  1.00  0.00    -0.219 A  
HETATM    7  O   UNL     1      -8.090   7.455  63.826  1.00  0.00    -0.111 OA 
HETATM    8  C   UNL     1      -9.950  10.074  67.829  1.00  0.00    -0.203 A  
HETATM    9  C   UNL     1      -9.203   8.947  68.188  1.00  0.00    -0.145 A  
HETATM   10  C   UNL     1      -8.720   8.127  67.186  1.00  0.00    -0.130 A  
ENDROOT
BRANCH   1  11
HETATM   11  C   UNL     1      -8.746   5.573  67.900  1.00  0.00    -0.106 C  
HETATM   12  C   UNL     1      -9.946   5.960  70.126  1.00  0.00    -0.247 A  
HETATM   13  C   UNL     1     -10.235   4.769  66.063  1.00  0.00    -0.278 C  
HETATM   14  C   UNL     1     -11.138   6.153  67.861  1.00  0.00    -0.206 C  
HETATM   15  C   UNL     1      -9.966   6.053  71.524  1.00  0.00    -0.212 A  
HETATM   16  C   UNL     1      -8.792   5.830  72.203  1.00  0.00    -0.137 A  
HETATM   17  N   UNL     1     -10.114   5.211  67.438  1.00  0.00    -0.180 NA 
HETATM   18  O   UNL     1      -8.660   5.909  73.556  1.00  0.00    -0.120 OA 
HETATM   19  C   UNL     1      -7.618   5.494  71.562  1.00  0.00    -0.104 A  
HETATM   20  C   UNL     1     -11.259   6.125  69.387  1.00  0.00    -0.466 C  
HETATM   21  O   UNL     1      -6.607   5.327  72.464  1.00  0.00    -0.058 OA 
HETATM   22  C   UNL     1      -7.554   5.373  70.179  1.00  0.00    -0.073 A  
HETATM   23  C   UNL     1      -8.738   5.632  69.440  1.00  0.00    -0.109 A  
HETATM   24  C   UNL     1      -7.247   5.701  73.697  1.00  0.00    -0.087 C  
BRANCH  22  25
HETATM   25  O   UNL     1      -6.447   5.042  69.446  1.00  0.00    -0.036 OA 
HETATM   26  C   UNL     1      -6.192   3.658  69.227  1.00  0.00    -0.028 C  
ENDBRANCH  22  25
ENDBRANCH   1  11
BRANCH   5  27
HETATM   27  O   UNL     1     -10.984  11.448  66.090  1.00  0.00    -0.286 OA 
HETATM   28  C   UNL     1     -11.480  12.326  67.090  1.00  0.00    -0.352 C  
ENDBRANCH   5  27
BRANCH   2  29
HETATM   29  O   UNL     1      -9.792   9.768  64.116  1.00  0.00    -0.058 OA 
HETATM   30  C   UNL     1      -9.009  10.772  63.481  1.00  0.00    -0.185 C  
ENDBRANCH   2  29
TORSDOF 4
ENDMDL
MODEL      116
REMARK 921   NORMALIZED FREE ENERGY PREDICTED BY IDOCK:   -3.95 KCAL/MOL
REMARK 922        TOTAL FREE ENERGY PREDICTED BY IDOCK:   -5.68 KCAL/MOL
REMARK 923 INTER-LIGAND FREE ENERGY PREDICTED BY IDOCK:   -5.05 KCAL/MOL
REMARK 924 INTRA-LIGAND FREE ENERGY PREDICTED BY IDOCK:   -0.63 KCAL/MOL
REMARK 927      BINDING AFFINITY PREDICTED BY RF-SCORE:    0.00 PKD
ROOT
HETATM    1  C   UNL     1     -10.349   7.141  68.398  1.00  0.00    -0.194 C  
HETATM    2  C   UNL     1     -12.009   9.596  70.600  1.00  0.00    -0.229 A  
HETATM    3  O   UNL     1     -10.981   6.314  69.409  1.00  0.00    -0.300 OA 
HETATM    4  C   UNL     1     -11.632   7.050  70.364  1.00  0.00    -0.295 C  
HETATM    5  C   UNL     1     -11.772  10.842  69.980  1.00  0.00    -0.345 A  
HETATM    6  C   UNL     1     -11.525   8.453  69.960  1.00  0.00     0.090 A  
HETATM    7  O   UNL     1     -12.188   6.587  71.337  1.00  0.00    -0.338 OA 
HETATM    8  C   UNL     1     -11.122  10.876  68.728  1.00  0.00    -0.310 A  
HETATM    9  C   UNL     1     -10.661   9.708  68.110  1.00  0.00    -0.266 A  
HETATM   10  C   UNL     1     -10.828   8.503  68.766  1.00  0.00     0.004 A  
ENDROOT
BRANCH   1  11
HETATM   11  C   UNL     1      -8.789   6.860  68.348  1.00  0.00    -0.123 C  
HETATM   12  C   UNL     1      -7.932   4.974  69.849  1.00  0.00    -0.074 A  
HETATM   13  C   UNL     1      -8.295   6.539  65.921  1.00  0.00    -0.140 C  
HETATM   14  C   UNL     1      -8.562   4.605  67.388  1.00  0.00    -0.104 C  
HETATM   15  C   UNL     1      -7.493   4.473  71.081  1.00  0.00    -0.060 A  
HETATM   16  C   UNL     1      -7.415   5.343  72.143  1.00  0.00    -0.095 A  
HETATM   17  N   UNL     1      -8.214   6.012  67.269  1.00  0.00    -0.106 NA 
HETATM   18  O   UNL     1      -7.028   4.990  73.399  1.00  0.00    -0.072 OA 
HETATM   19  C   UNL     1      -7.726   6.682  72.025  1.00  0.00    -0.097 A  
HETATM   20  C   UNL     1      -7.937   4.031  68.662  1.00  0.00    -0.071 C  
HETATM   21  O   UNL     1      -7.564   7.320  73.222  1.00  0.00    -0.081 OA 
HETATM   22  C   UNL     1      -8.149   7.227  70.819  1.00  0.00    -0.111 A  
HETATM   23  C   UNL     1      -8.276   6.352  69.710  1.00  0.00    -0.126 A  
HETATM   24  C   UNL     1      -7.237   6.227  74.097  1.00  0.00    -0.086 C  
BRANCH  22  25
HETATM   25  O   UNL     1      -8.476   8.537  70.595  1.00  0.00    -0.126 OA 
HETATM   26  C   UNL     1      -7.408   9.458  70.397  1.00  0.00    -0.121 C  
ENDBRANCH  22  25
ENDBRANCH   1  11
BRANCH   5  27
HETATM   27  O   UNL     1     -12.163  11.969  70.652  1.00  0.00    -0.374 OA 
HETATM   28  C   UNL     1     -11.919  13.233  70.051  1.00  0.00    -0.329 C  
ENDBRANCH   5  27
BRANCH   2  29
HETATM   29  O   UNL     1     -12.593   9.403  71.821  1.00  0.00    -0.335 OA 
HETATM   30  C   UNL     1     -14.014   9.443  71.878  1.00  0.00    -0.234 C  
ENDBRANCH   2  29
TORSDOF 4
ENDMDL
MODEL      117
REMARK 921   NORMALIZED FREE ENERGY PREDICTED BY IDOCK:   -3.91 KCAL/MOL
REMARK 922        TOTAL FREE ENERGY PREDICTED BY IDOCK:   -5.63 KCAL/MOL
REMARK 923 INTER-LIGAND FREE ENERGY PREDICTED BY IDOCK:   -4.77 KCAL/MOL
REMARK 924 INTRA-LIGAND FREE ENERGY PREDICTED BY IDOCK:   -0.86 KCAL/MOL
REMARK 927      BINDING AFFINITY PREDICTED BY RF-SCORE:    0.00 PKD
ROOT
HETATM    1  C   UNL     1     -10.077   9.821  67.331  1.00  0.00    -0.208 C  
HETATM    2  C   UNL     1      -9.297  13.378  67.938  1.00  0.00    -0.216 A  
HETATM    3  O   UNL     1     -11.378  10.463  67.291  1.00  0.00    -0.327 OA 
HETATM    4  C   UNL     1     -11.312  11.810  67.537  1.00  0.00    -0.310 C  
HETATM    5  C   UNL     1      -7.888  13.423  68.005  1.00  0.00    -0.148 A  
HETATM    6  C   UNL     1      -9.892  12.144  67.671  1.00  0.00    -0.194 A  
HETATM    7  O   UNL     1     -12.270  12.549  67.611  1.00  0.00    -0.401 OA 
HETATM    8  C   UNL     1      -7.148  12.251  67.742  1.00  0.00    -0.114 A  
HETATM    9  C   UNL     1      -7.778  11.033  67.464  1.00  0.00    -0.114 A  
HETATM   10  C   UNL     1      -9.160  10.986  67.481  1.00  0.00    -0.138 A  
ENDROOT
BRANCH   1  11
HETATM   11  C   UNL     1     -10.057   8.676  68.428  1.00  0.00    -0.191 C  
HETATM   12  C   UNL     1      -7.753   7.774  69.076  1.00  0.00    -0.109 A  
HETATM   13  C   UNL     1     -11.357   9.625  70.337  1.00  0.00    -0.277 C  
HETATM   14  C   UNL     1      -8.915   9.657  70.375  1.00  0.00    -0.187 C  
HETATM   15  C   UNL     1      -6.649   6.934  68.877  1.00  0.00    -0.044 A  
HETATM   16  C   UNL     1      -6.681   6.066  67.811  1.00  0.00    -0.058 A  
HETATM   17  N   UNL     1     -10.123   9.022  69.874  1.00  0.00    -0.193 NA 
HETATM   18  O   UNL     1      -5.673   5.212  67.485  1.00  0.00    -0.012 OA 
HETATM   19  C   UNL     1      -7.764   5.979  66.961  1.00  0.00    -0.101 A  
HETATM   20  C   UNL     1      -7.749   8.669  70.299  1.00  0.00    -0.083 C  
HETATM   21  O   UNL     1      -7.541   5.043  65.992  1.00  0.00    -0.085 OA 
HETATM   22  C   UNL     1      -8.887   6.778  67.130  1.00  0.00    -0.119 A  
HETATM   23  C   UNL     1      -8.875   7.713  68.198  1.00  0.00    -0.125 A  
HETATM   24  C   UNL     1      -6.183   4.653  66.265  1.00  0.00    -0.032 C  
BRANCH  22  25
HETATM   25  O   UNL     1     -10.012   6.768  66.350  1.00  0.00    -0.116 OA 
HETATM   26  C   UNL     1     -10.910   5.674  66.503  1.00  0.00    -0.165 C  
ENDBRANCH  22  25
ENDBRANCH   1  11
BRANCH   5  27
HETATM   27  O   UNL     1      -7.307  14.612  68.359  1.00  0.00    -0.102 OA 
HETATM   28  C   UNL     1      -6.658  15.374  67.351  1.00  0.00    -0.116 C  
ENDBRANCH   5  27
BRANCH   2  29
HETATM   29  O   UNL     1     -10.149  14.416  68.200  1.00  0.00    -0.217 OA 
HETATM   30  C   UNL     1     -10.398  15.337  67.144  1.00  0.00    -0.265 C  
ENDBRANCH   2  29
TORSDOF 4
ENDMDL
MODEL      118
REMARK 921   NORMALIZED FREE ENERGY PREDICTED BY IDOCK:   -3.89 KCAL/MOL
REMARK 922        TOTAL FREE ENERGY PREDICTED BY IDOCK:   -5.61 KCAL/MOL
REMARK 923 INTER-LIGAND FREE ENERGY PREDICTED BY IDOCK:   -5.31 KCAL/MOL
REMARK 924 INTRA-LIGAND FREE ENERGY PREDICTED BY IDOCK:   -0.30 KCAL/MOL
REMARK 927      BINDING AFFINITY PREDICTED BY RF-SCORE:    0.00 PKD
ROOT
HETATM    1  C   UNL     1     -10.517   9.450  67.469  1.00  0.00    -0.280 C  
HETATM    2  C   UNL     1     -11.158   7.200  70.325  1.00  0.00    -0.274 A  
HETATM    3  O   UNL     1     -10.745   8.162  66.840  1.00  0.00    -0.309 OA 
HETATM    4  C   UNL     1     -10.968   7.161  67.748  1.00  0.00    -0.117 C  
HETATM    5  C   UNL     1     -11.137   8.048  71.454  1.00  0.00    -0.241 A  
HETATM    6  C   UNL     1     -10.983   7.788  69.071  1.00  0.00     0.056 A  
HETATM    7  O   UNL     1     -11.130   5.992  67.466  1.00  0.00    -0.302 OA 
HETATM    8  C   UNL     1     -11.005   9.440  71.266  1.00  0.00    -0.440 A  
HETATM    9  C   UNL     1     -10.843   9.996  69.992  1.00  0.00    -0.352 A  
HETATM   10  C   UNL     1     -10.785   9.147  68.903  1.00  0.00    -0.167 A  
ENDROOT
BRANCH   1  11
HETATM   11  C   UNL     1      -9.098  10.026  67.055  1.00  0.00    -0.142 C  
HETATM   12  C   UNL     1      -8.063   9.056  64.926  1.00  0.00    -0.137 A  
HETATM   13  C   UNL     1      -9.429  12.501  66.995  1.00  0.00    -0.217 C  
HETATM   14  C   UNL     1      -9.468  11.203  64.926  1.00  0.00    -0.219 C  
HETATM   15  C   UNL     1      -7.329   8.081  64.238  1.00  0.00    -0.095 A  
HETATM   16  C   UNL     1      -6.816   7.029  64.958  1.00  0.00    -0.051 A  
HETATM   17  N   UNL     1      -9.000  11.304  66.298  1.00  0.00    -0.193 NA 
HETATM   18  O   UNL     1      -6.105   6.002  64.418  1.00  0.00    -0.025 OA 
HETATM   19  C   UNL     1      -6.975   6.920  66.324  1.00  0.00    -0.069 A  
HETATM   20  C   UNL     1      -8.557  10.256  64.142  1.00  0.00    -0.198 C  
HETATM   21  O   UNL     1      -6.370   5.789  66.791  1.00  0.00    -0.036 OA 
HETATM   22  C   UNL     1      -7.680   7.871  67.052  1.00  0.00    -0.100 A  
HETATM   23  C   UNL     1      -8.256   8.953  66.336  1.00  0.00    -0.115 A  
HETATM   24  C   UNL     1      -5.928   5.166  65.572  1.00  0.00    -0.025 C  
BRANCH  22  25
HETATM   25  O   UNL     1      -7.893   7.861  68.404  1.00  0.00    -0.115 OA 
HETATM   26  C   UNL     1      -6.769   7.616  69.245  1.00  0.00    -0.044 C  
ENDBRANCH  22  25
ENDBRANCH   1  11
BRANCH   5  27
HETATM   27  O   UNL     1     -11.216   7.462  72.689  1.00  0.00    -0.294 OA 
HETATM   28  C   UNL     1     -10.016   7.277  73.426  1.00  0.00    -0.296 C  
ENDBRANCH   5  27
BRANCH   2  29
HETATM   29  O   UNL     1     -11.245   5.835  70.346  1.00  0.00    -0.286 OA 
HETATM   30  C   UNL     1     -10.029   5.106  70.459  1.00  0.00    -0.234 C  
ENDBRANCH   2  29
TORSDOF 4
ENDMDL
MODEL      119
REMARK 921   NORMALIZED FREE ENERGY PREDICTED BY IDOCK:   -3.89 KCAL/MOL
REMARK 922        TOTAL FREE ENERGY PREDICTED BY IDOCK:   -5.61 KCAL/MOL
REMARK 923 INTER-LIGAND FREE ENERGY PREDICTED BY IDOCK:   -6.24 KCAL/MOL
REMARK 924 INTRA-LIGAND FREE ENERGY PREDICTED BY IDOCK:    0.63 KCAL/MOL
REMARK 927      BINDING AFFINITY PREDICTED BY RF-SCORE:    0.00 PKD
ROOT
HETATM    1  C   UNL     1     -11.486  12.282  66.767  1.00  0.00    -0.361 C  
HETATM    2  C   UNL     1     -12.143  13.414  70.219  1.00  0.00    -0.349 A  
HETATM    3  O   UNL     1     -11.438  11.054  67.540  1.00  0.00    -0.468 OA 
HETATM    4  C   UNL     1     -11.623  11.265  68.881  1.00  0.00    -0.319 C  
HETATM    5  C   UNL     1     -12.392  14.799  70.095  1.00  0.00    -0.330 A  
HETATM    6  C   UNL     1     -11.899  12.694  69.049  1.00  0.00    -0.341 A  
HETATM    7  O   UNL     1     -11.571  10.403  69.732  1.00  0.00    -0.257 OA 
HETATM    8  C   UNL     1     -12.446  15.375  68.808  1.00  0.00     0.264 A  
HETATM    9  C   UNL     1     -12.208  14.619  67.655  1.00  0.00    -0.082 A  
HETATM   10  C   UNL     1     -11.886  13.282  67.797  1.00  0.00    -0.394 A  
ENDROOT
BRANCH   1  11
HETATM   11  C   UNL     1     -10.128  12.492  65.974  1.00  0.00    -0.253 C  
HETATM   12  C   UNL     1      -8.211  10.910  66.579  1.00  0.00    -0.157 A  
HETATM   13  C   UNL     1     -10.797  12.415  63.569  1.00  0.00    -0.438 C  
HETATM   14  C   UNL     1      -9.828  10.446  64.640  1.00  0.00    -0.338 C  
HETATM   15  C   UNL     1      -7.124  10.527  67.375  1.00  0.00    -0.090 A  
HETATM   16  C   UNL     1      -6.769  11.345  68.422  1.00  0.00    -0.065 A  
HETATM   17  N   UNL     1      -9.948  11.895  64.623  1.00  0.00    -0.250 NA 
HETATM   18  O   UNL     1      -5.752  11.087  69.289  1.00  0.00    -0.041 OA 
HETATM   19  C   UNL     1      -7.425  12.528  68.691  1.00  0.00    -0.090 A  
HETATM   20  C   UNL     1      -8.546  10.049  65.378  1.00  0.00    -0.162 C  
HETATM   21  O   UNL     1      -6.877  13.147  69.778  1.00  0.00     0.061 OA 
HETATM   22  C   UNL     1      -8.497  12.957  67.918  1.00  0.00    -0.181 A  
HETATM   23  C   UNL     1      -8.916  12.120  66.851  1.00  0.00    -0.201 A  
HETATM   24  C   UNL     1      -5.905  12.177  70.209  1.00  0.00    -0.161 C  
BRANCH  22  25
HETATM   25  O   UNL     1      -9.211  14.111  68.095  1.00  0.00    -0.181 OA 
HETATM   26  C   UNL     1      -8.961  14.865  69.277  1.00  0.00    -0.099 C  
ENDBRANCH  22  25
ENDBRANCH   1  11
BRANCH   5  27
HETATM   27  O   UNL     1     -12.538  15.523  71.247  1.00  0.00    -0.381 OA 
HETATM   28  C   UNL     1     -13.806  15.524  71.888  1.00  0.00    -0.488 C  
ENDBRANCH   5  27
BRANCH   2  29
HETATM   29  O   UNL     1     -12.027  12.720  71.392  1.00  0.00     0.282 OA 
HETATM   30  C   UNL     1     -13.219  12.182  71.951  1.00  0.00    -0.369 C  
ENDBRANCH   2  29
TORSDOF 4
ENDMDL
MODEL      120
REMARK 921   NORMALIZED FREE ENERGY PREDICTED BY IDOCK:   -3.86 KCAL/MOL
REMARK 922        TOTAL FREE ENERGY PREDICTED BY IDOCK:   -5.57 KCAL/MOL
REMARK 923 INTER-LIGAND FREE ENERGY PREDICTED BY IDOCK:   -4.83 KCAL/MOL
REMARK 924 INTRA-LIGAND FREE ENERGY PREDICTED BY IDOCK:   -0.74 KCAL/MOL
REMARK 927      BINDING AFFINITY PREDICTED BY RF-SCORE:    0.00 PKD
ROOT
HETATM    1  C   UNL     1     -10.120  11.690  66.352  1.00  0.00    -0.214 C  
HETATM    2  C   UNL     1      -9.884  14.994  67.982  1.00  0.00    -0.218 A  
HETATM    3  O   UNL     1     -11.461  12.230  66.217  1.00  0.00    -0.342 OA 
HETATM    4  C   UNL     1     -11.597  13.461  66.803  1.00  0.00    -0.365 C  
HETATM    5  C   UNL     1      -8.523  15.114  68.339  1.00  0.00    -0.157 A  
HETATM    6  C   UNL     1     -10.273  13.841  67.298  1.00  0.00    -0.253 A  
HETATM    7  O   UNL     1     -12.634  14.087  66.867  1.00  0.00    -0.262 OA 
HETATM    8  C   UNL     1      -7.616  14.110  67.942  1.00  0.00    -0.162 A  
HETATM    9  C   UNL     1      -8.040  12.973  67.246  1.00  0.00    -0.164 A  
HETATM   10  C   UNL     1      -9.387  12.829  66.973  1.00  0.00    -0.229 A  
ENDROOT
BRANCH   1  11
HETATM   11  C   UNL     1     -10.158  10.295  67.106  1.00  0.00    -0.210 C  
HETATM   12  C   UNL     1      -7.950   9.503  68.128  1.00  0.00    -0.094 A  
HETATM   13  C   UNL     1     -12.020  10.531  68.753  1.00  0.00     0.102 C  
HETATM   14  C   UNL     1      -9.702  10.816  69.467  1.00  0.00     0.017 C  
HETATM   15  C   UNL     1      -6.700   8.876  68.045  1.00  0.00    -0.069 A  
HETATM   16  C   UNL     1      -6.324   8.340  66.836  1.00  0.00    -0.056 A  
HETATM   17  N   UNL     1     -10.625  10.217  68.517  1.00  0.00    -0.204 NA 
HETATM   18  O   UNL     1      -5.132   7.724  66.605  1.00  0.00    -0.023 OA 
HETATM   19  C   UNL     1      -7.142   8.375  65.725  1.00  0.00    -0.071 A  
HETATM   20  C   UNL     1      -8.395  10.020  69.481  1.00  0.00    -0.180 C  
HETATM   21  O   UNL     1      -6.534   7.774  64.661  1.00  0.00    -0.044 OA 
HETATM   22  C   UNL     1      -8.397   8.970  65.765  1.00  0.00    -0.128 A  
HETATM   23  C   UNL     1      -8.804   9.567  66.986  1.00  0.00    -0.139 A  
HETATM   24  C   UNL     1      -5.232   7.473  65.196  1.00  0.00    -0.029 C  
BRANCH  22  25
HETATM   25  O   UNL     1      -9.285   9.055  64.727  1.00  0.00    -0.123 OA 
HETATM   26  C   UNL     1      -8.905   9.836  63.598  1.00  0.00    -0.236 C  
ENDBRANCH  22  25
ENDBRANCH   1  11
BRANCH   5  27
HETATM   27  O   UNL     1      -8.158  16.199  69.091  1.00  0.00    -0.229 OA 
HETATM   28  C   UNL     1      -6.786  16.363  69.419  1.00  0.00    -0.217 C  
ENDBRANCH   5  27
BRANCH   2  29
HETATM   29  O   UNL     1     -10.885  15.863  68.321  1.00  0.00    -0.287 OA 
HETATM   30  C   UNL     1     -10.886  17.136  67.685  1.00  0.00    -0.241 C  
ENDBRANCH   2  29
TORSDOF 4
ENDMDL
MODEL      121
REMARK 921   NORMALIZED FREE ENERGY PREDICTED BY IDOCK:   -3.82 KCAL/MOL
REMARK 922        TOTAL FREE ENERGY PREDICTED BY IDOCK:   -5.52 KCAL/MOL
REMARK 923 INTER-LIGAND FREE ENERGY PREDICTED BY IDOCK:   -4.65 KCAL/MOL
REMARK 924 INTRA-LIGAND FREE ENERGY PREDICTED BY IDOCK:   -0.87 KCAL/MOL
REMARK 927      BINDING AFFINITY PREDICTED BY RF-SCORE:    0.00 PKD
ROOT
HETATM    1  C   UNL     1      -9.399   5.702  67.985  1.00  0.00    -0.108 C  
HETATM    2  C   UNL     1     -10.908   7.098  71.052  1.00  0.00    -0.240 A  
HETATM    3  O   UNL     1      -9.518   4.548  68.858  1.00  0.00    -0.136 OA 
HETATM    4  C   UNL     1     -10.032   4.866  70.088  1.00  0.00    -0.255 C  
HETATM    5  C   UNL     1     -11.146   8.454  70.742  1.00  0.00    -0.258 A  
HETATM    6  C   UNL     1     -10.369   6.290  70.049  1.00  0.00    -0.252 A  
HETATM    7  O   UNL     1     -10.174   4.083  71.003  1.00  0.00    -0.090 OA 
HETATM    8  C   UNL     1     -10.893   8.916  69.433  1.00  0.00    -0.133 A  
HETATM    9  C   UNL     1     -10.364   8.074  68.448  1.00  0.00    -0.236 A  
HETATM   10  C   UNL     1     -10.060   6.769  68.788  1.00  0.00    -0.165 A  
ENDROOT
BRANCH   1  11
HETATM   11  C   UNL     1      -7.892   5.901  67.531  1.00  0.00    -0.098 C  
HETATM   12  C   UNL     1      -7.151   8.310  67.098  1.00  0.00    -0.079 A  
HETATM   13  C   UNL     1      -6.557   4.718  69.279  1.00  0.00    -0.040 C  
HETATM   14  C   UNL     1      -6.817   7.146  69.360  1.00  0.00    -0.050 C  
HETATM   15  C   UNL     1      -7.038   9.446  66.285  1.00  0.00    -0.088 A  
HETATM   16  C   UNL     1      -7.533   9.376  65.004  1.00  0.00    -0.106 A  
HETATM   17  N   UNL     1      -6.803   5.943  68.543  1.00  0.00    -0.067 NA 
HETATM   18  O   UNL     1      -7.512  10.406  64.115  1.00  0.00    -0.103 OA 
HETATM   19  C   UNL     1      -8.103   8.228  64.493  1.00  0.00    -0.146 A  
HETATM   20  C   UNL     1      -6.531   8.365  68.480  1.00  0.00    -0.055 C  
HETATM   21  O   UNL     1      -8.509   8.425  63.205  1.00  0.00    -0.134 OA 
HETATM   22  C   UNL     1      -8.221   7.073  65.256  1.00  0.00    -0.128 A  
HETATM   23  C   UNL     1      -7.754   7.119  66.596  1.00  0.00    -0.097 A  
HETATM   24  C   UNL     1      -8.236   9.825  63.020  1.00  0.00    -0.152 C  
BRANCH  22  25
HETATM   25  O   UNL     1      -8.764   5.885  64.847  1.00  0.00    -0.090 OA 
HETATM   26  C   UNL     1      -7.985   5.072  63.975  1.00  0.00    -0.102 C  
ENDBRANCH  22  25
ENDBRANCH   1  11
BRANCH   5  27
HETATM   27  O   UNL     1     -11.587   9.268  71.751  1.00  0.00    -0.366 OA 
HETATM   28  C   UNL     1     -12.986   9.449  71.911  1.00  0.00    -0.417 C  
ENDBRANCH   5  27
BRANCH   2  29
HETATM   29  O   UNL     1     -11.070   6.512  72.277  1.00  0.00    -0.241 OA 
HETATM   30  C   UNL     1     -10.050   6.729  73.245  1.00  0.00    -0.219 C  
ENDBRANCH   2  29
TORSDOF 4
ENDMDL
MODEL      122
REMARK 921   NORMALIZED FREE ENERGY PREDICTED BY IDOCK:   -3.79 KCAL/MOL
REMARK 922        TOTAL FREE ENERGY PREDICTED BY IDOCK:   -5.48 KCAL/MOL
REMARK 923 INTER-LIGAND FREE ENERGY PREDICTED BY IDOCK:   -7.57 KCAL/MOL
REMARK 924 INTRA-LIGAND FREE ENERGY PREDICTED BY IDOCK:    2.09 KCAL/MOL
REMARK 927      BINDING AFFINITY PREDICTED BY RF-SCORE:    0.00 PKD
ROOT
HETATM    1  C   UNL     1      -8.851  14.595  68.295  1.00  0.00    -0.176 C  
HETATM    2  C   UNL     1     -11.929  13.115  69.699  1.00  0.00    -0.306 A  
HETATM    3  O   UNL     1      -9.499  15.718  68.948  1.00  0.00    -0.201 OA 
HETATM    4  C   UNL     1     -10.702  15.382  69.511  1.00  0.00    -0.267 C  
HETATM    5  C   UNL     1     -11.828  11.739  69.397  1.00  0.00    -0.334 A  
HETATM    6  C   UNL     1     -10.868  13.939  69.320  1.00  0.00    -0.170 A  
HETATM    7  O   UNL     1     -11.451  16.159  70.062  1.00  0.00    -0.330 OA 
HETATM    8  C   UNL     1     -10.651  11.252  68.791  1.00  0.00    -0.234 A  
HETATM    9  C   UNL     1      -9.601  12.107  68.436  1.00  0.00    -0.186 A  
HETATM   10  C   UNL     1      -9.747  13.462  68.664  1.00  0.00    -0.084 A  
ENDROOT
BRANCH   1  11
HETATM   11  C   UNL     1      -8.602  14.913  66.762  1.00  0.00    -0.222 C  
HETATM   12  C   UNL     1     -10.687  15.352  65.346  1.00  0.00    -0.416 A  
HETATM   13  C   UNL     1      -6.962  16.796  66.779  1.00  0.00    -0.234 C  
HETATM   14  C   UNL     1      -9.341  17.239  66.448  1.00  0.00    -0.258 C  
HETATM   15  C   UNL     1     -11.779  14.923  64.581  1.00  0.00    -0.406 A  
HETATM   16  C   UNL     1     -11.942  13.571  64.389  1.00  0.00    -0.422 A  
HETATM   17  N   UNL     1      -8.245  16.291  66.330  1.00  0.00    -0.318 NA 
HETATM   18  O   UNL     1     -12.968  13.013  63.689  1.00  0.00    -0.535 OA 
HETATM   19  C   UNL     1     -11.061  12.640  64.897  1.00  0.00    -0.296 A  
HETATM   20  C   UNL     1     -10.464  16.845  65.485  1.00  0.00    -0.220 C  
HETATM   21  O   UNL     1     -11.451  11.375  64.563  1.00  0.00    -0.202 OA 
HETATM   22  C   UNL     1      -9.954  13.020  65.646  1.00  0.00    -0.230 A  
HETATM   23  C   UNL     1      -9.772  14.405  65.896  1.00  0.00    -0.305 A  
HETATM   24  C   UNL     1     -12.706  11.618  63.904  1.00  0.00    -0.051 C  
BRANCH  22  25
HETATM   25  O   UNL     1      -9.019  12.181  66.190  1.00  0.00    -0.160 OA 
HETATM   26  C   UNL     1      -8.425  11.212  65.332  1.00  0.00     0.043 C  
ENDBRANCH  22  25
ENDBRANCH   1  11
BRANCH   5  27
HETATM   27  O   UNL     1     -12.907  10.946  69.683  1.00  0.00    -0.197 OA 
HETATM   28  C   UNL     1     -12.852  10.123  70.839  1.00  0.00    -0.355 C  
ENDBRANCH   5  27
BRANCH   2  29
HETATM   29  O   UNL     1     -13.013  13.740  70.251  1.00  0.00    -0.129 OA 
HETATM   30  C   UNL     1     -13.138  13.698  71.667  1.00  0.00    -0.372 C  
ENDBRANCH   2  29
TORSDOF 4
ENDMDL
MODEL      123
REMARK 921   NORMALIZED FREE ENERGY PREDICTED BY IDOCK:   -3.77 KCAL/MOL
REMARK 922        TOTAL FREE ENERGY PREDICTED BY IDOCK:   -5.46 KCAL/MOL
REMARK 923 INTER-LIGAND FREE ENERGY PREDICTED BY IDOCK:   -4.86 KCAL/MOL
REMARK 924 INTRA-LIGAND FREE ENERGY PREDICTED BY IDOCK:   -0.61 KCAL/MOL
REMARK 927      BINDING AFFINITY PREDICTED BY RF-SCORE:    0.00 PKD
ROOT
HETATM    1  C   UNL     1      -9.011   6.305  68.715  1.00  0.00    -0.125 C  
HETATM    2  C   UNL     1     -11.419   6.593  71.499  1.00  0.00    -0.297 A  
HETATM    3  O   UNL     1      -9.073   4.957  69.249  1.00  0.00    -0.095 OA 
HETATM    4  C   UNL     1      -9.900   4.855  70.337  1.00  0.00    -0.232 C  
HETATM    5  C   UNL     1     -11.865   7.932  71.442  1.00  0.00    -0.299 A  
HETATM    6  C   UNL     1     -10.514   6.172  70.523  1.00  0.00    -0.291 A  
HETATM    7  O   UNL     1     -10.072   3.846  70.986  1.00  0.00    -0.134 OA 
HETATM    8  C   UNL     1     -11.434   8.756  70.382  1.00  0.00    -0.163 A  
HETATM    9  C   UNL     1     -10.535   8.296  69.413  1.00  0.00    -0.224 A  
HETATM   10  C   UNL     1     -10.044   7.009  69.527  1.00  0.00    -0.179 A  
ENDROOT
BRANCH   1  11
HETATM   11  C   UNL     1      -7.519   6.841  68.732  1.00  0.00    -0.096 C  
HETATM   12  C   UNL     1      -7.139   9.087  69.897  1.00  0.00    -0.053 A  
HETATM   13  C   UNL     1      -6.195   4.954  69.693  1.00  0.00    -0.029 C  
HETATM   14  C   UNL     1      -6.852   6.838  71.101  1.00  0.00    -0.058 C  
HETATM   15  C   UNL     1      -7.130  10.487  69.916  1.00  0.00    -0.148 A  
HETATM   16  C   UNL     1      -7.473  11.152  68.762  1.00  0.00    -0.118 A  
HETATM   17  N   UNL     1      -6.559   6.355  69.761  1.00  0.00    -0.046 NA 
HETATM   18  O   UNL     1      -7.530  12.507  68.644  1.00  0.00    -0.111 OA 
HETATM   19  C   UNL     1      -7.795  10.490  67.595  1.00  0.00    -0.105 A  
HETATM   20  C   UNL     1      -6.680   8.359  71.145  1.00  0.00    -0.052 C  
HETATM   21  O   UNL     1      -8.094  11.380  66.604  1.00  0.00    -0.157 OA 
HETATM   22  C   UNL     1      -7.800   9.103  67.524  1.00  0.00    -0.100 A  
HETATM   23  C   UNL     1      -7.486   8.382  68.706  1.00  0.00    -0.092 A  
HETATM   24  C   UNL     1      -8.035  12.635  67.306  1.00  0.00    -0.166 C  
BRANCH  22  25
HETATM   25  O   UNL     1      -8.098   8.351  66.420  1.00  0.00    -0.100 OA 
HETATM   26  C   UNL     1      -7.190   8.401  65.324  1.00  0.00    -0.082 C  
ENDBRANCH  22  25
ENDBRANCH   1  11
BRANCH   5  27
HETATM   27  O   UNL     1     -12.679   8.373  72.451  1.00  0.00    -0.344 OA 
HETATM   28  C   UNL     1     -14.041   8.641  72.152  1.00  0.00    -0.441 C  
ENDBRANCH   5  27
BRANCH   2  29
HETATM   29  O   UNL     1     -11.720   5.686  72.477  1.00  0.00    -0.297 OA 
HETATM   30  C   UNL     1     -10.866   5.646  73.614  1.00  0.00    -0.221 C  
ENDBRANCH   2  29
TORSDOF 4
ENDMDL
MODEL      124
REMARK 921   NORMALIZED FREE ENERGY PREDICTED BY IDOCK:   -3.77 KCAL/MOL
REMARK 922        TOTAL FREE ENERGY PREDICTED BY IDOCK:   -5.46 KCAL/MOL
REMARK 923 INTER-LIGAND FREE ENERGY PREDICTED BY IDOCK:   -4.90 KCAL/MOL
REMARK 924 INTRA-LIGAND FREE ENERGY PREDICTED BY IDOCK:   -0.56 KCAL/MOL
REMARK 927      BINDING AFFINITY PREDICTED BY RF-SCORE:    0.00 PKD
ROOT
HETATM    1  C   UNL     1     -10.026   9.608  67.176  1.00  0.00    -0.194 C  
HETATM    2  C   UNL     1     -10.701   7.158  69.854  1.00  0.00    -0.239 A  
HETATM    3  O   UNL     1     -10.600   8.480  66.465  1.00  0.00    -0.200 OA 
HETATM    4  C   UNL     1     -10.892   7.427  67.291  1.00  0.00    -0.256 C  
HETATM    5  C   UNL     1     -10.346   7.829  71.044  1.00  0.00    -0.202 A  
HETATM    6  C   UNL     1     -10.589   7.864  68.655  1.00  0.00    -0.145 A  
HETATM    7  O   UNL     1     -11.328   6.357  66.922  1.00  0.00    -0.304 OA 
HETATM    8  C   UNL     1      -9.960   9.185  70.980  1.00  0.00    -0.367 A  
HETATM    9  C   UNL     1      -9.871   9.865  69.761  1.00  0.00    -0.268 A  
HETATM   10  C   UNL     1     -10.143   9.172  68.596  1.00  0.00    -0.212 A  
ENDROOT
BRANCH   1  11
HETATM   11  C   UNL     1      -8.593   9.960  66.593  1.00  0.00    -0.125 C  
HETATM   12  C   UNL     1      -6.653   9.909  68.259  1.00  0.00    -0.055 A  
HETATM   13  C   UNL     1      -8.317   8.411  64.654  1.00  0.00    -0.127 C  
HETATM   14  C   UNL     1      -7.277   7.891  66.802  1.00  0.00    -0.088 C  
HETATM   15  C   UNL     1      -5.857  10.493  69.254  1.00  0.00    -0.037 A  
HETATM   16  C   UNL     1      -6.142  11.783  69.636  1.00  0.00    -0.119 A  
HETATM   17  N   UNL     1      -7.787   8.916  65.905  1.00  0.00    -0.100 NA 
HETATM   18  O   UNL     1      -5.469  12.464  70.603  1.00  0.00    -0.142 OA 
HETATM   19  C   UNL     1      -7.155  12.519  69.057  1.00  0.00    -0.037 A  
HETATM   20  C   UNL     1      -6.284   8.519  67.783  1.00  0.00    -0.052 C  
HETATM   21  O   UNL     1      -7.225  13.763  69.615  1.00  0.00     0.098 OA 
HETATM   22  C   UNL     1      -7.958  11.988  68.055  1.00  0.00    -0.149 A  
HETATM   23  C   UNL     1      -7.718  10.646  67.660  1.00  0.00    -0.097 A  
HETATM   24  C   UNL     1      -6.239  13.675  70.658  1.00  0.00     0.005 C  
BRANCH  22  25
HETATM   25  O   UNL     1      -8.983  12.631  67.414  1.00  0.00    -0.173 OA 
HETATM   26  C   UNL     1     -10.114  13.008  68.194  1.00  0.00    -0.237 C  
ENDBRANCH  22  25
ENDBRANCH   1  11
BRANCH   5  27
HETATM   27  O   UNL     1     -10.366   7.110  72.209  1.00  0.00    -0.195 OA 
HETATM   28  C   UNL     1     -10.053   7.779  73.422  1.00  0.00    -0.263 C  
ENDBRANCH   5  27
BRANCH   2  29
HETATM   29  O   UNL     1     -11.062   5.842  69.749  1.00  0.00    -0.377 OA 
HETATM   30  C   UNL     1     -10.018   4.876  69.779  1.00  0.00    -0.244 C  
ENDBRANCH   2  29
TORSDOF 4
ENDMDL
MODEL      125
REMARK 921   NORMALIZED FREE ENERGY PREDICTED BY IDOCK:   -3.75 KCAL/MOL
REMARK 922        TOTAL FREE ENERGY PREDICTED BY IDOCK:   -5.44 KCAL/MOL
REMARK 923 INTER-LIGAND FREE ENERGY PREDICTED BY IDOCK:   -5.08 KCAL/MOL
REMARK 924 INTRA-LIGAND FREE ENERGY PREDICTED BY IDOCK:   -0.36 KCAL/MOL
REMARK 927      BINDING AFFINITY PREDICTED BY RF-SCORE:    0.00 PKD
ROOT
HETATM    1  C   UNL     1     -10.252   7.737  68.002  1.00  0.00    -0.201 C  
HETATM    2  C   UNL     1     -10.573  11.341  67.266  1.00  0.00    -0.233 A  
HETATM    3  O   UNL     1     -10.681   8.303  69.267  1.00  0.00    -0.211 OA 
HETATM    4  C   UNL     1     -10.824   9.665  69.217  1.00  0.00    -0.205 C  
HETATM    5  C   UNL     1     -10.296  11.445  65.885  1.00  0.00    -0.250 A  
HETATM    6  C   UNL     1     -10.566  10.065  67.832  1.00  0.00    -0.298 A  
HETATM    7  O   UNL     1     -11.120  10.366  70.161  1.00  0.00    -0.280 OA 
HETATM    8  C   UNL     1     -10.091  10.268  65.134  1.00  0.00    -0.355 A  
HETATM    9  C   UNL     1     -10.105   9.004  65.733  1.00  0.00     0.101 A  
HETATM   10  C   UNL     1     -10.296   8.922  67.100  1.00  0.00    -0.351 A  
ENDROOT
BRANCH   1  11
HETATM   11  C   UNL     1      -8.884   6.954  68.180  1.00  0.00    -0.125 C  
HETATM   12  C   UNL     1      -8.493   5.868  70.462  1.00  0.00    -0.128 A  
HETATM   13  C   UNL     1      -8.832   5.354  66.263  1.00  0.00    -0.131 C  
HETATM   14  C   UNL     1      -9.515   4.595  68.482  1.00  0.00    -0.147 C  
HETATM   15  C   UNL     1      -8.084   5.910  71.801  1.00  0.00    -0.118 A  
HETATM   16  C   UNL     1      -7.597   7.099  72.292  1.00  0.00    -0.089 A  
HETATM   17  N   UNL     1      -8.753   5.553  67.697  1.00  0.00    -0.108 NA 
HETATM   18  O   UNL     1      -7.187   7.290  73.576  1.00  0.00    -0.075 OA 
HETATM   19  C   UNL     1      -7.475   8.227  71.508  1.00  0.00    -0.090 A  
HETATM   20  C   UNL     1      -8.951   4.536  69.904  1.00  0.00    -0.145 C  
HETATM   21  O   UNL     1      -6.966   9.265  72.235  1.00  0.00    -0.302 OA 
HETATM   22  C   UNL     1      -7.850   8.228  70.171  1.00  0.00    -0.097 A  
HETATM   23  C   UNL     1      -8.392   7.029  69.639  1.00  0.00    -0.133 A  
HETATM   24  C   UNL     1      -6.898   8.696  73.555  1.00  0.00     0.033 C  
BRANCH  22  25
HETATM   25  O   UNL     1      -7.767   9.287  69.308  1.00  0.00    -0.077 OA 
HETATM   26  C   UNL     1      -6.481   9.611  68.786  1.00  0.00    -0.047 C  
ENDBRANCH  22  25
ENDBRANCH   1  11
BRANCH   5  27
HETATM   27  O   UNL     1     -10.210  12.701  65.348  1.00  0.00    -0.281 OA 
HETATM   28  C   UNL     1     -10.842  12.948  64.100  1.00  0.00    -0.416 C  
ENDBRANCH   5  27
BRANCH   2  29
HETATM   29  O   UNL     1     -10.759  12.385  68.130  1.00  0.00    -0.207 OA 
HETATM   30  C   UNL     1      -9.603  13.104  68.543  1.00  0.00    -0.117 C  
ENDBRANCH   2  29
TORSDOF 4
ENDMDL
MODEL      126
REMARK 921   NORMALIZED FREE ENERGY PREDICTED BY IDOCK:   -3.67 KCAL/MOL
REMARK 922        TOTAL FREE ENERGY PREDICTED BY IDOCK:   -5.33 KCAL/MOL
REMARK 923 INTER-LIGAND FREE ENERGY PREDICTED BY IDOCK:   -4.47 KCAL/MOL
REMARK 924 INTRA-LIGAND FREE ENERGY PREDICTED BY IDOCK:   -0.86 KCAL/MOL
REMARK 927      BINDING AFFINITY PREDICTED BY RF-SCORE:    0.00 PKD
ROOT
HETATM    1  C   UNL     1      -7.463   6.285  69.193  1.00  0.00    -0.094 C  
HETATM    2  C   UNL     1      -9.167   5.715  72.419  1.00  0.00    -0.144 A  
HETATM    3  O   UNL     1      -6.898   7.305  70.059  1.00  0.00    -0.053 OA 
HETATM    4  C   UNL     1      -7.438   7.289  71.318  1.00  0.00    -0.079 C  
HETATM    5  C   UNL     1      -9.966   4.572  72.198  1.00  0.00    -0.183 A  
HETATM    6  C   UNL     1      -8.361   6.153  71.367  1.00  0.00    -0.123 A  
HETATM    7  O   UNL     1      -7.166   8.077  72.199  1.00  0.00    -0.072 OA 
HETATM    8  C   UNL     1      -9.870   3.893  70.965  1.00  0.00    -0.219 A  
HETATM    9  C   UNL     1      -9.040   4.354  69.937  1.00  0.00    -0.173 A  
HETATM   10  C   UNL     1      -8.325   5.520  70.137  1.00  0.00    -0.116 A  
ENDROOT
BRANCH   1  11
HETATM   11  C   UNL     1      -8.121   6.948  67.912  1.00  0.00    -0.114 C  
HETATM   12  C   UNL     1      -9.965   5.598  66.763  1.00  0.00    -0.207 A  
HETATM   13  C   UNL     1      -8.842   9.211  68.686  1.00  0.00    -0.133 C  
HETATM   14  C   UNL     1     -10.461   7.389  68.533  1.00  0.00    -0.186 C  
HETATM   15  C   UNL     1     -10.407   4.605  65.879  1.00  0.00    -0.315 A  
HETATM   16  C   UNL     1      -9.461   3.903  65.169  1.00  0.00    -0.170 A  
HETATM   17  N   UNL     1      -9.207   7.954  68.062  1.00  0.00    -0.132 NA 
HETATM   18  O   UNL     1      -9.744   2.899  64.296  1.00  0.00    -0.149 OA 
HETATM   19  C   UNL     1      -8.111   4.164  65.278  1.00  0.00    -0.101 A  
HETATM   20  C   UNL     1     -11.014   6.423  67.481  1.00  0.00    -0.454 C  
HETATM   21  O   UNL     1      -7.393   3.332  64.468  1.00  0.00    -0.067 OA 
HETATM   22  C   UNL     1      -7.627   5.152  66.127  1.00  0.00    -0.087 A  
HETATM   23  C   UNL     1      -8.572   5.872  66.905  1.00  0.00    -0.111 A  
HETATM   24  C   UNL     1      -8.420   2.470  63.946  1.00  0.00    -0.086 C  
BRANCH  22  25
HETATM   25  O   UNL     1      -6.314   5.493  66.306  1.00  0.00    -0.033 OA 
HETATM   26  C   UNL     1      -5.682   6.244  65.273  1.00  0.00    -0.022 C  
ENDBRANCH  22  25
ENDBRANCH   1  11
BRANCH   5  27
HETATM   27  O   UNL     1     -10.826   4.197  73.195  1.00  0.00    -0.189 OA 
HETATM   28  C   UNL     1     -10.894   2.823  73.547  1.00  0.00    -0.201 C  
ENDBRANCH   5  27
BRANCH   2  29
HETATM   29  O   UNL     1      -9.172   6.496  73.542  1.00  0.00    -0.130 OA 
HETATM   30  C   UNL     1     -10.216   7.455  73.664  1.00  0.00    -0.329 C  
ENDBRANCH   2  29
TORSDOF 4
ENDMDL
MODEL      127
REMARK 921   NORMALIZED FREE ENERGY PREDICTED BY IDOCK:   -3.66 KCAL/MOL
REMARK 922        TOTAL FREE ENERGY PREDICTED BY IDOCK:   -5.32 KCAL/MOL
REMARK 923 INTER-LIGAND FREE ENERGY PREDICTED BY IDOCK:   -5.23 KCAL/MOL
REMARK 924 INTRA-LIGAND FREE ENERGY PREDICTED BY IDOCK:   -0.09 KCAL/MOL
REMARK 927      BINDING AFFINITY PREDICTED BY RF-SCORE:    0.00 PKD
ROOT
HETATM    1  C   UNL     1     -10.566  17.062  67.265  1.00  0.00    -0.267 C  
HETATM    2  C   UNL     1     -10.778  13.390  66.945  1.00  0.00    -0.273 A  
HETATM    3  O   UNL     1     -10.188  16.820  65.884  1.00  0.00    -0.378 OA 
HETATM    4  C   UNL     1     -10.165  15.488  65.566  1.00  0.00    -0.386 C  
HETATM    5  C   UNL     1     -11.262  12.954  68.198  1.00  0.00    -0.270 A  
HETATM    6  C   UNL     1     -10.632  14.764  66.751  1.00  0.00    -0.302 A  
HETATM    7  O   UNL     1      -9.829  15.037  64.493  1.00  0.00     0.126 OA 
HETATM    8  C   UNL     1     -11.632  13.913  69.164  1.00  0.00    -0.359 A  
HETATM    9  C   UNL     1     -11.484  15.285  68.930  1.00  0.00    -0.346 A  
HETATM   10  C   UNL     1     -10.933  15.694  67.730  1.00  0.00    -0.316 A  
ENDROOT
BRANCH   1  11
HETATM   11  C   UNL     1      -9.419  17.853  68.024  1.00  0.00    -0.279 C  
HETATM   12  C   UNL     1      -8.358  19.801  66.751  1.00  0.00    -0.354 A  
HETATM   13  C   UNL     1     -10.452  18.497  70.205  1.00  0.00     1.552 C  
HETATM   14  C   UNL     1     -10.315  20.117  68.381  1.00  0.00    -0.261 C  
HETATM   15  C   UNL     1      -7.445  20.328  65.829  1.00  0.00    -0.210 A  
HETATM   16  C   UNL     1      -6.584  19.459  65.202  1.00  0.00    -0.234 A  
HETATM   17  N   UNL     1      -9.765  18.921  69.000  1.00  0.00    -0.344 NA 
HETATM   18  O   UNL     1      -5.663  19.828  64.269  1.00  0.00    -0.215 OA 
HETATM   19  C   UNL     1      -6.574  18.106  65.470  1.00  0.00    -0.175 A  
HETATM   20  C   UNL     1      -9.248  20.772  67.500  1.00  0.00    -0.325 C  
HETATM   21  O   UNL     1      -5.627  17.473  64.716  1.00  0.00     0.452 OA 
HETATM   22  C   UNL     1      -7.449  17.540  66.389  1.00  0.00    -0.299 A  
HETATM   23  C   UNL     1      -8.378  18.402  67.029  1.00  0.00    -0.257 A  
HETATM   24  C   UNL     1      -5.144  18.545  63.888  1.00  0.00    -0.020 C  
BRANCH  22  25
HETATM   25  O   UNL     1      -7.519  16.217  66.731  1.00  0.00    -0.218 OA 
HETATM   26  C   UNL     1      -6.515  15.709  67.605  1.00  0.00    -0.165 C  
ENDBRANCH  22  25
ENDBRANCH   1  11
BRANCH   5  27
HETATM   27  O   UNL     1     -11.318  11.604  68.422  1.00  0.00    -0.231 OA 
HETATM   28  C   UNL     1     -12.027  11.137  69.560  1.00  0.00    -0.355 C  
ENDBRANCH   5  27
BRANCH   2  29
HETATM   29  O   UNL     1     -10.349  12.586  65.925  1.00  0.00    -0.252 OA 
HETATM   30  C   UNL     1     -11.345  11.959  65.126  1.00  0.00    -0.269 C  
ENDBRANCH   2  29
TORSDOF 4
ENDMDL
MODEL      128
REMARK 921   NORMALIZED FREE ENERGY PREDICTED BY IDOCK:   -3.59 KCAL/MOL
REMARK 922        TOTAL FREE ENERGY PREDICTED BY IDOCK:   -5.24 KCAL/MOL
REMARK 923 INTER-LIGAND FREE ENERGY PREDICTED BY IDOCK:   -5.49 KCAL/MOL
REMARK 924 INTRA-LIGAND FREE ENERGY PREDICTED BY IDOCK:    0.25 KCAL/MOL
REMARK 927      BINDING AFFINITY PREDICTED BY RF-SCORE:    0.00 PKD
ROOT
HETATM    1  C   UNL     1     -11.894  12.954  68.318  1.00  0.00    -0.330 C  
HETATM    2  C   UNL     1     -10.758  13.713  64.887  1.00  0.00    -0.391 A  
HETATM    3  O   UNL     1     -11.943  14.403  68.258  1.00  0.00    -0.329 OA 
HETATM    4  C   UNL     1     -11.515  14.899  67.055  1.00  0.00    -0.326 C  
HETATM    5  C   UNL     1     -10.581  12.447  64.287  1.00  0.00    -0.363 A  
HETATM    6  C   UNL     1     -11.232  13.744  66.200  1.00  0.00    -0.301 A  
HETATM    7  O   UNL     1     -11.415  16.077  66.786  1.00  0.00     0.113 OA 
HETATM    8  C   UNL     1     -10.943  11.288  65.004  1.00  0.00    -0.226 A  
HETATM    9  C   UNL     1     -11.428  11.358  66.315  1.00  0.00    -0.028 A  
HETATM   10  C   UNL     1     -11.520  12.598  66.919  1.00  0.00    -0.402 A  
ENDROOT
BRANCH   1  11
HETATM   11  C   UNL     1     -10.961  12.479  69.509  1.00  0.00     0.093 C  
HETATM   12  C   UNL     1     -10.848   9.957  69.919  1.00  0.00    -0.316 A  
HETATM   13  C   UNL     1      -8.751  13.537  69.026  1.00  0.00     0.370 C  
HETATM   14  C   UNL     1      -9.148  11.197  68.449  1.00  0.00    -0.168 C  
HETATM   15  C   UNL     1     -11.340   8.767  70.471  1.00  0.00    -0.255 A  
HETATM   16  C   UNL     1     -12.478   8.833  71.240  1.00  0.00    -0.260 A  
HETATM   17  N   UNL     1      -9.496  12.324  69.300  1.00  0.00     0.590 NA 
HETATM   18  O   UNL     1     -13.078   7.757  71.818  1.00  0.00    -0.326 OA 
HETATM   19  C   UNL     1     -13.125  10.023  71.502  1.00  0.00    -0.433 A  
HETATM   20  C   UNL     1      -9.548   9.892  69.142  1.00  0.00    -0.204 C  
HETATM   21  O   UNL     1     -14.222   9.811  72.287  1.00  0.00    -0.099 OA 
HETATM   22  C   UNL     1     -12.664  11.229  70.991  1.00  0.00    -0.359 A  
HETATM   23  C   UNL     1     -11.512  11.196  70.162  1.00  0.00    -0.361 A  
HETATM   24  C   UNL     1     -14.244   8.376  72.382  1.00  0.00    -0.276 C  
BRANCH  22  25
HETATM   25  O   UNL     1     -13.226  12.461  71.193  1.00  0.00    -0.125 OA 
HETATM   26  C   UNL     1     -13.356  12.912  72.537  1.00  0.00    -0.297 C  
ENDBRANCH  22  25
ENDBRANCH   1  11
BRANCH   5  27
HETATM   27  O   UNL     1     -10.028  12.411  63.034  1.00  0.00    -0.250 OA 
HETATM   28  C   UNL     1      -9.200  11.309  62.693  1.00  0.00    -0.289 C  
ENDBRANCH   5  27
BRANCH   2  29
HETATM   29  O   UNL     1     -10.424  14.919  64.336  1.00  0.00    -0.065 OA 
HETATM   30  C   UNL     1     -11.491  15.786  63.968  1.00  0.00     0.126 C  
ENDBRANCH   2  29
TORSDOF 4
ENDMDL
MODEL      129
REMARK 921   NORMALIZED FREE ENERGY PREDICTED BY IDOCK:   -3.58 KCAL/MOL
REMARK 922        TOTAL FREE ENERGY PREDICTED BY IDOCK:   -5.22 KCAL/MOL
REMARK 923 INTER-LIGAND FREE ENERGY PREDICTED BY IDOCK:   -4.66 KCAL/MOL
REMARK 924 INTRA-LIGAND FREE ENERGY PREDICTED BY IDOCK:   -0.56 KCAL/MOL
REMARK 927      BINDING AFFINITY PREDICTED BY RF-SCORE:    0.00 PKD
ROOT
HETATM    1  C   UNL     1      -9.977   5.525  67.963  1.00  0.00    -0.149 C  
HETATM    2  C   UNL     1     -10.659   8.888  69.325  1.00  0.00    -0.207 A  
HETATM    3  O   UNL     1     -11.030   5.289  68.934  1.00  0.00     0.022 OA 
HETATM    4  C   UNL     1     -11.408   6.429  69.593  1.00  0.00    -0.412 C  
HETATM    5  C   UNL     1      -9.825   9.747  68.578  1.00  0.00    -0.156 A  
HETATM    6  C   UNL     1     -10.648   7.530  68.999  1.00  0.00    -0.190 A  
HETATM    7  O   UNL     1     -12.228   6.475  70.485  1.00  0.00    -0.325 OA 
HETATM    8  C   UNL     1      -9.073   9.217  67.508  1.00  0.00    -0.137 A  
HETATM    9  C   UNL     1      -9.096   7.852  67.201  1.00  0.00    -0.158 A  
HETATM   10  C   UNL     1      -9.855   7.010  67.992  1.00  0.00    -0.156 A  
ENDROOT
BRANCH   1  11
HETATM   11  C   UNL     1      -8.705   4.639  68.297  1.00  0.00    -0.102 C  
HETATM   12  C   UNL     1      -8.942   3.020  70.264  1.00  0.00    -0.165 A  
HETATM   13  C   UNL     1      -8.130   3.538  66.131  1.00  0.00    -0.093 C  
HETATM   14  C   UNL     1      -9.384   2.319  67.835  1.00  0.00    -0.184 C  
HETATM   15  C   UNL     1      -8.911   2.718  71.632  1.00  0.00    -0.124 A  
HETATM   16  C   UNL     1      -8.580   3.724  72.509  1.00  0.00    -0.094 A  
HETATM   17  N   UNL     1      -8.442   3.386  67.538  1.00  0.00    -0.093 NA 
HETATM   18  O   UNL     1      -8.534   3.580  73.861  1.00  0.00    -0.081 OA 
HETATM   19  C   UNL     1      -8.255   4.996  72.086  1.00  0.00    -0.116 A  
HETATM   20  C   UNL     1      -9.226   1.889  69.296  1.00  0.00    -0.185 C  
HETATM   21  O   UNL     1      -7.967   5.799  73.153  1.00  0.00    -0.109 OA 
HETATM   22  C   UNL     1      -8.255   5.337  70.739  1.00  0.00    -0.110 A  
HETATM   23  C   UNL     1      -8.627   4.335  69.806  1.00  0.00    -0.100 A  
HETATM   24  C   UNL     1      -8.256   4.930  74.262  1.00  0.00    -0.099 C  
BRANCH  22  25
HETATM   25  O   UNL     1      -7.946   6.563  70.216  1.00  0.00    -0.111 OA 
HETATM   26  C   UNL     1      -6.572   6.846  69.968  1.00  0.00    -0.044 C  
ENDBRANCH  22  25
ENDBRANCH   1  11
BRANCH   5  27
HETATM   27  O   UNL     1      -9.764  11.061  68.957  1.00  0.00    -0.196 OA 
HETATM   28  C   UNL     1      -9.497  12.039  67.963  1.00  0.00    -0.199 C  
ENDBRANCH   5  27
BRANCH   2  29
HETATM   29  O   UNL     1     -11.418   9.243  70.406  1.00  0.00    -0.263 OA 
HETATM   30  C   UNL     1     -10.774   9.269  71.675  1.00  0.00    -0.323 C  
ENDBRANCH   2  29
TORSDOF 4
ENDMDL
MODEL      130
REMARK 921   NORMALIZED FREE ENERGY PREDICTED BY IDOCK:   -3.57 KCAL/MOL
REMARK 922        TOTAL FREE ENERGY PREDICTED BY IDOCK:   -5.21 KCAL/MOL
REMARK 923 INTER-LIGAND FREE ENERGY PREDICTED BY IDOCK:   -4.62 KCAL/MOL
REMARK 924 INTRA-LIGAND FREE ENERGY PREDICTED BY IDOCK:   -0.60 KCAL/MOL
REMARK 927      BINDING AFFINITY PREDICTED BY RF-SCORE:    0.00 PKD
ROOT
HETATM    1  C   UNL     1      -7.345   8.012  67.786  1.00  0.00    -0.093 C  
HETATM    2  C   UNL     1     -10.050  10.238  66.620  1.00  0.00    -0.223 A  
HETATM    3  O   UNL     1      -7.222   7.964  66.340  1.00  0.00    -0.078 OA 
HETATM    4  C   UNL     1      -8.180   8.709  65.702  1.00  0.00    -0.123 C  
HETATM    5  C   UNL     1     -10.614  10.759  67.805  1.00  0.00    -0.228 A  
HETATM    6  C   UNL     1      -8.957   9.379  66.747  1.00  0.00    -0.152 A  
HETATM    7  O   UNL     1      -8.315   8.781  64.500  1.00  0.00    -0.161 OA 
HETATM    8  C   UNL     1     -10.019  10.445  69.045  1.00  0.00    -0.224 A  
HETATM    9  C   UNL     1      -8.914   9.591  69.134  1.00  0.00    -0.148 A  
HETATM   10  C   UNL     1      -8.423   9.024  67.973  1.00  0.00    -0.125 A  
ENDROOT
BRANCH   1  11
HETATM   11  C   UNL     1      -7.546   6.553  68.374  1.00  0.00    -0.104 C  
HETATM   12  C   UNL     1      -7.273   4.621  66.720  1.00  0.00    -0.080 A  
HETATM   13  C   UNL     1      -5.993   6.454  70.328  1.00  0.00    -0.026 C  
HETATM   14  C   UNL     1      -5.346   5.466  68.190  1.00  0.00    -0.008 C  
HETATM   15  C   UNL     1      -7.759   3.762  65.726  1.00  0.00    -0.089 A  
HETATM   16  C   UNL     1      -9.069   3.905  65.332  1.00  0.00    -0.143 A  
HETATM   17  N   UNL     1      -6.427   5.867  69.075  1.00  0.00    -0.047 NA 
HETATM   18  O   UNL     1      -9.666   3.158  64.363  1.00  0.00    -0.150 OA 
HETATM   19  C   UNL     1      -9.914   4.836  65.899  1.00  0.00    -0.228 A  
HETATM   20  C   UNL     1      -5.855   4.406  67.209  1.00  0.00    -0.023 C  
HETATM   21  O   UNL     1     -11.154   4.769  65.331  1.00  0.00    -0.161 OA 
HETATM   22  C   UNL     1      -9.481   5.697  66.900  1.00  0.00    -0.135 A  
HETATM   23  C   UNL     1      -8.125   5.604  67.307  1.00  0.00    -0.102 A  
HETATM   24  C   UNL     1     -10.951   3.793  64.294  1.00  0.00    -0.014 C  
BRANCH  22  25
HETATM   25  O   UNL     1     -10.236   6.649  67.530  1.00  0.00    -0.147 OA 
HETATM   26  C   UNL     1     -11.049   6.229  68.621  1.00  0.00    -0.325 C  
ENDBRANCH  22  25
ENDBRANCH   1  11
BRANCH   5  27
HETATM   27  O   UNL     1     -11.742  11.525  67.688  1.00  0.00    -0.538 OA 
HETATM   28  C   UNL     1     -11.985  12.525  68.667  1.00  0.00    -0.224 C  
ENDBRANCH   5  27
BRANCH   2  29
HETATM   29  O   UNL     1     -10.530  10.422  65.352  1.00  0.00    -0.237 OA 
HETATM   30  C   UNL     1     -10.321  11.696  64.755  1.00  0.00    -0.282 C  
ENDBRANCH   2  29
TORSDOF 4
ENDMDL
MODEL      131
REMARK 921   NORMALIZED FREE ENERGY PREDICTED BY IDOCK:   -3.56 KCAL/MOL
REMARK 922        TOTAL FREE ENERGY PREDICTED BY IDOCK:   -5.20 KCAL/MOL
REMARK 923 INTER-LIGAND FREE ENERGY PREDICTED BY IDOCK:   -4.70 KCAL/MOL
REMARK 924 INTRA-LIGAND FREE ENERGY PREDICTED BY IDOCK:   -0.49 KCAL/MOL
REMARK 927      BINDING AFFINITY PREDICTED BY RF-SCORE:    0.00 PKD
ROOT
HETATM    1  C   UNL     1      -9.612   9.043  69.928  1.00  0.00    -0.183 C  
HETATM    2  C   UNL     1      -9.630   6.245  72.336  1.00  0.00    -0.150 A  
HETATM    3  O   UNL     1     -10.724   8.222  69.483  1.00  0.00    -0.227 OA 
HETATM    4  C   UNL     1     -10.880   7.089  70.238  1.00  0.00    -0.254 C  
HETATM    5  C   UNL     1      -8.610   6.567  73.258  1.00  0.00    -0.120 A  
HETATM    6  C   UNL     1      -9.888   7.159  71.313  1.00  0.00    -0.178 A  
HETATM    7  O   UNL     1     -11.703   6.224  70.027  1.00  0.00    -0.408 OA 
HETATM    8  C   UNL     1      -7.948   7.807  73.146  1.00  0.00    -0.168 A  
HETATM    9  C   UNL     1      -8.242   8.705  72.114  1.00  0.00    -0.129 A  
HETATM   10  C   UNL     1      -9.186   8.342  71.172  1.00  0.00    -0.218 A  
ENDROOT
BRANCH   1  11
HETATM   11  C   UNL     1      -8.563   9.238  68.754  1.00  0.00    -0.131 C  
HETATM   12  C   UNL     1      -9.106   8.065  66.547  1.00  0.00    -0.213 A  
HETATM   13  C   UNL     1      -8.306  11.715  68.559  1.00  0.00    -0.140 C  
HETATM   14  C   UNL     1      -9.758  10.503  67.014  1.00  0.00    -0.177 C  
HETATM   15  C   UNL     1      -9.108   6.944  65.707  1.00  0.00     0.023 A  
HETATM   16  C   UNL     1      -8.537   5.784  66.175  1.00  0.00    -0.135 A  
HETATM   17  N   UNL     1      -8.608  10.458  67.903  1.00  0.00    -0.118 NA 
HETATM   18  O   UNL     1      -8.489   4.615  65.478  1.00  0.00    -0.118 OA 
HETATM   19  C   UNL     1      -7.946   5.700  67.418  1.00  0.00    -0.102 A  
HETATM   20  C   UNL     1      -9.662   9.363  65.997  1.00  0.00    -0.345 C  
HETATM   21  O   UNL     1      -7.457   4.443  67.636  1.00  0.00    -0.072 OA 
HETATM   22  C   UNL     1      -7.904   6.790  68.279  1.00  0.00    -0.110 A  
HETATM   23  C   UNL     1      -8.516   7.995  67.845  1.00  0.00    -0.125 A  
HETATM   24  C   UNL     1      -7.905   3.746  66.460  1.00  0.00    -0.089 C  
BRANCH  22  25
HETATM   25  O   UNL     1      -7.341   6.815  69.526  1.00  0.00    -0.086 OA 
HETATM   26  C   UNL     1      -5.954   6.508  69.628  1.00  0.00    -0.018 C  
ENDBRANCH  22  25
ENDBRANCH   1  11
BRANCH   5  27
HETATM   27  O   UNL     1      -8.292   5.630  74.205  1.00  0.00    -0.108 OA 
HETATM   28  C   UNL     1      -7.080   4.904  74.057  1.00  0.00    -0.081 C  
ENDBRANCH   5  27
BRANCH   2  29
HETATM   29  O   UNL     1     -10.335   5.073  72.293  1.00  0.00    -0.197 OA 
HETATM   30  C   UNL     1     -11.382   4.908  73.242  1.00  0.00    -0.327 C  
ENDBRANCH   2  29
TORSDOF 4
ENDMDL
MODEL      132
REMARK 921   NORMALIZED FREE ENERGY PREDICTED BY IDOCK:   -3.55 KCAL/MOL
REMARK 922        TOTAL FREE ENERGY PREDICTED BY IDOCK:   -5.18 KCAL/MOL
REMARK 923 INTER-LIGAND FREE ENERGY PREDICTED BY IDOCK:   -5.52 KCAL/MOL
REMARK 924 INTRA-LIGAND FREE ENERGY PREDICTED BY IDOCK:    0.34 KCAL/MOL
REMARK 927      BINDING AFFINITY PREDICTED BY RF-SCORE:    0.00 PKD
ROOT
HETATM    1  C   UNL     1      -8.895  12.367  68.436  1.00  0.00    -0.129 C  
HETATM    2  C   UNL     1      -9.218   8.760  69.153  1.00  0.00    -0.149 A  
HETATM    3  O   UNL     1     -10.255  12.063  68.032  1.00  0.00    -0.187 OA 
HETATM    4  C   UNL     1     -10.570  10.738  68.184  1.00  0.00    -0.203 C  
HETATM    5  C   UNL     1      -7.989   8.408  69.753  1.00  0.00    -0.104 A  
HETATM    6  C   UNL     1      -9.407  10.098  68.804  1.00  0.00    -0.168 A  
HETATM    7  O   UNL     1     -11.625  10.235  67.865  1.00  0.00    -0.338 OA 
HETATM    8  C   UNL     1      -7.044   9.418  70.028  1.00  0.00    -0.083 A  
HETATM    9  C   UNL     1      -7.273  10.753  69.675  1.00  0.00    -0.127 A  
HETATM   10  C   UNL     1      -8.445  11.070  69.015  1.00  0.00    -0.082 A  
ENDROOT
BRANCH   1  11
HETATM   11  C   UNL     1      -8.083  12.994  67.226  1.00  0.00    -0.161 C  
HETATM   12  C   UNL     1      -7.024  15.284  67.642  1.00  0.00    -0.209 A  
HETATM   13  C   UNL     1      -6.452  11.214  66.587  1.00  0.00    -0.134 C  
HETATM   14  C   UNL     1      -5.745  13.086  67.986  1.00  0.00    -0.107 C  
HETATM   15  C   UNL     1      -7.078  16.683  67.698  1.00  0.00    -0.157 A  
HETATM   16  C   UNL     1      -8.262  17.299  67.369  1.00  0.00    -0.191 A  
HETATM   17  N   UNL     1      -6.672  12.591  66.981  1.00  0.00    -0.061 NA 
HETATM   18  O   UNL     1      -8.464  18.645  67.401  1.00  0.00    -0.261 OA 
HETATM   19  C   UNL     1      -9.375  16.592  66.963  1.00  0.00    -0.224 A  
HETATM   20  C   UNL     1      -5.694  14.615  67.926  1.00  0.00    -0.129 C  
HETATM   21  O   UNL     1     -10.412  17.439  66.696  1.00  0.00    -0.310 OA 
HETATM   22  C   UNL     1      -9.363  15.205  66.875  1.00  0.00    -0.234 A  
HETATM   23  C   UNL     1      -8.169  14.532  67.243  1.00  0.00    -0.230 A  
HETATM   24  C   UNL     1      -9.862  18.710  67.084  1.00  0.00    -0.314 C  
BRANCH  22  25
HETATM   25  O   UNL     1     -10.406  14.411  66.482  1.00  0.00    -0.272 OA 
HETATM   26  C   UNL     1     -10.662  14.305  65.085  1.00  0.00    -0.394 C  
ENDBRANCH  22  25
ENDBRANCH   1  11
BRANCH   5  27
HETATM   27  O   UNL     1      -7.765   7.082  70.010  1.00  0.00    -0.099 OA 
HETATM   28  C   UNL     1      -6.423   6.622  70.069  1.00  0.00    -0.040 C  
ENDBRANCH   5  27
BRANCH   2  29
HETATM   29  O   UNL     1     -10.216   7.895  68.795  1.00  0.00    -0.197 OA 
HETATM   30  C   UNL     1     -11.019   7.358  69.840  1.00  0.00    -0.223 C  
ENDBRANCH   2  29
TORSDOF 4
ENDMDL
MODEL      133
REMARK 921   NORMALIZED FREE ENERGY PREDICTED BY IDOCK:   -3.53 KCAL/MOL
REMARK 922        TOTAL FREE ENERGY PREDICTED BY IDOCK:   -5.16 KCAL/MOL
REMARK 923 INTER-LIGAND FREE ENERGY PREDICTED BY IDOCK:   -5.83 KCAL/MOL
REMARK 924 INTRA-LIGAND FREE ENERGY PREDICTED BY IDOCK:    0.67 KCAL/MOL
REMARK 927      BINDING AFFINITY PREDICTED BY RF-SCORE:    0.00 PKD
ROOT
HETATM    1  C   UNL     1      -8.720  15.121  66.687  1.00  0.00    -0.272 C  
HETATM    2  C   UNL     1      -8.237  18.738  66.124  1.00  0.00    -0.190 A  
HETATM    3  O   UNL     1     -10.006  15.558  66.176  1.00  0.00    -0.268 OA 
HETATM    4  C   UNL     1     -10.050  16.906  65.935  1.00  0.00    -0.283 C  
HETATM    5  C   UNL     1      -6.879  18.965  66.436  1.00  0.00    -0.211 A  
HETATM    6  C   UNL     1      -8.709  17.426  66.206  1.00  0.00    -0.242 A  
HETATM    7  O   UNL     1     -11.031  17.511  65.558  1.00  0.00    -0.296 OA 
HETATM    8  C   UNL     1      -6.053  17.867  66.752  1.00  0.00    -0.195 A  
HETATM    9  C   UNL     1      -6.557  16.563  66.812  1.00  0.00    -0.167 A  
HETATM   10  C   UNL     1      -7.906  16.365  66.584  1.00  0.00    -0.316 A  
ENDROOT
BRANCH   1  11
HETATM   11  C   UNL     1      -8.891  14.427  68.103  1.00  0.00    -0.180 C  
HETATM   12  C   UNL     1      -7.836  12.111  68.360  1.00  0.00    -0.149 A  
HETATM   13  C   UNL     1      -8.047  16.122  69.730  1.00  0.00     0.415 C  
HETATM   14  C   UNL     1      -6.618  14.268  69.032  1.00  0.00    -0.105 C  
HETATM   15  C   UNL     1      -7.854  10.718  68.215  1.00  0.00    -0.115 A  
HETATM   16  C   UNL     1      -8.975  10.138  67.670  1.00  0.00    -0.131 A  
HETATM   17  N   UNL     1      -7.971  14.767  69.221  1.00  0.00    -0.138 NA 
HETATM   18  O   UNL     1      -9.120   8.803  67.450  1.00  0.00    -0.131 OA 
HETATM   19  C   UNL     1     -10.079  10.874  67.293  1.00  0.00    -0.191 A  
HETATM   20  C   UNL     1      -6.633  12.737  69.037  1.00  0.00    -0.099 C  
HETATM   21  O   UNL     1     -11.050  10.060  66.785  1.00  0.00    -0.037 OA 
HETATM   22  C   UNL     1     -10.114  12.256  67.435  1.00  0.00    -0.200 A  
HETATM   23  C   UNL     1      -8.960  12.894  67.960  1.00  0.00    -0.196 A  
HETATM   24  C   UNL     1     -10.392   8.781  66.784  1.00  0.00    -0.258 C  
BRANCH  22  25
HETATM   25  O   UNL     1     -11.156  13.077  67.098  1.00  0.00    -0.260 OA 
HETATM   26  C   UNL     1     -11.569  13.092  65.735  1.00  0.00    -0.356 C  
ENDBRANCH  22  25
ENDBRANCH   1  11
BRANCH   5  27
HETATM   27  O   UNL     1      -6.439  20.262  66.447  1.00  0.00    -0.198 OA 
HETATM   28  C   UNL     1      -5.655  20.718  65.354  1.00  0.00    -0.218 C  
ENDBRANCH   5  27
BRANCH   2  29
HETATM   29  O   UNL     1      -9.168  19.698  65.833  1.00  0.00    -0.387 OA 
HETATM   30  C   UNL     1      -9.829  20.318  66.929  1.00  0.00    -0.457 C  
ENDBRANCH   2  29
TORSDOF 4
ENDMDL
MODEL      134
REMARK 921   NORMALIZED FREE ENERGY PREDICTED BY IDOCK:   -3.50 KCAL/MOL
REMARK 922        TOTAL FREE ENERGY PREDICTED BY IDOCK:   -5.13 KCAL/MOL
REMARK 923 INTER-LIGAND FREE ENERGY PREDICTED BY IDOCK:   -4.34 KCAL/MOL
REMARK 924 INTRA-LIGAND FREE ENERGY PREDICTED BY IDOCK:   -0.79 KCAL/MOL
REMARK 927      BINDING AFFINITY PREDICTED BY RF-SCORE:    0.00 PKD
ROOT
HETATM    1  C   UNL     1      -9.177   7.169  71.947  1.00  0.00    -0.138 C  
HETATM    2  C   UNL     1      -8.950   3.485  72.022  1.00  0.00    -0.100 A  
HETATM    3  O   UNL     1      -9.984   6.804  73.097  1.00  0.00    -0.169 OA 
HETATM    4  C   UNL     1     -10.062   5.449  73.281  1.00  0.00    -0.178 C  
HETATM    5  C   UNL     1      -8.061   3.164  70.973  1.00  0.00    -0.057 A  
HETATM    6  C   UNL     1      -9.202   4.836  72.266  1.00  0.00    -0.151 A  
HETATM    7  O   UNL     1     -10.720   4.903  74.140  1.00  0.00    -0.289 OA 
HETATM    8  C   UNL     1      -7.426   4.208  70.267  1.00  0.00    -0.045 A  
HETATM    9  C   UNL     1      -7.693   5.552  70.548  1.00  0.00    -0.093 A  
HETATM   10  C   UNL     1      -8.627   5.850  71.523  1.00  0.00    -0.132 A  
ENDROOT
BRANCH   1  11
HETATM   11  C   UNL     1     -10.033   8.015  70.914  1.00  0.00    -0.186 C  
HETATM   12  C   UNL     1      -9.725   7.430  68.443  1.00  0.00    -0.158 A  
HETATM   13  C   UNL     1     -12.383   7.795  71.732  1.00  0.00    -0.317 C  
HETATM   14  C   UNL     1     -11.587   6.409  69.884  1.00  0.00    -0.353 C  
HETATM   15  C   UNL     1      -9.047   7.529  67.221  1.00  0.00    -0.137 A  
HETATM   16  C   UNL     1      -7.948   8.352  67.156  1.00  0.00    -0.104 A  
HETATM   17  N   UNL     1     -11.448   7.647  70.634  1.00  0.00    -0.279 NA 
HETATM   18  O   UNL     1      -7.183   8.526  66.044  1.00  0.00    -0.075 OA 
HETATM   19  C   UNL     1      -7.516   9.095  68.234  1.00  0.00    -0.083 A  
HETATM   20  C   UNL     1     -10.983   6.586  68.489  1.00  0.00    -0.360 C  
HETATM   21  O   UNL     1      -6.410   9.826  67.904  1.00  0.00    -0.055 OA 
HETATM   22  C   UNL     1      -8.166   9.043  69.461  1.00  0.00    -0.114 A  
HETATM   23  C   UNL     1      -9.283   8.175  69.577  1.00  0.00    -0.158 A  
HETATM   24  C   UNL     1      -6.147   9.372  66.564  1.00  0.00    -0.064 C  
BRANCH  22  25
HETATM   25  O   UNL     1      -7.824   9.740  70.588  1.00  0.00    -0.277 OA 
HETATM   26  C   UNL     1      -6.617   9.372  71.248  1.00  0.00    -0.020 C  
ENDBRANCH  22  25
ENDBRANCH   1  11
BRANCH   5  27
HETATM   27  O   UNL     1      -7.885   1.840  70.672  1.00  0.00    -0.039 OA 
HETATM   28  C   UNL     1      -7.574   1.488  69.333  1.00  0.00    -0.042 C  
ENDBRANCH   5  27
BRANCH   2  29
HETATM   29  O   UNL     1      -9.665   2.591  72.772  1.00  0.00    -0.105 OA 
HETATM   30  C   UNL     1      -8.992   1.969  73.861  1.00  0.00    -0.065 C  
ENDBRANCH   2  29
TORSDOF 4
ENDMDL
MODEL      135
REMARK 921   NORMALIZED FREE ENERGY PREDICTED BY IDOCK:   -3.40 KCAL/MOL
REMARK 922        TOTAL FREE ENERGY PREDICTED BY IDOCK:   -5.00 KCAL/MOL
REMARK 923 INTER-LIGAND FREE ENERGY PREDICTED BY IDOCK:   -4.98 KCAL/MOL
REMARK 924 INTRA-LIGAND FREE ENERGY PREDICTED BY IDOCK:   -0.02 KCAL/MOL
REMARK 927      BINDING AFFINITY PREDICTED BY RF-SCORE:    0.00 PKD
ROOT
HETATM    1  C   UNL     1      -7.989  12.685  68.027  1.00  0.00    -0.155 C  
HETATM    2  C   UNL     1      -7.907   9.146  66.977  1.00  0.00    -0.102 A  
HETATM    3  O   UNL     1      -9.171  12.119  68.652  1.00  0.00    -0.135 OA 
HETATM    4  C   UNL     1      -9.348  10.795  68.349  1.00  0.00    -0.167 C  
HETATM    5  C   UNL     1      -6.704   9.022  66.248  1.00  0.00    -0.070 A  
HETATM    6  C   UNL     1      -8.194  10.388  67.545  1.00  0.00    -0.114 A  
HETATM    7  O   UNL     1     -10.291  10.122  68.708  1.00  0.00    -0.176 OA 
HETATM    8  C   UNL     1      -5.826  10.124  66.178  1.00  0.00    -0.067 A  
HETATM    9  C   UNL     1      -6.141  11.352  66.770  1.00  0.00    -0.145 A  
HETATM   10  C   UNL     1      -7.358  11.483  67.412  1.00  0.00    -0.123 A  
ENDROOT
BRANCH   1  11
HETATM   11  C   UNL     1      -8.383  13.909  67.099  1.00  0.00    -0.154 C  
HETATM   12  C   UNL     1     -10.877  14.459  66.955  1.00  0.00    -0.297 A  
HETATM   13  C   UNL     1      -6.967  15.793  67.925  1.00  0.00    -0.140 C  
HETATM   14  C   UNL     1      -9.301  15.612  68.620  1.00  0.00    -0.201 C  
HETATM   15  C   UNL     1     -12.160  14.268  66.425  1.00  0.00    -0.442 A  
HETATM   16  C   UNL     1     -12.319  13.324  65.438  1.00  0.00    -0.479 A  
HETATM   17  N   UNL     1      -8.296  15.301  67.617  1.00  0.00    -0.155 NA 
HETATM   18  O   UNL     1     -13.508  13.019  64.851  1.00  0.00    -0.436 OA 
HETATM   19  C   UNL     1     -11.262  12.590  64.941  1.00  0.00    -0.305 A  
HETATM   20  C   UNL     1     -10.692  15.556  67.984  1.00  0.00    -0.283 C  
HETATM   21  O   UNL     1     -11.689  11.728  63.972  1.00  0.00    -0.372 OA 
HETATM   22  C   UNL     1      -9.970  12.757  65.423  1.00  0.00    -0.199 A  
HETATM   23  C   UNL     1      -9.774  13.696  66.469  1.00  0.00    -0.298 A  
HETATM   24  C   UNL     1     -13.113  11.927  64.007  1.00  0.00     0.065 C  
BRANCH  22  25
HETATM   25  O   UNL     1      -8.855  12.085  64.999  1.00  0.00     0.394 OA 
HETATM   26  C   UNL     1      -9.038  11.042  64.046  1.00  0.00    -0.102 C  
ENDBRANCH  22  25
ENDBRANCH   1  11
BRANCH   5  27
HETATM   27  O   UNL     1      -6.467   7.832  65.613  1.00  0.00    -0.042 OA 
HETATM   28  C   UNL     1      -5.239   7.671  64.919  1.00  0.00    -0.029 C  
ENDBRANCH   5  27
BRANCH   2  29
HETATM   29  O   UNL     1      -8.871   8.184  67.109  1.00  0.00    -0.127 OA 
HETATM   30  C   UNL     1      -8.625   7.138  68.041  1.00  0.00    -0.128 C  
ENDBRANCH   2  29
TORSDOF 4
ENDMDL
MODEL      136
REMARK 921   NORMALIZED FREE ENERGY PREDICTED BY IDOCK:   -3.27 KCAL/MOL
REMARK 922        TOTAL FREE ENERGY PREDICTED BY IDOCK:   -4.84 KCAL/MOL
REMARK 923 INTER-LIGAND FREE ENERGY PREDICTED BY IDOCK:   -4.47 KCAL/MOL
REMARK 924 INTRA-LIGAND FREE ENERGY PREDICTED BY IDOCK:   -0.37 KCAL/MOL
REMARK 927      BINDING AFFINITY PREDICTED BY RF-SCORE:    0.00 PKD
ROOT
HETATM    1  C   UNL     1      -7.800  10.712  67.912  1.00  0.00    -0.105 C  
HETATM    2  C   UNL     1      -9.758  13.268  66.104  1.00  0.00    -0.250 A  
HETATM    3  O   UNL     1      -6.986  11.908  68.031  1.00  0.00    -0.069 OA 
HETATM    4  C   UNL     1      -7.529  12.985  67.381  1.00  0.00    -0.131 C  
HETATM    5  C   UNL     1     -10.944  12.601  65.726  1.00  0.00    -0.280 A  
HETATM    6  C   UNL     1      -8.824  12.550  66.853  1.00  0.00    -0.203 A  
HETATM    7  O   UNL     1      -7.008  14.077  67.294  1.00  0.00    -0.179 OA 
HETATM    8  C   UNL     1     -11.161  11.279  66.168  1.00  0.00    -0.207 A  
HETATM    9  C   UNL     1     -10.207  10.595  66.929  1.00  0.00    -0.272 A  
HETATM   10  C   UNL     1      -9.016  11.231  67.223  1.00  0.00    -0.149 A  
ENDROOT
BRANCH   1  11
HETATM   11  C   UNL     1      -6.970   9.542  67.235  1.00  0.00    -0.085 C  
HETATM   12  C   UNL     1      -8.111   7.254  67.145  1.00  0.00    -0.114 A  
HETATM   13  C   UNL     1      -6.327  10.452  65.000  1.00  0.00    -0.095 C  
HETATM   14  C   UNL     1      -8.230   8.935  65.210  1.00  0.00    -0.137 C  
HETATM   15  C   UNL     1      -8.464   6.022  67.711  1.00  0.00    -0.107 A  
HETATM   16  C   UNL     1      -8.027   5.746  68.985  1.00  0.00    -0.098 A  
HETATM   17  N   UNL     1      -6.961   9.389  65.755  1.00  0.00    -0.088 NA 
HETATM   18  O   UNL     1      -8.313   4.603  69.665  1.00  0.00    -0.070 OA 
HETATM   19  C   UNL     1      -7.238   6.622  69.702  1.00  0.00    -0.078 A  
HETATM   20  C   UNL     1      -8.525   7.519  65.712  1.00  0.00    -0.151 C  
HETATM   21  O   UNL     1      -6.944   6.108  70.932  1.00  0.00    -0.064 OA 
HETATM   22  C   UNL     1      -6.848   7.847  69.175  1.00  0.00    -0.052 A  
HETATM   23  C   UNL     1      -7.311   8.183  67.876  1.00  0.00    -0.096 A  
HETATM   24  C   UNL     1      -7.717   4.895  70.938  1.00  0.00    -0.078 C  
BRANCH  22  25
HETATM   25  O   UNL     1      -6.066   8.783  69.797  1.00  0.00    -0.034 OA 
HETATM   26  C   UNL     1      -6.573   9.376  70.990  1.00  0.00    -0.081 C  
ENDBRANCH  22  25
ENDBRANCH   1  11
BRANCH   5  27
HETATM   27  O   UNL     1     -11.818  13.273  64.913  1.00  0.00    -0.334 OA 
HETATM   28  C   UNL     1     -12.828  14.067  65.518  1.00  0.00    -0.419 C  
ENDBRANCH   5  27
BRANCH   2  29
HETATM   29  O   UNL     1      -9.390  14.531  65.728  1.00  0.00    -0.193 OA 
HETATM   30  C   UNL     1      -9.753  15.600  66.594  1.00  0.00    -0.249 C  
ENDBRANCH   2  29
TORSDOF 4
ENDMDL
MODEL      137
REMARK 921   NORMALIZED FREE ENERGY PREDICTED BY IDOCK:   -3.25 KCAL/MOL
REMARK 922        TOTAL FREE ENERGY PREDICTED BY IDOCK:   -4.82 KCAL/MOL
REMARK 923 INTER-LIGAND FREE ENERGY PREDICTED BY IDOCK:   -4.35 KCAL/MOL
REMARK 924 INTRA-LIGAND FREE ENERGY PREDICTED BY IDOCK:   -0.47 KCAL/MOL
REMARK 927      BINDING AFFINITY PREDICTED BY RF-SCORE:    0.00 PKD
ROOT
HETATM    1  C   UNL     1      -8.289   9.282  71.133  1.00  0.00     0.006 C  
HETATM    2  C   UNL     1     -11.125   6.995  71.728  1.00  0.00    -0.239 A  
HETATM    3  O   UNL     1      -9.288   9.728  70.179  1.00  0.00    -0.234 OA 
HETATM    4  C   UNL     1     -10.428   8.969  70.213  1.00  0.00    -0.215 C  
HETATM    5  C   UNL     1     -10.712   6.196  72.816  1.00  0.00    -0.239 A  
HETATM    6  C   UNL     1     -10.257   7.999  71.296  1.00  0.00    -0.230 A  
HETATM    7  O   UNL     1     -11.379   9.113  69.475  1.00  0.00    -0.042 OA 
HETATM    8  C   UNL     1      -9.485   6.481  73.452  1.00  0.00    -0.155 A  
HETATM    9  C   UNL     1      -8.645   7.505  73.000  1.00  0.00    -0.185 A  
HETATM   10  C   UNL     1      -9.025   8.227  71.884  1.00  0.00    -0.249 A  
ENDROOT
BRANCH   1  11
HETATM   11  C   UNL     1      -6.942   8.900  70.387  1.00  0.00    -0.052 C  
HETATM   12  C   UNL     1      -6.921   9.236  67.851  1.00  0.00    -0.077 A  
HETATM   13  C   UNL     1      -5.176  10.181  71.603  1.00  0.00    -0.061 C  
HETATM   14  C   UNL     1      -6.069  11.018  69.489  1.00  0.00    -0.072 C  
HETATM   15  C   UNL     1      -7.196   8.818  66.543  1.00  0.00    -0.081 A  
HETATM   16  C   UNL     1      -7.775   7.583  66.367  1.00  0.00    -0.089 A  
HETATM   17  N   UNL     1      -5.812   9.866  70.338  1.00  0.00    -0.057 NA 
HETATM   18  O   UNL     1      -8.118   7.060  65.158  1.00  0.00    -0.120 OA 
HETATM   19  C   UNL     1      -8.063   6.744  67.423  1.00  0.00    -0.118 A  
HETATM   20  C   UNL     1      -6.208  10.561  68.035  1.00  0.00    -0.054 C  
HETATM   21  O   UNL     1      -8.630   5.585  66.977  1.00  0.00    -0.111 OA 
HETATM   22  C   UNL     1      -7.792   7.109  68.736  1.00  0.00    -0.122 A  
HETATM   23  C   UNL     1      -7.228   8.392  68.960  1.00  0.00    -0.070 A  
HETATM   24  C   UNL     1      -8.762   5.844  65.568  1.00  0.00    -0.129 C  
BRANCH  22  25
HETATM   25  O   UNL     1      -8.032   6.353  69.852  1.00  0.00    -0.111 OA 
HETATM   26  C   UNL     1      -6.962   5.557  70.352  1.00  0.00    -0.057 C  
ENDBRANCH  22  25
ENDBRANCH   1  11
BRANCH   5  27
HETATM   27  O   UNL     1     -11.520   5.152  73.180  1.00  0.00    -0.323 OA 
HETATM   28  C   UNL     1     -10.973   3.841  73.176  1.00  0.00    -0.136 C  
ENDBRANCH   5  27
BRANCH   2  29
HETATM   29  O   UNL     1     -12.264   6.823  70.990  1.00  0.00    -0.377 OA 
HETATM   30  C   UNL     1     -13.492   7.236  71.580  1.00  0.00    -0.354 C  
ENDBRANCH   2  29
TORSDOF 4
ENDMDL
MODEL      138
REMARK 921   NORMALIZED FREE ENERGY PREDICTED BY IDOCK:   -3.18 KCAL/MOL
REMARK 922        TOTAL FREE ENERGY PREDICTED BY IDOCK:   -4.74 KCAL/MOL
REMARK 923 INTER-LIGAND FREE ENERGY PREDICTED BY IDOCK:   -3.99 KCAL/MOL
REMARK 924 INTRA-LIGAND FREE ENERGY PREDICTED BY IDOCK:   -0.75 KCAL/MOL
REMARK 927      BINDING AFFINITY PREDICTED BY RF-SCORE:    0.00 PKD
ROOT
HETATM    1  C   UNL     1      -7.956   6.642  69.881  1.00  0.00    -0.117 C  
HETATM    2  C   UNL     1     -10.996   8.017  71.463  1.00  0.00    -0.234 A  
HETATM    3  O   UNL     1      -7.442   7.683  70.752  1.00  0.00    -0.069 OA 
HETATM    4  C   UNL     1      -8.434   8.356  71.415  1.00  0.00    -0.155 C  
HETATM    5  C   UNL     1     -12.045   7.207  70.974  1.00  0.00    -0.350 A  
HETATM    6  C   UNL     1      -9.696   7.703  71.061  1.00  0.00    -0.169 A  
HETATM    7  O   UNL     1      -8.257   9.300  72.155  1.00  0.00    -0.164 OA 
HETATM    8  C   UNL     1     -11.735   6.095  70.164  1.00  0.00    -0.119 A  
HETATM    9  C   UNL     1     -10.418   5.802  69.792  1.00  0.00    -0.363 A  
HETATM   10  C   UNL     1      -9.410   6.650  70.211  1.00  0.00    -0.160 A  
ENDROOT
BRANCH   1  11
HETATM   11  C   UNL     1      -7.505   6.899  68.382  1.00  0.00    -0.098 C  
HETATM   12  C   UNL     1      -9.145   6.156  66.565  1.00  0.00    -0.156 A  
HETATM   13  C   UNL     1      -6.936   9.329  68.315  1.00  0.00    -0.072 C  
HETATM   14  C   UNL     1      -9.099   8.548  67.493  1.00  0.00    -0.134 C  
HETATM   15  C   UNL     1      -9.704   5.189  65.720  1.00  0.00    -0.124 A  
HETATM   16  C   UNL     1      -9.196   3.912  65.773  1.00  0.00    -0.154 A  
HETATM   17  N   UNL     1      -7.705   8.234  67.757  1.00  0.00    -0.102 NA 
HETATM   18  O   UNL     1      -9.657   2.870  65.028  1.00  0.00    -0.135 OA 
HETATM   19  C   UNL     1      -8.147   3.567  66.600  1.00  0.00    -0.092 A  
HETATM   20  C   UNL     1      -9.652   7.579  66.445  1.00  0.00    -0.194 C  
HETATM   21  O   UNL     1      -7.837   2.245  66.459  1.00  0.00    -0.070 OA 
HETATM   22  C   UNL     1      -7.550   4.497  67.443  1.00  0.00    -0.082 A  
HETATM   23  C   UNL     1      -8.072   5.816  67.443  1.00  0.00    -0.102 A  
HETATM   24  C   UNL     1      -8.864   1.796  65.556  1.00  0.00    -0.124 C  
BRANCH  22  25
HETATM   25  O   UNL     1      -6.506   4.261  68.296  1.00  0.00    -0.036 OA 
HETATM   26  C   UNL     1      -5.187   4.401  67.777  1.00  0.00    -0.011 C  
ENDBRANCH  22  25
ENDBRANCH   1  11
BRANCH   5  27
HETATM   27  O   UNL     1     -13.326   7.570  71.291  1.00  0.00    -0.323 OA 
HETATM   28  C   UNL     1     -14.054   6.757  72.200  1.00  0.00     0.093 C  
ENDBRANCH   5  27
BRANCH   2  29
HETATM   29  O   UNL     1     -11.137   9.143  72.226  1.00  0.00    -0.226 OA 
HETATM   30  C   UNL     1     -11.691  10.292  71.596  1.00  0.00     0.055 C  
ENDBRANCH   2  29
TORSDOF 4
ENDMDL
MODEL      139
REMARK 921   NORMALIZED FREE ENERGY PREDICTED BY IDOCK:   -3.11 KCAL/MOL
REMARK 922        TOTAL FREE ENERGY PREDICTED BY IDOCK:   -4.65 KCAL/MOL
REMARK 923 INTER-LIGAND FREE ENERGY PREDICTED BY IDOCK:   -4.23 KCAL/MOL
REMARK 924 INTRA-LIGAND FREE ENERGY PREDICTED BY IDOCK:   -0.42 KCAL/MOL
REMARK 927      BINDING AFFINITY PREDICTED BY RF-SCORE:    0.00 PKD
ROOT
HETATM    1  C   UNL     1      -5.711  15.335  68.113  1.00  0.00    -0.134 C  
HETATM    2  C   UNL     1      -5.816  11.926  69.527  1.00  0.00    -0.089 A  
HETATM    3  O   UNL     1      -5.910  15.564  69.533  1.00  0.00    -0.111 OA 
HETATM    4  C   UNL     1      -6.017  14.400  70.247  1.00  0.00    -0.160 C  
HETATM    5  C   UNL     1      -5.560  11.080  68.426  1.00  0.00    -0.043 A  
HETATM    6  C   UNL     1      -5.798  13.303  69.301  1.00  0.00    -0.088 A  
HETATM    7  O   UNL     1      -6.240  14.335  71.437  1.00  0.00    -0.115 OA 
HETATM    8  C   UNL     1      -5.240  11.653  67.178  1.00  0.00    -0.096 A  
HETATM    9  C   UNL     1      -5.218  13.039  66.991  1.00  0.00     0.510 A  
HETATM   10  C   UNL     1      -5.550  13.855  68.057  1.00  0.00    -0.125 A  
ENDROOT
BRANCH   1  11
HETATM   11  C   UNL     1      -6.871  16.017  67.273  1.00  0.00    -0.201 C  
HETATM   12  C   UNL     1      -8.764  17.086  68.622  1.00  0.00    -0.261 A  
HETATM   13  C   UNL     1      -5.683  17.598  65.748  1.00  0.00    -0.079 C  
HETATM   14  C   UNL     1      -6.731  18.418  67.796  1.00  0.00    -0.207 C  
HETATM   15  C   UNL     1      -9.972  17.022  69.328  1.00  0.00    -0.169 A  
HETATM   16  C   UNL     1     -10.603  15.804  69.421  1.00  0.00    -0.255 A  
HETATM   17  N   UNL     1      -6.707  17.402  66.756  1.00  0.00    -0.190 NA 
HETATM   18  O   UNL     1     -11.767  15.591  70.093  1.00  0.00    -0.293 OA 
HETATM   19  C   UNL     1     -10.104  14.665  68.825  1.00  0.00    -0.235 A  
HETATM   20  C   UNL     1      -8.114  18.444  68.452  1.00  0.00    -0.327 C  
HETATM   21  O   UNL     1     -10.919  13.596  69.068  1.00  0.00    -0.252 OA 
HETATM   22  C   UNL     1      -8.918  14.683  68.100  1.00  0.00    -0.179 A  
HETATM   23  C   UNL     1      -8.219  15.915  68.013  1.00  0.00    -0.150 A  
HETATM   24  C   UNL     1     -11.895  14.167  69.958  1.00  0.00    -0.323 C  
BRANCH  22  25
HETATM   25  O   UNL     1      -8.340  13.616  67.468  1.00  0.00    -0.164 OA 
HETATM   26  C   UNL     1      -9.082  12.985  66.428  1.00  0.00    -0.061 C  
ENDBRANCH  22  25
ENDBRANCH   1  11
BRANCH   5  27
HETATM   27  O   UNL     1      -5.670   9.729  68.625  1.00  0.00    -0.039 OA 
HETATM   28  C   UNL     1      -6.574   8.998  67.810  1.00  0.00    -0.061 C  
ENDBRANCH   5  27
BRANCH   2  29
HETATM   29  O   UNL     1      -6.172  11.524  70.785  1.00  0.00    -0.325 OA 
HETATM   30  C   UNL     1      -5.139  11.026  71.627  1.00  0.00    -0.011 C  
ENDBRANCH   2  29
TORSDOF 4
ENDMDL
MODEL      140
REMARK 921   NORMALIZED FREE ENERGY PREDICTED BY IDOCK:   -3.01 KCAL/MOL
REMARK 922        TOTAL FREE ENERGY PREDICTED BY IDOCK:   -4.53 KCAL/MOL
REMARK 923 INTER-LIGAND FREE ENERGY PREDICTED BY IDOCK:   -4.07 KCAL/MOL
REMARK 924 INTRA-LIGAND FREE ENERGY PREDICTED BY IDOCK:   -0.46 KCAL/MOL
REMARK 927      BINDING AFFINITY PREDICTED BY RF-SCORE:    0.00 PKD
ROOT
HETATM    1  C   UNL     1      -9.554   7.173  65.839  1.00  0.00     0.283 C  
HETATM    2  C   UNL     1     -10.484   9.710  68.355  1.00  0.00    -0.223 A  
HETATM    3  O   UNL     1     -10.211   6.397  66.875  1.00  0.00    -0.179 OA 
HETATM    4  C   UNL     1     -10.607   7.162  67.940  1.00  0.00    -0.208 C  
HETATM    5  C   UNL     1     -10.094  10.938  67.778  1.00  0.00    -0.177 A  
HETATM    6  C   UNL     1     -10.291   8.551  67.601  1.00  0.00    -0.317 A  
HETATM    7  O   UNL     1     -11.126   6.732  68.948  1.00  0.00    -0.233 OA 
HETATM    8  C   UNL     1      -9.591  10.950  66.460  1.00  0.00    -0.224 A  
HETATM    9  C   UNL     1      -9.423   9.770  65.728  1.00  0.00    -0.300 A  
HETATM   10  C   UNL     1      -9.733   8.567  66.335  1.00  0.00    -0.328 A  
ENDROOT
BRANCH   1  11
HETATM   11  C   UNL     1      -8.087   6.628  65.583  1.00  0.00    -0.125 C  
HETATM   12  C   UNL     1      -7.679   4.169  66.159  1.00  0.00    -0.090 A  
HETATM   13  C   UNL     1      -7.615   7.212  63.202  1.00  0.00    -0.109 C  
HETATM   14  C   UNL     1      -8.315   4.949  63.799  1.00  0.00    -0.127 C  
HETATM   15  C   UNL     1      -7.383   3.140  67.063  1.00  0.00    -0.062 A  
HETATM   16  C   UNL     1      -7.149   3.479  68.375  1.00  0.00    -0.050 A  
HETATM   17  N   UNL     1      -7.677   6.185  64.223  1.00  0.00    -0.100 NA 
HETATM   18  O   UNL     1      -6.874   2.583  69.362  1.00  0.00    -0.033 OA 
HETATM   19  C   UNL     1      -7.170   4.785  68.816  1.00  0.00    -0.057 A  
HETATM   20  C   UNL     1      -7.854   3.801  64.700  1.00  0.00    -0.085 C  
HETATM   21  O   UNL     1      -6.906   4.846  70.155  1.00  0.00    -0.042 OA 
HETATM   22  C   UNL     1      -7.441   5.840  67.953  1.00  0.00    -0.078 A  
HETATM   23  C   UNL     1      -7.724   5.526  66.598  1.00  0.00    -0.100 A  
HETATM   24  C   UNL     1      -6.835   3.452  70.504  1.00  0.00    -0.033 C  
BRANCH  22  25
HETATM   25  O   UNL     1      -7.482   7.167  68.286  1.00  0.00    -0.097 OA 
HETATM   26  C   UNL     1      -6.239   7.847  68.435  1.00  0.00    -0.048 C  
ENDBRANCH  22  25
ENDBRANCH   1  11
BRANCH   5  27
HETATM   27  O   UNL     1     -10.196  12.063  68.552  1.00  0.00    -0.215 OA 
HETATM   28  C   UNL     1      -9.319  13.148  68.285  1.00  0.00    -0.201 C  
ENDBRANCH   5  27
BRANCH   2  29
HETATM   29  O   UNL     1     -10.955   9.532  69.627  1.00  0.00    -0.236 OA 
HETATM   30  C   UNL     1      -9.995   9.480  70.676  1.00  0.00    -0.276 C  
ENDBRANCH   2  29
TORSDOF 4
ENDMDL
MODEL      141
REMARK 921   NORMALIZED FREE ENERGY PREDICTED BY IDOCK:   -2.83 KCAL/MOL
REMARK 922        TOTAL FREE ENERGY PREDICTED BY IDOCK:   -4.30 KCAL/MOL
REMARK 923 INTER-LIGAND FREE ENERGY PREDICTED BY IDOCK:   -3.51 KCAL/MOL
REMARK 924 INTRA-LIGAND FREE ENERGY PREDICTED BY IDOCK:   -0.79 KCAL/MOL
REMARK 927      BINDING AFFINITY PREDICTED BY RF-SCORE:    0.00 PKD
ROOT
HETATM    1  C   UNL     1      -7.879   8.251  70.039  1.00  0.00    -0.104 C  
HETATM    2  C   UNL     1      -7.472   5.113  71.942  1.00  0.00    -0.094 A  
HETATM    3  O   UNL     1      -8.144   8.650  71.410  1.00  0.00    -0.130 OA 
HETATM    4  C   UNL     1      -8.080   7.600  72.289  1.00  0.00    -0.107 C  
HETATM    5  C   UNL     1      -7.060   4.167  70.978  1.00  0.00    -0.036 A  
HETATM    6  C   UNL     1      -7.668   6.427  71.515  1.00  0.00    -0.100 A  
HETATM    7  O   UNL     1      -8.316   7.675  73.476  1.00  0.00    -0.137 OA 
HETATM    8  C   UNL     1      -6.807   4.595  69.658  1.00  0.00    -0.048 A  
HETATM    9  C   UNL     1      -7.003   5.925  69.268  1.00  0.00    -0.064 A  
HETATM   10  C   UNL     1      -7.483   6.823  70.203  1.00  0.00    -0.094 A  
ENDROOT
BRANCH   1  11
HETATM   11  C   UNL     1      -9.114   8.607  69.110  1.00  0.00    -0.142 C  
HETATM   12  C   UNL     1      -9.951   6.737  67.578  1.00  0.00    -0.180 A  
HETATM   13  C   UNL     1     -10.840   9.489  70.684  1.00  0.00    -0.306 C  
HETATM   14  C   UNL     1     -10.958   7.180  69.896  1.00  0.00    -0.253 C  
HETATM   15  C   UNL     1      -9.898   5.985  66.397  1.00  0.00    -0.155 A  
HETATM   16  C   UNL     1      -8.951   6.321  65.458  1.00  0.00     0.033 A  
HETATM   17  N   UNL     1     -10.501   8.537  69.645  1.00  0.00    -0.219 NA 
HETATM   18  O   UNL     1      -8.771   5.664  64.279  1.00  0.00    -0.033 OA 
HETATM   19  C   UNL     1      -8.082   7.378  65.629  1.00  0.00    -0.129 A  
HETATM   20  C   UNL     1     -11.049   6.417  68.572  1.00  0.00    -0.385 C  
HETATM   21  O   UNL     1      -7.248   7.495  64.554  1.00  0.00    -0.068 OA 
HETATM   22  C   UNL     1      -8.109   8.163  66.776  1.00  0.00    -0.103 A  
HETATM   23  C   UNL     1      -9.049   7.824  67.784  1.00  0.00    -0.136 A  
HETATM   24  C   UNL     1      -7.616   6.347  63.770  1.00  0.00    -0.092 C  
BRANCH  22  25
HETATM   25  O   UNL     1      -7.298   9.233  67.043  1.00  0.00    -0.089 OA 
HETATM   26  C   UNL     1      -7.572  10.452  66.360  1.00  0.00    -0.123 C  
ENDBRANCH  22  25
ENDBRANCH   1  11
BRANCH   5  27
HETATM   27  O   UNL     1      -6.958   2.860  71.375  1.00  0.00    -0.030 OA 
HETATM   28  C   UNL     1      -6.175   1.975  70.588  1.00  0.00    -0.023 C  
ENDBRANCH   5  27
BRANCH   2  29
HETATM   29  O   UNL     1      -7.788   4.847  73.246  1.00  0.00    -0.095 OA 
HETATM   30  C   UNL     1      -6.707   4.683  74.158  1.00  0.00    -0.065 C  
ENDBRANCH   2  29
TORSDOF 4
ENDMDL
MODEL      142
REMARK 921   NORMALIZED FREE ENERGY PREDICTED BY IDOCK:   -2.81 KCAL/MOL
REMARK 922        TOTAL FREE ENERGY PREDICTED BY IDOCK:   -4.28 KCAL/MOL
REMARK 923 INTER-LIGAND FREE ENERGY PREDICTED BY IDOCK:   -4.27 KCAL/MOL
REMARK 924 INTRA-LIGAND FREE ENERGY PREDICTED BY IDOCK:   -0.01 KCAL/MOL
REMARK 927      BINDING AFFINITY PREDICTED BY RF-SCORE:    0.00 PKD
ROOT
HETATM    1  C   UNL     1      -8.160   9.312  68.959  1.00  0.00    -0.106 C  
HETATM    2  C   UNL     1     -11.446  10.910  69.492  1.00  0.00    -0.301 A  
HETATM    3  O   UNL     1      -8.282  10.218  67.832  1.00  0.00    -0.109 OA 
HETATM    4  C   UNL     1      -9.474  10.893  67.821  1.00  0.00    -0.157 C  
HETATM    5  C   UNL     1     -11.896  10.389  70.725  1.00  0.00    -0.368 A  
HETATM    6  C   UNL     1     -10.186  10.510  69.042  1.00  0.00    -0.233 A  
HETATM    7  O   UNL     1      -9.828  11.663  66.953  1.00  0.00    -0.194 OA 
HETATM    8  C   UNL     1     -11.041   9.548  71.469  1.00  0.00    -0.406 A  
HETATM    9  C   UNL     1      -9.779   9.178  70.993  1.00  0.00    -0.359 A  
HETATM   10  C   UNL     1      -9.384   9.631  69.748  1.00  0.00    -0.238 A  
ENDROOT
BRANCH   1  11
HETATM   11  C   UNL     1      -7.933   7.825  68.455  1.00  0.00    -0.122 C  
HETATM   12  C   UNL     1      -6.316   7.533  66.495  1.00  0.00    -0.045 A  
HETATM   13  C   UNL     1      -7.287   6.565  70.512  1.00  0.00    -0.082 C  
HETATM   14  C   UNL     1      -5.574   7.323  68.943  1.00  0.00    -0.019 C  
HETATM   15  C   UNL     1      -6.013   7.529  65.127  1.00  0.00    -0.038 A  
HETATM   16  C   UNL     1      -7.029   7.794  64.239  1.00  0.00    -0.068 A  
HETATM   17  N   UNL     1      -6.961   6.938  69.149  1.00  0.00    -0.075 NA 
HETATM   18  O   UNL     1      -6.875   7.846  62.888  1.00  0.00    -0.081 OA 
HETATM   19  C   UNL     1      -8.325   8.033  64.648  1.00  0.00    -0.057 A  
HETATM   20  C   UNL     1      -5.212   7.159  67.465  1.00  0.00    -0.019 C  
HETATM   21  O   UNL     1      -9.134   8.266  63.573  1.00  0.00     0.620 OA 
HETATM   22  C   UNL     1      -8.675   8.029  65.992  1.00  0.00    -0.157 A  
HETATM   23  C   UNL     1      -7.645   7.796  66.941  1.00  0.00    -0.099 A  
HETATM   24  C   UNL     1      -8.190   8.258  62.487  1.00  0.00    -0.169 C  
BRANCH  22  25
HETATM   25  O   UNL     1      -9.926   8.249  66.503  1.00  0.00    -0.259 OA 
HETATM   26  C   UNL     1     -10.691   7.109  66.883  1.00  0.00    -0.293 C  
ENDBRANCH  22  25
ENDBRANCH   1  11
BRANCH   5  27
HETATM   27  O   UNL     1     -13.167  10.706  71.122  1.00  0.00    -0.345 OA 
HETATM   28  C   UNL     1     -13.332  11.515  72.277  1.00  0.00     0.008 C  
ENDBRANCH   5  27
BRANCH   2  29
HETATM   29  O   UNL     1     -12.166  11.706  68.644  1.00  0.00    -0.455 OA 
HETATM   30  C   UNL     1     -12.248  13.090  68.961  1.00  0.00    -0.044 C  
ENDBRANCH   2  29
TORSDOF 4
ENDMDL
MODEL      143
REMARK 921   NORMALIZED FREE ENERGY PREDICTED BY IDOCK:   -2.74 KCAL/MOL
REMARK 922        TOTAL FREE ENERGY PREDICTED BY IDOCK:   -4.19 KCAL/MOL
REMARK 923 INTER-LIGAND FREE ENERGY PREDICTED BY IDOCK:   -4.30 KCAL/MOL
REMARK 924 INTRA-LIGAND FREE ENERGY PREDICTED BY IDOCK:    0.11 KCAL/MOL
REMARK 927      BINDING AFFINITY PREDICTED BY RF-SCORE:    0.00 PKD
ROOT
HETATM    1  C   UNL     1     -10.016   5.566  67.958  1.00  0.00    -0.149 C  
HETATM    2  C   UNL     1     -11.073   8.702  69.595  1.00  0.00    -0.013 A  
HETATM    3  O   UNL     1     -10.744   5.108  69.127  1.00  0.00    -0.126 OA 
HETATM    4  C   UNL     1     -11.197   6.139  69.907  1.00  0.00    -0.414 C  
HETATM    5  C   UNL     1     -10.634   9.721  68.722  1.00  0.00    -0.219 A  
HETATM    6  C   UNL     1     -10.846   7.379  69.211  1.00  0.00    -0.153 A  
HETATM    7  O   UNL     1     -11.783   6.007  70.960  1.00  0.00    -0.209 OA 
HETATM    8  C   UNL     1     -10.051   9.365  67.488  1.00  0.00    -0.268 A  
HETATM    9  C   UNL     1      -9.850   8.027  67.130  1.00  0.00    -0.274 A  
HETATM   10  C   UNL     1     -10.211   7.042  68.029  1.00  0.00    -0.217 A  
ENDROOT
BRANCH   1  11
HETATM   11  C   UNL     1      -8.542   4.982  67.959  1.00  0.00    -0.103 C  
HETATM   12  C   UNL     1      -6.758   6.415  66.815  1.00  0.00    -0.060 A  
HETATM   13  C   UNL     1      -8.072   4.489  70.361  1.00  0.00    -0.067 C  
HETATM   14  C   UNL     1      -7.223   6.537  69.336  1.00  0.00    -0.086 C  
HETATM   15  C   UNL     1      -6.063   6.859  65.683  1.00  0.00    -0.036 A  
HETATM   16  C   UNL     1      -6.397   6.316  64.464  1.00  0.00    -0.030 A  
HETATM   17  N   UNL     1      -7.663   5.164  69.145  1.00  0.00    -0.079 NA 
HETATM   18  O   UNL     1      -5.823   6.669  63.282  1.00  0.00    -0.033 OA 
HETATM   19  C   UNL     1      -7.364   5.341  64.329  1.00  0.00    -0.056 A  
HETATM   20  C   UNL     1      -6.330   6.955  68.165  1.00  0.00    -0.035 C  
HETATM   21  O   UNL     1      -7.500   4.976  63.021  1.00  0.00    -0.047 OA 
HETATM   22  C   UNL     1      -8.067   4.857  65.426  1.00  0.00    -0.114 A  
HETATM   23  C   UNL     1      -7.774   5.421  66.696  1.00  0.00    -0.100 A  
HETATM   24  C   UNL     1      -6.610   5.896  62.364  1.00  0.00    -0.032 C  
BRANCH  22  25
HETATM   25  O   UNL     1      -9.037   3.893  65.403  1.00  0.00    -0.130 OA 
HETATM   26  C   UNL     1      -9.283   3.236  64.164  1.00  0.00    -0.127 C  
ENDBRANCH  22  25
ENDBRANCH   1  11
BRANCH   5  27
HETATM   27  O   UNL     1     -10.772  11.018  69.140  1.00  0.00    -0.214 OA 
HETATM   28  C   UNL     1     -12.079  11.508  69.400  1.00  0.00    -0.279 C  
ENDBRANCH   5  27
BRANCH   2  29
HETATM   29  O   UNL     1     -11.624   8.886  70.834  1.00  0.00    -0.279 OA 
HETATM   30  C   UNL     1     -10.732   8.944  71.941  1.00  0.00    -0.356 C  
ENDBRANCH   2  29
TORSDOF 4
ENDMDL
MODEL      144
REMARK 921   NORMALIZED FREE ENERGY PREDICTED BY IDOCK:   -2.73 KCAL/MOL
REMARK 922        TOTAL FREE ENERGY PREDICTED BY IDOCK:   -4.17 KCAL/MOL
REMARK 923 INTER-LIGAND FREE ENERGY PREDICTED BY IDOCK:   -4.31 KCAL/MOL
REMARK 924 INTRA-LIGAND FREE ENERGY PREDICTED BY IDOCK:    0.14 KCAL/MOL
REMARK 927      BINDING AFFINITY PREDICTED BY RF-SCORE:    0.00 PKD
ROOT
HETATM    1  C   UNL     1      -9.887   8.078  66.758  1.00  0.00    -0.257 C  
HETATM    2  C   UNL     1     -11.614   9.445  69.722  1.00  0.00     0.132 A  
HETATM    3  O   UNL     1     -10.107   6.909  67.591  1.00  0.00    -0.142 OA 
HETATM    4  C   UNL     1     -10.714   7.213  68.781  1.00  0.00    -0.169 C  
HETATM    5  C   UNL     1     -11.793  10.814  69.425  1.00  0.00    -0.298 A  
HETATM    6  C   UNL     1     -11.012   8.646  68.748  1.00  0.00     0.106 A  
HETATM    7  O   UNL     1     -10.952   6.414  69.662  1.00  0.00    -0.284 OA 
HETATM    8  C   UNL     1     -11.420  11.297  68.153  1.00  0.00    -0.376 A  
HETATM    9  C   UNL     1     -10.830  10.463  67.196  1.00  0.00    -0.301 A  
HETATM   10  C   UNL     1     -10.587   9.144  67.529  1.00  0.00    -0.317 A  
ENDROOT
BRANCH   1  11
HETATM   11  C   UNL     1      -8.343   8.247  66.436  1.00  0.00    -0.117 C  
HETATM   12  C   UNL     1      -7.139   6.168  65.557  1.00  0.00    -0.069 A  
HETATM   13  C   UNL     1      -8.243  10.213  64.899  1.00  0.00    -0.157 C  
HETATM   14  C   UNL     1      -8.147   7.943  64.002  1.00  0.00    -0.078 C  
HETATM   15  C   UNL     1      -6.472   4.950  65.744  1.00  0.00    -0.040 A  
HETATM   16  C   UNL     1      -6.269   4.514  67.032  1.00  0.00    -0.036 A  
HETATM   17  N   UNL     1      -7.907   8.822  65.135  1.00  0.00    -0.102 NA 
HETATM   18  O   UNL     1      -5.658   3.343  67.359  1.00  0.00    -0.020 OA 
HETATM   19  C   UNL     1      -6.673   5.242  68.131  1.00  0.00    -0.055 A  
HETATM   20  C   UNL     1      -7.287   6.685  64.140  1.00  0.00    -0.078 C  
HETATM   21  O   UNL     1      -6.353   4.589  69.286  1.00  0.00    -0.029 OA 
HETATM   22  C   UNL     1      -7.323   6.463  67.996  1.00  0.00    -0.089 A  
HETATM   23  C   UNL     1      -7.582   6.929  66.680  1.00  0.00    -0.089 A  
HETATM   24  C   UNL     1      -5.820   3.350  68.786  1.00  0.00    -0.023 C  
BRANCH  22  25
HETATM   25  O   UNL     1      -7.760   7.264  69.016  1.00  0.00    -0.107 OA 
HETATM   26  C   UNL     1      -6.784   8.032  69.714  1.00  0.00    -0.040 C  
ENDBRANCH  22  25
ENDBRANCH   1  11
BRANCH   5  27
HETATM   27  O   UNL     1     -12.296  11.617  70.413  1.00  0.00    -0.321 OA 
HETATM   28  C   UNL     1     -12.070  13.016  70.328  1.00  0.00    -0.314 C  
ENDBRANCH   5  27
BRANCH   2  29
HETATM   29  O   UNL     1     -11.893   8.837  70.915  1.00  0.00    -0.282 OA 
HETATM   30  C   UNL     1     -10.889   8.884  71.921  1.00  0.00    -0.363 C  
ENDBRANCH   2  29
TORSDOF 4
ENDMDL
MODEL      145
REMARK 921   NORMALIZED FREE ENERGY PREDICTED BY IDOCK:   -2.68 KCAL/MOL
REMARK 922        TOTAL FREE ENERGY PREDICTED BY IDOCK:   -4.11 KCAL/MOL
REMARK 923 INTER-LIGAND FREE ENERGY PREDICTED BY IDOCK:   -5.81 KCAL/MOL
REMARK 924 INTRA-LIGAND FREE ENERGY PREDICTED BY IDOCK:    1.70 KCAL/MOL
REMARK 927      BINDING AFFINITY PREDICTED BY RF-SCORE:    0.00 PKD
ROOT
HETATM    1  C   UNL     1      -9.112  11.352  66.507  1.00  0.00    -0.186 C  
HETATM    2  C   UNL     1      -7.111  13.275  68.942  1.00  0.00    -0.079 A  
HETATM    3  O   UNL     1      -9.131  12.700  65.970  1.00  0.00    -0.064 OA 
HETATM    4  C   UNL     1      -8.463  13.596  66.763  1.00  0.00     0.035 C  
HETATM    5  C   UNL     1      -6.656  12.309  69.865  1.00  0.00     0.096 A  
HETATM    6  C   UNL     1      -7.874  12.828  67.862  1.00  0.00    -0.156 A  
HETATM    7  O   UNL     1      -8.387  14.787  66.552  1.00  0.00    -0.086 OA 
HETATM    8  C   UNL     1      -6.933  10.946  69.628  1.00  0.00    -0.128 A  
HETATM    9  C   UNL     1      -7.691  10.533  68.527  1.00  0.00    -0.104 A  
HETATM   10  C   UNL     1      -8.199  11.496  67.676  1.00  0.00    -0.131 A  
ENDROOT
BRANCH   1  11
HETATM   11  C   UNL     1     -10.590  10.828  66.743  1.00  0.00    -0.250 C  
HETATM   12  C   UNL     1     -11.206  10.233  69.153  1.00  0.00    -0.268 A  
HETATM   13  C   UNL     1     -12.040  12.585  65.721  1.00  0.00    -0.378 C  
HETATM   14  C   UNL     1     -11.676  12.541  68.136  1.00  0.00    -0.348 C  
HETATM   15  C   UNL     1     -11.238   9.354  70.243  1.00  0.00    -0.286 A  
HETATM   16  C   UNL     1     -10.700   8.099  70.079  1.00  0.00    -0.243 A  
HETATM   17  N   UNL     1     -11.713  11.793  66.890  1.00  0.00    -0.584 NA 
HETATM   18  O   UNL     1     -10.641   7.153  71.056  1.00  0.00    -0.219 OA 
HETATM   19  C   UNL     1     -10.162   7.676  68.881  1.00  0.00    -0.210 A  
HETATM   20  C   UNL     1     -11.873  11.584  69.313  1.00  0.00    -0.414 C  
HETATM   21  O   UNL     1      -9.700   6.396  68.985  1.00  0.00    -0.134 OA 
HETATM   22  C   UNL     1     -10.125   8.507  67.767  1.00  0.00    -0.211 A  
HETATM   23  C   UNL     1     -10.638   9.822  67.910  1.00  0.00    -0.310 A  
HETATM   24  C   UNL     1      -9.904   6.122  70.383  1.00  0.00    -0.178 C  
BRANCH  22  25
HETATM   25  O   UNL     1      -9.621   8.186  66.536  1.00  0.00    -0.207 OA 
HETATM   26  C   UNL     1      -8.725   7.082  66.459  1.00  0.00    -0.134 C  
ENDBRANCH  22  25
ENDBRANCH   1  11
BRANCH   5  27
HETATM   27  O   UNL     1      -5.987  12.755  70.974  1.00  0.00    -0.286 OA 
HETATM   28  C   UNL     1      -5.187  13.922  70.855  1.00  0.00    -0.130 C  
ENDBRANCH   5  27
BRANCH   2  29
HETATM   29  O   UNL     1      -6.953  14.629  69.051  1.00  0.00    -0.104 OA 
HETATM   30  C   UNL     1      -5.880  15.220  68.327  1.00  0.00    -0.119 C  
ENDBRANCH   2  29
TORSDOF 4
ENDMDL
MODEL      146
REMARK 921   NORMALIZED FREE ENERGY PREDICTED BY IDOCK:   -2.64 KCAL/MOL
REMARK 922        TOTAL FREE ENERGY PREDICTED BY IDOCK:   -4.07 KCAL/MOL
REMARK 923 INTER-LIGAND FREE ENERGY PREDICTED BY IDOCK:   -4.25 KCAL/MOL
REMARK 924 INTRA-LIGAND FREE ENERGY PREDICTED BY IDOCK:    0.19 KCAL/MOL
REMARK 927      BINDING AFFINITY PREDICTED BY RF-SCORE:    0.00 PKD
ROOT
HETATM    1  C   UNL     1      -8.768  11.238  67.836  1.00  0.00    -0.138 C  
HETATM    2  C   UNL     1      -7.296   8.052  68.982  1.00  0.00    -0.084 A  
HETATM    3  O   UNL     1      -8.858  11.325  69.282  1.00  0.00     0.056 OA 
HETATM    4  C   UNL     1      -8.390  10.201  69.911  1.00  0.00    -0.089 C  
HETATM    5  C   UNL     1      -6.863   7.417  67.797  1.00  0.00    -0.074 A  
HETATM    6  C   UNL     1      -7.868   9.320  68.864  1.00  0.00    -0.087 A  
HETATM    7  O   UNL     1      -8.411  10.017  71.109  1.00  0.00     0.341 OA 
HETATM    8  C   UNL     1      -6.967   8.106  66.570  1.00  0.00    -0.068 A  
HETATM    9  C   UNL     1      -7.535   9.383  66.492  1.00  0.00    -0.093 A  
HETATM   10  C   UNL     1      -8.028   9.959  67.647  1.00  0.00    -0.109 A  
ENDROOT
BRANCH   1  11
HETATM   11  C   UNL     1     -10.202  11.404  67.180  1.00  0.00    -0.202 C  
HETATM   12  C   UNL     1     -10.404  13.164  65.335  1.00  0.00    -0.313 A  
HETATM   13  C   UNL     1     -10.826   9.094  66.463  1.00  0.00     0.301 C  
HETATM   14  C   UNL     1      -9.937  10.690  64.840  1.00  0.00    -0.318 C  
HETATM   15  C   UNL     1     -10.583  14.481  64.892  1.00  0.00    -0.450 A  
HETATM   16  C   UNL     1     -10.779  15.460  65.838  1.00  0.00    -0.336 A  
HETATM   17  N   UNL     1     -10.642  10.485  66.095  1.00  0.00    -0.162 NA 
HETATM   18  O   UNL     1     -10.943  16.781  65.553  1.00  0.00    -0.200 OA 
HETATM   19  C   UNL     1     -10.832  15.184  67.188  1.00  0.00    -0.320 A  
HETATM   20  C   UNL     1     -10.271  12.077  64.287  1.00  0.00    -0.347 C  
HETATM   21  O   UNL     1     -11.037  16.328  67.906  1.00  0.00    -0.332 OA 
HETATM   22  C   UNL     1     -10.678  13.891  67.672  1.00  0.00    -0.249 A  
HETATM   23  C   UNL     1     -10.437  12.859  66.728  1.00  0.00    -0.262 A  
HETATM   24  C   UNL     1     -10.990  17.333  66.878  1.00  0.00     0.139 C  
BRANCH  22  25
HETATM   25  O   UNL     1     -10.718  13.509  68.986  1.00  0.00    -0.228 OA 
HETATM   26  C   UNL     1     -11.997  13.413  69.605  1.00  0.00    -0.324 C  
ENDBRANCH  22  25
ENDBRANCH   1  11
BRANCH   5  27
HETATM   27  O   UNL     1      -6.389   6.137  67.900  1.00  0.00    -0.036 OA 
HETATM   28  C   UNL     1      -7.021   5.119  67.138  1.00  0.00    -0.064 C  
ENDBRANCH   5  27
BRANCH   2  29
HETATM   29  O   UNL     1      -7.293   7.505  70.235  1.00  0.00    -0.073 OA 
HETATM   30  C   UNL     1      -8.346   6.603  70.556  1.00  0.00    -0.130 C  
ENDBRANCH   2  29
TORSDOF 4
ENDMDL
MODEL      147
REMARK 921   NORMALIZED FREE ENERGY PREDICTED BY IDOCK:   -2.49 KCAL/MOL
REMARK 922        TOTAL FREE ENERGY PREDICTED BY IDOCK:   -3.88 KCAL/MOL
REMARK 923 INTER-LIGAND FREE ENERGY PREDICTED BY IDOCK:   -3.81 KCAL/MOL
REMARK 924 INTRA-LIGAND FREE ENERGY PREDICTED BY IDOCK:   -0.07 KCAL/MOL
REMARK 927      BINDING AFFINITY PREDICTED BY RF-SCORE:    0.00 PKD
ROOT
HETATM    1  C   UNL     1      -8.132  10.149  67.736  1.00  0.00    -0.109 C  
HETATM    2  C   UNL     1      -9.895  13.356  68.221  1.00  0.00    -0.235 A  
HETATM    3  O   UNL     1      -7.154  11.138  67.322  1.00  0.00    -0.095 OA 
HETATM    4  C   UNL     1      -7.634  12.419  67.391  1.00  0.00    -0.160 C  
HETATM    5  C   UNL     1     -11.136  12.994  68.789  1.00  0.00    -0.270 A  
HETATM    6  C   UNL     1      -8.981  12.334  67.960  1.00  0.00    -0.190 A  
HETATM    7  O   UNL     1      -7.023  13.409  67.047  1.00  0.00    -0.017 OA 
HETATM    8  C   UNL     1     -11.373  11.644  69.122  1.00  0.00    -0.345 A  
HETATM    9  C   UNL     1     -10.427  10.647  68.857  1.00  0.00    -0.232 A  
HETATM   10  C   UNL     1      -9.249  11.004  68.228  1.00  0.00    -0.165 A  
ENDROOT
BRANCH   1  11
HETATM   11  C   UNL     1      -8.408   9.117  66.564  1.00  0.00    -0.118 C  
HETATM   12  C   UNL     1      -9.621   6.962  67.218  1.00  0.00    -0.173 A  
HETATM   13  C   UNL     1      -9.584  10.463  64.819  1.00  0.00    -0.293 C  
HETATM   14  C   UNL     1     -10.857   9.030  66.333  1.00  0.00     0.556 C  
HETATM   15  C   UNL     1      -9.641   5.655  67.721  1.00  0.00    -0.128 A  
HETATM   16  C   UNL     1      -8.446   5.085  68.091  1.00  0.00    -0.099 A  
HETATM   17  N   UNL     1      -9.588   9.292  65.673  1.00  0.00    -0.271 NA 
HETATM   18  O   UNL     1      -8.319   3.836  68.615  1.00  0.00    -0.073 OA 
HETATM   19  C   UNL     1      -7.241   5.743  67.957  1.00  0.00    -0.072 A  
HETATM   20  C   UNL     1     -10.929   7.555  66.735  1.00  0.00     0.178 C  
HETATM   21  O   UNL     1      -6.212   4.959  68.395  1.00  0.00    -0.029 OA 
HETATM   22  C   UNL     1      -7.170   7.034  67.447  1.00  0.00    -0.090 A  
HETATM   23  C   UNL     1      -8.388   7.668  67.089  1.00  0.00    -0.121 A  
HETATM   24  C   UNL     1      -6.914   3.813  68.908  1.00  0.00    -0.046 C  
BRANCH  22  25
HETATM   25  O   UNL     1      -6.031   7.772  67.270  1.00  0.00    -0.045 OA 
HETATM   26  C   UNL     1      -5.208   7.454  66.151  1.00  0.00    -0.024 C  
ENDBRANCH  22  25
ENDBRANCH   1  11
BRANCH   5  27
HETATM   27  O   UNL     1     -12.069  13.982  68.958  1.00  0.00    -0.346 OA 
HETATM   28  C   UNL     1     -12.654  14.146  70.242  1.00  0.00    -0.306 C  
ENDBRANCH   5  27
BRANCH   2  29
HETATM   29  O   UNL     1      -9.532  14.611  67.815  1.00  0.00    -0.200 OA 
HETATM   30  C   UNL     1     -10.433  15.306  66.961  1.00  0.00    -0.292 C  
ENDBRANCH   2  29
TORSDOF 4
ENDMDL
MODEL      148
REMARK 921   NORMALIZED FREE ENERGY PREDICTED BY IDOCK:   -2.48 KCAL/MOL
REMARK 922        TOTAL FREE ENERGY PREDICTED BY IDOCK:   -3.87 KCAL/MOL
REMARK 923 INTER-LIGAND FREE ENERGY PREDICTED BY IDOCK:   -3.83 KCAL/MOL
REMARK 924 INTRA-LIGAND FREE ENERGY PREDICTED BY IDOCK:   -0.04 KCAL/MOL
REMARK 927      BINDING AFFINITY PREDICTED BY RF-SCORE:    0.00 PKD
ROOT
HETATM    1  C   UNL     1      -9.448   5.125  66.919  1.00  0.00    -0.139 C  
HETATM    2  C   UNL     1      -9.786   3.782  70.341  1.00  0.00    -0.065 A  
HETATM    3  O   UNL     1      -9.446   3.688  66.719  1.00  0.00    -0.188 OA 
HETATM    4  C   UNL     1      -9.526   2.989  67.895  1.00  0.00    -0.155 C  
HETATM    5  C   UNL     1      -9.934   4.926  71.156  1.00  0.00    -0.208 A  
HETATM    6  C   UNL     1      -9.677   3.980  68.964  1.00  0.00    -0.161 A  
HETATM    7  O   UNL     1      -9.486   1.781  67.988  1.00  0.00    -0.183 OA 
HETATM    8  C   UNL     1     -10.027   6.196  70.549  1.00  0.00    -0.223 A  
HETATM    9  C   UNL     1      -9.926   6.355  69.162  1.00  0.00    -0.173 A  
HETATM   10  C   UNL     1      -9.700   5.235  68.384  1.00  0.00    -0.189 A  
ENDROOT
BRANCH   1  11
HETATM   11  C   UNL     1      -8.133   5.772  66.312  1.00  0.00    -0.107 C  
HETATM   12  C   UNL     1      -6.573   6.930  67.975  1.00  0.00    -0.059 A  
HETATM   13  C   UNL     1      -7.064   3.913  65.031  1.00  0.00    -0.066 C  
HETATM   14  C   UNL     1      -6.269   4.482  67.270  1.00  0.00    -0.039 C  
HETATM   15  C   UNL     1      -6.179   8.034  68.744  1.00  0.00    -0.040 A  
HETATM   16  C   UNL     1      -6.923   9.186  68.650  1.00  0.00    -0.063 A  
HETATM   17  N   UNL     1      -6.933   4.930  66.056  1.00  0.00    -0.065 NA 
HETATM   18  O   UNL     1      -6.670  10.323  69.354  1.00  0.00    -0.049 OA 
HETATM   19  C   UNL     1      -8.014   9.296  67.813  1.00  0.00    -0.100 A  
HETATM   20  C   UNL     1      -5.703   5.690  68.019  1.00  0.00    -0.012 C  
HETATM   21  O   UNL     1      -8.571  10.539  67.909  1.00  0.00    -0.121 OA 
HETATM   22  C   UNL     1      -8.431   8.235  67.019  1.00  0.00    -0.122 A  
HETATM   23  C   UNL     1      -7.709   7.016  67.116  1.00  0.00    -0.108 A  
HETATM   24  C   UNL     1      -7.789  11.132  68.960  1.00  0.00    -0.103 C  
BRANCH  22  25
HETATM   25  O   UNL     1      -9.492   8.239  66.155  1.00  0.00    -0.209 OA 
HETATM   26  C   UNL     1      -9.861   9.486  65.572  1.00  0.00    -0.234 C  
ENDBRANCH  22  25
ENDBRANCH   1  11
BRANCH   5  27
HETATM   27  O   UNL     1      -9.947   4.741  72.513  1.00  0.00    -0.154 OA 
HETATM   28  C   UNL     1     -10.797   5.564  73.298  1.00  0.00    -0.293 C  
ENDBRANCH   5  27
BRANCH   2  29
HETATM   29  O   UNL     1      -9.649   2.494  70.780  1.00  0.00    -0.146 OA 
HETATM   30  C   UNL     1      -8.375   2.108  71.281  1.00  0.00    -0.053 C  
ENDBRANCH   2  29
TORSDOF 4
ENDMDL
MODEL      149
REMARK 921   NORMALIZED FREE ENERGY PREDICTED BY IDOCK:   -2.46 KCAL/MOL
REMARK 922        TOTAL FREE ENERGY PREDICTED BY IDOCK:   -3.85 KCAL/MOL
REMARK 923 INTER-LIGAND FREE ENERGY PREDICTED BY IDOCK:   -3.82 KCAL/MOL
REMARK 924 INTRA-LIGAND FREE ENERGY PREDICTED BY IDOCK:   -0.03 KCAL/MOL
REMARK 927      BINDING AFFINITY PREDICTED BY RF-SCORE:    0.00 PKD
ROOT
HETATM    1  C   UNL     1      -7.982   7.136  69.633  1.00  0.00    -0.124 C  
HETATM    2  C   UNL     1      -8.583   5.125  72.670  1.00  0.00    -0.117 A  
HETATM    3  O   UNL     1      -7.789   8.088  70.711  1.00  0.00    -0.086 OA 
HETATM    4  C   UNL     1      -8.008   7.539  71.948  1.00  0.00    -0.094 C  
HETATM    5  C   UNL     1      -8.799   3.815  72.189  1.00  0.00    -0.097 A  
HETATM    6  C   UNL     1      -8.284   6.116  71.734  1.00  0.00    -0.114 A  
HETATM    7  O   UNL     1      -7.962   8.148  72.995  1.00  0.00    -0.149 OA 
HETATM    8  C   UNL     1      -8.644   3.554  70.812  1.00  0.00    -0.113 A  
HETATM    9  C   UNL     1      -8.330   4.571  69.903  1.00  0.00    -0.073 A  
HETATM   10  C   UNL     1      -8.201   5.863  70.377  1.00  0.00    -0.111 A  
ENDROOT
BRANCH   1  11
HETATM   11  C   UNL     1      -9.103   7.648  68.634  1.00  0.00    -0.135 C  
HETATM   12  C   UNL     1      -8.638   7.307  66.142  1.00  0.00    -0.156 A  
HETATM   13  C   UNL     1     -11.199   6.556  69.443  1.00  0.00    -0.356 C  
HETATM   14  C   UNL     1      -9.980   5.625  67.542  1.00  0.00    -0.154 C  
HETATM   15  C   UNL     1      -8.061   7.691  64.925  1.00  0.00    -0.128 A  
HETATM   16  C   UNL     1      -7.339   8.860  64.892  1.00  0.00    -0.093 A  
HETATM   17  N   UNL     1     -10.290   6.800  68.340  1.00  0.00    -0.178 NA 
HETATM   18  O   UNL     1      -6.706   9.342  63.787  1.00  0.00    -0.090 OA 
HETATM   19  C   UNL     1      -7.191   9.670  65.999  1.00  0.00    -0.098 A  
HETATM   20  C   UNL     1      -9.501   6.061  66.155  1.00  0.00    -0.116 C  
HETATM   21  O   UNL     1      -6.433  10.765  65.698  1.00  0.00    -0.114 OA 
HETATM   22  C   UNL     1      -7.761   9.339  67.223  1.00  0.00    -0.095 A  
HETATM   23  C   UNL     1      -8.483   8.120  67.305  1.00  0.00    -0.125 A  
HETATM   24  C   UNL     1      -6.042  10.488  64.341  1.00  0.00    -0.025 C  
BRANCH  22  25
HETATM   25  O   UNL     1      -7.680  10.071  68.377  1.00  0.00    -0.083 OA 
HETATM   26  C   UNL     1      -8.485  11.242  68.472  1.00  0.00    -0.156 C  
ENDBRANCH  22  25
ENDBRANCH   1  11
BRANCH   5  27
HETATM   27  O   UNL     1      -9.183   2.862  73.094  1.00  0.00    -0.088 OA 
HETATM   28  C   UNL     1     -10.506   2.352  73.016  1.00  0.00    -0.153 C  
ENDBRANCH   5  27
BRANCH   2  29
HETATM   29  O   UNL     1      -8.727   5.540  73.966  1.00  0.00    -0.120 OA 
HETATM   30  C   UNL     1     -10.049   5.802  74.423  1.00  0.00    -0.281 C  
ENDBRANCH   2  29
TORSDOF 4
ENDMDL
MODEL      150
REMARK 921   NORMALIZED FREE ENERGY PREDICTED BY IDOCK:   -2.39 KCAL/MOL
REMARK 922        TOTAL FREE ENERGY PREDICTED BY IDOCK:   -3.76 KCAL/MOL
REMARK 923 INTER-LIGAND FREE ENERGY PREDICTED BY IDOCK:   -3.36 KCAL/MOL
REMARK 924 INTRA-LIGAND FREE ENERGY PREDICTED BY IDOCK:   -0.40 KCAL/MOL
REMARK 927      BINDING AFFINITY PREDICTED BY RF-SCORE:    0.00 PKD
ROOT
HETATM    1  C   UNL     1      -9.155   8.829  68.273  1.00  0.00    -0.141 C  
HETATM    2  C   UNL     1      -8.276   5.566  69.761  1.00  0.00    -0.101 A  
HETATM    3  O   UNL     1     -10.234   7.959  67.841  1.00  0.00    -0.189 OA 
HETATM    4  C   UNL     1     -10.074   6.666  68.264  1.00  0.00    -0.159 C  
HETATM    5  C   UNL     1      -7.115   5.827  70.520  1.00  0.00    -0.067 A  
HETATM    6  C   UNL     1      -8.873   6.643  69.103  1.00  0.00    -0.129 A  
HETATM    7  O   UNL     1     -10.814   5.747  67.985  1.00  0.00    -0.242 OA 
HETATM    8  C   UNL     1      -6.650   7.154  70.634  1.00  0.00    -0.048 A  
HETATM    9  C   UNL     1      -7.282   8.211  69.970  1.00  0.00    -0.056 A  
HETATM   10  C   UNL     1      -8.370   7.930  69.165  1.00  0.00    -0.133 A  
ENDROOT
BRANCH   1  11
HETATM   11  C   UNL     1      -8.441   9.490  67.021  1.00  0.00    -0.128 C  
HETATM   12  C   UNL     1      -6.467  11.034  67.532  1.00  0.00    -0.063 A  
HETATM   13  C   UNL     1      -7.873   7.559  65.542  1.00  0.00    -0.114 C  
HETATM   14  C   UNL     1      -6.170   8.543  66.990  1.00  0.00    -0.056 C  
HETATM   15  C   UNL     1      -5.923  12.276  67.887  1.00  0.00    -0.083 A  
HETATM   16  C   UNL     1      -6.788  13.326  68.089  1.00  0.00    -0.114 A  
HETATM   17  N   UNL     1      -7.412   8.732  66.258  1.00  0.00    -0.086 NA 
HETATM   18  O   UNL     1      -6.403  14.578  68.458  1.00  0.00    -0.079 OA 
HETATM   19  C   UNL     1      -8.152  13.202  67.928  1.00  0.00    -0.159 A  
HETATM   20  C   UNL     1      -5.506   9.901  67.230  1.00  0.00    -0.042 C  
HETATM   21  O   UNL     1      -8.777  14.388  68.187  1.00  0.00    -0.160 OA 
HETATM   22  C   UNL     1      -8.734  11.995  67.560  1.00  0.00    -0.166 A  
HETATM   23  C   UNL     1      -7.877  10.879  67.378  1.00  0.00    -0.113 A  
HETATM   24  C   UNL     1      -7.681  15.209  68.628  1.00  0.00    -0.126 C  
BRANCH  22  25
HETATM   25  O   UNL     1     -10.070  11.767  67.369  1.00  0.00    -0.193 OA 
HETATM   26  C   UNL     1     -10.979  12.384  68.275  1.00  0.00    -0.236 C  
ENDBRANCH  22  25
ENDBRANCH   1  11
BRANCH   5  27
HETATM   27  O   UNL     1      -6.475   4.758  71.088  1.00  0.00    -0.018 OA 
HETATM   28  C   UNL     1      -5.333   4.228  70.432  1.00  0.00    -0.004 C  
ENDBRANCH   5  27
BRANCH   2  29
HETATM   29  O   UNL     1      -8.827   4.336  69.530  1.00  0.00    -0.082 OA 
HETATM   30  C   UNL     1      -8.258   3.551  68.489  1.00  0.00    -0.073 C  
ENDBRANCH   2  29
TORSDOF 4
ENDMDL
MODEL      151
REMARK 921   NORMALIZED FREE ENERGY PREDICTED BY IDOCK:   -2.18 KCAL/MOL
REMARK 922        TOTAL FREE ENERGY PREDICTED BY IDOCK:   -3.50 KCAL/MOL
REMARK 923 INTER-LIGAND FREE ENERGY PREDICTED BY IDOCK:   -3.77 KCAL/MOL
REMARK 924 INTRA-LIGAND FREE ENERGY PREDICTED BY IDOCK:    0.27 KCAL/MOL
REMARK 927      BINDING AFFINITY PREDICTED BY RF-SCORE:    0.00 PKD
ROOT
HETATM    1  C   UNL     1      -8.229  13.894  67.332  1.00  0.00    -0.187 C  
HETATM    2  C   UNL     1      -7.301  10.587  68.688  1.00  0.00    -0.091 A  
HETATM    3  O   UNL     1      -7.720  14.202  68.656  1.00  0.00    -0.128 OA 
HETATM    4  C   UNL     1      -7.350  13.083  69.355  1.00  0.00     0.350 C  
HETATM    5  C   UNL     1      -7.545   9.690  67.626  1.00  0.00    -0.091 A  
HETATM    6  C   UNL     1      -7.526  11.945  68.452  1.00  0.00    -0.102 A  
HETATM    7  O   UNL     1      -6.948  13.082  70.499  1.00  0.00     0.767 OA 
HETATM    8  C   UNL     1      -7.940  10.199  66.371  1.00  0.00    -0.120 A  
HETATM    9  C   UNL     1      -8.143  11.569  66.167  1.00  0.00     0.054 A  
HETATM   10  C   UNL     1      -7.979  12.428  67.237  1.00  0.00    -0.178 A  
ENDROOT
BRANCH   1  11
HETATM   11  C   UNL     1      -9.710  14.436  67.167  1.00  0.00    -0.248 C  
HETATM   12  C   UNL     1     -10.938  15.043  69.327  1.00  0.00    -0.269 A  
HETATM   13  C   UNL     1      -9.501  16.323  65.544  1.00  0.00     0.111 C  
HETATM   14  C   UNL     1      -9.642  16.771  67.941  1.00  0.00    -0.236 C  
HETATM   15  C   UNL     1     -11.702  14.712  70.454  1.00  0.00    -0.355 A  
HETATM   16  C   UNL     1     -12.080  13.400  70.616  1.00  0.00    -0.295 A  
HETATM   17  N   UNL     1      -9.953  15.868  66.844  1.00  0.00    -0.243 NA 
HETATM   18  O   UNL     1     -12.801  12.933  71.672  1.00  0.00    -0.336 OA 
HETATM   19  C   UNL     1     -11.760  12.420  69.701  1.00  0.00    -0.307 A  
HETATM   20  C   UNL     1     -10.594  16.503  69.109  1.00  0.00    -0.319 C  
HETATM   21  O   UNL     1     -12.255  11.210  70.097  1.00  0.00    -0.308 OA 
HETATM   22  C   UNL     1     -11.020  12.704  68.559  1.00  0.00    -0.261 A  
HETATM   23  C   UNL     1     -10.580  14.041  68.376  1.00  0.00    -0.259 A  
HETATM   24  C   UNL     1     -12.806  11.526  71.388  1.00  0.00    -0.384 C  
BRANCH  22  25
HETATM   25  O   UNL     1     -10.653  11.810  67.590  1.00  0.00    -0.195 OA 
HETATM   26  C   UNL     1     -11.648  10.908  67.116  1.00  0.00     0.243 C  
ENDBRANCH  22  25
ENDBRANCH   1  11
BRANCH   5  27
HETATM   27  O   UNL     1      -7.416   8.351  67.884  1.00  0.00    -0.094 OA 
HETATM   28  C   UNL     1      -8.510   7.497  67.587  1.00  0.00    -0.117 C  
ENDBRANCH   5  27
BRANCH   2  29
HETATM   29  O   UNL     1      -6.949  10.246  69.965  1.00  0.00    -0.123 OA 
HETATM   30  C   UNL     1      -7.926   9.579  70.755  1.00  0.00    -0.048 C  
ENDBRANCH   2  29
TORSDOF 4
ENDMDL
MODEL      152
REMARK 921   NORMALIZED FREE ENERGY PREDICTED BY IDOCK:   -2.18 KCAL/MOL
REMARK 922        TOTAL FREE ENERGY PREDICTED BY IDOCK:   -3.49 KCAL/MOL
REMARK 923 INTER-LIGAND FREE ENERGY PREDICTED BY IDOCK:   -4.38 KCAL/MOL
REMARK 924 INTRA-LIGAND FREE ENERGY PREDICTED BY IDOCK:    0.88 KCAL/MOL
REMARK 927      BINDING AFFINITY PREDICTED BY RF-SCORE:    0.00 PKD
ROOT
HETATM    1  C   UNL     1      -7.823  11.128  67.990  1.00  0.00    -0.114 C  
HETATM    2  C   UNL     1      -7.800  14.775  67.419  1.00  0.00    -0.200 A  
HETATM    3  O   UNL     1      -6.439  11.408  67.654  1.00  0.00    -0.056 OA 
HETATM    4  C   UNL     1      -6.222  12.730  67.362  1.00  0.00    -0.129 C  
HETATM    5  C   UNL     1      -9.117  15.187  67.720  1.00  0.00    -0.179 A  
HETATM    6  C   UNL     1      -7.492  13.424  67.587  1.00  0.00    -0.182 A  
HETATM    7  O   UNL     1      -5.162  13.195  67.001  1.00  0.00    -0.300 OA 
HETATM    8  C   UNL     1     -10.034  14.244  68.230  1.00  0.00    -0.239 A  
HETATM    9  C   UNL     1      -9.685  12.899  68.398  1.00  0.00    -0.186 A  
HETATM   10  C   UNL     1      -8.418  12.494  68.023  1.00  0.00    -0.173 A  
ENDROOT
BRANCH   1  11
HETATM   11  C   UNL     1      -8.427  10.047  66.999  1.00  0.00    -0.125 C  
HETATM   12  C   UNL     1      -9.927   8.263  68.051  1.00  0.00    -0.224 A  
HETATM   13  C   UNL     1      -9.538  11.395  65.215  1.00  0.00    -0.228 C  
HETATM   14  C   UNL     1     -10.858  10.423  67.025  1.00  0.00    -0.203 C  
HETATM   15  C   UNL     1     -10.127   7.050  68.723  1.00  0.00    -0.170 A  
HETATM   16  C   UNL     1      -9.021   6.300  69.047  1.00  0.00    -0.123 A  
HETATM   17  N   UNL     1      -9.653  10.351  66.214  1.00  0.00    -0.175 NA 
HETATM   18  O   UNL     1      -9.065   5.116  69.718  1.00  0.00    -0.110 OA 
HETATM   19  C   UNL     1      -7.741   6.686  68.708  1.00  0.00    -0.109 A  
HETATM   20  C   UNL     1     -11.153   9.045  67.625  1.00  0.00     0.211 C  
HETATM   21  O   UNL     1      -6.830   5.767  69.143  1.00  0.00    -0.057 OA 
HETATM   22  C   UNL     1      -7.496   7.871  68.026  1.00  0.00    -0.108 A  
HETATM   23  C   UNL     1      -8.610   8.690  67.708  1.00  0.00    -0.136 A  
HETATM   24  C   UNL     1      -7.663   4.848  69.872  1.00  0.00    -0.056 C  
BRANCH  22  25
HETATM   25  O   UNL     1      -6.270   8.344  67.640  1.00  0.00    -0.050 OA 
HETATM   26  C   UNL     1      -5.711   7.819  66.440  1.00  0.00    -0.036 C  
ENDBRANCH  22  25
ENDBRANCH   1  11
BRANCH   5  27
HETATM   27  O   UNL     1      -9.447  16.492  67.468  1.00  0.00    -0.222 OA 
HETATM   28  C   UNL     1     -10.596  17.033  68.103  1.00  0.00    -0.369 C  
ENDBRANCH   5  27
BRANCH   2  29
HETATM   29  O   UNL     1      -6.813  15.560  66.889  1.00  0.00    -0.230 OA 
HETATM   30  C   UNL     1      -7.212  16.766  66.249  1.00  0.00    -0.099 C  
ENDBRANCH   2  29
TORSDOF 4
ENDMDL
MODEL      153
REMARK 921   NORMALIZED FREE ENERGY PREDICTED BY IDOCK:   -1.89 KCAL/MOL
REMARK 922        TOTAL FREE ENERGY PREDICTED BY IDOCK:   -3.14 KCAL/MOL
REMARK 923 INTER-LIGAND FREE ENERGY PREDICTED BY IDOCK:   -5.21 KCAL/MOL
REMARK 924 INTRA-LIGAND FREE ENERGY PREDICTED BY IDOCK:    2.07 KCAL/MOL
REMARK 927      BINDING AFFINITY PREDICTED BY RF-SCORE:    0.00 PKD
ROOT
HETATM    1  C   UNL     1      -9.552  15.012  69.040  1.00  0.00    -0.225 C  
HETATM    2  C   UNL     1      -7.679  17.631  67.234  1.00  0.00    -0.204 A  
HETATM    3  O   UNL     1      -8.557  14.263  68.296  1.00  0.00    -0.162 OA 
HETATM    4  C   UNL     1      -7.767  15.064  67.513  1.00  0.00    -0.185 C  
HETATM    5  C   UNL     1      -8.244  18.844  67.686  1.00  0.00    -0.267 A  
HETATM    6  C   UNL     1      -8.168  16.445  67.785  1.00  0.00    -0.162 A  
HETATM    7  O   UNL     1      -6.904  14.664  66.761  1.00  0.00     0.257 OA 
HETATM    8  C   UNL     1      -9.219  18.811  68.705  1.00  0.00    -0.386 A  
HETATM    9  C   UNL     1      -9.676  17.604  69.244  1.00  0.00     0.005 A  
HETATM   10  C   UNL     1      -9.173  16.421  68.735  1.00  0.00    -0.239 A  
ENDROOT
BRANCH   1  11
HETATM   11  C   UNL     1     -11.012  14.510  68.676  1.00  0.00    -0.251 C  
HETATM   12  C   UNL     1     -12.328  13.397  70.566  1.00  0.00    -0.401 A  
HETATM   13  C   UNL     1     -12.130  16.516  67.695  1.00  0.00     1.290 C  
HETATM   14  C   UNL     1     -12.535  15.897  70.022  1.00  0.00    -0.024 C  
HETATM   15  C   UNL     1     -12.669  12.291  71.355  1.00  0.00    -0.351 A  
HETATM   16  C   UNL     1     -12.064  11.088  71.077  1.00  0.00    -0.301 A  
HETATM   17  N   UNL     1     -12.157  15.460  68.688  1.00  0.00    -0.196 NA 
HETATM   18  O   UNL     1     -12.282   9.939  71.775  1.00  0.00    -0.389 OA 
HETATM   19  C   UNL     1     -11.167  10.933  70.042  1.00  0.00    -0.263 A  
HETATM   20  C   UNL     1     -13.057  14.701  70.822  1.00  0.00    -0.377 C  
HETATM   21  O   UNL     1     -10.717   9.645  69.982  1.00  0.00    -0.223 OA 
HETATM   22  C   UNL     1     -10.812  11.997  69.222  1.00  0.00    -0.076 A  
HETATM   23  C   UNL     1     -11.388  13.264  69.501  1.00  0.00    -0.236 A  
HETATM   24  C   UNL     1     -11.337   9.063  71.143  1.00  0.00    -0.307 C  
BRANCH  22  25
HETATM   25  O   UNL     1      -9.939  11.950  68.169  1.00  0.00    -0.185 OA 
HETATM   26  C   UNL     1     -10.326  11.194  67.026  1.00  0.00    -0.224 C  
ENDBRANCH  22  25
ENDBRANCH   1  11
BRANCH   5  27
HETATM   27  O   UNL     1      -7.832  20.000  67.079  1.00  0.00    -0.284 OA 
HETATM   28  C   UNL     1      -6.747  20.714  67.653  1.00  0.00    -0.327 C  
ENDBRANCH   5  27
BRANCH   2  29
HETATM   29  O   UNL     1      -6.755  17.497  66.235  1.00  0.00    -0.229 OA 
HETATM   30  C   UNL     1      -6.416  18.667  65.498  1.00  0.00    -0.286 C  
ENDBRANCH   2  29
TORSDOF 4
ENDMDL
MODEL      154
REMARK 921   NORMALIZED FREE ENERGY PREDICTED BY IDOCK:   -1.73 KCAL/MOL
REMARK 922        TOTAL FREE ENERGY PREDICTED BY IDOCK:   -2.95 KCAL/MOL
REMARK 923 INTER-LIGAND FREE ENERGY PREDICTED BY IDOCK:   -4.95 KCAL/MOL
REMARK 924 INTRA-LIGAND FREE ENERGY PREDICTED BY IDOCK:    2.01 KCAL/MOL
REMARK 927      BINDING AFFINITY PREDICTED BY RF-SCORE:    0.00 PKD
ROOT
HETATM    1  C   UNL     1     -11.121  16.315  66.887  1.00  0.00     0.055 C  
HETATM    2  C   UNL     1     -10.816  12.638  66.748  1.00  0.00    -0.250 A  
HETATM    3  O   UNL     1     -10.566  16.071  65.568  1.00  0.00    -0.371 OA 
HETATM    4  C   UNL     1     -10.336  14.742  65.327  1.00  0.00    -0.398 C  
HETATM    5  C   UNL     1     -11.373  12.191  67.966  1.00  0.00    -0.295 A  
HETATM    6  C   UNL     1     -10.830  14.011  66.495  1.00  0.00    -0.300 A  
HETATM    7  O   UNL     1      -9.828  14.298  64.319  1.00  0.00     0.287 OA 
HETATM    8  C   UNL     1     -11.968  13.130  68.835  1.00  0.00    -0.317 A  
HETATM    9  C   UNL     1     -11.975  14.498  68.543  1.00  0.00    -0.321 A  
HETATM   10  C   UNL     1     -11.355  14.930  67.386  1.00  0.00    -0.354 A  
ENDROOT
BRANCH   1  11
HETATM   11  C   UNL     1     -10.177  17.283  67.715  1.00  0.00    -0.332 C  
HETATM   12  C   UNL     1      -7.663  17.012  67.331  1.00  0.00    -0.192 A  
HETATM   13  C   UNL     1     -11.047  19.571  67.216  1.00  0.00    -0.166 C  
HETATM   14  C   UNL     1      -9.082  18.717  66.042  1.00  0.00     0.008 C  
HETATM   15  C   UNL     1      -6.431  16.391  67.578  1.00  0.00    -0.187 A  
HETATM   16  C   UNL     1      -6.392  15.377  68.505  1.00  0.00    -0.097 A  
HETATM   17  N   UNL     1      -9.914  18.666  67.233  1.00  0.00    -0.315 NA 
HETATM   18  O   UNL     1      -5.272  14.673  68.827  1.00  0.00    -0.084 OA 
HETATM   19  C   UNL     1      -7.507  14.977  69.211  1.00  0.00    -0.188 A  
HETATM   20  C   UNL     1      -7.686  18.183  66.370  1.00  0.00    -0.295 C  
HETATM   21  O   UNL     1      -7.197  13.958  70.065  1.00  0.00     0.255 OA 
HETATM   22  C   UNL     1      -8.746  15.575  69.014  1.00  0.00    -0.235 A  
HETATM   23  C   UNL     1      -8.833  16.601  68.037  1.00  0.00    -0.206 A  
HETATM   24  C   UNL     1      -5.821  13.702  69.731  1.00  0.00    -0.115 C  
BRANCH  22  25
HETATM   25  O   UNL     1      -9.909  15.259  69.662  1.00  0.00    -0.252 OA 
HETATM   26  C   UNL     1     -10.360  16.150  70.678  1.00  0.00     0.547 C  
ENDBRANCH  22  25
ENDBRANCH   1  11
BRANCH   5  27
HETATM   27  O   UNL     1     -11.276  10.857  68.257  1.00  0.00    -0.241 OA 
HETATM   28  C   UNL     1     -10.024  10.350  68.695  1.00  0.00    -0.177 C  
ENDBRANCH   5  27
BRANCH   2  29
HETATM   29  O   UNL     1     -10.177  11.859  65.822  1.00  0.00    -0.227 OA 
HETATM   30  C   UNL     1     -10.966  11.317  64.770  1.00  0.00    -0.192 C  
ENDBRANCH   2  29
TORSDOF 4
ENDMDL
MODEL      155
REMARK 921   NORMALIZED FREE ENERGY PREDICTED BY IDOCK:   -1.71 KCAL/MOL
REMARK 922        TOTAL FREE ENERGY PREDICTED BY IDOCK:   -2.92 KCAL/MOL
REMARK 923 INTER-LIGAND FREE ENERGY PREDICTED BY IDOCK:   -3.27 KCAL/MOL
REMARK 924 INTRA-LIGAND FREE ENERGY PREDICTED BY IDOCK:    0.35 KCAL/MOL
REMARK 927      BINDING AFFINITY PREDICTED BY RF-SCORE:    0.00 PKD
ROOT
HETATM    1  C   UNL     1      -9.426   8.716  68.674  1.00  0.00    -0.142 C  
HETATM    2  C   UNL     1      -9.036   5.063  68.309  1.00  0.00    -0.108 A  
HETATM    3  O   UNL     1     -10.606   8.324  67.925  1.00  0.00    -0.214 OA 
HETATM    4  C   UNL     1     -10.634   6.982  67.646  1.00  0.00    -0.257 C  
HETATM    5  C   UNL     1      -7.865   4.758  69.037  1.00  0.00    -0.072 A  
HETATM    6  C   UNL     1      -9.465   6.391  68.301  1.00  0.00    -0.121 A  
HETATM    7  O   UNL     1     -11.489   6.429  66.987  1.00  0.00    -0.196 OA 
HETATM    8  C   UNL     1      -7.224   5.781  69.767  1.00  0.00    -0.069 A  
HETATM    9  C   UNL     1      -7.690   7.100  69.747  1.00  0.00    -0.108 A  
HETATM   10  C   UNL     1      -8.790   7.400  68.965  1.00  0.00    -0.132 A  
ENDROOT
BRANCH   1  11
HETATM   11  C   UNL     1      -8.602   9.812  67.878  1.00  0.00    -0.125 C  
HETATM   12  C   UNL     1      -9.345  10.255  65.471  1.00  0.00    -0.250 A  
HETATM   13  C   UNL     1      -8.661  11.826  69.353  1.00  0.00     0.817 C  
HETATM   14  C   UNL     1     -10.189  11.645  67.456  1.00  0.00    -0.195 C  
HETATM   15  C   UNL     1      -9.351   9.961  64.101  1.00  0.00    -0.295 A  
HETATM   16  C   UNL     1      -8.587   8.906  63.662  1.00  0.00    -0.087 A  
HETATM   17  N   UNL     1      -8.917  11.256  68.045  1.00  0.00    -0.150 NA 
HETATM   18  O   UNL     1      -8.516   8.494  62.367  1.00  0.00    -0.201 OA 
HETATM   19  C   UNL     1      -7.803   8.156  64.515  1.00  0.00    -0.138 A  
HETATM   20  C   UNL     1     -10.124  11.469  65.937  1.00  0.00    -0.271 C  
HETATM   21  O   UNL     1      -7.147   7.175  63.828  1.00  0.00    -0.060 OA 
HETATM   22  C   UNL     1      -7.752   8.422  65.878  1.00  0.00    -0.086 A  
HETATM   23  C   UNL     1      -8.557   9.481  66.373  1.00  0.00    -0.143 A  
HETATM   24  C   UNL     1      -7.691   7.327  62.505  1.00  0.00    -0.122 C  
BRANCH  22  25
HETATM   25  O   UNL     1      -7.007   7.745  66.806  1.00  0.00    -0.069 OA 
HETATM   26  C   UNL     1      -5.678   7.381  66.445  1.00  0.00    -0.032 C  
ENDBRANCH  22  25
ENDBRANCH   1  11
BRANCH   5  27
HETATM   27  O   UNL     1      -7.391   3.476  68.969  1.00  0.00    -0.049 OA 
HETATM   28  C   UNL     1      -6.712   3.068  67.791  1.00  0.00    -0.044 C  
ENDBRANCH   5  27
BRANCH   2  29
HETATM   29  O   UNL     1      -9.747   4.193  67.529  1.00  0.00    -0.179 OA 
HETATM   30  C   UNL     1      -9.337   4.046  66.175  1.00  0.00    -0.171 C  
ENDBRANCH   2  29
TORSDOF 4
ENDMDL
MODEL      156
REMARK 921   NORMALIZED FREE ENERGY PREDICTED BY IDOCK:   -1.56 KCAL/MOL
REMARK 922        TOTAL FREE ENERGY PREDICTED BY IDOCK:   -2.74 KCAL/MOL
REMARK 923 INTER-LIGAND FREE ENERGY PREDICTED BY IDOCK:   -4.34 KCAL/MOL
REMARK 924 INTRA-LIGAND FREE ENERGY PREDICTED BY IDOCK:    1.60 KCAL/MOL
REMARK 927      BINDING AFFINITY PREDICTED BY RF-SCORE:    0.00 PKD
ROOT
HETATM    1  C   UNL     1      -8.054   9.581  66.070  1.00  0.00    -0.111 C  
HETATM    2  C   UNL     1      -6.528   6.251  66.531  1.00  0.00    -0.047 A  
HETATM    3  O   UNL     1      -8.039   9.413  67.512  1.00  0.00    -0.108 OA 
HETATM    4  C   UNL     1      -7.535   8.199  67.898  1.00  0.00    -0.098 C  
HETATM    5  C   UNL     1      -6.187   5.836  65.225  1.00  0.00    -0.037 A  
HETATM    6  C   UNL     1      -7.097   7.517  66.678  1.00  0.00    -0.078 A  
HETATM    7  O   UNL     1      -7.471   7.808  69.044  1.00  0.00    -0.090 OA 
HETATM    8  C   UNL     1      -6.373   6.729  64.148  1.00  0.00    -0.035 A  
HETATM    9  C   UNL     1      -6.935   7.996  64.336  1.00  0.00    -0.072 A  
HETATM   10  C   UNL     1      -7.340   8.358  65.607  1.00  0.00    -0.076 A  
ENDROOT
BRANCH   1  11
HETATM   11  C   UNL     1      -9.531   9.852  65.559  1.00  0.00    -0.252 C  
HETATM   12  C   UNL     1     -10.600  12.052  66.307  1.00  0.00    -0.287 A  
HETATM   13  C   UNL     1      -9.389   9.575  63.081  1.00  0.00     0.182 C  
HETATM   14  C   UNL     1      -9.360  11.807  64.074  1.00  0.00     0.103 C  
HETATM   15  C   UNL     1     -11.294  12.841  67.234  1.00  0.00    -0.364 A  
HETATM   16  C   UNL     1     -11.689  12.256  68.414  1.00  0.00    -0.337 A  
HETATM   17  N   UNL     1      -9.763  10.416  64.202  1.00  0.00    -0.318 NA 
HETATM   18  O   UNL     1     -12.349  12.907  69.411  1.00  0.00    -0.145 OA 
HETATM   19  C   UNL     1     -11.452  10.927  68.696  1.00  0.00    -0.311 A  
HETATM   20  C   UNL     1     -10.238  12.678  64.975  1.00  0.00    -0.294 C  
HETATM   21  O   UNL     1     -11.946  10.600  69.926  1.00  0.00    -0.288 OA 
HETATM   22  C   UNL     1     -10.783  10.102  67.800  1.00  0.00    -0.277 A  
HETATM   23  C   UNL     1     -10.327  10.680  66.587  1.00  0.00    -0.297 A  
HETATM   24  C   UNL     1     -12.403  11.877  70.409  1.00  0.00    -0.251 C  
BRANCH  22  25
HETATM   25  O   UNL     1     -10.501   8.775  67.980  1.00  0.00    -0.223 OA 
HETATM   26  C   UNL     1     -10.780   8.209  69.257  1.00  0.00    -0.129 C  
ENDBRANCH  22  25
ENDBRANCH   1  11
BRANCH   5  27
HETATM   27  O   UNL     1      -5.716   4.560  65.067  1.00  0.00    -0.014 OA 
HETATM   28  C   UNL     1      -6.309   3.739  64.072  1.00  0.00    -0.030 C  
ENDBRANCH   5  27
BRANCH   2  29
HETATM   29  O   UNL     1      -6.438   5.493  67.665  1.00  0.00    -0.047 OA 
HETATM   30  C   UNL     1      -5.174   4.911  67.962  1.00  0.00    -0.010 C  
ENDBRANCH   2  29
TORSDOF 4
ENDMDL
MODEL      157
REMARK 921   NORMALIZED FREE ENERGY PREDICTED BY IDOCK:   -1.37 KCAL/MOL
REMARK 922        TOTAL FREE ENERGY PREDICTED BY IDOCK:   -2.50 KCAL/MOL
REMARK 923 INTER-LIGAND FREE ENERGY PREDICTED BY IDOCK:   -3.65 KCAL/MOL
REMARK 924 INTRA-LIGAND FREE ENERGY PREDICTED BY IDOCK:    1.15 KCAL/MOL
REMARK 927      BINDING AFFINITY PREDICTED BY RF-SCORE:    0.00 PKD
ROOT
HETATM    1  C   UNL     1      -8.581   8.930  69.719  1.00  0.00    -0.134 C  
HETATM    2  C   UNL     1      -8.210   5.816  71.667  1.00  0.00    -0.119 A  
HETATM    3  O   UNL     1      -9.434   7.988  69.017  1.00  0.00    -0.151 OA 
HETATM    4  C   UNL     1      -9.407   6.735  69.570  1.00  0.00    -0.146 C  
HETATM    5  C   UNL     1      -7.381   6.176  72.753  1.00  0.00    -0.089 A  
HETATM    6  C   UNL     1      -8.564   6.820  70.764  1.00  0.00    -0.141 A  
HETATM    7  O   UNL     1      -9.993   5.770  69.128  1.00  0.00    -0.153 OA 
HETATM    8  C   UNL     1      -7.004   7.526  72.912  1.00  0.00    -0.071 A  
HETATM    9  C   UNL     1      -7.389   8.509  71.993  1.00  0.00    -0.110 A  
HETATM   10  C   UNL     1      -8.133   8.128  70.892  1.00  0.00    -0.098 A  
ENDROOT
BRANCH   1  11
HETATM   11  C   UNL     1      -7.493   9.533  68.735  1.00  0.00    -0.075 C  
HETATM   12  C   UNL     1      -7.147  12.065  68.849  1.00  0.00    -0.104 A  
HETATM   13  C   UNL     1      -5.434   8.198  69.196  1.00  0.00    -0.031 C  
HETATM   14  C   UNL     1      -5.713  10.412  70.189  1.00  0.00    -0.062 C  
HETATM   15  C   UNL     1      -7.486  13.379  68.502  1.00  0.00    -0.118 A  
HETATM   16  C   UNL     1      -8.537  13.569  67.635  1.00  0.00    -0.185 A  
HETATM   17  N   UNL     1      -6.052   9.506  69.103  1.00  0.00    -0.041 NA 
HETATM   18  O   UNL     1      -8.989  14.788  67.231  1.00  0.00    -0.179 OA 
HETATM   19  C   UNL     1      -9.239  12.518  67.084  1.00  0.00    -0.205 A  
HETATM   20  C   UNL     1      -5.937  11.857  69.738  1.00  0.00    -0.132 C  
HETATM   21  O   UNL     1     -10.227  12.978  66.261  1.00  0.00    -0.274 OA 
HETATM   22  C   UNL     1      -8.928  11.198  67.384  1.00  0.00    -0.139 A  
HETATM   23  C   UNL     1      -7.872  10.963  68.304  1.00  0.00    -0.118 A  
HETATM   24  C   UNL     1     -10.131  14.401  66.452  1.00  0.00    -0.286 C  
BRANCH  22  25
HETATM   25  O   UNL     1      -9.556  10.086  66.891  1.00  0.00    -0.164 OA 
HETATM   26  C   UNL     1     -10.938  10.200  66.567  1.00  0.00     0.133 C  
ENDBRANCH  22  25
ENDBRANCH   1  11
BRANCH   5  27
HETATM   27  O   UNL     1      -6.957   5.176  73.586  1.00  0.00    -0.077 OA 
HETATM   28  C   UNL     1      -7.924   4.496  74.373  1.00  0.00    -0.092 C  
ENDBRANCH   5  27
BRANCH   2  29
HETATM   29  O   UNL     1      -8.630   4.551  71.361  1.00  0.00    -0.108 OA 
HETATM   30  C   UNL     1      -9.898   4.146  71.863  1.00  0.00    -0.181 C  
ENDBRANCH   2  29
TORSDOF 4
ENDMDL
MODEL      158
REMARK 921   NORMALIZED FREE ENERGY PREDICTED BY IDOCK:   -0.94 KCAL/MOL
REMARK 922        TOTAL FREE ENERGY PREDICTED BY IDOCK:   -1.97 KCAL/MOL
REMARK 923 INTER-LIGAND FREE ENERGY PREDICTED BY IDOCK:   -2.14 KCAL/MOL
REMARK 924 INTRA-LIGAND FREE ENERGY PREDICTED BY IDOCK:    0.17 KCAL/MOL
REMARK 927      BINDING AFFINITY PREDICTED BY RF-SCORE:    0.00 PKD
ROOT
HETATM    1  C   UNL     1      -9.038  17.216  66.276  1.00  0.00    -0.228 C  
HETATM    2  C   UNL     1      -8.699  13.807  67.653  1.00  0.00    -0.185 A  
HETATM    3  O   UNL     1      -7.601  17.032  66.373  1.00  0.00    -0.262 OA 
HETATM    4  C   UNL     1      -7.257  15.818  66.909  1.00  0.00    -0.093 C  
HETATM    5  C   UNL     1     -10.024  13.326  67.735  1.00  0.00    -0.223 A  
HETATM    6  C   UNL     1      -8.506  15.082  67.119  1.00  0.00    -0.244 A  
HETATM    7  O   UNL     1      -6.122  15.458  67.138  1.00  0.00    -0.306 OA 
HETATM    8  C   UNL     1     -11.075  14.116  67.224  1.00  0.00    -0.315 A  
HETATM    9  C   UNL     1     -10.842  15.386  66.684  1.00  0.00    -0.302 A  
HETATM   10  C   UNL     1      -9.550  15.877  66.683  1.00  0.00    -0.265 A  
ENDROOT
BRANCH   1  11
HETATM   11  C   UNL     1      -9.489  18.496  67.096  1.00  0.00    -0.289 C  
HETATM   12  C   UNL     1      -7.668  20.224  67.585  1.00  0.00    -0.328 A  
HETATM   13  C   UNL     1     -11.436  19.396  65.816  1.00  0.00     1.185 C  
HETATM   14  C   UNL     1      -9.221  20.391  65.549  1.00  0.00     0.495 C  
HETATM   15  C   UNL     1      -6.596  20.716  68.341  1.00  0.00    -0.260 A  
HETATM   16  C   UNL     1      -6.208  20.003  69.452  1.00  0.00    -0.330 A  
HETATM   17  N   UNL     1     -10.132  19.644  66.401  1.00  0.00    -0.430 NA 
HETATM   18  O   UNL     1      -5.171  20.350  70.263  1.00  0.00    -0.238 OA 
HETATM   19  C   UNL     1      -6.852  18.852  69.853  1.00  0.00     0.148 A  
HETATM   20  C   UNL     1      -8.145  21.055  66.410  1.00  0.00     0.556 C  
HETATM   21  O   UNL     1      -6.272  18.344  70.981  1.00  0.00     0.509 OA 
HETATM   22  C   UNL     1      -7.930  18.337  69.145  1.00  0.00     0.030 A  
HETATM   23  C   UNL     1      -8.336  19.025  67.972  1.00  0.00    -0.335 A  
HETATM   24  C   UNL     1      -5.152  19.229  71.160  1.00  0.00    -0.272 C  
BRANCH  22  25
HETATM   25  O   UNL     1      -8.639  17.208  69.458  1.00  0.00     0.217 OA 
HETATM   26  C   UNL     1     -10.026  17.361  69.745  1.00  0.00     0.402 C  
ENDBRANCH  22  25
ENDBRANCH   1  11
BRANCH   5  27
HETATM   27  O   UNL     1     -10.223  12.116  68.344  1.00  0.00    -0.203 OA 
HETATM   28  C   UNL     1     -11.555  11.719  68.637  1.00  0.00    -0.309 C  
ENDBRANCH   5  27
BRANCH   2  29
HETATM   29  O   UNL     1      -7.583  13.176  68.132  1.00  0.00    -0.117 OA 
HETATM   30  C   UNL     1      -6.996  12.175  67.309  1.00  0.00    -0.148 C  
ENDBRANCH   2  29
TORSDOF 4
ENDMDL
MODEL      159
REMARK 921   NORMALIZED FREE ENERGY PREDICTED BY IDOCK:   -0.90 KCAL/MOL
REMARK 922        TOTAL FREE ENERGY PREDICTED BY IDOCK:   -1.92 KCAL/MOL
REMARK 923 INTER-LIGAND FREE ENERGY PREDICTED BY IDOCK:   -2.70 KCAL/MOL
REMARK 924 INTRA-LIGAND FREE ENERGY PREDICTED BY IDOCK:    0.78 KCAL/MOL
REMARK 927      BINDING AFFINITY PREDICTED BY RF-SCORE:    0.00 PKD
ROOT
HETATM    1  C   UNL     1      -9.559  12.196  65.644  1.00  0.00    -0.165 C  
HETATM    2  C   UNL     1     -10.395  15.757  65.143  1.00  0.00    -0.299 A  
HETATM    3  O   UNL     1     -10.581  12.161  64.614  1.00  0.00    -0.274 OA 
HETATM    4  C   UNL     1     -11.063  13.406  64.304  1.00  0.00    -0.373 C  
HETATM    5  C   UNL     1      -9.501  16.451  65.987  1.00  0.00    -0.310 A  
HETATM    6  C   UNL     1     -10.285  14.366  65.089  1.00  0.00    -0.420 A  
HETATM    7  O   UNL     1     -11.957  13.626  63.516  1.00  0.00    -0.405 OA 
HETATM    8  C   UNL     1      -8.509  15.728  66.682  1.00  0.00    -0.323 A  
HETATM    9  C   UNL     1      -8.420  14.334  66.594  1.00  0.00     0.067 A  
HETATM   10  C   UNL     1      -9.352  13.660  65.827  1.00  0.00     0.133 A  
ENDROOT
BRANCH   1  11
HETATM   11  C   UNL     1      -9.995  11.316  66.889  1.00  0.00    -0.207 C  
HETATM   12  C   UNL     1      -8.113  10.533  68.434  1.00  0.00    -0.119 A  
HETATM   13  C   UNL     1     -11.750  12.682  68.027  1.00  0.00    -0.350 C  
HETATM   14  C   UNL     1      -9.457  12.675  68.869  1.00  0.00     0.270 C  
HETATM   15  C   UNL     1      -7.085   9.649  68.785  1.00  0.00    -0.067 A  
HETATM   16  C   UNL     1      -6.850   8.571  67.965  1.00  0.00    -0.070 A  
HETATM   17  N   UNL     1     -10.492  11.969  68.131  1.00  0.00    -0.196 NA 
HETATM   18  O   UNL     1      -5.871   7.648  68.170  1.00  0.00    -0.036 OA 
HETATM   19  C   UNL     1      -7.604   8.322  66.837  1.00  0.00    -0.092 A  
HETATM   20  C   UNL     1      -8.422  11.672  69.385  1.00  0.00     0.649 C  
HETATM   21  O   UNL     1      -7.167   7.194  66.204  1.00  0.00    -0.071 OA 
HETATM   22  C   UNL     1      -8.646   9.160  66.460  1.00  0.00    -0.127 A  
HETATM   23  C   UNL     1      -8.894  10.304  67.262  1.00  0.00    -0.136 A  
HETATM   24  C   UNL     1      -6.010   6.847  66.987  1.00  0.00    -0.022 C  
BRANCH  22  25
HETATM   25  O   UNL     1      -9.456   9.003  65.368  1.00  0.00    -0.211 OA 
HETATM   26  C   UNL     1      -8.868   9.177  64.082  1.00  0.00    -0.089 C  
ENDBRANCH  22  25
ENDBRANCH   1  11
BRANCH   5  27
HETATM   27  O   UNL     1      -9.668  17.804  66.113  1.00  0.00    -0.444 OA 
HETATM   28  C   UNL     1     -10.848  18.284  66.741  1.00  0.00    -0.074 C  
ENDBRANCH   5  27
BRANCH   2  29
HETATM   29  O   UNL     1     -11.426  16.310  64.434  1.00  0.00    -0.586 OA 
HETATM   30  C   UNL     1     -12.748  16.031  64.882  1.00  0.00     1.644 C  
ENDBRANCH   2  29
TORSDOF 4
ENDMDL
MODEL      160
REMARK 921   NORMALIZED FREE ENERGY PREDICTED BY IDOCK:   -0.89 KCAL/MOL
REMARK 922        TOTAL FREE ENERGY PREDICTED BY IDOCK:   -1.90 KCAL/MOL
REMARK 923 INTER-LIGAND FREE ENERGY PREDICTED BY IDOCK:   -3.70 KCAL/MOL
REMARK 924 INTRA-LIGAND FREE ENERGY PREDICTED BY IDOCK:    1.80 KCAL/MOL
REMARK 927      BINDING AFFINITY PREDICTED BY RF-SCORE:    0.00 PKD
ROOT
HETATM    1  C   UNL     1      -8.026  10.703  67.053  1.00  0.00    -0.121 C  
HETATM    2  C   UNL     1      -6.628  12.808  69.745  1.00  0.00     0.071 A  
HETATM    3  O   UNL     1      -8.318  12.054  66.611  1.00  0.00    -0.165 OA 
HETATM    4  C   UNL     1      -7.907  13.005  67.508  1.00  0.00    -0.178 C  
HETATM    5  C   UNL     1      -6.016  11.892  70.627  1.00  0.00     0.026 A  
HETATM    6  C   UNL     1      -7.218  12.296  68.588  1.00  0.00    -0.105 A  
HETATM    7  O   UNL     1      -8.088  14.198  67.386  1.00  0.00    -0.174 OA 
HETATM    8  C   UNL     1      -5.970  10.526  70.278  1.00  0.00    -0.104 A  
HETATM    9  C   UNL     1      -6.561  10.049  69.102  1.00  0.00    -0.053 A  
HETATM   10  C   UNL     1      -7.228  10.946  68.288  1.00  0.00    -0.084 A  
ENDROOT
BRANCH   1  11
HETATM   11  C   UNL     1      -9.361   9.851  67.153  1.00  0.00    -0.146 C  
HETATM   12  C   UNL     1      -9.194   7.636  68.421  1.00  0.00    -0.140 A  
HETATM   13  C   UNL     1     -11.042  11.442  68.091  1.00  0.00    -0.248 C  
HETATM   14  C   UNL     1      -9.938   9.820  69.545  1.00  0.00    -0.214 C  
HETATM   15  C   UNL     1      -8.891   6.270  68.496  1.00  0.00    -0.114 A  
HETATM   16  C   UNL     1      -8.443   5.644  67.356  1.00  0.00    -0.106 A  
HETATM   17  N   UNL     1     -10.372  10.161  68.200  1.00  0.00    -0.175 NA 
HETATM   18  O   UNL     1      -8.090   4.331  67.290  1.00  0.00    -0.099 OA 
HETATM   19  C   UNL     1      -8.313   6.303  66.152  1.00  0.00    -0.130 A  
HETATM   20  C   UNL     1      -9.765   8.303  69.656  1.00  0.00    -0.173 C  
HETATM   21  O   UNL     1      -7.854   5.455  65.186  1.00  0.00    -0.087 OA 
HETATM   22  C   UNL     1      -8.620   7.653  66.026  1.00  0.00    -0.151 A  
HETATM   23  C   UNL     1      -9.050   8.342  67.189  1.00  0.00    -0.162 A  
HETATM   24  C   UNL     1      -7.611   4.254  65.939  1.00  0.00    -0.089 C  
BRANCH  22  25
HETATM   25  O   UNL     1      -8.531   8.398  64.881  1.00  0.00    -0.167 OA 
HETATM   26  C   UNL     1      -8.340   7.701  63.654  1.00  0.00     0.148 C  
ENDBRANCH  22  25
ENDBRANCH   1  11
BRANCH   5  27
HETATM   27  O   UNL     1      -5.520  12.381  71.806  1.00  0.00    -0.394 OA 
HETATM   28  C   UNL     1      -5.533  13.785  72.014  1.00  0.00    -0.165 C  
ENDBRANCH   5  27
BRANCH   2  29
HETATM   29  O   UNL     1      -6.781  14.151  69.958  1.00  0.00    -0.100 OA 
HETATM   30  C   UNL     1      -5.774  15.012  69.439  1.00  0.00    -0.101 C  
ENDBRANCH   2  29
TORSDOF 4
ENDMDL
MODEL      161
REMARK 921   NORMALIZED FREE ENERGY PREDICTED BY IDOCK:   -0.69 KCAL/MOL
REMARK 922        TOTAL FREE ENERGY PREDICTED BY IDOCK:   -1.66 KCAL/MOL
REMARK 923 INTER-LIGAND FREE ENERGY PREDICTED BY IDOCK:   -1.75 KCAL/MOL
REMARK 924 INTRA-LIGAND FREE ENERGY PREDICTED BY IDOCK:    0.09 KCAL/MOL
REMARK 927      BINDING AFFINITY PREDICTED BY RF-SCORE:    0.00 PKD
ROOT
HETATM    1  C   UNL     1     -10.544  16.215  66.699  1.00  0.00    -0.274 C  
HETATM    2  C   UNL     1      -8.057  18.944  66.708  1.00  0.00    -0.269 A  
HETATM    3  O   UNL     1     -11.309  17.368  67.136  1.00  0.00     0.244 OA 
HETATM    4  C   UNL     1     -10.545  18.501  67.245  1.00  0.00    -0.413 C  
HETATM    5  C   UNL     1      -6.878  18.349  66.207  1.00  0.00    -0.233 A  
HETATM    6  C   UNL     1      -9.202  18.149  66.782  1.00  0.00    -0.281 A  
HETATM    7  O   UNL     1     -10.948  19.573  67.642  1.00  0.00    -0.416 OA 
HETATM    8  C   UNL     1      -6.922  17.014  65.751  1.00  0.00     0.506 A  
HETATM    9  C   UNL     1      -8.091  16.251  65.829  1.00  0.00     0.752 A  
HETATM   10  C   UNL     1      -9.216  16.820  66.395  1.00  0.00    -0.309 A  
ENDROOT
BRANCH   1  11
HETATM   11  C   UNL     1     -10.633  15.051  67.772  1.00  0.00    -0.264 C  
HETATM   12  C   UNL     1      -8.444  14.413  68.932  1.00  0.00    -0.069 A  
HETATM   13  C   UNL     1     -12.440  15.784  69.332  1.00  0.00     0.129 C  
HETATM   14  C   UNL     1     -10.094  16.107  69.928  1.00  0.00    -0.074 C  
HETATM   15  C   UNL     1      -7.229  13.718  68.991  1.00  0.00    -0.063 A  
HETATM   16  C   UNL     1      -6.911  12.882  67.946  1.00  0.00    -0.120 A  
HETATM   17  N   UNL     1     -11.069  15.346  69.164  1.00  0.00    -0.249 NA 
HETATM   18  O   UNL     1      -5.758  12.164  67.860  1.00  0.00    -0.054 OA 
HETATM   19  C   UNL     1      -7.752  12.689  66.871  1.00  0.00     0.090 A  
HETATM   20  C   UNL     1      -8.828  15.269  70.122  1.00  0.00     0.549 C  
HETATM   21  O   UNL     1      -7.202  11.814  65.979  1.00  0.00     0.322 OA 
HETATM   22  C   UNL     1      -8.975  13.344  66.777  1.00  0.00    -0.179 A  
HETATM   23  C   UNL     1      -9.321  14.243  67.819  1.00  0.00    -0.198 A  
HETATM   24  C   UNL     1      -5.905  11.582  66.557  1.00  0.00    -0.106 C  
BRANCH  22  25
HETATM   25  O   UNL     1      -9.882  13.221  65.760  1.00  0.00    -0.265 OA 
HETATM   26  C   UNL     1     -10.155  11.909  65.276  1.00  0.00    -0.257 C  
ENDBRANCH  22  25
ENDBRANCH   1  11
BRANCH   5  27
HETATM   27  O   UNL     1      -5.733  19.099  66.222  1.00  0.00    -0.156 OA 
HETATM   28  C   UNL     1      -5.144  19.457  64.980  1.00  0.00    -0.156 C  
ENDBRANCH   5  27
BRANCH   2  29
HETATM   29  O   UNL     1      -8.166  20.209  67.216  1.00  0.00    -0.312 OA 
HETATM   30  C   UNL     1      -8.084  20.354  68.629  1.00  0.00     0.376 C  
ENDBRANCH   2  29
TORSDOF 4
ENDMDL
MODEL      162
REMARK 921   NORMALIZED FREE ENERGY PREDICTED BY IDOCK:    0.48 KCAL/MOL
REMARK 922        TOTAL FREE ENERGY PREDICTED BY IDOCK:   -0.21 KCAL/MOL
REMARK 923 INTER-LIGAND FREE ENERGY PREDICTED BY IDOCK:   -2.42 KCAL/MOL
REMARK 924 INTRA-LIGAND FREE ENERGY PREDICTED BY IDOCK:    2.21 KCAL/MOL
REMARK 927      BINDING AFFINITY PREDICTED BY RF-SCORE:    0.00 PKD
ROOT
HETATM    1  C   UNL     1     -10.391   4.346  65.960  1.00  0.00    -0.178 C  
HETATM    2  C   UNL     1      -9.698   4.880  69.547  1.00  0.00    -0.195 A  
HETATM    3  O   UNL     1      -9.486   3.261  66.294  1.00  0.00    -0.159 OA 
HETATM    4  C   UNL     1      -9.070   3.302  67.599  1.00  0.00    -0.174 C  
HETATM    5  C   UNL     1     -10.511   5.979  69.903  1.00  0.00    -0.249 A  
HETATM    6  C   UNL     1      -9.781   4.415  68.233  1.00  0.00    -0.171 A  
HETATM    7  O   UNL     1      -8.272   2.536  68.097  1.00  0.00    -0.058 OA 
HETATM    8  C   UNL     1     -11.405   6.511  68.950  1.00  0.00    -0.267 A  
HETATM    9  C   UNL     1     -11.470   6.010  67.645  1.00  0.00     0.598 A  
HETATM   10  C   UNL     1     -10.611   4.988  67.287  1.00  0.00    -0.075 A  
ENDROOT
BRANCH   1  11
HETATM   11  C   UNL     1      -9.801   5.214  64.771  1.00  0.00     0.478 C  
HETATM   12  C   UNL     1      -7.265   5.549  64.768  1.00  0.00    -0.062 A  
HETATM   13  C   UNL     1     -10.691   4.125  62.708  1.00  0.00    -0.011 C  
HETATM   14  C   UNL     1      -8.413   3.665  63.457  1.00  0.00    -0.091 C  
HETATM   15  C   UNL     1      -6.102   6.209  65.184  1.00  0.00    -0.030 A  
HETATM   16  C   UNL     1      -6.234   7.273  66.045  1.00  0.00    -0.041 A  
HETATM   17  N   UNL     1      -9.534   4.590  63.447  1.00  0.00    -0.065 NA 
HETATM   18  O   UNL     1      -5.191   7.989  66.547  1.00  0.00    -0.024 OA 
HETATM   19  C   UNL     1      -7.463   7.722  66.482  1.00  0.00    -0.088 A  
HETATM   20  C   UNL     1      -7.121   4.431  63.756  1.00  0.00    -0.046 C  
HETATM   21  O   UNL     1      -7.315   8.787  67.324  1.00  0.00    -0.080 OA 
HETATM   22  C   UNL     1      -8.645   7.111  66.082  1.00  0.00    -0.146 A  
HETATM   23  C   UNL     1      -8.546   5.986  65.223  1.00  0.00    -0.103 A  
HETATM   24  C   UNL     1      -5.883   8.871  67.444  1.00  0.00    -0.043 C  
BRANCH  22  25
HETATM   25  O   UNL     1      -9.910   7.478  66.452  1.00  0.00    -0.176 OA 
HETATM   26  C   UNL     1     -10.145   8.858  66.717  1.00  0.00    -0.280 C  
ENDBRANCH  22  25
ENDBRANCH   1  11
BRANCH   5  27
HETATM   27  O   UNL     1     -10.363   6.496  71.162  1.00  0.00    -0.201 OA 
HETATM   28  C   UNL     1     -11.390   6.261  72.114  1.00  0.00    -0.297 C  
ENDBRANCH   5  27
BRANCH   2  29
HETATM   29  O   UNL     1      -8.763   4.279  70.344  1.00  0.00    -0.075 OA 
HETATM   30  C   UNL     1      -9.141   3.072  70.995  1.00  0.00    -0.115 C  
ENDBRANCH   2  29
TORSDOF 4
ENDMDL
MODEL      163
REMARK 921   NORMALIZED FREE ENERGY PREDICTED BY IDOCK:    2.57 KCAL/MOL
REMARK 922        TOTAL FREE ENERGY PREDICTED BY IDOCK:    2.36 KCAL/MOL
REMARK 923 INTER-LIGAND FREE ENERGY PREDICTED BY IDOCK:    2.58 KCAL/MOL
REMARK 924 INTRA-LIGAND FREE ENERGY PREDICTED BY IDOCK:   -0.22 KCAL/MOL
REMARK 927      BINDING AFFINITY PREDICTED BY RF-SCORE:    0.00 PKD
ROOT
HETATM    1  C   UNL     1     -10.362  18.321  68.617  1.00  0.00    -0.276 C  
HETATM    2  C   UNL     1      -7.483  20.158  67.213  1.00  0.00    -0.286 A  
HETATM    3  O   UNL     1      -9.515  18.556  69.772  1.00  0.00     0.487 OA 
HETATM    4  C   UNL     1      -8.351  19.205  69.452  1.00  0.00     0.145 C  
HETATM    5  C   UNL     1      -7.812  20.341  65.852  1.00  0.00    -0.106 A  
HETATM    6  C   UNL     1      -8.421  19.517  68.023  1.00  0.00    -0.358 A  
HETATM    7  O   UNL     1      -7.463  19.464  70.237  1.00  0.00     0.433 OA 
HETATM    8  C   UNL     1      -9.080  19.931  65.389  1.00  0.00     0.679 A  
HETATM    9  C   UNL     1     -10.001  19.303  66.234  1.00  0.00    -0.484 A  
HETATM   10  C   UNL     1      -9.635  19.057  67.544  1.00  0.00    -0.358 A  
ENDROOT
BRANCH   1  11
HETATM   11  C   UNL     1     -10.637  16.769  68.437  1.00  0.00    -0.354 C  
HETATM   12  C   UNL     1      -9.257  15.200  69.913  1.00  0.00     0.123 A  
HETATM   13  C   UNL     1     -13.106  16.540  68.729  1.00  0.00     3.693 C  
HETATM   14  C   UNL     1     -11.595  16.024  70.578  1.00  0.00    -0.362 C  
HETATM   15  C   UNL     1      -8.097  14.468  70.199  1.00  0.00     0.911 A  
HETATM   16  C   UNL     1      -7.068  14.505  69.289  1.00  0.00    -0.140 A  
HETATM   17  N   UNL     1     -11.779  16.124  69.139  1.00  0.00    -0.294 NA 
HETATM   18  O   UNL     1      -5.878  13.863  69.448  1.00  0.00    -0.085 OA 
HETATM   19  C   UNL     1      -7.152  15.208  68.105  1.00  0.00    -0.118 A  
HETATM   20  C   UNL     1     -10.420  15.090  70.879  1.00  0.00     0.300 C  
HETATM   21  O   UNL     1      -5.999  15.079  67.385  1.00  0.00    -0.335 OA 
HETATM   22  C   UNL     1      -8.289  15.933  67.770  1.00  0.00    -0.150 A  
HETATM   23  C   UNL     1      -9.359  15.949  68.703  1.00  0.00    -0.212 A  
HETATM   24  C   UNL     1      -5.169  14.329  68.289  1.00  0.00    -0.113 C  
BRANCH  22  25
HETATM   25  O   UNL     1      -8.477  16.658  66.625  1.00  0.00    -0.207 OA 
HETATM   26  C   UNL     1      -8.999  15.973  65.490  1.00  0.00     0.459 C  
ENDBRANCH  22  25
ENDBRANCH   1  11
BRANCH   5  27
HETATM   27  O   UNL     1      -6.856  20.885  65.036  1.00  0.00    -0.133 OA 
HETATM   28  C   UNL     1      -6.481  20.173  63.866  1.00  0.00     0.134 C  
ENDBRANCH   5  27
BRANCH   2  29
HETATM   29  O   UNL     1      -6.289  20.470  67.801  1.00  0.00    -0.239 OA 
HETATM   30  C   UNL     1      -5.175  19.639  67.495  1.00  0.00    -0.169 C  
ENDBRANCH   2  29
TORSDOF 4
ENDMDL
MODEL      164
REMARK 921   NORMALIZED FREE ENERGY PREDICTED BY IDOCK:    2.68 KCAL/MOL
REMARK 922        TOTAL FREE ENERGY PREDICTED BY IDOCK:    2.50 KCAL/MOL
REMARK 923 INTER-LIGAND FREE ENERGY PREDICTED BY IDOCK:    3.10 KCAL/MOL
REMARK 924 INTRA-LIGAND FREE ENERGY PREDICTED BY IDOCK:   -0.60 KCAL/MOL
REMARK 927      BINDING AFFINITY PREDICTED BY RF-SCORE:    0.00 PKD
ROOT
HETATM    1  C   UNL     1      -9.464  14.457  67.325  1.00  0.00    -0.215 C  
HETATM    2  C   UNL     1      -8.726  17.756  65.842  1.00  0.00     0.145 A  
HETATM    3  O   UNL     1     -10.748  15.134  67.352  1.00  0.00    -0.274 OA 
HETATM    4  C   UNL     1     -10.681  16.415  66.870  1.00  0.00    -0.202 C  
HETATM    5  C   UNL     1      -7.367  17.678  65.468  1.00  0.00     0.474 A  
HETATM    6  C   UNL     1      -9.308  16.618  66.404  1.00  0.00    -0.309 A  
HETATM    7  O   UNL     1     -11.609  17.194  66.842  1.00  0.00     0.771 OA 
HETATM    8  C   UNL     1      -6.681  16.454  65.616  1.00  0.00     2.777 A  
HETATM    9  C   UNL     1      -7.301  15.330  66.172  1.00  0.00     2.389 A  
HETATM   10  C   UNL     1      -8.607  15.443  66.609  1.00  0.00    -0.318 A  
ENDROOT
BRANCH   1  11
HETATM   11  C   UNL     1      -9.051  13.993  68.784  1.00  0.00    -0.033 C  
HETATM   12  C   UNL     1      -6.674  13.086  69.051  1.00  0.00    -0.099 A  
HETATM   13  C   UNL     1      -9.561  15.965  70.229  1.00  0.00     0.619 C  
HETATM   14  C   UNL     1      -7.273  15.543  69.484  1.00  0.00    -0.201 C  
HETATM   15  C   UNL     1      -5.724  12.059  68.980  1.00  0.00    -0.057 A  
HETATM   16  C   UNL     1      -6.147  10.813  68.582  1.00  0.00    -0.039 A  
HETATM   17  N   UNL     1      -8.584  14.990  69.785  1.00  0.00    -0.003 NA 
HETATM   18  O   UNL     1      -5.331   9.731  68.446  1.00  0.00    -0.033 OA 
HETATM   19  C   UNL     1      -7.465  10.540  68.283  1.00  0.00    -0.090 A  
HETATM   20  C   UNL     1      -6.220  14.436  69.569  1.00  0.00    -0.121 C  
HETATM   21  O   UNL     1      -7.616   9.233  67.918  1.00  0.00    -0.084 OA 
HETATM   22  C   UNL     1      -8.446  11.522  68.356  1.00  0.00    -0.159 A  
HETATM   23  C   UNL     1      -8.040  12.830  68.728  1.00  0.00     0.090 A  
HETATM   24  C   UNL     1      -6.255   8.769  67.916  1.00  0.00    -0.052 C  
BRANCH  22  25
HETATM   25  O   UNL     1      -9.777  11.357  68.086  1.00  0.00    -0.179 OA 
HETATM   26  C   UNL     1     -10.166  11.271  66.718  1.00  0.00    -0.226 C  
ENDBRANCH  22  25
ENDBRANCH   1  11
BRANCH   5  27
HETATM   27  O   UNL     1      -6.770  18.820  65.004  1.00  0.00    -0.514 OA 
HETATM   28  C   UNL     1      -5.378  18.992  65.223  1.00  0.00    -0.173 C  
ENDBRANCH   5  27
BRANCH   2  29
HETATM   29  O   UNL     1      -9.512  18.875  65.791  1.00  0.00    -0.406 OA 
HETATM   30  C   UNL     1      -9.270  19.886  66.761  1.00  0.00    -0.378 C  
ENDBRANCH   2  29
TORSDOF 4
ENDMDL
MODEL      165
REMARK 921   NORMALIZED FREE ENERGY PREDICTED BY IDOCK:    2.76 KCAL/MOL
REMARK 922        TOTAL FREE ENERGY PREDICTED BY IDOCK:    2.59 KCAL/MOL
REMARK 923 INTER-LIGAND FREE ENERGY PREDICTED BY IDOCK:    2.58 KCAL/MOL
REMARK 924 INTRA-LIGAND FREE ENERGY PREDICTED BY IDOCK:    0.01 KCAL/MOL
REMARK 927      BINDING AFFINITY PREDICTED BY RF-SCORE:    0.00 PKD
ROOT
HETATM    1  C   UNL     1      -9.426   7.846  65.285  1.00  0.00     0.806 C  
HETATM    2  C   UNL     1     -11.675  10.387  66.739  1.00  0.00     1.559 A  
HETATM    3  O   UNL     1      -9.823   7.260  66.552  1.00  0.00    -0.193 OA 
HETATM    4  C   UNL     1     -10.646   8.079  67.280  1.00  0.00    -0.290 C  
HETATM    5  C   UNL     1     -11.770  11.385  65.745  1.00  0.00     0.435 A  
HETATM    6  C   UNL     1     -10.908   9.257  66.450  1.00  0.00     0.319 A  
HETATM    7  O   UNL     1     -11.064   7.832  68.391  1.00  0.00     0.106 OA 
HETATM    8  C   UNL     1     -11.148  11.173  64.496  1.00  0.00    -0.166 A  
HETATM    9  C   UNL     1     -10.397  10.021  64.237  1.00  0.00     0.664 A  
HETATM   10  C   UNL     1     -10.245   9.090  65.248  1.00  0.00     1.148 A  
ENDROOT
BRANCH   1  11
HETATM   11  C   UNL     1      -7.846   7.960  65.197  1.00  0.00    -0.114 C  
HETATM   12  C   UNL     1      -6.515   6.388  66.714  1.00  0.00    -0.046 A  
HETATM   13  C   UNL     1      -7.341   7.704  62.765  1.00  0.00    -0.095 C  
HETATM   14  C   UNL     1      -7.086   5.806  64.281  1.00  0.00    -0.053 C  
HETATM   15  C   UNL     1      -5.938   6.047  67.944  1.00  0.00    -0.017 A  
HETATM   16  C   UNL     1      -6.056   6.938  68.984  1.00  0.00    -0.026 A  
HETATM   17  N   UNL     1      -7.102   7.251  64.121  1.00  0.00    -0.063 NA 
HETATM   18  O   UNL     1      -5.567   6.728  70.237  1.00  0.00    -0.022 OA 
HETATM   19  C   UNL     1      -6.693   8.154  68.847  1.00  0.00    -0.049 A  
HETATM   20  C   UNL     1      -6.311   5.441  65.549  1.00  0.00    -0.035 C  
HETATM   21  O   UNL     1      -6.670   8.846  70.024  1.00  0.00    -0.040 OA 
HETATM   22  C   UNL     1      -7.265   8.544  67.642  1.00  0.00    -0.084 A  
HETATM   23  C   UNL     1      -7.194   7.633  66.555  1.00  0.00    -0.082 A  
HETATM   24  C   UNL     1      -6.062   7.893  70.914  1.00  0.00    -0.034 C  
BRANCH  22  25
HETATM   25  O   UNL     1      -7.913   9.724  67.398  1.00  0.00    -0.102 OA 
HETATM   26  C   UNL     1      -7.119  10.844  67.015  1.00  0.00    -0.109 C  
ENDBRANCH  22  25
ENDBRANCH   1  11
BRANCH   5  27
HETATM   27  O   UNL     1     -12.443  12.534  66.061  1.00  0.00    -0.565 OA 
HETATM   28  C   UNL     1     -12.066  13.739  65.410  1.00  0.00    -0.407 C  
ENDBRANCH   5  27
BRANCH   2  29
HETATM   29  O   UNL     1     -12.191  10.460  68.004  1.00  0.00     0.255 OA 
HETATM   30  C   UNL     1     -12.053  11.696  68.695  1.00  0.00    -0.119 C  
ENDBRANCH   2  29
TORSDOF 4
ENDMDL
MODEL      166
REMARK 921   NORMALIZED FREE ENERGY PREDICTED BY IDOCK:    2.93 KCAL/MOL
REMARK 922        TOTAL FREE ENERGY PREDICTED BY IDOCK:    2.81 KCAL/MOL
REMARK 923 INTER-LIGAND FREE ENERGY PREDICTED BY IDOCK:   -0.36 KCAL/MOL
REMARK 924 INTRA-LIGAND FREE ENERGY PREDICTED BY IDOCK:    3.18 KCAL/MOL
REMARK 927      BINDING AFFINITY PREDICTED BY RF-SCORE:    0.00 PKD
ROOT
HETATM    1  C   UNL     1      -9.665   2.807  65.719  1.00  0.00     0.284 C  
HETATM    2  C   UNL     1      -7.297   2.345  68.514  1.00  0.00    -0.047 A  
HETATM    3  O   UNL     1      -8.431   2.424  65.057  1.00  0.00    -0.091 OA 
HETATM    4  C   UNL     1      -7.395   2.239  65.934  1.00  0.00    -0.066 C  
HETATM    5  C   UNL     1      -8.076   2.550  69.674  1.00  0.00    -0.041 A  
HETATM    6  C   UNL     1      -7.944   2.416  67.280  1.00  0.00    -0.070 A  
HETATM    7  O   UNL     1      -6.256   1.969  65.615  1.00  0.00    -0.022 OA 
HETATM    8  C   UNL     1      -9.466   2.753  69.542  1.00  0.00    -0.147 A  
HETATM    9  C   UNL     1     -10.083   2.806  68.288  1.00  0.00     1.066 A  
HETATM   10  C   UNL     1      -9.296   2.684  67.158  1.00  0.00    -0.109 A  
ENDROOT
BRANCH   1  11
HETATM   11  C   UNL     1     -10.177   4.205  65.171  1.00  0.00    -0.204 C  
HETATM   12  C   UNL     1      -8.406   6.031  64.905  1.00  0.00    -0.104 A  
HETATM   13  C   UNL     1     -11.386   3.637  63.061  1.00  0.00     0.442 C  
HETATM   14  C   UNL     1      -9.096   4.483  62.978  1.00  0.00    -0.122 C  
HETATM   15  C   UNL     1      -7.609   7.068  65.408  1.00  0.00    -0.097 A  
HETATM   16  C   UNL     1      -7.750   7.409  66.732  1.00  0.00    -0.109 A  
HETATM   17  N   UNL     1     -10.351   4.419  63.709  1.00  0.00     0.087 NA 
HETATM   18  O   UNL     1      -7.027   8.377  67.358  1.00  0.00    -0.069 OA 
HETATM   19  C   UNL     1      -8.661   6.788  67.562  1.00  0.00    -0.120 A  
HETATM   20  C   UNL     1      -8.306   5.715  63.426  1.00  0.00    -0.051 C  
HETATM   21  O   UNL     1      -8.601   7.313  68.821  1.00  0.00    -0.128 OA 
HETATM   22  C   UNL     1      -9.485   5.768  67.103  1.00  0.00    -0.117 A  
HETATM   23  C   UNL     1      -9.341   5.363  65.750  1.00  0.00    -0.132 A  
HETATM   24  C   UNL     1      -7.495   8.227  68.707  1.00  0.00    -0.096 C  
BRANCH  22  25
HETATM   25  O   UNL     1     -10.421   5.092  67.838  1.00  0.00    -0.129 OA 
HETATM   26  C   UNL     1     -11.110   5.817  68.853  1.00  0.00    -0.066 C  
ENDBRANCH  22  25
ENDBRANCH   1  11
BRANCH   5  27
HETATM   27  O   UNL     1      -7.426   2.574  70.879  1.00  0.00    -0.033 OA 
HETATM   28  C   UNL     1      -7.177   3.832  71.488  1.00  0.00    -0.039 C  
ENDBRANCH   5  27
BRANCH   2  29
HETATM   29  O   UNL     1      -5.941   2.170  68.476  1.00  0.00    -0.023 OA 
HETATM   30  C   UNL     1      -5.150   3.022  69.297  1.00  0.00    -0.011 C  
ENDBRANCH   2  29
TORSDOF 4
ENDMDL
MODEL      167
REMARK 921   NORMALIZED FREE ENERGY PREDICTED BY IDOCK:    5.07 KCAL/MOL
REMARK 922        TOTAL FREE ENERGY PREDICTED BY IDOCK:    5.45 KCAL/MOL
REMARK 923 INTER-LIGAND FREE ENERGY PREDICTED BY IDOCK:    0.84 KCAL/MOL
REMARK 924 INTRA-LIGAND FREE ENERGY PREDICTED BY IDOCK:    4.61 KCAL/MOL
REMARK 927      BINDING AFFINITY PREDICTED BY RF-SCORE:    0.00 PKD
ROOT
HETATM    1  C   UNL     1      -9.931  16.646  67.584  1.00  0.00    -0.264 C  
HETATM    2  C   UNL     1      -6.930  16.941  69.714  1.00  0.00     0.231 A  
HETATM    3  O   UNL     1      -9.824  18.074  67.820  1.00  0.00    -0.285 OA 
HETATM    4  C   UNL     1      -8.773  18.398  68.638  1.00  0.00    -0.283 C  
HETATM    5  C   UNL     1      -6.434  15.622  69.809  1.00  0.00    -0.169 A  
HETATM    6  C   UNL     1      -8.059  17.151  68.921  1.00  0.00    -0.203 A  
HETATM    7  O   UNL     1      -8.513  19.518  69.022  1.00  0.00    -0.340 OA 
HETATM    8  C   UNL     1      -7.053  14.599  69.061  1.00  0.00    -0.128 A  
HETATM    9  C   UNL     1      -8.176  14.849  68.266  1.00  0.00    -0.145 A  
HETATM   10  C   UNL     1      -8.700  16.128  68.245  1.00  0.00    -0.180 A  
ENDROOT
BRANCH   1  11
HETATM   11  C   UNL     1     -11.346  16.110  68.059  1.00  0.00    -0.234 C  
HETATM   12  C   UNL     1     -11.702  13.581  67.914  1.00  0.00    -0.392 A  
HETATM   13  C   UNL     1     -11.624  17.052  70.355  1.00  0.00     1.225 C  
HETATM   14  C   UNL     1     -10.889  14.742  70.054  1.00  0.00    -0.116 C  
HETATM   15  C   UNL     1     -12.037  12.414  67.215  1.00  0.00    -0.069 A  
HETATM   16  C   UNL     1     -12.401  12.534  65.894  1.00  0.00    -0.080 A  
HETATM   17  N   UNL     1     -11.613  15.878  69.505  1.00  0.00    -0.338 NA 
HETATM   18  O   UNL     1     -12.727  11.486  65.089  1.00  0.00     0.597 OA 
HETATM   19  C   UNL     1     -12.474  13.754  65.255  1.00  0.00    -0.480 A  
HETATM   20  C   UNL     1     -11.382  13.454  69.390  1.00  0.00    -0.286 C  
HETATM   21  O   UNL     1     -12.859  13.594  63.955  1.00  0.00    -0.557 OA 
HETATM   22  C   UNL     1     -12.169  14.939  65.913  1.00  0.00     0.088 A  
HETATM   23  C   UNL     1     -11.753  14.852  67.267  1.00  0.00    -0.308 A  
HETATM   24  C   UNL     1     -12.904  12.161  63.835  1.00  0.00    -0.306 C  
BRANCH  22  25
HETATM   25  O   UNL     1     -12.213  16.197  65.376  1.00  0.00     1.057 OA 
HETATM   26  C   UNL     1     -11.807  17.282  66.205  1.00  0.00     2.612 C  
ENDBRANCH  22  25
ENDBRANCH   1  11
BRANCH   5  27
HETATM   27  O   UNL     1      -5.385  15.399  70.660  1.00  0.00    -0.134 OA 
HETATM   28  C   UNL     1      -5.665  14.920  71.967  1.00  0.00     0.313 C  
ENDBRANCH   5  27
BRANCH   2  29
HETATM   29  O   UNL     1      -6.462  18.028  70.400  1.00  0.00     0.278 OA 
HETATM   30  C   UNL     1      -5.132  17.960  70.900  1.00  0.00    -0.260 C  
ENDBRANCH   2  29
TORSDOF 4
ENDMDL
MODEL      168
REMARK 921   NORMALIZED FREE ENERGY PREDICTED BY IDOCK:    5.66 KCAL/MOL
REMARK 922        TOTAL FREE ENERGY PREDICTED BY IDOCK:    6.17 KCAL/MOL
REMARK 923 INTER-LIGAND FREE ENERGY PREDICTED BY IDOCK:    5.01 KCAL/MOL
REMARK 924 INTRA-LIGAND FREE ENERGY PREDICTED BY IDOCK:    1.16 KCAL/MOL
REMARK 927      BINDING AFFINITY PREDICTED BY RF-SCORE:    0.00 PKD
ROOT
HETATM    1  C   UNL     1      -8.411  12.916  69.051  1.00  0.00     0.463 C  
HETATM    2  C   UNL     1      -9.696   9.498  68.503  1.00  0.00    -0.151 A  
HETATM    3  O   UNL     1      -8.332  12.310  70.367  1.00  0.00     3.482 OA 
HETATM    4  C   UNL     1      -8.808  11.026  70.389  1.00  0.00     2.612 C  
HETATM    5  C   UNL     1      -9.932   9.429  67.112  1.00  0.00    -0.204 A  
HETATM    6  C   UNL     1      -9.158  10.683  69.009  1.00  0.00    -0.174 A  
HETATM    7  O   UNL     1      -8.895  10.335  71.382  1.00  0.00     1.646 OA 
HETATM    8  C   UNL     1      -9.560  10.518  66.296  1.00  0.00    -0.232 A  
HETATM    9  C   UNL     1      -9.011  11.686  66.837  1.00  0.00    -0.191 A  
HETATM   10  C   UNL     1      -8.861  11.772  68.209  1.00  0.00    -0.172 A  
ENDROOT
BRANCH   1  11
HETATM   11  C   UNL     1      -9.295  14.233  69.098  1.00  0.00     0.128 C  
HETATM   12  C   UNL     1      -8.612  16.108  67.498  1.00  0.00    -0.189 A  
HETATM   13  C   UNL     1     -11.635  13.420  68.781  1.00  0.00    -0.325 C  
HETATM   14  C   UNL     1     -10.394  14.361  66.900  1.00  0.00    -0.265 C  
HETATM   15  C   UNL     1      -7.836  17.223  67.154  1.00  0.00    -0.223 A  
HETATM   16  C   UNL     1      -6.913  17.675  68.067  1.00  0.00    -0.194 A  
HETATM   17  N   UNL     1     -10.574  14.305  68.341  1.00  0.00    -0.246 NA 
HETATM   18  O   UNL     1      -6.077  18.729  67.857  1.00  0.00    -0.188 OA 
HETATM   19  C   UNL     1      -6.750  17.090  69.305  1.00  0.00    -0.234 A  
HETATM   20  C   UNL     1      -9.684  15.664  66.524  1.00  0.00    -0.286 C  
HETATM   21  O   UNL     1      -5.774  17.729  70.015  1.00  0.00    -0.233 OA 
HETATM   22  C   UNL     1      -7.509  15.995  69.698  1.00  0.00    -0.005 A  
HETATM   23  C   UNL     1      -8.447  15.477  68.767  1.00  0.00    -0.190 A  
HETATM   24  C   UNL     1      -5.284  18.680  69.052  1.00  0.00    -0.189 C  
BRANCH  22  25
HETATM   25  O   UNL     1      -7.431  15.345  70.900  1.00  0.00     1.093 OA 
HETATM   26  C   UNL     1      -6.253  14.589  71.164  1.00  0.00     0.080 C  
ENDBRANCH  22  25
ENDBRANCH   1  11
BRANCH   5  27
HETATM   27  O   UNL     1     -10.545   8.305  66.628  1.00  0.00    -0.268 OA 
HETATM   28  C   UNL     1      -9.733   7.261  66.112  1.00  0.00     0.099 C  
ENDBRANCH   5  27
BRANCH   2  29
HETATM   29  O   UNL     1     -10.030   8.544  69.424  1.00  0.00    -0.185 OA 
HETATM   30  C   UNL     1     -10.998   8.895  70.406  1.00  0.00    -0.244 C  
ENDBRANCH   2  29
TORSDOF 4
ENDMDL
MODEL      169
REMARK 921   NORMALIZED FREE ENERGY PREDICTED BY IDOCK:    7.49 KCAL/MOL
REMARK 922        TOTAL FREE ENERGY PREDICTED BY IDOCK:    8.43 KCAL/MOL
REMARK 923 INTER-LIGAND FREE ENERGY PREDICTED BY IDOCK:    6.77 KCAL/MOL
REMARK 924 INTRA-LIGAND FREE ENERGY PREDICTED BY IDOCK:    1.66 KCAL/MOL
REMARK 927      BINDING AFFINITY PREDICTED BY RF-SCORE:    0.00 PKD
ROOT
HETATM    1  C   UNL     1      -6.040  16.020  68.833  1.00  0.00    -0.120 C  
HETATM    2  C   UNL     1      -6.457  12.455  69.702  1.00  0.00    -0.063 A  
HETATM    3  O   UNL     1      -5.455  15.924  70.158  1.00  0.00    -0.140 OA 
HETATM    4  C   UNL     1      -5.545  14.663  70.688  1.00  0.00    -0.150 C  
HETATM    5  C   UNL     1      -7.025  11.875  68.547  1.00  0.00    -0.085 A  
HETATM    6  C   UNL     1      -6.143  13.815  69.655  1.00  0.00    -0.118 A  
HETATM    7  O   UNL     1      -5.176  14.350  71.800  1.00  0.00    -0.149 OA 
HETATM    8  C   UNL     1      -7.191  12.665  67.391  1.00  0.00    -0.138 A  
HETATM    9  C   UNL     1      -6.852  14.023  67.375  1.00  0.00    -0.025 A  
HETATM   10  C   UNL     1      -6.372  14.597  68.537  1.00  0.00    -0.087 A  
ENDROOT
BRANCH   1  11
HETATM   11  C   UNL     1      -7.199  17.102  68.816  1.00  0.00    -0.232 C  
HETATM   12  C   UNL     1      -9.583  16.201  68.599  1.00  0.00    -0.226 A  
HETATM   13  C   UNL     1      -6.804  18.465  70.870  1.00  0.00     2.286 C  
HETATM   14  C   UNL     1      -8.496  16.704  70.869  1.00  0.00     5.087 C  
HETATM   15  C   UNL     1     -10.668  15.733  67.846  1.00  0.00    -0.302 A  
HETATM   16  C   UNL     1     -10.535  15.690  66.478  1.00  0.00    -0.302 A  
HETATM   17  N   UNL     1      -7.724  17.660  70.091  1.00  0.00     1.747 NA 
HETATM   18  O   UNL     1     -11.496  15.238  65.626  1.00  0.00    -0.260 OA 
HETATM   19  C   UNL     1      -9.392  16.113  65.832  1.00  0.00    -0.281 A  
HETATM   20  C   UNL     1      -9.764  16.324  70.098  1.00  0.00     0.656 C  
HETATM   21  O   UNL     1      -9.520  15.966  64.481  1.00  0.00     1.051 OA 
HETATM   22  C   UNL     1      -8.298  16.601  66.536  1.00  0.00    -0.287 A  
HETATM   23  C   UNL     1      -8.384  16.626  67.953  1.00  0.00    -0.187 A  
HETATM   24  C   UNL     1     -10.797  15.312  64.375  1.00  0.00     0.080 C  
BRANCH  22  25
HETATM   25  O   UNL     1      -7.123  17.049  65.996  1.00  0.00    -0.200 OA 
HETATM   26  C   UNL     1      -6.451  18.110  66.668  1.00  0.00    -0.190 C  
ENDBRANCH  22  25
ENDBRANCH   1  11
BRANCH   5  27
HETATM   27  O   UNL     1      -7.420  10.566  68.624  1.00  0.00    -0.085 OA 
HETATM   28  C   UNL     1      -8.789  10.288  68.880  1.00  0.00    -0.157 C  
ENDBRANCH   5  27
BRANCH   2  29
HETATM   29  O   UNL     1      -6.266  11.832  70.905  1.00  0.00    -0.245 OA 
HETATM   30  C   UNL     1      -5.206  10.886  70.987  1.00  0.00    -0.109 C  
ENDBRANCH   2  29
TORSDOF 4
ENDMDL
MODEL      170
REMARK 921   NORMALIZED FREE ENERGY PREDICTED BY IDOCK:    7.55 KCAL/MOL
REMARK 922        TOTAL FREE ENERGY PREDICTED BY IDOCK:    8.51 KCAL/MOL
REMARK 923 INTER-LIGAND FREE ENERGY PREDICTED BY IDOCK:    5.13 KCAL/MOL
REMARK 924 INTRA-LIGAND FREE ENERGY PREDICTED BY IDOCK:    3.38 KCAL/MOL
REMARK 927      BINDING AFFINITY PREDICTED BY RF-SCORE:    0.00 PKD
ROOT
HETATM    1  C   UNL     1      -8.830  13.189  66.481  1.00  0.00     0.020 C  
HETATM    2  C   UNL     1      -6.750  12.068  69.318  1.00  0.00    -0.093 A  
HETATM    3  O   UNL     1      -9.016  14.235  67.471  1.00  0.00    -0.179 OA 
HETATM    4  C   UNL     1      -8.344  13.985  68.638  1.00  0.00    -0.104 C  
HETATM    5  C   UNL     1      -6.123  10.892  68.852  1.00  0.00    -0.040 A  
HETATM    6  C   UNL     1      -7.583  12.751  68.430  1.00  0.00    -0.133 A  
HETATM    7  O   UNL     1      -8.388  14.685  69.627  1.00  0.00     0.067 OA 
HETATM    8  C   UNL     1      -6.311  10.497  67.511  1.00  0.00    -0.057 A  
HETATM    9  C   UNL     1      -7.144  11.214  66.645  1.00  0.00    -0.141 A  
HETATM   10  C   UNL     1      -7.815  12.318  67.137  1.00  0.00    -0.149 A  
ENDROOT
BRANCH   1  11
HETATM   11  C   UNL     1     -10.228  12.566  66.065  1.00  0.00    -0.251 C  
HETATM   12  C   UNL     1     -11.788  11.908  67.982  1.00  0.00    -0.323 A  
HETATM   13  C   UNL     1     -11.202  14.233  64.481  1.00  0.00    -0.322 C  
HETATM   14  C   UNL     1     -11.917  14.190  66.816  1.00  0.00    -0.447 C  
HETATM   15  C   UNL     1     -12.232  11.018  68.969  1.00  0.00    -0.167 A  
HETATM   16  C   UNL     1     -11.597   9.803  69.079  1.00  0.00     0.243 A  
HETATM   17  N   UNL     1     -11.363  13.452  65.692  1.00  0.00    -0.296 NA 
HETATM   18  O   UNL     1     -11.907   8.854  70.004  1.00  0.00     0.098 OA 
HETATM   19  C   UNL     1     -10.568   9.429  68.240  1.00  0.00    -0.210 A  
HETATM   20  C   UNL     1     -12.544  13.210  67.811  1.00  0.00     0.711 C  
HETATM   21  O   UNL     1     -10.116   8.181  68.560  1.00  0.00    -0.189 OA 
HETATM   22  C   UNL     1     -10.105  10.271  67.236  1.00  0.00    -0.203 A  
HETATM   23  C   UNL     1     -10.713  11.548  67.116  1.00  0.00    -0.294 A  
HETATM   24  C   UNL     1     -10.887   7.881  69.737  1.00  0.00    -0.202 C  
BRANCH  22  25
HETATM   25  O   UNL     1      -9.098   9.996  66.351  1.00  0.00    -0.145 OA 
HETATM   26  C   UNL     1      -9.430   9.239  65.191  1.00  0.00    -0.114 C  
ENDBRANCH  22  25
ENDBRANCH   1  11
BRANCH   5  27
HETATM   27  O   UNL     1      -5.381  10.170  69.749  1.00  0.00    -0.037 OA 
HETATM   28  C   UNL     1      -6.035   9.636  70.891  1.00  0.00    -0.081 C  
ENDBRANCH   5  27
BRANCH   2  29
HETATM   29  O   UNL     1      -6.693  12.559  70.593  1.00  0.00     0.464 OA 
HETATM   30  C   UNL     1      -7.364  11.821  71.608  1.00  0.00     7.710 C  
ENDBRANCH   2  29
TORSDOF 4
ENDMDL
MODEL      171
REMARK 921   NORMALIZED FREE ENERGY PREDICTED BY IDOCK:    8.93 KCAL/MOL
REMARK 922        TOTAL FREE ENERGY PREDICTED BY IDOCK:   10.21 KCAL/MOL
REMARK 923 INTER-LIGAND FREE ENERGY PREDICTED BY IDOCK:    9.27 KCAL/MOL
REMARK 924 INTRA-LIGAND FREE ENERGY PREDICTED BY IDOCK:    0.94 KCAL/MOL
REMARK 927      BINDING AFFINITY PREDICTED BY RF-SCORE:    0.00 PKD
ROOT
HETATM    1  C   UNL     1      -7.458  13.697  70.750  1.00  0.00     2.880 C  
HETATM    2  C   UNL     1      -8.310  12.190  67.489  1.00  0.00    -0.166 A  
HETATM    3  O   UNL     1      -8.172  14.758  70.064  1.00  0.00     0.197 OA 
HETATM    4  C   UNL     1      -8.550  14.407  68.794  1.00  0.00    -0.125 C  
HETATM    5  C   UNL     1      -7.848  10.859  67.584  1.00  0.00    -0.113 A  
HETATM    6  C   UNL     1      -8.160  13.008  68.610  1.00  0.00    -0.011 A  
HETATM    7  O   UNL     1      -9.109  15.143  68.009  1.00  0.00    -0.176 OA 
HETATM    8  C   UNL     1      -7.321  10.400  68.809  1.00  0.00    -0.089 A  
HETATM    9  C   UNL     1      -7.197  11.245  69.917  1.00  0.00     0.259 A  
HETATM   10  C   UNL     1      -7.578  12.567  69.785  1.00  0.00     1.192 A  
ENDROOT
BRANCH   1  11
HETATM   11  C   UNL     1      -6.015  14.190  71.185  1.00  0.00    -0.168 C  
HETATM   12  C   UNL     1      -5.823  16.644  71.881  1.00  0.00     1.522 A  
HETATM   13  C   UNL     1      -5.312  12.568  72.949  1.00  0.00     0.665 C  
HETATM   14  C   UNL     1      -6.209  14.753  73.572  1.00  0.00     1.123 C  
HETATM   15  C   UNL     1      -5.671  18.006  71.592  1.00  0.00     0.707 A  
HETATM   16  C   UNL     1      -5.524  18.376  70.276  1.00  0.00    -0.243 A  
HETATM   17  N   UNL     1      -5.526  13.951  72.570  1.00  0.00    -0.382 NA 
HETATM   18  O   UNL     1      -5.391  19.662  69.849  1.00  0.00    -0.206 OA 
HETATM   19  C   UNL     1      -5.492  17.456  69.249  1.00  0.00    -0.183 A  
HETATM   20  C   UNL     1      -5.902  16.234  73.338  1.00  0.00     3.004 C  
HETATM   21  O   UNL     1      -5.335  18.082  68.046  1.00  0.00    -0.149 OA 
HETATM   22  C   UNL     1      -5.620  16.093  69.489  1.00  0.00    -0.133 A  
HETATM   23  C   UNL     1      -5.812  15.677  70.832  1.00  0.00     0.178 A  
HETATM   24  C   UNL     1      -5.388  19.469  68.426  1.00  0.00    -0.192 C  
BRANCH  22  25
HETATM   25  O   UNL     1      -5.598  15.101  68.547  1.00  0.00    -0.088 OA 
HETATM   26  C   UNL     1      -5.539  15.492  67.179  1.00  0.00     0.432 C  
ENDBRANCH  22  25
ENDBRANCH   1  11
BRANCH   5  27
HETATM   27  O   UNL     1      -7.909  10.084  66.457  1.00  0.00    -0.109 OA 
HETATM   28  C   UNL     1      -7.475  10.646  65.227  1.00  0.00     0.006 C  
ENDBRANCH   5  27
BRANCH   2  29
HETATM   29  O   UNL     1      -8.813  12.789  66.366  1.00  0.00    -0.106 OA 
HETATM   30  C   UNL     1     -10.203  12.630  66.110  1.00  0.00    -0.258 C  
ENDBRANCH   2  29
TORSDOF 4
ENDMDL
MODEL      172
REMARK 921   NORMALIZED FREE ENERGY PREDICTED BY IDOCK:   10.41 KCAL/MOL
REMARK 922        TOTAL FREE ENERGY PREDICTED BY IDOCK:   12.04 KCAL/MOL
REMARK 923 INTER-LIGAND FREE ENERGY PREDICTED BY IDOCK:   11.58 KCAL/MOL
REMARK 924 INTRA-LIGAND FREE ENERGY PREDICTED BY IDOCK:    0.46 KCAL/MOL
REMARK 927      BINDING AFFINITY PREDICTED BY RF-SCORE:    0.00 PKD
ROOT
HETATM    1  C   UNL     1      -7.306  14.067  68.141  1.00  0.00    -0.128 C  
HETATM    2  C   UNL     1      -7.570  17.739  67.857  1.00  0.00    -0.212 A  
HETATM    3  O   UNL     1      -7.246  14.301  66.709  1.00  0.00     0.285 OA 
HETATM    4  C   UNL     1      -7.368  15.626  66.383  1.00  0.00     0.819 C  
HETATM    5  C   UNL     1      -7.594  18.195  69.193  1.00  0.00    -0.047 A  
HETATM    6  C   UNL     1      -7.431  16.366  67.645  1.00  0.00    -0.153 A  
HETATM    7  O   UNL     1      -7.401  16.061  65.252  1.00  0.00     3.069 OA 
HETATM    8  C   UNL     1      -7.416  17.266  70.241  1.00  0.00     2.166 A  
HETATM    9  C   UNL     1      -7.267  15.898  69.990  1.00  0.00     0.308 A  
HETATM   10  C   UNL     1      -7.326  15.456  68.682  1.00  0.00    -0.127 A  
ENDROOT
BRANCH   1  11
HETATM   11  C   UNL     1      -8.501  13.085  68.493  1.00  0.00    -0.048 C  
HETATM   12  C   UNL     1      -8.757  11.033  66.988  1.00  0.00    -0.141 A  
HETATM   13  C   UNL     1      -8.169  12.547  70.909  1.00  0.00     8.420 C  
HETATM   14  C   UNL     1      -7.434  10.979  69.186  1.00  0.00    -0.121 C  
HETATM   15  C   UNL     1      -9.215  10.396  65.827  1.00  0.00    -0.210 A  
HETATM   16  C   UNL     1      -9.942  11.138  64.926  1.00  0.00    -0.278 A  
HETATM   17  N   UNL     1      -8.338  12.056  69.555  1.00  0.00     0.926 NA 
HETATM   18  O   UNL     1     -10.429  10.657  63.750  1.00  0.00    -0.246 OA 
HETATM   19  C   UNL     1     -10.253  12.464  65.141  1.00  0.00    -0.281 A  
HETATM   20  C   UNL     1      -8.028  10.191  68.016  1.00  0.00    -0.101 C  
HETATM   21  O   UNL     1     -10.981  12.964  64.099  1.00  0.00    -0.363 OA 
HETATM   22  C   UNL     1      -9.836  13.133  66.286  1.00  0.00    -0.283 A  
HETATM   23  C   UNL     1      -9.051  12.409  67.221  1.00  0.00    -0.187 A  
HETATM   24  C   UNL     1     -10.985  11.853  63.184  1.00  0.00    -0.202 C  
BRANCH  22  25
HETATM   25  O   UNL     1     -10.092  14.441  66.597  1.00  0.00    -0.262 OA 
HETATM   26  C   UNL     1     -11.049  15.132  65.800  1.00  0.00    -0.330 C  
ENDBRANCH  22  25
ENDBRANCH   1  11
BRANCH   5  27
HETATM   27  O   UNL     1      -7.823  19.528  69.405  1.00  0.00    -0.243 OA 
HETATM   28  C   UNL     1      -6.900  20.254  70.203  1.00  0.00     0.097 C  
ENDBRANCH   5  27
BRANCH   2  29
HETATM   29  O   UNL     1      -7.761  18.507  66.742  1.00  0.00    -0.221 OA 
HETATM   30  C   UNL     1      -9.089  18.933  66.463  1.00  0.00    -0.327 C  
ENDBRANCH   2  29
TORSDOF 4
ENDMDL
MODEL      173
REMARK 921   NORMALIZED FREE ENERGY PREDICTED BY IDOCK:   14.70 KCAL/MOL
REMARK 922        TOTAL FREE ENERGY PREDICTED BY IDOCK:   17.33 KCAL/MOL
REMARK 923 INTER-LIGAND FREE ENERGY PREDICTED BY IDOCK:   16.37 KCAL/MOL
REMARK 924 INTRA-LIGAND FREE ENERGY PREDICTED BY IDOCK:    0.96 KCAL/MOL
REMARK 927      BINDING AFFINITY PREDICTED BY RF-SCORE:    0.00 PKD
ROOT
HETATM    1  C   UNL     1      -8.851  13.189  66.488  1.00  0.00     0.020 C  
HETATM    2  C   UNL     1      -7.096  12.049  69.530  1.00  0.00     0.165 A  
HETATM    3  O   UNL     1      -9.111  14.249  67.445  1.00  0.00    -0.180 OA 
HETATM    4  C   UNL     1      -8.567  13.995  68.677  1.00  0.00    -0.100 C  
HETATM    5  C   UNL     1      -6.453  10.854  69.139  1.00  0.00    -0.063 A  
HETATM    6  C   UNL     1      -7.818  12.742  68.557  1.00  0.00    -0.099 A  
HETATM    7  O   UNL     1      -8.695  14.706  69.651  1.00  0.00     0.117 OA 
HETATM    8  C   UNL     1      -6.513  10.450  67.789  1.00  0.00    -0.061 A  
HETATM    9  C   UNL     1      -7.237  11.178  66.837  1.00  0.00    -0.138 A  
HETATM   10  C   UNL     1      -7.928  12.301  67.251  1.00  0.00    -0.177 A  
ENDROOT
BRANCH   1  11
HETATM   11  C   UNL     1     -10.213  12.593  65.937  1.00  0.00    -0.274 C  
HETATM   12  C   UNL     1     -10.636  10.115  66.409  1.00  0.00    -0.155 A  
HETATM   13  C   UNL     1     -11.969  14.121  66.844  1.00  0.00    -0.449 C  
HETATM   14  C   UNL     1     -11.515  11.982  67.934  1.00  0.00    -0.330 C  
HETATM   15  C   UNL     1     -10.483   8.754  66.115  1.00  0.00     0.370 A  
HETATM   16  C   UNL     1      -9.753   8.410  65.002  1.00  0.00     1.274 A  
HETATM   17  N   UNL     1     -11.474  12.765  66.709  1.00  0.00    -0.324 NA 
HETATM   18  O   UNL     1      -9.505   7.130  64.611  1.00  0.00     1.422 OA 
HETATM   19  C   UNL     1      -9.197   9.352  64.162  1.00  0.00     0.018 A  
HETATM   20  C   UNL     1     -11.510  10.491  67.588  1.00  0.00    -0.078 C  
HETATM   21  O   UNL     1      -8.527   8.748  63.137  1.00  0.00    -0.187 OA 
HETATM   22  C   UNL     1      -9.337  10.713  64.403  1.00  0.00    -0.251 A  
HETATM   23  C   UNL     1     -10.054  11.106  65.563  1.00  0.00    -0.309 A  
HETATM   24  C   UNL     1      -8.632   7.358  63.495  1.00  0.00     0.496 C  
BRANCH  22  25
HETATM   25  O   UNL     1      -8.832  11.727  63.634  1.00  0.00     0.296 OA 
HETATM   26  C   UNL     1      -9.586  12.126  62.493  1.00  0.00     1.550 C  
ENDBRANCH  22  25
ENDBRANCH   1  11
BRANCH   5  27
HETATM   27  O   UNL     1      -5.823  10.125  70.112  1.00  0.00    -0.046 OA 
HETATM   28  C   UNL     1      -6.601   9.621  71.188  1.00  0.00     0.021 C  
ENDBRANCH   5  27
BRANCH   2  29
HETATM   29  O   UNL     1      -7.156  12.552  70.801  1.00  0.00     1.570 OA 
HETATM   30  C   UNL     1      -7.948  11.842  71.746  1.00  0.00    12.274 C  
ENDBRANCH   2  29
TORSDOF 4
ENDMDL
MODEL      174
REMARK 921   NORMALIZED FREE ENERGY PREDICTED BY IDOCK:   17.10 KCAL/MOL
REMARK 922        TOTAL FREE ENERGY PREDICTED BY IDOCK:   20.29 KCAL/MOL
REMARK 923 INTER-LIGAND FREE ENERGY PREDICTED BY IDOCK:   19.77 KCAL/MOL
REMARK 924 INTRA-LIGAND FREE ENERGY PREDICTED BY IDOCK:    0.52 KCAL/MOL
REMARK 927      BINDING AFFINITY PREDICTED BY RF-SCORE:    0.00 PKD
ROOT
HETATM    1  C   UNL     1     -11.961  11.935  69.626  1.00  0.00    -0.298 C  
HETATM    2  C   UNL     1     -11.531   8.394  70.577  1.00  0.00    -0.179 A  
HETATM    3  O   UNL     1     -12.858  11.233  68.727  1.00  0.00     0.166 OA 
HETATM    4  C   UNL     1     -12.818   9.873  68.894  1.00  0.00     3.212 C  
HETATM    5  C   UNL     1     -10.647   8.429  71.678  1.00  0.00    -0.258 A  
HETATM    6  C   UNL     1     -11.918   9.614  70.019  1.00  0.00     0.065 A  
HETATM    7  O   UNL     1     -13.436   9.074  68.224  1.00  0.00     9.792 OA 
HETATM    8  C   UNL     1     -10.247   9.677  72.199  1.00  0.00     1.501 A  
HETATM    9  C   UNL     1     -10.665  10.881  71.622  1.00  0.00     3.903 A  
HETATM   10  C   UNL     1     -11.465  10.831  70.496  1.00  0.00    -0.367 A  
ENDROOT
BRANCH   1  11
HETATM   11  C   UNL     1     -10.915  12.799  68.804  1.00  0.00    -0.250 C  
HETATM   12  C   UNL     1     -11.896  14.522  67.188  1.00  0.00    -0.412 A  
HETATM   13  C   UNL     1      -9.410  13.769  70.545  1.00  0.00     4.094 C  
HETATM   14  C   UNL     1     -11.215  15.111  69.592  1.00  0.00    -0.272 C  
HETATM   15  C   UNL     1     -12.442  14.893  65.952  1.00  0.00     0.237 A  
HETATM   16  C   UNL     1     -12.570  13.924  64.985  1.00  0.00    -0.390 A  
HETATM   17  N   UNL     1     -10.291  14.003  69.417  1.00  0.00     0.038 NA 
HETATM   18  O   UNL     1     -13.104  14.136  63.751  1.00  0.00    -0.033 OA 
HETATM   19  C   UNL     1     -12.158  12.622  65.183  1.00  0.00    -0.455 A  
HETATM   20  C   UNL     1     -11.680  15.610  68.221  1.00  0.00    -0.253 C  
HETATM   21  O   UNL     1     -12.397  11.867  64.071  1.00  0.00    -0.377 OA 
HETATM   22  C   UNL     1     -11.595  12.213  66.386  1.00  0.00    -0.364 A  
HETATM   23  C   UNL     1     -11.480  13.177  67.421  1.00  0.00    -0.375 A  
HETATM   24  C   UNL     1     -13.092  12.800  63.225  1.00  0.00     0.728 C  
BRANCH  22  25
HETATM   25  O   UNL     1     -11.151  10.953  66.683  1.00  0.00    -0.213 OA 
HETATM   26  C   UNL     1      -9.769  10.676  66.474  1.00  0.00    -0.194 C  
ENDBRANCH  22  25
ENDBRANCH   1  11
BRANCH   5  27
HETATM   27  O   UNL     1     -10.194   7.233  72.166  1.00  0.00    -0.187 OA 
HETATM   28  C   UNL     1      -8.822   7.122  72.516  1.00  0.00    -0.123 C  
ENDBRANCH   5  27
BRANCH   2  29
HETATM   29  O   UNL     1     -11.980   7.269  69.942  1.00  0.00     0.073 OA 
HETATM   30  C   UNL     1     -12.880   6.431  70.657  1.00  0.00     0.963 C  
ENDBRANCH   2  29
TORSDOF 4
ENDMDL
MODEL      175
REMARK 921   NORMALIZED FREE ENERGY PREDICTED BY IDOCK:   26.38 KCAL/MOL
REMARK 922        TOTAL FREE ENERGY PREDICTED BY IDOCK:   31.75 KCAL/MOL
REMARK 923 INTER-LIGAND FREE ENERGY PREDICTED BY IDOCK:   25.84 KCAL/MOL
REMARK 924 INTRA-LIGAND FREE ENERGY PREDICTED BY IDOCK:    5.91 KCAL/MOL
REMARK 927      BINDING AFFINITY PREDICTED BY RF-SCORE:    0.00 PKD
ROOT
HETATM    1  C   UNL     1      -7.895   8.599  68.855  1.00  0.00    -0.104 C  
HETATM    2  C   UNL     1     -10.883  10.767  68.875  1.00  0.00    -0.227 A  
HETATM    3  O   UNL     1      -7.406   9.853  68.310  1.00  0.00    -0.078 OA 
HETATM    4  C   UNL     1      -8.390  10.800  68.195  1.00  0.00    -0.120 C  
HETATM    5  C   UNL     1     -11.886   9.980  69.482  1.00  0.00     0.085 A  
HETATM    6  C   UNL     1      -9.606  10.215  68.765  1.00  0.00    -0.170 A  
HETATM    7  O   UNL     1      -8.238  11.904  67.718  1.00  0.00    -0.132 OA 
HETATM    8  C   UNL     1     -11.545   8.714  70.002  1.00  0.00     0.166 A  
HETATM    9  C   UNL     1     -10.250   8.197  69.885  1.00  0.00    -0.204 A  
HETATM   10  C   UNL     1      -9.299   8.944  69.216  1.00  0.00    -0.149 A  
ENDROOT
BRANCH   1  11
HETATM   11  C   UNL     1      -7.629   7.412  67.838  1.00  0.00    -0.114 C  
HETATM   12  C   UNL     1      -9.060   7.398  65.718  1.00  0.00    -0.006 A  
HETATM   13  C   UNL     1      -5.170   7.501  67.411  1.00  0.00    -0.026 C  
HETATM   14  C   UNL     1      -6.733   8.477  65.809  1.00  0.00    -0.063 C  
HETATM   15  C   UNL     1     -10.233   7.091  65.017  1.00  0.00     3.620 A  
HETATM   16  C   UNL     1     -11.238   6.439  65.691  1.00  0.00     3.079 A  
HETATM   17  N   UNL     1      -6.511   7.498  66.860  1.00  0.00    -0.055 NA 
HETATM   18  O   UNL     1     -12.438   6.100  65.143  1.00  0.00     5.203 OA 
HETATM   19  C   UNL     1     -11.117   6.056  67.010  1.00  0.00    -0.170 A  
HETATM   20  C   UNL     1      -7.924   8.043  64.950  1.00  0.00    -0.138 C  
HETATM   21  O   UNL     1     -12.251   5.427  67.436  1.00  0.00     4.502 OA 
HETATM   22  C   UNL     1      -9.965   6.323  67.741  1.00  0.00    -0.127 A  
HETATM   23  C   UNL     1      -8.920   7.028  67.089  1.00  0.00    -0.123 A  
HETATM   24  C   UNL     1     -13.111   5.564  66.291  1.00  0.00    10.661 C  
BRANCH  22  25
HETATM   25  O   UNL     1      -9.741   5.985  69.048  1.00  0.00    -0.128 OA 
HETATM   26  C   UNL     1     -10.745   5.225  69.714  1.00  0.00    -0.109 C  
ENDBRANCH  22  25
ENDBRANCH   1  11
BRANCH   5  27
HETATM   27  O   UNL     1     -13.159  10.483  69.507  1.00  0.00     0.043 OA 
HETATM   28  C   UNL     1     -13.398  11.683  70.227  1.00  0.00     1.144 C  
ENDBRANCH   5  27
BRANCH   2  29
HETATM   29  O   UNL     1     -11.063  11.994  68.297  1.00  0.00    -0.211 OA 
HETATM   30  C   UNL     1      -9.984  12.918  68.379  1.00  0.00    -0.211 C  
ENDBRANCH   2  29
TORSDOF 4
ENDMDL
MODEL      176
REMARK 921   NORMALIZED FREE ENERGY PREDICTED BY IDOCK:   35.77 KCAL/MOL
REMARK 922        TOTAL FREE ENERGY PREDICTED BY IDOCK:   43.32 KCAL/MOL
REMARK 923 INTER-LIGAND FREE ENERGY PREDICTED BY IDOCK:   43.05 KCAL/MOL
REMARK 924 INTRA-LIGAND FREE ENERGY PREDICTED BY IDOCK:    0.28 KCAL/MOL
REMARK 927      BINDING AFFINITY PREDICTED BY RF-SCORE:    0.00 PKD
ROOT
HETATM    1  C   UNL     1      -7.574  14.446  71.594  1.00  0.00     3.933 C  
HETATM    2  C   UNL     1      -7.929  11.412  69.519  1.00  0.00     0.430 A  
HETATM    3  O   UNL     1      -8.271  14.923  70.414  1.00  0.00     0.582 OA 
HETATM    4  C   UNL     1      -8.471  13.939  69.482  1.00  0.00     0.839 C  
HETATM    5  C   UNL     1      -7.394  10.376  70.315  1.00  0.00     0.087 A  
HETATM    6  C   UNL     1      -7.969  12.695  70.069  1.00  0.00     2.596 A  
HETATM    7  O   UNL     1      -8.982  14.107  68.395  1.00  0.00    -0.183 OA 
HETATM    8  C   UNL     1      -6.985  10.663  71.635  1.00  0.00     2.769 A  
HETATM    9  C   UNL     1      -7.051  11.959  72.157  1.00  0.00     8.401 A  
HETATM   10  C   UNL     1      -7.502  12.979  71.340  1.00  0.00     6.756 A  
ENDROOT
BRANCH   1  11
HETATM   11  C   UNL     1      -6.229  15.258  71.811  1.00  0.00     1.090 C  
HETATM   12  C   UNL     1      -6.272  17.719  71.116  1.00  0.00     1.597 A  
HETATM   13  C   UNL     1      -5.659  14.883  74.213  1.00  0.00     1.397 C  
HETATM   14  C   UNL     1      -6.756  16.952  73.516  1.00  0.00     8.166 C  
HETATM   15  C   UNL     1      -6.166  18.740  70.162  1.00  0.00    -0.071 A  
HETATM   16  C   UNL     1      -5.876  18.387  68.866  1.00  0.00    -0.211 A  
HETATM   17  N   UNL     1      -5.906  15.832  73.145  1.00  0.00     1.467 NA 
HETATM   18  O   UNL     1      -5.767  19.269  67.835  1.00  0.00    -0.192 OA 
HETATM   19  C   UNL     1      -5.660  17.078  68.486  1.00  0.00    -0.135 A  
HETATM   20  C   UNL     1      -6.510  18.120  72.558  1.00  0.00     4.029 C  
HETATM   21  O   UNL     1      -5.390  17.002  67.150  1.00  0.00    -0.127 OA 
HETATM   22  C   UNL     1      -5.737  16.034  69.400  1.00  0.00    -0.125 A  
HETATM   23  C   UNL     1      -6.071  16.357  70.742  1.00  0.00     0.574 A  
HETATM   24  C   UNL     1      -5.573  18.367  66.735  1.00  0.00    -0.139 C  
BRANCH  22  25
HETATM   25  O   UNL     1      -5.537  14.707  69.131  1.00  0.00    -0.091 OA 
HETATM   26  C   UNL     1      -5.321  14.337  67.773  1.00  0.00     0.001 C  
ENDBRANCH  22  25
ENDBRANCH   1  11
BRANCH   5  27
HETATM   27  O   UNL     1      -7.268   9.138  69.744  1.00  0.00    -0.056 OA 
HETATM   28  C   UNL     1      -6.609   8.118  70.480  1.00  0.00    -0.036 C  
ENDBRANCH   5  27
BRANCH   2  29
HETATM   29  O   UNL     1      -8.335  11.300  68.218  1.00  0.00    -0.135 OA 
HETATM   30  C   UNL     1      -9.675  10.883  67.987  1.00  0.00    -0.165 C  
ENDBRANCH   2  29
TORSDOF 4
ENDMDL
MODEL      177
REMARK 921   NORMALIZED FREE ENERGY PREDICTED BY IDOCK:   41.29 KCAL/MOL
REMARK 922        TOTAL FREE ENERGY PREDICTED BY IDOCK:   50.14 KCAL/MOL
REMARK 923 INTER-LIGAND FREE ENERGY PREDICTED BY IDOCK:   50.29 KCAL/MOL
REMARK 924 INTRA-LIGAND FREE ENERGY PREDICTED BY IDOCK:   -0.15 KCAL/MOL
REMARK 927      BINDING AFFINITY PREDICTED BY RF-SCORE:    0.00 PKD
ROOT
HETATM    1  C   UNL     1      -9.806   8.828  68.567  1.00  0.00    -0.168 C  
HETATM    2  C   UNL     1     -11.844   6.817  66.237  1.00  0.00     3.465 A  
HETATM    3  O   UNL     1     -11.032   9.595  68.442  1.00  0.00    -0.198 OA 
HETATM    4  C   UNL     1     -11.926   9.027  67.573  1.00  0.00     4.200 C  
HETATM    5  C   UNL     1     -11.066   5.664  65.993  1.00  0.00     0.504 A  
HETATM    6  C   UNL     1     -11.338   7.761  67.132  1.00  0.00     0.889 A  
HETATM    7  O   UNL     1     -12.995   9.509  67.264  1.00  0.00     8.926 OA 
HETATM    8  C   UNL     1      -9.859   5.486  66.701  1.00  0.00    -0.190 A  
HETATM    9  C   UNL     1      -9.388   6.448  67.601  1.00  0.00    -0.117 A  
HETATM   10  C   UNL     1     -10.119   7.609  67.769  1.00  0.00    -0.237 A  
ENDROOT
BRANCH   1  11
HETATM   11  C   UNL     1      -8.554   9.714  68.162  1.00  0.00    -0.119 C  
HETATM   12  C   UNL     1      -9.070  12.048  67.250  1.00  0.00    -0.178 A  
HETATM   13  C   UNL     1      -7.108   9.709  70.198  1.00  0.00    -0.116 C  
HETATM   14  C   UNL     1      -8.564  11.612  69.728  1.00  0.00     1.637 C  
HETATM   15  C   UNL     1      -9.415  12.925  66.214  1.00  0.00    -0.205 A  
HETATM   16  C   UNL     1      -9.593  12.402  64.955  1.00  0.00     0.082 A  
HETATM   17  N   UNL     1      -7.814  10.485  69.198  1.00  0.00    -0.128 NA 
HETATM   18  O   UNL     1      -9.951  13.131  63.863  1.00  0.00    -0.270 OA 
HETATM   19  C   UNL     1      -9.416  11.062  64.680  1.00  0.00    -0.234 A  
HETATM   20  C   UNL     1      -8.794  12.640  68.617  1.00  0.00     0.050 C  
HETATM   21  O   UNL     1      -9.653  10.807  63.359  1.00  0.00    -0.274 OA 
HETATM   22  C   UNL     1      -9.057  10.157  65.671  1.00  0.00    -0.179 A  
HETATM   23  C   UNL     1      -8.900  10.655  66.991  1.00  0.00    -0.141 A  
HETATM   24  C   UNL     1     -10.096  12.090  62.886  1.00  0.00     0.192 C  
BRANCH  22  25
HETATM   25  O   UNL     1      -8.853   8.814  65.505  1.00  0.00    -0.178 OA 
HETATM   26  C   UNL     1      -8.174   8.392  64.326  1.00  0.00    -0.127 C  
ENDBRANCH  22  25
ENDBRANCH   1  11
BRANCH   5  27
HETATM   27  O   UNL     1     -11.517   4.783  65.046  1.00  0.00     0.024 OA 
HETATM   28  C   UNL     1     -10.881   3.517  64.945  1.00  0.00     0.473 C  
ENDBRANCH   5  27
BRANCH   2  29
HETATM   29  O   UNL     1     -13.014   7.146  65.608  1.00  0.00     9.510 OA 
HETATM   30  C   UNL     1     -12.916   7.789  64.343  1.00  0.00    23.392 C  
ENDBRANCH   2  29
TORSDOF 4
ENDMDL
MODEL      178
REMARK 921   NORMALIZED FREE ENERGY PREDICTED BY IDOCK:   50.18 KCAL/MOL
REMARK 922        TOTAL FREE ENERGY PREDICTED BY IDOCK:   61.11 KCAL/MOL
REMARK 923 INTER-LIGAND FREE ENERGY PREDICTED BY IDOCK:   54.37 KCAL/MOL
REMARK 924 INTRA-LIGAND FREE ENERGY PREDICTED BY IDOCK:    6.74 KCAL/MOL
REMARK 927      BINDING AFFINITY PREDICTED BY RF-SCORE:    0.00 PKD
ROOT
HETATM    1  C   UNL     1     -11.787  17.967  71.501  1.00  0.00     5.691 C  
HETATM    2  C   UNL     1      -9.203  19.676  69.492  1.00  0.00     0.245 A  
HETATM    3  O   UNL     1     -10.666  18.078  72.416  1.00  0.00     2.221 OA 
HETATM    4  C   UNL     1      -9.568  18.662  71.841  1.00  0.00     6.903 C  
HETATM    5  C   UNL     1      -9.841  19.957  68.264  1.00  0.00    -0.399 A  
HETATM    6  C   UNL     1      -9.962  19.057  70.487  1.00  0.00     1.617 A  
HETATM    7  O   UNL     1      -8.497  18.813  72.388  1.00  0.00     8.520 OA 
HETATM    8  C   UNL     1     -11.213  19.663  68.117  1.00  0.00     0.650 A  
HETATM    9  C   UNL     1     -11.945  19.054  69.142  1.00  0.00     6.397 A  
HETATM   10  C   UNL     1     -11.289  18.710  70.309  1.00  0.00     4.543 A  
ENDROOT
BRANCH   1  11
HETATM   11  C   UNL     1     -12.223  16.451  71.339  1.00  0.00     0.164 C  
HETATM   12  C   UNL     1     -10.381  14.814  70.651  1.00  0.00     0.520 A  
HETATM   13  C   UNL     1     -13.333  15.890  73.504  1.00  0.00    -0.413 C  
HETATM   14  C   UNL     1     -11.016  15.232  73.103  1.00  0.00     1.324 C  
HETATM   15  C   UNL     1      -9.579  14.182  69.692  1.00  0.00     0.704 A  
HETATM   16  C   UNL     1      -9.782  14.499  68.370  1.00  0.00    -0.224 A  
HETATM   17  N   UNL     1     -12.310  15.564  72.530  1.00  0.00    -0.371 NA 
HETATM   18  O   UNL     1      -9.062  13.980  67.337  1.00  0.00    -0.191 OA 
HETATM   19  C   UNL     1     -10.755  15.386  67.962  1.00  0.00    -0.279 A  
HETATM   20  C   UNL     1     -10.211  14.401  72.100  1.00  0.00     4.412 C  
HETATM   21  O   UNL     1     -10.747  15.521  66.604  1.00  0.00    -0.306 OA 
HETATM   22  C   UNL     1     -11.586  16.023  68.876  1.00  0.00    -0.354 A  
HETATM   23  C   UNL     1     -11.383  15.750  70.253  1.00  0.00    -0.371 A  
HETATM   24  C   UNL     1      -9.608  14.723  66.236  1.00  0.00    -0.312 C  
BRANCH  22  25
HETATM   25  O   UNL     1     -12.582  16.914  68.579  1.00  0.00     1.440 OA 
HETATM   26  C   UNL     1     -13.584  17.135  69.567  1.00  0.00     9.490 C  
ENDBRANCH  22  25
ENDBRANCH   1  11
BRANCH   5  27
HETATM   27  O   UNL     1      -9.074  20.478  67.256  1.00  0.00    -0.378 OA 
HETATM   28  C   UNL     1      -8.166  19.618  66.584  1.00  0.00    -0.317 C  
ENDBRANCH   5  27
BRANCH   2  29
HETATM   29  O   UNL     1      -7.879  19.871  69.775  1.00  0.00     0.090 OA 
HETATM   30  C   UNL     1      -7.409  21.213  69.803  1.00  0.00     3.350 C  
ENDBRANCH   2  29
TORSDOF 4
ENDMDL
