MODEL        1
REMARK 921   NORMALIZED FREE ENERGY PREDICTED BY IDOCK:   -3.90 KCAL/MOL
REMARK 922        TOTAL FREE ENERGY PREDICTED BY IDOCK:   -4.60 KCAL/MOL
REMARK 923 INTER-LIGAND FREE ENERGY PREDICTED BY IDOCK:   -4.58 KCAL/MOL
REMARK 924 INTRA-LIGAND FREE ENERGY PREDICTED BY IDOCK:   -0.02 KCAL/MOL
REMARK 927      BINDING AFFINITY PREDICTED BY RF-SCORE:    0.00 PKD
ROOT
HETATM    1  C   UNL     1     -10.066  11.461  62.992  1.00  0.00    -0.293 C  
HETATM    2  N   UNL     1     -11.392  12.047  63.041  1.00  0.00    -0.654 N  
HETATM    3  H   UNL     1     -12.048  11.785  62.306  1.00  0.00     0.000 HD 
ENDROOT
BRANCH   2   4
HETATM    4  C   UNL     1     -11.835  12.923  63.993  1.00  0.00    -0.443 C  
HETATM    5  S   UNL     1     -11.947  12.613  65.629  1.00  0.00    -0.439 S  
BRANCH   4   6
HETATM    6  N   UNL     1     -12.193  14.161  63.553  1.00  0.00    -1.090 N  
HETATM    7  H   UNL     1     -12.425  14.247  62.563  1.00  0.00     0.000 HD 
BRANCH   6   8
HETATM    8  C   UNL     1     -12.276  15.355  64.339  1.00  0.00    -0.151 C  
HETATM    9  O   UNL     1     -11.591  16.345  63.615  1.00  0.00    -1.514 OA 
HETATM   10  H   UNL     1     -11.647  17.137  64.136  1.00  0.00     0.000 HD 
ENDBRANCH   6   8
ENDBRANCH   4   6
ENDBRANCH   2   4
TORSDOF 3
ENDMDL
MODEL        2
REMARK 921   NORMALIZED FREE ENERGY PREDICTED BY IDOCK:   -3.81 KCAL/MOL
REMARK 922        TOTAL FREE ENERGY PREDICTED BY IDOCK:   -4.51 KCAL/MOL
REMARK 923 INTER-LIGAND FREE ENERGY PREDICTED BY IDOCK:   -4.46 KCAL/MOL
REMARK 924 INTRA-LIGAND FREE ENERGY PREDICTED BY IDOCK:   -0.05 KCAL/MOL
REMARK 927      BINDING AFFINITY PREDICTED BY RF-SCORE:    0.00 PKD
ROOT
HETATM    1  C   UNL     1     -12.504  11.965  63.460  1.00  0.00    -0.492 C  
HETATM    2  N   UNL     1     -12.899  12.703  64.645  1.00  0.00    -0.739 N  
HETATM    3  H   UNL     1     -13.830  12.524  65.019  1.00  0.00     0.000 HD 
ENDROOT
BRANCH   2   4
HETATM    4  C   UNL     1     -12.124  13.618  65.300  1.00  0.00    -0.406 C  
HETATM    5  S   UNL     1     -12.070  13.847  66.953  1.00  0.00    -0.393 S  
BRANCH   4   6
HETATM    6  N   UNL     1     -11.315  14.391  64.524  1.00  0.00    -0.547 N  
HETATM    7  H   UNL     1     -10.857  13.928  63.737  1.00  0.00     0.000 HD 
BRANCH   6   8
HETATM    8  C   UNL     1     -11.041  15.785  64.699  1.00  0.00    -0.361 C  
HETATM    9  O   UNL     1     -11.774  16.451  63.702  1.00  0.00    -1.520 OA 
HETATM   10  H   UNL     1     -11.592  17.377  63.818  1.00  0.00     0.000 HD 
ENDBRANCH   6   8
ENDBRANCH   4   6
ENDBRANCH   2   4
TORSDOF 3
ENDMDL
MODEL        3
REMARK 921   NORMALIZED FREE ENERGY PREDICTED BY IDOCK:   -3.63 KCAL/MOL
REMARK 922        TOTAL FREE ENERGY PREDICTED BY IDOCK:   -4.29 KCAL/MOL
REMARK 923 INTER-LIGAND FREE ENERGY PREDICTED BY IDOCK:   -4.00 KCAL/MOL
REMARK 924 INTRA-LIGAND FREE ENERGY PREDICTED BY IDOCK:   -0.29 KCAL/MOL
REMARK 927      BINDING AFFINITY PREDICTED BY RF-SCORE:    0.00 PKD
ROOT
HETATM    1  C   UNL     1     -12.101  12.731  63.384  1.00  0.00    -0.534 C  
HETATM    2  N   UNL     1     -10.929  13.376  63.943  1.00  0.00    -0.546 N  
HETATM    3  H   UNL     1     -10.076  13.363  63.384  1.00  0.00     0.000 HD 
ENDROOT
BRANCH   2   4
HETATM    4  C   UNL     1     -10.873  13.999  65.158  1.00  0.00    -0.369 C  
HETATM    5  S   UNL     1     -11.481  13.400  66.592  1.00  0.00    -0.361 S  
BRANCH   4   6
HETATM    6  N   UNL     1     -10.243  15.206  65.188  1.00  0.00    -0.371 N  
HETATM    7  H   UNL     1      -9.242  15.196  65.386  1.00  0.00     0.000 HD 
BRANCH   6   8
HETATM    8  C   UNL     1     -10.843  16.488  64.971  1.00  0.00    -0.229 C  
HETATM    9  O   UNL     1     -11.520  16.395  63.743  1.00  0.00    -1.590 OA 
HETATM   10  H   UNL     1     -11.918  17.246  63.599  1.00  0.00     0.000 HD 
ENDBRANCH   6   8
ENDBRANCH   4   6
ENDBRANCH   2   4
TORSDOF 3
ENDMDL
MODEL        4
REMARK 921   NORMALIZED FREE ENERGY PREDICTED BY IDOCK:   -3.49 KCAL/MOL
REMARK 922        TOTAL FREE ENERGY PREDICTED BY IDOCK:   -4.13 KCAL/MOL
REMARK 923 INTER-LIGAND FREE ENERGY PREDICTED BY IDOCK:   -4.08 KCAL/MOL
REMARK 924 INTRA-LIGAND FREE ENERGY PREDICTED BY IDOCK:   -0.05 KCAL/MOL
REMARK 927      BINDING AFFINITY PREDICTED BY RF-SCORE:    0.00 PKD
ROOT
HETATM    1  C   UNL     1     -12.657  12.069  63.490  1.00  0.00    -0.507 C  
HETATM    2  N   UNL     1     -12.269  12.573  64.793  1.00  0.00    -0.456 N  
HETATM    3  H   UNL     1     -12.943  12.478  65.552  1.00  0.00     0.000 HD 
ENDROOT
BRANCH   2   4
HETATM    4  C   UNL     1     -11.074  13.167  65.088  1.00  0.00    -0.287 C  
HETATM    5  S   UNL     1      -9.947  12.604  66.182  1.00  0.00    -0.262 S  
BRANCH   4   6
HETATM    6  N   UNL     1     -10.783  14.308  64.403  1.00  0.00    -0.600 N  
HETATM    7  H   UNL     1     -10.355  14.194  63.483  1.00  0.00     0.000 HD 
BRANCH   6   8
HETATM    8  C   UNL     1     -11.015  15.650  64.842  1.00  0.00    -0.431 C  
HETATM    9  O   UNL     1     -11.639  16.307  63.768  1.00  0.00    -1.539 OA 
HETATM   10  H   UNL     1     -11.794  17.198  64.060  1.00  0.00     0.000 HD 
ENDBRANCH   6   8
ENDBRANCH   4   6
ENDBRANCH   2   4
TORSDOF 3
ENDMDL
MODEL        5
REMARK 921   NORMALIZED FREE ENERGY PREDICTED BY IDOCK:   -3.49 KCAL/MOL
REMARK 922        TOTAL FREE ENERGY PREDICTED BY IDOCK:   -4.12 KCAL/MOL
REMARK 923 INTER-LIGAND FREE ENERGY PREDICTED BY IDOCK:   -4.04 KCAL/MOL
REMARK 924 INTRA-LIGAND FREE ENERGY PREDICTED BY IDOCK:   -0.08 KCAL/MOL
REMARK 927      BINDING AFFINITY PREDICTED BY RF-SCORE:    0.00 PKD
ROOT
HETATM    1  C   UNL     1     -11.484  14.349  68.077  1.00  0.00    -0.310 C  
HETATM    2  N   UNL     1     -12.268  14.342  66.856  1.00  0.00    -0.559 N  
HETATM    3  H   UNL     1     -13.233  14.664  66.917  1.00  0.00     0.000 HD 
ENDROOT
BRANCH   2   4
HETATM    4  C   UNL     1     -11.818  13.937  65.630  1.00  0.00    -0.371 C  
HETATM    5  S   UNL     1     -12.391  12.633  64.761  1.00  0.00    -0.471 S  
BRANCH   4   6
HETATM    6  N   UNL     1     -10.828  14.689  65.073  1.00  0.00    -0.390 N  
HETATM    7  H   UNL     1     -10.001  14.188  64.747  1.00  0.00     0.000 HD 
BRANCH   6   8
HETATM    8  C   UNL     1     -10.831  16.110  64.898  1.00  0.00    -0.334 C  
HETATM    9  O   UNL     1     -11.547  16.353  63.714  1.00  0.00    -1.605 OA 
HETATM   10  H   UNL     1     -11.549  17.296  63.598  1.00  0.00     0.000 HD 
ENDBRANCH   6   8
ENDBRANCH   4   6
ENDBRANCH   2   4
TORSDOF 3
ENDMDL
MODEL        6
REMARK 921   NORMALIZED FREE ENERGY PREDICTED BY IDOCK:   -3.48 KCAL/MOL
REMARK 922        TOTAL FREE ENERGY PREDICTED BY IDOCK:   -4.11 KCAL/MOL
REMARK 923 INTER-LIGAND FREE ENERGY PREDICTED BY IDOCK:   -4.09 KCAL/MOL
REMARK 924 INTRA-LIGAND FREE ENERGY PREDICTED BY IDOCK:   -0.02 KCAL/MOL
REMARK 927      BINDING AFFINITY PREDICTED BY RF-SCORE:    0.00 PKD
ROOT
HETATM    1  C   UNL     1      -9.388  11.056  64.156  1.00  0.00    -0.210 C  
HETATM    2  N   UNL     1      -9.747  12.442  63.926  1.00  0.00    -0.590 N  
HETATM    3  H   UNL     1      -8.991  13.093  63.712  1.00  0.00     0.000 HD 
ENDROOT
BRANCH   2   4
HETATM    4  C   UNL     1     -11.016  12.949  63.972  1.00  0.00    -0.411 C  
HETATM    5  S   UNL     1     -12.411  12.129  63.561  1.00  0.00    -0.509 S  
BRANCH   4   6
HETATM    6  N   UNL     1     -11.137  14.231  64.415  1.00  0.00    -0.605 N  
HETATM    7  H   UNL     1     -10.391  14.582  65.016  1.00  0.00     0.000 HD 
BRANCH   6   8
HETATM    8  C   UNL     1     -12.207  15.137  64.122  1.00  0.00    -0.161 C  
HETATM    9  O   UNL     1     -11.599  16.352  63.764  1.00  0.00    -1.605 OA 
HETATM   10  H   UNL     1     -12.309  16.953  63.570  1.00  0.00     0.000 HD 
ENDBRANCH   6   8
ENDBRANCH   4   6
ENDBRANCH   2   4
TORSDOF 3
ENDMDL
MODEL        7
REMARK 921   NORMALIZED FREE ENERGY PREDICTED BY IDOCK:   -3.43 KCAL/MOL
REMARK 922        TOTAL FREE ENERGY PREDICTED BY IDOCK:   -4.06 KCAL/MOL
REMARK 923 INTER-LIGAND FREE ENERGY PREDICTED BY IDOCK:   -3.76 KCAL/MOL
REMARK 924 INTRA-LIGAND FREE ENERGY PREDICTED BY IDOCK:   -0.29 KCAL/MOL
REMARK 927      BINDING AFFINITY PREDICTED BY RF-SCORE:    0.00 PKD
ROOT
HETATM    1  C   UNL     1     -12.475  15.733  74.197  1.00  0.00    -0.655 C  
HETATM    2  N   UNL     1     -13.399  15.850  73.084  1.00  0.00    -0.585 N  
HETATM    3  H   UNL     1     -13.968  16.694  73.035  1.00  0.00     0.000 HD 
ENDROOT
BRANCH   2   4
HETATM    4  C   UNL     1     -13.568  14.921  72.096  1.00  0.00    -0.419 C  
HETATM    5  S   UNL     1     -13.770  13.279  72.323  1.00  0.00    -0.521 S  
BRANCH   4   6
HETATM    6  N   UNL     1     -13.595  15.395  70.820  1.00  0.00    -0.814 N  
HETATM    7  H   UNL     1     -14.515  15.567  70.414  1.00  0.00     0.000 HD 
BRANCH   6   8
HETATM    8  C   UNL     1     -12.462  15.677  69.991  1.00  0.00    -0.217 C  
HETATM    9  O   UNL     1     -11.597  16.462  70.772  1.00  0.00    -0.552 OA 
HETATM   10  H   UNL     1     -10.845  16.648  70.221  1.00  0.00     0.000 HD 
ENDBRANCH   6   8
ENDBRANCH   4   6
ENDBRANCH   2   4
TORSDOF 3
ENDMDL
MODEL        8
REMARK 921   NORMALIZED FREE ENERGY PREDICTED BY IDOCK:   -3.41 KCAL/MOL
REMARK 922        TOTAL FREE ENERGY PREDICTED BY IDOCK:   -4.04 KCAL/MOL
REMARK 923 INTER-LIGAND FREE ENERGY PREDICTED BY IDOCK:   -3.87 KCAL/MOL
REMARK 924 INTRA-LIGAND FREE ENERGY PREDICTED BY IDOCK:   -0.16 KCAL/MOL
REMARK 927      BINDING AFFINITY PREDICTED BY RF-SCORE:    0.00 PKD
ROOT
HETATM    1  C   UNL     1      -9.992  12.777  65.633  1.00  0.00    -0.238 C  
HETATM    2  N   UNL     1      -9.954  12.764  64.183  1.00  0.00    -0.620 N  
HETATM    3  H   UNL     1      -9.746  13.644  63.713  1.00  0.00     0.000 HD 
ENDROOT
BRANCH   2   4
HETATM    4  C   UNL     1     -10.174  11.669  63.396  1.00  0.00    -0.433 C  
HETATM    5  S   UNL     1      -9.020  10.563  62.915  1.00  0.00    -0.296 S  
BRANCH   4   6
HETATM    6  N   UNL     1     -11.459  11.465  62.993  1.00  0.00    -0.852 N  
HETATM    7  H   UNL     1     -11.615  10.712  62.321  1.00  0.00     0.000 HD 
BRANCH   6   8
HETATM    8  C   UNL     1     -12.613  12.198  63.417  1.00  0.00    -0.463 C  
HETATM    9  O   UNL     1     -12.393  13.528  63.021  1.00  0.00    -0.970 OA 
HETATM   10  H   UNL     1     -13.160  14.015  63.302  1.00  0.00     0.000 HD 
ENDBRANCH   6   8
ENDBRANCH   4   6
ENDBRANCH   2   4
TORSDOF 3
ENDMDL
MODEL        9
REMARK 921   NORMALIZED FREE ENERGY PREDICTED BY IDOCK:   -3.35 KCAL/MOL
REMARK 922        TOTAL FREE ENERGY PREDICTED BY IDOCK:   -3.96 KCAL/MOL
REMARK 923 INTER-LIGAND FREE ENERGY PREDICTED BY IDOCK:   -3.75 KCAL/MOL
REMARK 924 INTRA-LIGAND FREE ENERGY PREDICTED BY IDOCK:   -0.21 KCAL/MOL
REMARK 927      BINDING AFFINITY PREDICTED BY RF-SCORE:    0.00 PKD
ROOT
HETATM    1  C   UNL     1     -13.477  12.715  71.994  1.00  0.00    -0.418 C  
HETATM    2  N   UNL     1     -13.502  11.265  72.033  1.00  0.00    -0.460 N  
HETATM    3  H   UNL     1     -13.964  10.826  72.829  1.00  0.00     0.000 HD 
ENDROOT
BRANCH   2   4
HETATM    4  C   UNL     1     -12.956  10.439  71.091  1.00  0.00    -0.412 C  
HETATM    5  S   UNL     1     -12.041  10.921  69.782  1.00  0.00    -0.314 S  
BRANCH   4   6
HETATM    6  N   UNL     1     -13.170   9.105  71.263  1.00  0.00    -0.506 N  
HETATM    7  H   UNL     1     -12.443   8.476  70.918  1.00  0.00     0.000 HD 
BRANCH   6   8
HETATM    8  C   UNL     1     -14.310   8.495  71.878  1.00  0.00    -0.448 C  
HETATM    9  O   UNL     1     -14.258   8.857  73.235  1.00  0.00    -1.197 OA 
HETATM   10  H   UNL     1     -15.015   8.452  73.642  1.00  0.00     0.000 HD 
ENDBRANCH   6   8
ENDBRANCH   4   6
ENDBRANCH   2   4
TORSDOF 3
ENDMDL
MODEL       10
REMARK 921   NORMALIZED FREE ENERGY PREDICTED BY IDOCK:   -3.33 KCAL/MOL
REMARK 922        TOTAL FREE ENERGY PREDICTED BY IDOCK:   -3.94 KCAL/MOL
REMARK 923 INTER-LIGAND FREE ENERGY PREDICTED BY IDOCK:   -3.87 KCAL/MOL
REMARK 924 INTRA-LIGAND FREE ENERGY PREDICTED BY IDOCK:   -0.07 KCAL/MOL
REMARK 927      BINDING AFFINITY PREDICTED BY RF-SCORE:    0.00 PKD
ROOT
HETATM    1  C   UNL     1     -11.636  15.341  68.244  1.00  0.00    -0.341 C  
HETATM    2  N   UNL     1     -12.507  14.310  67.714  1.00  0.00    -0.509 N  
HETATM    3  H   UNL     1     -13.362  14.107  68.232  1.00  0.00     0.000 HD 
ENDROOT
BRANCH   2   4
HETATM    4  C   UNL     1     -12.277  13.587  66.577  1.00  0.00    -0.380 C  
HETATM    5  S   UNL     1     -11.358  12.197  66.473  1.00  0.00    -0.356 S  
BRANCH   4   6
HETATM    6  N   UNL     1     -12.874  14.042  65.441  1.00  0.00    -0.716 N  
HETATM    7  H   UNL     1     -13.866  13.829  65.328  1.00  0.00     0.000 HD 
BRANCH   6   8
HETATM    8  C   UNL     1     -12.252  14.790  64.390  1.00  0.00    -0.428 C  
HETATM    9  O   UNL     1     -12.459  14.049  63.214  1.00  0.00    -1.139 OA 
HETATM   10  H   UNL     1     -12.046  14.546  62.517  1.00  0.00     0.000 HD 
ENDBRANCH   6   8
ENDBRANCH   4   6
ENDBRANCH   2   4
TORSDOF 3
ENDMDL
MODEL       11
REMARK 921   NORMALIZED FREE ENERGY PREDICTED BY IDOCK:   -3.31 KCAL/MOL
REMARK 922        TOTAL FREE ENERGY PREDICTED BY IDOCK:   -3.91 KCAL/MOL
REMARK 923 INTER-LIGAND FREE ENERGY PREDICTED BY IDOCK:   -3.86 KCAL/MOL
REMARK 924 INTRA-LIGAND FREE ENERGY PREDICTED BY IDOCK:   -0.05 KCAL/MOL
REMARK 927      BINDING AFFINITY PREDICTED BY RF-SCORE:    0.00 PKD
ROOT
HETATM    1  C   UNL     1     -11.781  14.707  67.719  1.00  0.00    -0.359 C  
HETATM    2  N   UNL     1     -12.495  14.150  66.585  1.00  0.00    -0.548 N  
HETATM    3  H   UNL     1     -13.318  14.654  66.256  1.00  0.00     0.000 HD 
ENDROOT
BRANCH   2   4
HETATM    4  C   UNL     1     -12.154  13.005  65.922  1.00  0.00    -0.444 C  
HETATM    5  S   UNL     1     -11.072  11.851  66.455  1.00  0.00    -0.317 S  
BRANCH   4   6
HETATM    6  N   UNL     1     -12.779  12.790  64.730  1.00  0.00    -0.706 N  
HETATM    7  H   UNL     1     -13.790  12.657  64.760  1.00  0.00     0.000 HD 
BRANCH   6   8
HETATM    8  C   UNL     1     -12.160  12.731  63.441  1.00  0.00    -0.534 C  
HETATM    9  O   UNL     1     -12.288  11.400  63.010  1.00  0.00    -0.952 OA 
HETATM   10  H   UNL     1     -11.877  11.361  62.154  1.00  0.00     0.000 HD 
ENDBRANCH   6   8
ENDBRANCH   4   6
ENDBRANCH   2   4
TORSDOF 3
ENDMDL
MODEL       12
REMARK 921   NORMALIZED FREE ENERGY PREDICTED BY IDOCK:   -3.30 KCAL/MOL
REMARK 922        TOTAL FREE ENERGY PREDICTED BY IDOCK:   -3.90 KCAL/MOL
REMARK 923 INTER-LIGAND FREE ENERGY PREDICTED BY IDOCK:   -3.66 KCAL/MOL
REMARK 924 INTRA-LIGAND FREE ENERGY PREDICTED BY IDOCK:   -0.23 KCAL/MOL
REMARK 927      BINDING AFFINITY PREDICTED BY RF-SCORE:    0.00 PKD
ROOT
HETATM    1  C   UNL     1     -10.494   7.009  73.200  1.00  0.00    -0.303 C  
HETATM    2  N   UNL     1     -11.779   7.477  72.718  1.00  0.00    -0.575 N  
HETATM    3  H   UNL     1     -12.334   8.054  73.349  1.00  0.00     0.000 HD 
ENDROOT
BRANCH   2   4
HETATM    4  C   UNL     1     -12.307   7.209  71.486  1.00  0.00    -0.370 C  
HETATM    5  S   UNL     1     -11.504   6.484  70.215  1.00  0.00    -0.397 S  
BRANCH   4   6
HETATM    6  N   UNL     1     -13.613   7.550  71.303  1.00  0.00    -0.587 N  
HETATM    7  H   UNL     1     -14.215   6.846  70.876  1.00  0.00     0.000 HD 
BRANCH   6   8
HETATM    8  C   UNL     1     -14.225   8.798  71.648  1.00  0.00    -0.339 C  
HETATM    9  O   UNL     1     -14.393   8.773  73.043  1.00  0.00    -1.089 OA 
HETATM   10  H   UNL     1     -14.799   9.602  73.272  1.00  0.00     0.000 HD 
ENDBRANCH   6   8
ENDBRANCH   4   6
ENDBRANCH   2   4
TORSDOF 3
ENDMDL
MODEL       13
REMARK 921   NORMALIZED FREE ENERGY PREDICTED BY IDOCK:   -3.22 KCAL/MOL
REMARK 922        TOTAL FREE ENERGY PREDICTED BY IDOCK:   -3.81 KCAL/MOL
REMARK 923 INTER-LIGAND FREE ENERGY PREDICTED BY IDOCK:   -3.73 KCAL/MOL
REMARK 924 INTRA-LIGAND FREE ENERGY PREDICTED BY IDOCK:   -0.08 KCAL/MOL
REMARK 927      BINDING AFFINITY PREDICTED BY RF-SCORE:    0.00 PKD
ROOT
HETATM    1  C   UNL     1     -10.439  19.365  66.272  1.00  0.00    -0.493 C  
HETATM    2  N   UNL     1      -9.671  18.148  66.455  1.00  0.00    -0.332 N  
HETATM    3  H   UNL     1      -8.656  18.235  66.481  1.00  0.00     0.000 HD 
ENDROOT
BRANCH   2   4
HETATM    4  C   UNL     1     -10.197  16.894  66.595  1.00  0.00    -0.312 C  
HETATM    5  S   UNL     1     -10.973  16.307  67.951  1.00  0.00    -0.270 S  
BRANCH   4   6
HETATM    6  N   UNL     1     -10.090  16.071  65.516  1.00  0.00    -0.340 N  
HETATM    7  H   UNL     1      -9.145  15.853  65.197  1.00  0.00     0.000 HD 
BRANCH   6   8
HETATM    8  C   UNL     1     -11.168  15.480  64.782  1.00  0.00    -0.390 C  
HETATM    9  O   UNL     1     -11.477  16.384  63.752  1.00  0.00    -1.590 OA 
HETATM   10  H   UNL     1     -12.192  15.992  63.265  1.00  0.00     0.000 HD 
ENDBRANCH   6   8
ENDBRANCH   4   6
ENDBRANCH   2   4
TORSDOF 3
ENDMDL
MODEL       14
REMARK 921   NORMALIZED FREE ENERGY PREDICTED BY IDOCK:   -3.20 KCAL/MOL
REMARK 922        TOTAL FREE ENERGY PREDICTED BY IDOCK:   -3.78 KCAL/MOL
REMARK 923 INTER-LIGAND FREE ENERGY PREDICTED BY IDOCK:   -3.57 KCAL/MOL
REMARK 924 INTRA-LIGAND FREE ENERGY PREDICTED BY IDOCK:   -0.21 KCAL/MOL
REMARK 927      BINDING AFFINITY PREDICTED BY RF-SCORE:    0.00 PKD
ROOT
HETATM    1  C   UNL     1      -9.693  15.279  66.461  1.00  0.00    -0.268 C  
HETATM    2  N   UNL     1      -9.694  14.604  65.177  1.00  0.00    -0.461 N  
HETATM    3  H   UNL     1      -8.923  14.805  64.542  1.00  0.00     0.000 HD 
ENDROOT
BRANCH   2   4
HETATM    4  C   UNL     1     -10.644  13.719  64.750  1.00  0.00    -0.428 C  
HETATM    5  S   UNL     1     -10.778  12.124  65.223  1.00  0.00    -0.299 S  
BRANCH   4   6
HETATM    6  N   UNL     1     -11.570  14.204  63.877  1.00  0.00    -0.620 N  
HETATM    7  H   UNL     1     -11.701  13.681  63.010  1.00  0.00     0.000 HD 
BRANCH   6   8
HETATM    8  C   UNL     1     -12.378  15.373  64.051  1.00  0.00     0.116 C  
HETATM    9  O   UNL     1     -11.519  16.469  63.865  1.00  0.00    -1.608 OA 
HETATM   10  H   UNL     1     -12.056  17.244  63.981  1.00  0.00     0.000 HD 
ENDBRANCH   6   8
ENDBRANCH   4   6
ENDBRANCH   2   4
TORSDOF 3
ENDMDL
MODEL       15
REMARK 921   NORMALIZED FREE ENERGY PREDICTED BY IDOCK:   -3.19 KCAL/MOL
REMARK 922        TOTAL FREE ENERGY PREDICTED BY IDOCK:   -3.77 KCAL/MOL
REMARK 923 INTER-LIGAND FREE ENERGY PREDICTED BY IDOCK:   -3.67 KCAL/MOL
REMARK 924 INTRA-LIGAND FREE ENERGY PREDICTED BY IDOCK:   -0.11 KCAL/MOL
REMARK 927      BINDING AFFINITY PREDICTED BY RF-SCORE:    0.00 PKD
ROOT
HETATM    1  C   UNL     1     -12.142  12.454  63.326  1.00  0.00    -0.421 C  
HETATM    2  N   UNL     1     -12.383  13.857  63.603  1.00  0.00    -1.007 N  
HETATM    3  H   UNL     1     -12.840  14.406  62.875  1.00  0.00     0.000 HD 
ENDROOT
BRANCH   2   4
HETATM    4  C   UNL     1     -12.049  14.504  64.760  1.00  0.00    -0.445 C  
HETATM    5  S   UNL     1     -11.080  15.857  64.877  1.00  0.00    -0.301 S  
BRANCH   4   6
HETATM    6  N   UNL     1     -12.579  13.999  65.908  1.00  0.00    -0.487 N  
HETATM    7  H   UNL     1     -13.597  14.009  65.987  1.00  0.00     0.000 HD 
BRANCH   6   8
HETATM    8  C   UNL     1     -11.854  13.455  67.016  1.00  0.00    -0.394 C  
HETATM    9  O   UNL     1     -11.918  12.059  66.873  1.00  0.00    -0.612 OA 
HETATM   10  H   UNL     1     -11.436  11.698  67.608  1.00  0.00     0.000 HD 
ENDBRANCH   6   8
ENDBRANCH   4   6
ENDBRANCH   2   4
TORSDOF 3
ENDMDL
MODEL       16
REMARK 921   NORMALIZED FREE ENERGY PREDICTED BY IDOCK:   -3.18 KCAL/MOL
REMARK 922        TOTAL FREE ENERGY PREDICTED BY IDOCK:   -3.76 KCAL/MOL
REMARK 923 INTER-LIGAND FREE ENERGY PREDICTED BY IDOCK:   -3.72 KCAL/MOL
REMARK 924 INTRA-LIGAND FREE ENERGY PREDICTED BY IDOCK:   -0.04 KCAL/MOL
REMARK 927      BINDING AFFINITY PREDICTED BY RF-SCORE:    0.00 PKD
ROOT
HETATM    1  C   UNL     1     -11.203   6.335  69.522  1.00  0.00    -0.430 C  
HETATM    2  N   UNL     1     -12.205   6.849  70.435  1.00  0.00    -0.615 N  
HETATM    3  H   UNL     1     -13.104   6.369  70.462  1.00  0.00     0.000 HD 
ENDROOT
BRANCH   2   4
HETATM    4  C   UNL     1     -12.044   7.925  71.263  1.00  0.00    -0.296 C  
HETATM    5  S   UNL     1     -10.822   8.121  72.383  1.00  0.00    -0.358 S  
BRANCH   4   6
HETATM    6  N   UNL     1     -12.957   8.927  71.134  1.00  0.00    -0.512 N  
HETATM    7  H   UNL     1     -13.275   9.139  70.188  1.00  0.00     0.000 HD 
BRANCH   6   8
HETATM    8  C   UNL     1     -13.516   9.713  72.192  1.00  0.00    -0.429 C  
HETATM    9  O   UNL     1     -14.236   8.818  73.001  1.00  0.00    -1.075 OA 
HETATM   10  H   UNL     1     -14.607   9.340  73.703  1.00  0.00     0.000 HD 
ENDBRANCH   6   8
ENDBRANCH   4   6
ENDBRANCH   2   4
TORSDOF 3
ENDMDL
MODEL       17
REMARK 921   NORMALIZED FREE ENERGY PREDICTED BY IDOCK:   -3.16 KCAL/MOL
REMARK 922        TOTAL FREE ENERGY PREDICTED BY IDOCK:   -3.73 KCAL/MOL
REMARK 923 INTER-LIGAND FREE ENERGY PREDICTED BY IDOCK:   -3.47 KCAL/MOL
REMARK 924 INTRA-LIGAND FREE ENERGY PREDICTED BY IDOCK:   -0.26 KCAL/MOL
REMARK 927      BINDING AFFINITY PREDICTED BY RF-SCORE:    0.00 PKD
ROOT
HETATM    1  C   UNL     1     -10.025  12.918  66.929  1.00  0.00    -0.238 C  
HETATM    2  N   UNL     1      -9.817  13.184  65.518  1.00  0.00    -0.466 N  
HETATM    3  H   UNL     1      -8.990  12.777  65.082  1.00  0.00     0.000 HD 
ENDROOT
BRANCH   2   4
HETATM    4  C   UNL     1     -10.638  13.935  64.726  1.00  0.00    -0.426 C  
HETATM    5  S   UNL     1     -11.006  15.548  64.951  1.00  0.00    -0.386 S  
BRANCH   4   6
HETATM    6  N   UNL     1     -11.180  13.303  63.648  1.00  0.00    -0.574 N  
HETATM    7  H   UNL     1     -10.767  13.512  62.738  1.00  0.00     0.000 HD 
BRANCH   6   8
HETATM    8  C   UNL     1     -12.270  12.375  63.662  1.00  0.00    -0.557 C  
HETATM    9  O   UNL     1     -12.941  12.585  64.878  1.00  0.00    -0.821 OA 
HETATM   10  H   UNL     1     -13.665  11.969  64.888  1.00  0.00     0.000 HD 
ENDBRANCH   6   8
ENDBRANCH   4   6
ENDBRANCH   2   4
TORSDOF 3
ENDMDL
MODEL       18
REMARK 921   NORMALIZED FREE ENERGY PREDICTED BY IDOCK:   -3.11 KCAL/MOL
REMARK 922        TOTAL FREE ENERGY PREDICTED BY IDOCK:   -3.67 KCAL/MOL
REMARK 923 INTER-LIGAND FREE ENERGY PREDICTED BY IDOCK:   -3.46 KCAL/MOL
REMARK 924 INTRA-LIGAND FREE ENERGY PREDICTED BY IDOCK:   -0.21 KCAL/MOL
REMARK 927      BINDING AFFINITY PREDICTED BY RF-SCORE:    0.00 PKD
ROOT
HETATM    1  C   UNL     1     -10.783   8.048  72.546  1.00  0.00    -0.341 C  
HETATM    2  N   UNL     1     -11.563   8.179  71.330  1.00  0.00    -0.270 N  
HETATM    3  H   UNL     1     -11.522   7.410  70.663  1.00  0.00     0.000 HD 
ENDROOT
BRANCH   2   4
HETATM    4  C   UNL     1     -12.347   9.251  71.006  1.00  0.00    -0.233 C  
HETATM    5  S   UNL     1     -11.801  10.738  70.481  1.00  0.00    -0.372 S  
BRANCH   4   6
HETATM    6  N   UNL     1     -13.693   9.065  71.104  1.00  0.00    -0.582 N  
HETATM    7  H   UNL     1     -14.274   9.552  70.421  1.00  0.00     0.000 HD 
BRANCH   6   8
HETATM    8  C   UNL     1     -14.374   8.254  72.067  1.00  0.00    -0.450 C  
HETATM    9  O   UNL     1     -14.131   8.851  73.316  1.00  0.00    -1.211 OA 
HETATM   10  H   UNL     1     -14.584   8.313  73.955  1.00  0.00     0.000 HD 
ENDBRANCH   6   8
ENDBRANCH   4   6
ENDBRANCH   2   4
TORSDOF 3
ENDMDL
MODEL       19
REMARK 921   NORMALIZED FREE ENERGY PREDICTED BY IDOCK:   -3.10 KCAL/MOL
REMARK 922        TOTAL FREE ENERGY PREDICTED BY IDOCK:   -3.67 KCAL/MOL
REMARK 923 INTER-LIGAND FREE ENERGY PREDICTED BY IDOCK:   -3.39 KCAL/MOL
REMARK 924 INTRA-LIGAND FREE ENERGY PREDICTED BY IDOCK:   -0.28 KCAL/MOL
REMARK 927      BINDING AFFINITY PREDICTED BY RF-SCORE:    0.00 PKD
ROOT
HETATM    1  C   UNL     1     -10.346  11.536  63.397  1.00  0.00    -0.418 C  
HETATM    2  N   UNL     1      -9.787  12.637  64.157  1.00  0.00    -0.612 N  
HETATM    3  H   UNL     1      -8.896  13.019  63.843  1.00  0.00     0.000 HD 
ENDROOT
BRANCH   2   4
HETATM    4  C   UNL     1     -10.358  13.207  65.261  1.00  0.00    -0.305 C  
HETATM    5  S   UNL     1      -9.543  13.995  66.486  1.00  0.00    -0.285 S  
BRANCH   4   6
HETATM    6  N   UNL     1     -11.716  13.134  65.343  1.00  0.00    -0.334 N  
HETATM    7  H   UNL     1     -12.107  12.277  65.735  1.00  0.00     0.000 HD 
BRANCH   6   8
HETATM    8  C   UNL     1     -12.650  14.139  64.934  1.00  0.00    -0.342 C  
HETATM    9  O   UNL     1     -12.450  14.315  63.554  1.00  0.00    -1.095 OA 
HETATM   10  H   UNL     1     -13.071  14.981  63.283  1.00  0.00     0.000 HD 
ENDBRANCH   6   8
ENDBRANCH   4   6
ENDBRANCH   2   4
TORSDOF 3
ENDMDL
MODEL       20
REMARK 921   NORMALIZED FREE ENERGY PREDICTED BY IDOCK:   -3.08 KCAL/MOL
REMARK 922        TOTAL FREE ENERGY PREDICTED BY IDOCK:   -3.64 KCAL/MOL
REMARK 923 INTER-LIGAND FREE ENERGY PREDICTED BY IDOCK:   -3.58 KCAL/MOL
REMARK 924 INTRA-LIGAND FREE ENERGY PREDICTED BY IDOCK:   -0.06 KCAL/MOL
REMARK 927      BINDING AFFINITY PREDICTED BY RF-SCORE:    0.00 PKD
ROOT
HETATM    1  C   UNL     1      -9.607  12.245  66.832  1.00  0.00    -0.213 C  
HETATM    2  N   UNL     1      -9.209  13.390  66.035  1.00  0.00    -0.476 N  
HETATM    3  H   UNL     1      -8.227  13.662  66.063  1.00  0.00     0.000 HD 
ENDROOT
BRANCH   2   4
HETATM    4  C   UNL     1     -10.044  14.134  65.248  1.00  0.00    -0.335 C  
HETATM    5  S   UNL     1     -10.540  15.697  65.556  1.00  0.00    -0.423 S  
BRANCH   4   6
HETATM    6  N   UNL     1     -10.483  13.540  64.104  1.00  0.00    -0.585 N  
HETATM    7  H   UNL     1      -9.857  13.577  63.298  1.00  0.00     0.000 HD 
BRANCH   6   8
HETATM    8  C   UNL     1     -11.734  12.868  63.917  1.00  0.00    -0.460 C  
HETATM    9  O   UNL     1     -12.528  13.736  63.149  1.00  0.00    -1.089 OA 
HETATM   10  H   UNL     1     -13.358  13.290  63.024  1.00  0.00     0.000 HD 
ENDBRANCH   6   8
ENDBRANCH   4   6
ENDBRANCH   2   4
TORSDOF 3
ENDMDL
MODEL       21
REMARK 921   NORMALIZED FREE ENERGY PREDICTED BY IDOCK:   -3.07 KCAL/MOL
REMARK 922        TOTAL FREE ENERGY PREDICTED BY IDOCK:   -3.63 KCAL/MOL
REMARK 923 INTER-LIGAND FREE ENERGY PREDICTED BY IDOCK:   -3.61 KCAL/MOL
REMARK 924 INTRA-LIGAND FREE ENERGY PREDICTED BY IDOCK:   -0.03 KCAL/MOL
REMARK 927      BINDING AFFINITY PREDICTED BY RF-SCORE:    0.00 PKD
ROOT
HETATM    1  C   UNL     1     -11.726  12.919  67.260  1.00  0.00    -0.373 C  
HETATM    2  N   UNL     1     -12.045  14.316  67.482  1.00  0.00    -0.570 N  
HETATM    3  H   UNL     1     -12.953  14.530  67.894  1.00  0.00     0.000 HD 
ENDROOT
BRANCH   2   4
HETATM    4  C   UNL     1     -11.228  15.371  67.186  1.00  0.00    -0.256 C  
HETATM    5  S   UNL     1     -10.762  16.574  68.244  1.00  0.00    -0.356 S  
BRANCH   4   6
HETATM    6  N   UNL     1     -10.742  15.418  65.914  1.00  0.00    -0.325 N  
HETATM    7  H   UNL     1     -10.478  14.528  65.491  1.00  0.00     0.000 HD 
BRANCH   6   8
HETATM    8  C   UNL     1     -10.563  16.590  65.112  1.00  0.00    -0.215 C  
HETATM    9  O   UNL     1     -11.301  16.371  63.937  1.00  0.00    -1.510 OA 
HETATM   10  H   UNL     1     -11.182  17.149  63.404  1.00  0.00     0.000 HD 
ENDBRANCH   6   8
ENDBRANCH   4   6
ENDBRANCH   2   4
TORSDOF 3
ENDMDL
MODEL       22
REMARK 921   NORMALIZED FREE ENERGY PREDICTED BY IDOCK:   -3.06 KCAL/MOL
REMARK 922        TOTAL FREE ENERGY PREDICTED BY IDOCK:   -3.62 KCAL/MOL
REMARK 923 INTER-LIGAND FREE ENERGY PREDICTED BY IDOCK:   -3.31 KCAL/MOL
REMARK 924 INTRA-LIGAND FREE ENERGY PREDICTED BY IDOCK:   -0.30 KCAL/MOL
REMARK 927      BINDING AFFINITY PREDICTED BY RF-SCORE:    0.00 PKD
ROOT
HETATM    1  C   UNL     1     -11.805  16.105  72.389  1.00  0.00    -0.538 C  
HETATM    2  N   UNL     1     -11.380  14.945  71.631  1.00  0.00    -0.546 N  
HETATM    3  H   UNL     1     -10.404  14.910  71.336  1.00  0.00     0.000 HD 
ENDROOT
BRANCH   2   4
HETATM    4  C   UNL     1     -12.179  13.893  71.279  1.00  0.00    -0.268 C  
HETATM    5  S   UNL     1     -13.559  13.404  72.080  1.00  0.00    -0.565 S  
BRANCH   4   6
HETATM    6  N   UNL     1     -11.815  13.208  70.160  1.00  0.00    -0.496 N  
HETATM    7  H   UNL     1     -11.667  12.203  70.265  1.00  0.00     0.000 HD 
BRANCH   6   8
HETATM    8  C   UNL     1     -11.619  13.753  68.851  1.00  0.00    -0.319 C  
HETATM    9  O   UNL     1     -12.329  14.965  68.826  1.00  0.00    -0.582 OA 
HETATM   10  H   UNL     1     -12.199  15.327  67.957  1.00  0.00     0.000 HD 
ENDBRANCH   6   8
ENDBRANCH   4   6
ENDBRANCH   2   4
TORSDOF 3
ENDMDL
MODEL       23
REMARK 921   NORMALIZED FREE ENERGY PREDICTED BY IDOCK:   -3.05 KCAL/MOL
REMARK 922        TOTAL FREE ENERGY PREDICTED BY IDOCK:   -3.61 KCAL/MOL
REMARK 923 INTER-LIGAND FREE ENERGY PREDICTED BY IDOCK:   -3.36 KCAL/MOL
REMARK 924 INTRA-LIGAND FREE ENERGY PREDICTED BY IDOCK:   -0.24 KCAL/MOL
REMARK 927      BINDING AFFINITY PREDICTED BY RF-SCORE:    0.00 PKD
ROOT
HETATM    1  C   UNL     1      -9.264  14.813  66.271  1.00  0.00    -0.243 C  
HETATM    2  N   UNL     1     -10.029  14.081  65.281  1.00  0.00    -0.554 N  
HETATM    3  H   UNL     1      -9.688  14.095  64.320  1.00  0.00     0.000 HD 
ENDROOT
BRANCH   2   4
HETATM    4  C   UNL     1     -11.171  13.372  65.530  1.00  0.00    -0.288 C  
HETATM    5  S   UNL     1     -12.250  13.662  66.771  1.00  0.00    -0.315 S  
BRANCH   4   6
HETATM    6  N   UNL     1     -11.451  12.357  64.667  1.00  0.00    -0.319 N  
HETATM    7  H   UNL     1     -11.009  11.457  64.858  1.00  0.00     0.000 HD 
BRANCH   6   8
HETATM    8  C   UNL     1     -12.302  12.424  63.518  1.00  0.00    -0.546 C  
HETATM    9  O   UNL     1     -12.374  13.782  63.167  1.00  0.00    -1.099 OA 
HETATM   10  H   UNL     1     -12.939  13.826  62.404  1.00  0.00     0.000 HD 
ENDBRANCH   6   8
ENDBRANCH   4   6
ENDBRANCH   2   4
TORSDOF 3
ENDMDL
MODEL       24
REMARK 921   NORMALIZED FREE ENERGY PREDICTED BY IDOCK:   -3.04 KCAL/MOL
REMARK 922        TOTAL FREE ENERGY PREDICTED BY IDOCK:   -3.60 KCAL/MOL
REMARK 923 INTER-LIGAND FREE ENERGY PREDICTED BY IDOCK:   -3.30 KCAL/MOL
REMARK 924 INTRA-LIGAND FREE ENERGY PREDICTED BY IDOCK:   -0.30 KCAL/MOL
REMARK 927      BINDING AFFINITY PREDICTED BY RF-SCORE:    0.00 PKD
ROOT
HETATM    1  C   UNL     1     -12.472  14.820  64.383  1.00  0.00    -0.252 C  
HETATM    2  N   UNL     1     -11.096  14.387  64.228  1.00  0.00    -0.605 N  
HETATM    3  H   UNL     1     -10.504  14.924  63.597  1.00  0.00     0.000 HD 
ENDROOT
BRANCH   2   4
HETATM    4  C   UNL     1     -10.529  13.315  64.860  1.00  0.00    -0.371 C  
HETATM    5  S   UNL     1     -10.670  12.951  66.483  1.00  0.00    -0.272 S  
BRANCH   4   6
HETATM    6  N   UNL     1      -9.805  12.468  64.077  1.00  0.00    -0.609 N  
HETATM    7  H   UNL     1      -8.790  12.564  64.114  1.00  0.00     0.000 HD 
BRANCH   6   8
HETATM    8  C   UNL     1     -10.325  11.455  63.209  1.00  0.00    -0.367 C  
HETATM    9  O   UNL     1     -11.712  11.673  63.146  1.00  0.00    -0.822 OA 
HETATM   10  H   UNL     1     -12.057  11.001  62.569  1.00  0.00     0.000 HD 
ENDBRANCH   6   8
ENDBRANCH   4   6
ENDBRANCH   2   4
TORSDOF 3
ENDMDL
MODEL       25
REMARK 921   NORMALIZED FREE ENERGY PREDICTED BY IDOCK:   -3.02 KCAL/MOL
REMARK 922        TOTAL FREE ENERGY PREDICTED BY IDOCK:   -3.58 KCAL/MOL
REMARK 923 INTER-LIGAND FREE ENERGY PREDICTED BY IDOCK:   -3.52 KCAL/MOL
REMARK 924 INTRA-LIGAND FREE ENERGY PREDICTED BY IDOCK:   -0.06 KCAL/MOL
REMARK 927      BINDING AFFINITY PREDICTED BY RF-SCORE:    0.00 PKD
ROOT
HETATM    1  C   UNL     1     -11.997  11.792  69.564  1.00  0.00    -0.300 C  
HETATM    2  N   UNL     1     -12.031  11.277  70.919  1.00  0.00    -0.350 N  
HETATM    3  H   UNL     1     -11.949  11.951  71.679  1.00  0.00     0.000 HD 
ENDROOT
BRANCH   2   4
HETATM    4  C   UNL     1     -12.162   9.960  71.261  1.00  0.00    -0.387 C  
HETATM    5  S   UNL     1     -10.922   8.941  71.720  1.00  0.00    -0.370 S  
BRANCH   4   6
HETATM    6  N   UNL     1     -13.427   9.455  71.242  1.00  0.00    -0.510 N  
HETATM    7  H   UNL     1     -14.083   9.886  70.590  1.00  0.00     0.000 HD 
BRANCH   6   8
HETATM    8  C   UNL     1     -13.929   8.381  72.044  1.00  0.00    -0.405 C  
HETATM    9  O   UNL     1     -14.216   8.937  73.301  1.00  0.00    -1.197 OA 
HETATM   10  H   UNL     1     -14.550   8.224  73.833  1.00  0.00     0.000 HD 
ENDBRANCH   6   8
ENDBRANCH   4   6
ENDBRANCH   2   4
TORSDOF 3
ENDMDL
MODEL       26
REMARK 921   NORMALIZED FREE ENERGY PREDICTED BY IDOCK:   -3.02 KCAL/MOL
REMARK 922        TOTAL FREE ENERGY PREDICTED BY IDOCK:   -3.57 KCAL/MOL
REMARK 923 INTER-LIGAND FREE ENERGY PREDICTED BY IDOCK:   -3.55 KCAL/MOL
REMARK 924 INTRA-LIGAND FREE ENERGY PREDICTED BY IDOCK:   -0.02 KCAL/MOL
REMARK 927      BINDING AFFINITY PREDICTED BY RF-SCORE:    0.00 PKD
ROOT
HETATM    1  C   UNL     1      -8.899   9.980  62.496  1.00  0.00    -0.242 C  
HETATM    2  N   UNL     1     -10.213  10.593  62.516  1.00  0.00    -0.752 N  
HETATM    3  H   UNL     1     -10.786  10.499  61.678  1.00  0.00     0.000 HD 
ENDROOT
BRANCH   2   4
HETATM    4  C   UNL     1     -10.745  11.288  63.565  1.00  0.00    -0.335 C  
HETATM    5  S   UNL     1     -10.188  11.261  65.138  1.00  0.00    -0.306 S  
BRANCH   4   6
HETATM    6  N   UNL     1     -11.812  12.085  63.281  1.00  0.00    -0.735 N  
HETATM    7  H   UNL     1     -12.480  11.731  62.596  1.00  0.00     0.000 HD 
BRANCH   6   8
HETATM    8  C   UNL     1     -12.092  13.371  63.847  1.00  0.00    -0.455 C  
HETATM    9  O   UNL     1     -13.137  13.171  64.764  1.00  0.00    -0.728 OA 
HETATM   10  H   UNL     1     -13.322  14.025  65.140  1.00  0.00     0.000 HD 
ENDBRANCH   6   8
ENDBRANCH   4   6
ENDBRANCH   2   4
TORSDOF 3
ENDMDL
MODEL       27
REMARK 921   NORMALIZED FREE ENERGY PREDICTED BY IDOCK:   -3.01 KCAL/MOL
REMARK 922        TOTAL FREE ENERGY PREDICTED BY IDOCK:   -3.56 KCAL/MOL
REMARK 923 INTER-LIGAND FREE ENERGY PREDICTED BY IDOCK:   -3.30 KCAL/MOL
REMARK 924 INTRA-LIGAND FREE ENERGY PREDICTED BY IDOCK:   -0.26 KCAL/MOL
REMARK 927      BINDING AFFINITY PREDICTED BY RF-SCORE:    0.00 PKD
ROOT
HETATM    1  C   UNL     1     -11.886  11.412  70.205  1.00  0.00    -0.350 C  
HETATM    2  N   UNL     1     -11.732  12.853  70.262  1.00  0.00    -0.544 N  
HETATM    3  H   UNL     1     -10.882  13.249  69.861  1.00  0.00     0.000 HD 
ENDROOT
BRANCH   2   4
HETATM    4  C   UNL     1     -12.632  13.724  70.808  1.00  0.00    -0.340 C  
HETATM    5  S   UNL     1     -13.525  13.464  72.195  1.00  0.00    -0.564 S  
BRANCH   4   6
HETATM    6  N   UNL     1     -12.787  14.914  70.165  1.00  0.00    -0.598 N  
HETATM    7  H   UNL     1     -13.645  15.432  70.359  1.00  0.00     0.000 HD 
BRANCH   6   8
HETATM    8  C   UNL     1     -11.868  15.511  69.243  1.00  0.00    -0.353 C  
HETATM    9  O   UNL     1     -12.053  14.841  68.023  1.00  0.00    -0.550 OA 
HETATM   10  H   UNL     1     -11.444  15.238  67.411  1.00  0.00     0.000 HD 
ENDBRANCH   6   8
ENDBRANCH   4   6
ENDBRANCH   2   4
TORSDOF 3
ENDMDL
MODEL       28
REMARK 921   NORMALIZED FREE ENERGY PREDICTED BY IDOCK:   -3.00 KCAL/MOL
REMARK 922        TOTAL FREE ENERGY PREDICTED BY IDOCK:   -3.55 KCAL/MOL
REMARK 923 INTER-LIGAND FREE ENERGY PREDICTED BY IDOCK:   -3.53 KCAL/MOL
REMARK 924 INTRA-LIGAND FREE ENERGY PREDICTED BY IDOCK:   -0.02 KCAL/MOL
REMARK 927      BINDING AFFINITY PREDICTED BY RF-SCORE:    0.00 PKD
ROOT
HETATM    1  C   UNL     1     -12.389  12.331  63.674  1.00  0.00    -0.562 C  
HETATM    2  N   UNL     1     -12.828  13.231  64.722  1.00  0.00    -0.720 N  
HETATM    3  H   UNL     1     -13.831  13.291  64.899  1.00  0.00     0.000 HD 
ENDROOT
BRANCH   2   4
HETATM    4  C   UNL     1     -12.009  14.006  65.494  1.00  0.00    -0.384 C  
HETATM    5  S   UNL     1     -10.576  14.705  65.000  1.00  0.00    -0.427 S  
BRANCH   4   6
HETATM    6  N   UNL     1     -12.423  14.236  66.771  1.00  0.00    -0.547 N  
HETATM    7  H   UNL     1     -13.404  14.043  66.977  1.00  0.00     0.000 HD 
BRANCH   6   8
HETATM    8  C   UNL     1     -11.622  14.722  67.854  1.00  0.00    -0.351 C  
HETATM    9  O   UNL     1     -12.302  14.364  69.030  1.00  0.00    -0.541 OA 
HETATM   10  H   UNL     1     -11.770  14.686  69.748  1.00  0.00     0.000 HD 
ENDBRANCH   6   8
ENDBRANCH   4   6
ENDBRANCH   2   4
TORSDOF 3
ENDMDL
MODEL       29
REMARK 921   NORMALIZED FREE ENERGY PREDICTED BY IDOCK:   -2.99 KCAL/MOL
REMARK 922        TOTAL FREE ENERGY PREDICTED BY IDOCK:   -3.54 KCAL/MOL
REMARK 923 INTER-LIGAND FREE ENERGY PREDICTED BY IDOCK:   -3.31 KCAL/MOL
REMARK 924 INTRA-LIGAND FREE ENERGY PREDICTED BY IDOCK:   -0.23 KCAL/MOL
REMARK 927      BINDING AFFINITY PREDICTED BY RF-SCORE:    0.00 PKD
ROOT
HETATM    1  C   UNL     1     -10.289  14.539  65.154  1.00  0.00    -0.411 C  
HETATM    2  N   UNL     1     -10.165  13.445  64.209  1.00  0.00    -0.669 N  
HETATM    3  H   UNL     1      -9.247  13.289  63.792  1.00  0.00     0.000 HD 
ENDROOT
BRANCH   2   4
HETATM    4  C   UNL     1     -11.176  12.607  63.831  1.00  0.00    -0.442 C  
HETATM    5  S   UNL     1     -12.749  12.663  64.387  1.00  0.00    -0.248 S  
BRANCH   4   6
HETATM    6  N   UNL     1     -10.862  11.663  62.902  1.00  0.00    -0.647 N  
HETATM    7  H   UNL     1     -11.456  11.618  62.074  1.00  0.00     0.000 HD 
BRANCH   6   8
HETATM    8  C   UNL     1      -9.781  10.726  62.970  1.00  0.00    -0.340 C  
HETATM    9  O   UNL     1      -8.610  11.470  62.753  1.00  0.00    -0.549 OA 
HETATM   10  H   UNL     1      -7.892  10.848  62.798  1.00  0.00     0.000 HD 
ENDBRANCH   6   8
ENDBRANCH   4   6
ENDBRANCH   2   4
TORSDOF 3
ENDMDL
MODEL       30
REMARK 921   NORMALIZED FREE ENERGY PREDICTED BY IDOCK:   -2.98 KCAL/MOL
REMARK 922        TOTAL FREE ENERGY PREDICTED BY IDOCK:   -3.52 KCAL/MOL
REMARK 923 INTER-LIGAND FREE ENERGY PREDICTED BY IDOCK:   -3.39 KCAL/MOL
REMARK 924 INTRA-LIGAND FREE ENERGY PREDICTED BY IDOCK:   -0.13 KCAL/MOL
REMARK 927      BINDING AFFINITY PREDICTED BY RF-SCORE:    0.00 PKD
ROOT
HETATM    1  C   UNL     1     -12.887  12.140  63.475  1.00  0.00    -0.325 C  
HETATM    2  N   UNL     1     -11.601  12.726  63.148  1.00  0.00    -0.817 N  
HETATM    3  H   UNL     1     -11.427  12.958  62.171  1.00  0.00     0.000 HD 
ENDROOT
BRANCH   2   4
HETATM    4  C   UNL     1     -10.603  12.993  64.043  1.00  0.00    -0.344 C  
HETATM    5  S   UNL     1     -10.617  14.209  65.188  1.00  0.00    -0.422 S  
BRANCH   4   6
HETATM    6  N   UNL     1      -9.517  12.172  63.999  1.00  0.00    -0.512 N  
HETATM    7  H   UNL     1      -8.602  12.620  64.054  1.00  0.00     0.000 HD 
BRANCH   6   8
HETATM    8  C   UNL     1      -9.531  10.746  63.882  1.00  0.00    -0.274 C  
HETATM    9  O   UNL     1     -10.106  10.465  62.631  1.00  0.00    -0.699 OA 
HETATM   10  H   UNL     1     -10.114   9.518  62.553  1.00  0.00     0.000 HD 
ENDBRANCH   6   8
ENDBRANCH   4   6
ENDBRANCH   2   4
TORSDOF 3
ENDMDL
MODEL       31
REMARK 921   NORMALIZED FREE ENERGY PREDICTED BY IDOCK:   -2.95 KCAL/MOL
REMARK 922        TOTAL FREE ENERGY PREDICTED BY IDOCK:   -3.49 KCAL/MOL
REMARK 923 INTER-LIGAND FREE ENERGY PREDICTED BY IDOCK:   -3.20 KCAL/MOL
REMARK 924 INTRA-LIGAND FREE ENERGY PREDICTED BY IDOCK:   -0.29 KCAL/MOL
REMARK 927      BINDING AFFINITY PREDICTED BY RF-SCORE:    0.00 PKD
ROOT
HETATM    1  C   UNL     1     -12.284  12.237  70.543  1.00  0.00    -0.300 C  
HETATM    2  N   UNL     1     -11.941  13.596  70.916  1.00  0.00    -0.499 N  
HETATM    3  H   UNL     1     -11.279  13.718  71.682  1.00  0.00     0.000 HD 
ENDROOT
BRANCH   2   4
HETATM    4  C   UNL     1     -12.432  14.726  70.325  1.00  0.00    -0.340 C  
HETATM    5  S   UNL     1     -11.603  15.714  69.266  1.00  0.00    -0.380 S  
BRANCH   4   6
HETATM    6  N   UNL     1     -13.721  15.050  70.622  1.00  0.00    -0.651 N  
HETATM    7  H   UNL     1     -14.351  15.194  69.832  1.00  0.00     0.000 HD 
BRANCH   6   8
HETATM    8  C   UNL     1     -14.282  15.209  71.930  1.00  0.00    -0.579 C  
HETATM    9  O   UNL     1     -13.274  15.794  72.714  1.00  0.00    -0.448 OA 
HETATM   10  H   UNL     1     -13.647  15.900  73.582  1.00  0.00     0.000 HD 
ENDBRANCH   6   8
ENDBRANCH   4   6
ENDBRANCH   2   4
TORSDOF 3
ENDMDL
MODEL       32
REMARK 921   NORMALIZED FREE ENERGY PREDICTED BY IDOCK:   -2.95 KCAL/MOL
REMARK 922        TOTAL FREE ENERGY PREDICTED BY IDOCK:   -3.49 KCAL/MOL
REMARK 923 INTER-LIGAND FREE ENERGY PREDICTED BY IDOCK:   -3.20 KCAL/MOL
REMARK 924 INTRA-LIGAND FREE ENERGY PREDICTED BY IDOCK:   -0.29 KCAL/MOL
REMARK 927      BINDING AFFINITY PREDICTED BY RF-SCORE:    0.00 PKD
ROOT
HETATM    1  C   UNL     1     -12.275  13.744  70.072  1.00  0.00    -0.342 C  
HETATM    2  N   UNL     1     -11.539  12.497  70.160  1.00  0.00    -0.543 N  
HETATM    3  H   UNL     1     -10.522  12.555  70.193  1.00  0.00     0.000 HD 
ENDROOT
BRANCH   2   4
HETATM    4  C   UNL     1     -12.099  11.251  70.202  1.00  0.00    -0.366 C  
HETATM    5  S   UNL     1     -12.904  10.585  71.504  1.00  0.00    -0.483 S  
BRANCH   4   6
HETATM    6  N   UNL     1     -12.000  10.507  69.066  1.00  0.00    -0.531 N  
HETATM    7  H   UNL     1     -12.519   9.628  69.047  1.00  0.00     0.000 HD 
BRANCH   6   8
HETATM    8  C   UNL     1     -11.242  10.832  67.896  1.00  0.00    -0.318 C  
HETATM    9  O   UNL     1     -12.025  11.744  67.168  1.00  0.00    -0.617 OA 
HETATM   10  H   UNL     1     -11.521  11.960  66.392  1.00  0.00     0.000 HD 
ENDBRANCH   6   8
ENDBRANCH   4   6
ENDBRANCH   2   4
TORSDOF 3
ENDMDL
MODEL       33
REMARK 921   NORMALIZED FREE ENERGY PREDICTED BY IDOCK:   -2.94 KCAL/MOL
REMARK 922        TOTAL FREE ENERGY PREDICTED BY IDOCK:   -3.48 KCAL/MOL
REMARK 923 INTER-LIGAND FREE ENERGY PREDICTED BY IDOCK:   -3.21 KCAL/MOL
REMARK 924 INTRA-LIGAND FREE ENERGY PREDICTED BY IDOCK:   -0.27 KCAL/MOL
REMARK 927      BINDING AFFINITY PREDICTED BY RF-SCORE:    0.00 PKD
ROOT
HETATM    1  C   UNL     1     -13.743   9.206  72.142  1.00  0.00    -0.471 C  
HETATM    2  N   UNL     1     -12.860   9.146  70.993  1.00  0.00    -0.517 N  
HETATM    3  H   UNL     1     -13.278   8.913  70.093  1.00  0.00     0.000 HD 
ENDROOT
BRANCH   2   4
HETATM    4  C   UNL     1     -11.513   9.376  71.018  1.00  0.00    -0.334 C  
HETATM    5  S   UNL     1     -10.374   8.425  71.783  1.00  0.00    -0.290 S  
BRANCH   4   6
HETATM    6  N   UNL     1     -11.075  10.470  70.336  1.00  0.00    -0.409 N  
HETATM    7  H   UNL     1     -10.065  10.618  70.306  1.00  0.00     0.000 HD 
BRANCH   6   8
HETATM    8  C   UNL     1     -11.887  11.434  69.657  1.00  0.00    -0.362 C  
HETATM    9  O   UNL     1     -12.345  10.801  68.490  1.00  0.00    -0.825 OA 
HETATM   10  H   UNL     1     -12.884  11.441  68.040  1.00  0.00     0.000 HD 
ENDBRANCH   6   8
ENDBRANCH   4   6
ENDBRANCH   2   4
TORSDOF 3
ENDMDL
MODEL       34
REMARK 921   NORMALIZED FREE ENERGY PREDICTED BY IDOCK:   -2.94 KCAL/MOL
REMARK 922        TOTAL FREE ENERGY PREDICTED BY IDOCK:   -3.48 KCAL/MOL
REMARK 923 INTER-LIGAND FREE ENERGY PREDICTED BY IDOCK:   -3.46 KCAL/MOL
REMARK 924 INTRA-LIGAND FREE ENERGY PREDICTED BY IDOCK:   -0.01 KCAL/MOL
REMARK 927      BINDING AFFINITY PREDICTED BY RF-SCORE:    0.00 PKD
ROOT
HETATM    1  C   UNL     1     -12.089  12.873  63.345  1.00  0.00    -0.530 C  
HETATM    2  N   UNL     1     -12.682  13.016  64.661  1.00  0.00    -0.709 N  
HETATM    3  H   UNL     1     -13.700  13.026  64.717  1.00  0.00     0.000 HD 
ENDROOT
BRANCH   2   4
HETATM    4  C   UNL     1     -11.989  13.140  65.832  1.00  0.00    -0.427 C  
HETATM    5  S   UNL     1     -11.439  14.569  66.496  1.00  0.00    -0.358 S  
BRANCH   4   6
HETATM    6  N   UNL     1     -11.752  11.986  66.517  1.00  0.00    -0.325 N  
HETATM    7  H   UNL     1     -11.629  11.140  65.961  1.00  0.00     0.000 HD 
BRANCH   6   8
HETATM    8  C   UNL     1     -11.659  11.842  67.938  1.00  0.00    -0.323 C  
HETATM    9  O   UNL     1     -11.968  10.499  68.212  1.00  0.00    -0.790 OA 
HETATM   10  H   UNL     1     -11.906  10.403  69.156  1.00  0.00     0.000 HD 
ENDBRANCH   6   8
ENDBRANCH   4   6
ENDBRANCH   2   4
TORSDOF 3
ENDMDL
MODEL       35
REMARK 921   NORMALIZED FREE ENERGY PREDICTED BY IDOCK:   -2.89 KCAL/MOL
REMARK 922        TOTAL FREE ENERGY PREDICTED BY IDOCK:   -3.42 KCAL/MOL
REMARK 923 INTER-LIGAND FREE ENERGY PREDICTED BY IDOCK:   -3.16 KCAL/MOL
REMARK 924 INTRA-LIGAND FREE ENERGY PREDICTED BY IDOCK:   -0.26 KCAL/MOL
REMARK 927      BINDING AFFINITY PREDICTED BY RF-SCORE:    0.00 PKD
ROOT
HETATM    1  C   UNL     1     -14.384   7.714  71.619  1.00  0.00    -0.477 C  
HETATM    2  N   UNL     1     -13.120   8.056  70.995  1.00  0.00    -0.524 N  
HETATM    3  H   UNL     1     -13.042   7.918  69.988  1.00  0.00     0.000 HD 
ENDROOT
BRANCH   2   4
HETATM    4  C   UNL     1     -12.024   8.548  71.646  1.00  0.00    -0.316 C  
HETATM    5  S   UNL     1     -11.072   7.708  72.730  1.00  0.00    -0.389 S  
BRANCH   4   6
HETATM    6  N   UNL     1     -11.678   9.834  71.359  1.00  0.00    -0.390 N  
HETATM    7  H   UNL     1     -10.679  10.042  71.317  1.00  0.00     0.000 HD 
BRANCH   6   8
HETATM    8  C   UNL     1     -12.573  10.923  71.109  1.00  0.00    -0.428 C  
HETATM    9  O   UNL     1     -13.349  11.060  72.272  1.00  0.00    -0.633 OA 
HETATM   10  H   UNL     1     -13.943  11.784  72.106  1.00  0.00     0.000 HD 
ENDBRANCH   6   8
ENDBRANCH   4   6
ENDBRANCH   2   4
TORSDOF 3
ENDMDL
MODEL       36
REMARK 921   NORMALIZED FREE ENERGY PREDICTED BY IDOCK:   -2.89 KCAL/MOL
REMARK 922        TOTAL FREE ENERGY PREDICTED BY IDOCK:   -3.42 KCAL/MOL
REMARK 923 INTER-LIGAND FREE ENERGY PREDICTED BY IDOCK:   -3.39 KCAL/MOL
REMARK 924 INTRA-LIGAND FREE ENERGY PREDICTED BY IDOCK:   -0.03 KCAL/MOL
REMARK 927      BINDING AFFINITY PREDICTED BY RF-SCORE:    0.00 PKD
ROOT
HETATM    1  C   UNL     1     -12.100  13.694  63.970  1.00  0.00    -0.425 C  
HETATM    2  N   UNL     1     -11.607  12.612  63.140  1.00  0.00    -0.792 N  
HETATM    3  H   UNL     1     -11.936  12.575  62.176  1.00  0.00     0.000 HD 
ENDROOT
BRANCH   2   4
HETATM    4  C   UNL     1     -10.737  11.638  63.544  1.00  0.00    -0.428 C  
HETATM    5  S   UNL     1     -10.252  11.352  65.116  1.00  0.00    -0.292 S  
BRANCH   4   6
HETATM    6  N   UNL     1     -10.249  10.823  62.569  1.00  0.00    -0.755 N  
HETATM    7  H   UNL     1     -10.898  10.554  61.828  1.00  0.00     0.000 HD 
BRANCH   6   8
HETATM    8  C   UNL     1      -8.918  10.305  62.477  1.00  0.00    -0.266 C  
HETATM    9  O   UNL     1      -9.008   8.942  62.806  1.00  0.00    -0.430 OA 
HETATM   10  H   UNL     1      -8.125   8.599  62.745  1.00  0.00     0.000 HD 
ENDBRANCH   6   8
ENDBRANCH   4   6
ENDBRANCH   2   4
TORSDOF 3
ENDMDL
MODEL       37
REMARK 921   NORMALIZED FREE ENERGY PREDICTED BY IDOCK:   -2.88 KCAL/MOL
REMARK 922        TOTAL FREE ENERGY PREDICTED BY IDOCK:   -3.40 KCAL/MOL
REMARK 923 INTER-LIGAND FREE ENERGY PREDICTED BY IDOCK:   -3.15 KCAL/MOL
REMARK 924 INTRA-LIGAND FREE ENERGY PREDICTED BY IDOCK:   -0.25 KCAL/MOL
REMARK 927      BINDING AFFINITY PREDICTED BY RF-SCORE:    0.00 PKD
ROOT
HETATM    1  C   UNL     1     -10.820  12.309  63.441  1.00  0.00    -0.403 C  
HETATM    2  N   UNL     1     -10.404  13.534  64.096  1.00  0.00    -0.617 N  
HETATM    3  H   UNL     1      -9.424  13.802  64.010  1.00  0.00     0.000 HD 
ENDROOT
BRANCH   2   4
HETATM    4  C   UNL     1     -11.218  14.360  64.820  1.00  0.00    -0.387 C  
HETATM    5  S   UNL     1     -12.650  13.919  65.556  1.00  0.00    -0.485 S  
BRANCH   4   6
HETATM    6  N   UNL     1     -10.799  15.648  64.962  1.00  0.00    -0.438 N  
HETATM    7  H   UNL     1     -11.247  16.344  64.365  1.00  0.00     0.000 HD 
BRANCH   6   8
HETATM    8  C   UNL     1      -9.793  16.123  65.863  1.00  0.00    -0.353 C  
HETATM    9  O   UNL     1      -8.899  15.055  66.044  1.00  0.00    -0.471 OA 
HETATM   10  H   UNL     1      -8.232  15.371  66.642  1.00  0.00     0.000 HD 
ENDBRANCH   6   8
ENDBRANCH   4   6
ENDBRANCH   2   4
TORSDOF 3
ENDMDL
MODEL       38
REMARK 921   NORMALIZED FREE ENERGY PREDICTED BY IDOCK:   -2.87 KCAL/MOL
REMARK 922        TOTAL FREE ENERGY PREDICTED BY IDOCK:   -3.39 KCAL/MOL
REMARK 923 INTER-LIGAND FREE ENERGY PREDICTED BY IDOCK:   -3.32 KCAL/MOL
REMARK 924 INTRA-LIGAND FREE ENERGY PREDICTED BY IDOCK:   -0.07 KCAL/MOL
REMARK 927      BINDING AFFINITY PREDICTED BY RF-SCORE:    0.00 PKD
ROOT
HETATM    1  C   UNL     1     -11.357  11.199  67.514  1.00  0.00    -0.278 C  
HETATM    2  N   UNL     1     -11.287  11.944  66.272  1.00  0.00    -0.345 N  
HETATM    3  H   UNL     1     -10.674  11.582  65.542  1.00  0.00     0.000 HD 
ENDROOT
BRANCH   2   4
HETATM    4  C   UNL     1     -11.976  13.093  65.999  1.00  0.00    -0.433 C  
HETATM    5  S   UNL     1     -12.018  14.458  66.959  1.00  0.00    -0.333 S  
BRANCH   4   6
HETATM    6  N   UNL     1     -12.667  13.118  64.826  1.00  0.00    -0.700 N  
HETATM    7  H   UNL     1     -13.457  13.762  64.772  1.00  0.00     0.000 HD 
BRANCH   6   8
HETATM    8  C   UNL     1     -12.397  12.332  63.660  1.00  0.00    -0.562 C  
HETATM    9  O   UNL     1     -11.585  13.129  62.836  1.00  0.00    -0.673 OA 
HETATM   10  H   UNL     1     -11.405  12.607  62.062  1.00  0.00     0.000 HD 
ENDBRANCH   6   8
ENDBRANCH   4   6
ENDBRANCH   2   4
TORSDOF 3
ENDMDL
MODEL       39
REMARK 921   NORMALIZED FREE ENERGY PREDICTED BY IDOCK:   -2.85 KCAL/MOL
REMARK 922        TOTAL FREE ENERGY PREDICTED BY IDOCK:   -3.37 KCAL/MOL
REMARK 923 INTER-LIGAND FREE ENERGY PREDICTED BY IDOCK:   -3.18 KCAL/MOL
REMARK 924 INTRA-LIGAND FREE ENERGY PREDICTED BY IDOCK:   -0.20 KCAL/MOL
REMARK 927      BINDING AFFINITY PREDICTED BY RF-SCORE:    0.00 PKD
ROOT
HETATM    1  C   UNL     1     -10.488  19.636  65.859  1.00  0.00    -0.493 C  
HETATM    2  N   UNL     1      -9.639  20.614  66.512  1.00  0.00    -0.644 N  
HETATM    3  H   UNL     1      -9.914  21.594  66.443  1.00  0.00     0.000 HD 
ENDROOT
BRANCH   2   4
HETATM    4  C   UNL     1      -8.499  20.331  67.211  1.00  0.00    -0.347 C  
HETATM    5  S   UNL     1      -8.373  19.248  68.475  1.00  0.00    -0.369 S  
BRANCH   4   6
HETATM    6  N   UNL     1      -7.371  20.983  66.816  1.00  0.00    -0.562 N  
HETATM    7  H   UNL     1      -7.167  21.870  67.279  1.00  0.00     0.000 HD 
BRANCH   6   8
HETATM    8  C   UNL     1      -6.442  20.551  65.816  1.00  0.00    -0.230 C  
HETATM    9  O   UNL     1      -6.949  21.014  64.590  1.00  0.00    -0.531 OA 
HETATM   10  H   UNL     1      -6.331  20.727  63.927  1.00  0.00     0.000 HD 
ENDBRANCH   6   8
ENDBRANCH   4   6
ENDBRANCH   2   4
TORSDOF 3
ENDMDL
MODEL       40
REMARK 921   NORMALIZED FREE ENERGY PREDICTED BY IDOCK:   -2.84 KCAL/MOL
REMARK 922        TOTAL FREE ENERGY PREDICTED BY IDOCK:   -3.36 KCAL/MOL
REMARK 923 INTER-LIGAND FREE ENERGY PREDICTED BY IDOCK:   -3.10 KCAL/MOL
REMARK 924 INTRA-LIGAND FREE ENERGY PREDICTED BY IDOCK:   -0.26 KCAL/MOL
REMARK 927      BINDING AFFINITY PREDICTED BY RF-SCORE:    0.00 PKD
ROOT
HETATM    1  C   UNL     1     -13.781  13.294  72.316  1.00  0.00    -0.589 C  
HETATM    2  N   UNL     1     -12.767  13.292  71.280  1.00  0.00    -0.358 N  
HETATM    3  H   UNL     1     -12.344  12.396  71.040  1.00  0.00     0.000 HD 
ENDROOT
BRANCH   2   4
HETATM    4  C   UNL     1     -12.332  14.394  70.598  1.00  0.00    -0.351 C  
HETATM    5  S   UNL     1     -11.667  15.765  71.280  1.00  0.00    -0.478 S  
BRANCH   4   6
HETATM    6  N   UNL     1     -12.437  14.344  69.241  1.00  0.00    -0.549 N  
HETATM    7  H   UNL     1     -13.151  14.935  68.814  1.00  0.00     0.000 HD 
BRANCH   6   8
HETATM    8  C   UNL     1     -11.647  13.546  68.353  1.00  0.00    -0.343 C  
HETATM    9  O   UNL     1     -10.585  13.044  69.124  1.00  0.00    -0.427 OA 
HETATM   10  H   UNL     1     -10.061  12.514  68.535  1.00  0.00     0.000 HD 
ENDBRANCH   6   8
ENDBRANCH   4   6
ENDBRANCH   2   4
TORSDOF 3
ENDMDL
MODEL       41
REMARK 921   NORMALIZED FREE ENERGY PREDICTED BY IDOCK:   -2.83 KCAL/MOL
REMARK 922        TOTAL FREE ENERGY PREDICTED BY IDOCK:   -3.35 KCAL/MOL
REMARK 923 INTER-LIGAND FREE ENERGY PREDICTED BY IDOCK:   -3.15 KCAL/MOL
REMARK 924 INTRA-LIGAND FREE ENERGY PREDICTED BY IDOCK:   -0.20 KCAL/MOL
REMARK 927      BINDING AFFINITY PREDICTED BY RF-SCORE:    0.00 PKD
ROOT
HETATM    1  C   UNL     1     -11.663  15.528  68.467  1.00  0.00    -0.337 C  
HETATM    2  N   UNL     1     -12.244  14.245  68.122  1.00  0.00    -0.580 N  
HETATM    3  H   UNL     1     -13.000  13.899  68.713  1.00  0.00     0.000 HD 
ENDROOT
BRANCH   2   4
HETATM    4  C   UNL     1     -11.861  13.460  67.071  1.00  0.00    -0.394 C  
HETATM    5  S   UNL     1     -12.422  13.584  65.504  1.00  0.00    -0.482 S  
BRANCH   4   6
HETATM    6  N   UNL     1     -10.922  12.510  67.338  1.00  0.00    -0.250 N  
HETATM    7  H   UNL     1      -9.961  12.835  67.454  1.00  0.00     0.000 HD 
BRANCH   6   8
HETATM    8  C   UNL     1     -11.145  11.103  67.472  1.00  0.00    -0.291 C  
HETATM    9  O   UNL     1     -12.171  10.962  68.421  1.00  0.00    -0.813 OA 
HETATM   10  H   UNL     1     -12.320  10.028  68.510  1.00  0.00     0.000 HD 
ENDBRANCH   6   8
ENDBRANCH   4   6
ENDBRANCH   2   4
TORSDOF 3
ENDMDL
MODEL       42
REMARK 921   NORMALIZED FREE ENERGY PREDICTED BY IDOCK:   -2.83 KCAL/MOL
REMARK 922        TOTAL FREE ENERGY PREDICTED BY IDOCK:   -3.35 KCAL/MOL
REMARK 923 INTER-LIGAND FREE ENERGY PREDICTED BY IDOCK:   -3.06 KCAL/MOL
REMARK 924 INTRA-LIGAND FREE ENERGY PREDICTED BY IDOCK:   -0.28 KCAL/MOL
REMARK 927      BINDING AFFINITY PREDICTED BY RF-SCORE:    0.00 PKD
ROOT
HETATM    1  C   UNL     1     -12.007  11.469  69.905  1.00  0.00    -0.351 C  
HETATM    2  N   UNL     1     -11.321  12.728  69.690  1.00  0.00    -0.478 N  
HETATM    3  H   UNL     1     -10.336  12.775  69.950  1.00  0.00     0.000 HD 
ENDROOT
BRANCH   2   4
HETATM    4  C   UNL     1     -11.886  13.858  69.168  1.00  0.00    -0.358 C  
HETATM    5  S   UNL     1     -11.631  14.457  67.631  1.00  0.00    -0.386 S  
BRANCH   4   6
HETATM    6  N   UNL     1     -12.748  14.531  69.979  1.00  0.00    -0.535 N  
HETATM    7  H   UNL     1     -13.744  14.422  69.782  1.00  0.00     0.000 HD 
BRANCH   6   8
HETATM    8  C   UNL     1     -12.399  15.376  71.080  1.00  0.00    -0.385 C  
HETATM    9  O   UNL     1     -11.120  14.968  71.492  1.00  0.00    -0.570 OA 
HETATM   10  H   UNL     1     -10.888  15.529  72.223  1.00  0.00     0.000 HD 
ENDBRANCH   6   8
ENDBRANCH   4   6
ENDBRANCH   2   4
TORSDOF 3
ENDMDL
MODEL       43
REMARK 921   NORMALIZED FREE ENERGY PREDICTED BY IDOCK:   -2.78 KCAL/MOL
REMARK 922        TOTAL FREE ENERGY PREDICTED BY IDOCK:   -3.29 KCAL/MOL
REMARK 923 INTER-LIGAND FREE ENERGY PREDICTED BY IDOCK:   -3.27 KCAL/MOL
REMARK 924 INTRA-LIGAND FREE ENERGY PREDICTED BY IDOCK:   -0.02 KCAL/MOL
REMARK 927      BINDING AFFINITY PREDICTED BY RF-SCORE:    0.00 PKD
ROOT
HETATM    1  C   UNL     1     -10.731  15.473  65.201  1.00  0.00    -0.440 C  
HETATM    2  N   UNL     1     -10.860  14.281  64.385  1.00  0.00    -0.612 N  
HETATM    3  H   UNL     1     -10.286  14.224  63.545  1.00  0.00     0.000 HD 
ENDROOT
BRANCH   2   4
HETATM    4  C   UNL     1     -11.689  13.226  64.651  1.00  0.00    -0.364 C  
HETATM    5  S   UNL     1     -12.326  12.176  63.521  1.00  0.00    -0.509 S  
BRANCH   4   6
HETATM    6  N   UNL     1     -11.994  13.015  65.961  1.00  0.00    -0.421 N  
HETATM    7  H   UNL     1     -12.883  13.393  66.292  1.00  0.00     0.000 HD 
BRANCH   6   8
HETATM    8  C   UNL     1     -11.195  12.316  66.922  1.00  0.00    -0.312 C  
HETATM    9  O   UNL     1     -12.100  11.672  67.783  1.00  0.00    -0.613 OA 
HETATM   10  H   UNL     1     -11.569  11.208  68.420  1.00  0.00     0.000 HD 
ENDBRANCH   6   8
ENDBRANCH   4   6
ENDBRANCH   2   4
TORSDOF 3
ENDMDL
MODEL       44
REMARK 921   NORMALIZED FREE ENERGY PREDICTED BY IDOCK:   -2.78 KCAL/MOL
REMARK 922        TOTAL FREE ENERGY PREDICTED BY IDOCK:   -3.29 KCAL/MOL
REMARK 923 INTER-LIGAND FREE ENERGY PREDICTED BY IDOCK:   -3.28 KCAL/MOL
REMARK 924 INTRA-LIGAND FREE ENERGY PREDICTED BY IDOCK:   -0.01 KCAL/MOL
REMARK 927      BINDING AFFINITY PREDICTED BY RF-SCORE:    0.00 PKD
ROOT
HETATM    1  C   UNL     1     -11.069   6.065  69.764  1.00  0.00    -0.406 C  
HETATM    2  N   UNL     1     -12.248   6.865  70.034  1.00  0.00    -0.591 N  
HETATM    3  H   UNL     1     -12.728   7.276  69.234  1.00  0.00     0.000 HD 
ENDROOT
BRANCH   2   4
HETATM    4  C   UNL     1     -12.769   7.114  71.273  1.00  0.00    -0.366 C  
HETATM    5  S   UNL     1     -14.314   7.661  71.592  1.00  0.00    -0.461 S  
BRANCH   4   6
HETATM    6  N   UNL     1     -11.949   6.868  72.332  1.00  0.00    -0.479 N  
HETATM    7  H   UNL     1     -11.991   5.931  72.737  1.00  0.00     0.000 HD 
BRANCH   6   8
HETATM    8  C   UNL     1     -11.035   7.789  72.936  1.00  0.00    -0.407 C  
HETATM    9  O   UNL     1     -10.698   7.239  74.184  1.00  0.00    -0.565 OA 
HETATM   10  H   UNL     1     -10.091   7.851  74.584  1.00  0.00     0.000 HD 
ENDBRANCH   6   8
ENDBRANCH   4   6
ENDBRANCH   2   4
TORSDOF 3
ENDMDL
MODEL       45
REMARK 921   NORMALIZED FREE ENERGY PREDICTED BY IDOCK:   -2.77 KCAL/MOL
REMARK 922        TOTAL FREE ENERGY PREDICTED BY IDOCK:   -3.28 KCAL/MOL
REMARK 923 INTER-LIGAND FREE ENERGY PREDICTED BY IDOCK:   -3.01 KCAL/MOL
REMARK 924 INTRA-LIGAND FREE ENERGY PREDICTED BY IDOCK:   -0.27 KCAL/MOL
REMARK 927      BINDING AFFINITY PREDICTED BY RF-SCORE:    0.00 PKD
ROOT
HETATM    1  C   UNL     1     -14.401   8.281  71.525  1.00  0.00    -0.428 C  
HETATM    2  N   UNL     1     -12.997   8.312  71.162  1.00  0.00    -0.505 N  
HETATM    3  H   UNL     1     -12.604   7.471  70.740  1.00  0.00     0.000 HD 
ENDROOT
BRANCH   2   4
HETATM    4  C   UNL     1     -12.157   9.376  71.339  1.00  0.00    -0.363 C  
HETATM    5  S   UNL     1     -12.499  10.964  70.956  1.00  0.00    -0.422 S  
BRANCH   4   6
HETATM    6  N   UNL     1     -10.947   9.102  71.900  1.00  0.00    -0.359 N  
HETATM    7  H   UNL     1     -10.267   9.863  71.918  1.00  0.00     0.000 HD 
BRANCH   6   8
HETATM    8  C   UNL     1     -10.531   7.854  72.466  1.00  0.00    -0.300 C  
HETATM    9  O   UNL     1     -11.485   7.538  73.447  1.00  0.00    -0.629 OA 
HETATM   10  H   UNL     1     -11.210   6.710  73.823  1.00  0.00     0.000 HD 
ENDBRANCH   6   8
ENDBRANCH   4   6
ENDBRANCH   2   4
TORSDOF 3
ENDMDL
MODEL       46
REMARK 921   NORMALIZED FREE ENERGY PREDICTED BY IDOCK:   -2.77 KCAL/MOL
REMARK 922        TOTAL FREE ENERGY PREDICTED BY IDOCK:   -3.27 KCAL/MOL
REMARK 923 INTER-LIGAND FREE ENERGY PREDICTED BY IDOCK:   -2.99 KCAL/MOL
REMARK 924 INTRA-LIGAND FREE ENERGY PREDICTED BY IDOCK:   -0.28 KCAL/MOL
REMARK 927      BINDING AFFINITY PREDICTED BY RF-SCORE:    0.00 PKD
ROOT
HETATM    1  C   UNL     1     -10.760  11.650  63.481  1.00  0.00    -0.428 C  
HETATM    2  N   UNL     1     -10.151  12.944  63.719  1.00  0.00    -0.542 N  
HETATM    3  H   UNL     1      -9.323  13.180  63.172  1.00  0.00     0.000 HD 
ENDROOT
BRANCH   2   4
HETATM    4  C   UNL     1     -10.595  13.875  64.616  1.00  0.00    -0.412 C  
HETATM    5  S   UNL     1     -12.136  14.514  64.678  1.00  0.00    -0.453 S  
BRANCH   4   6
HETATM    6  N   UNL     1      -9.695  14.290  65.550  1.00  0.00    -0.542 N  
HETATM    7  H   UNL     1      -9.300  15.223  65.422  1.00  0.00     0.000 HD 
BRANCH   6   8
HETATM    8  C   UNL     1      -9.247  13.552  66.692  1.00  0.00    -0.210 C  
HETATM    9  O   UNL     1      -8.635  12.392  66.187  1.00  0.00    -0.403 OA 
HETATM   10  H   UNL     1      -8.338  11.902  66.945  1.00  0.00     0.000 HD 
ENDBRANCH   6   8
ENDBRANCH   4   6
ENDBRANCH   2   4
TORSDOF 3
ENDMDL
MODEL       47
REMARK 921   NORMALIZED FREE ENERGY PREDICTED BY IDOCK:   -2.76 KCAL/MOL
REMARK 922        TOTAL FREE ENERGY PREDICTED BY IDOCK:   -3.27 KCAL/MOL
REMARK 923 INTER-LIGAND FREE ENERGY PREDICTED BY IDOCK:   -3.22 KCAL/MOL
REMARK 924 INTRA-LIGAND FREE ENERGY PREDICTED BY IDOCK:   -0.05 KCAL/MOL
REMARK 927      BINDING AFFINITY PREDICTED BY RF-SCORE:    0.00 PKD
ROOT
HETATM    1  C   UNL     1     -10.994   6.207  69.576  1.00  0.00    -0.393 C  
HETATM    2  N   UNL     1     -12.063   6.858  70.308  1.00  0.00    -0.627 N  
HETATM    3  H   UNL     1     -13.007   6.493  70.181  1.00  0.00     0.000 HD 
ENDROOT
BRANCH   2   4
HETATM    4  C   UNL     1     -11.910   7.921  71.153  1.00  0.00    -0.287 C  
HETATM    5  S   UNL     1     -11.202   7.873  72.664  1.00  0.00    -0.398 S  
BRANCH   4   6
HETATM    6  N   UNL     1     -12.362   9.123  70.699  1.00  0.00    -0.490 N  
HETATM    7  H   UNL     1     -13.350   9.328  70.850  1.00  0.00     0.000 HD 
BRANCH   6   8
HETATM    8  C   UNL     1     -11.591  10.127  70.032  1.00  0.00    -0.253 C  
HETATM    9  O   UNL     1     -12.409  10.624  69.003  1.00  0.00    -0.770 OA 
HETATM   10  H   UNL     1     -11.897  11.291  68.561  1.00  0.00     0.000 HD 
ENDBRANCH   6   8
ENDBRANCH   4   6
ENDBRANCH   2   4
TORSDOF 3
ENDMDL
MODEL       48
REMARK 921   NORMALIZED FREE ENERGY PREDICTED BY IDOCK:   -2.75 KCAL/MOL
REMARK 922        TOTAL FREE ENERGY PREDICTED BY IDOCK:   -3.25 KCAL/MOL
REMARK 923 INTER-LIGAND FREE ENERGY PREDICTED BY IDOCK:   -3.21 KCAL/MOL
REMARK 924 INTRA-LIGAND FREE ENERGY PREDICTED BY IDOCK:   -0.04 KCAL/MOL
REMARK 927      BINDING AFFINITY PREDICTED BY RF-SCORE:    0.00 PKD
ROOT
HETATM    1  C   UNL     1     -12.498  15.870  74.263  1.00  0.00    -0.633 C  
HETATM    2  N   UNL     1     -13.093  16.144  72.969  1.00  0.00    -0.457 N  
HETATM    3  H   UNL     1     -13.639  16.999  72.877  1.00  0.00     0.000 HD 
ENDROOT
BRANCH   2   4
HETATM    4  C   UNL     1     -12.982  15.348  71.863  1.00  0.00    -0.414 C  
HETATM    5  S   UNL     1     -11.874  15.539  70.630  1.00  0.00    -0.404 S  
BRANCH   4   6
HETATM    6  N   UNL     1     -13.846  14.298  71.786  1.00  0.00    -0.409 N  
HETATM    7  H   UNL     1     -14.721  14.460  71.285  1.00  0.00     0.000 HD 
BRANCH   6   8
HETATM    8  C   UNL     1     -13.652  12.991  72.337  1.00  0.00    -0.529 C  
HETATM    9  O   UNL     1     -12.989  12.248  71.346  1.00  0.00    -0.366 OA 
HETATM   10  H   UNL     1     -12.860  11.380  71.712  1.00  0.00     0.000 HD 
ENDBRANCH   6   8
ENDBRANCH   4   6
ENDBRANCH   2   4
TORSDOF 3
ENDMDL
MODEL       49
REMARK 921   NORMALIZED FREE ENERGY PREDICTED BY IDOCK:   -2.72 KCAL/MOL
REMARK 922        TOTAL FREE ENERGY PREDICTED BY IDOCK:   -3.21 KCAL/MOL
REMARK 923 INTER-LIGAND FREE ENERGY PREDICTED BY IDOCK:   -2.97 KCAL/MOL
REMARK 924 INTRA-LIGAND FREE ENERGY PREDICTED BY IDOCK:   -0.25 KCAL/MOL
REMARK 927      BINDING AFFINITY PREDICTED BY RF-SCORE:    0.00 PKD
ROOT
HETATM    1  C   UNL     1     -14.403   8.079  71.598  1.00  0.00    -0.473 C  
HETATM    2  N   UNL     1     -13.253   7.424  71.004  1.00  0.00    -0.604 N  
HETATM    3  H   UNL     1     -13.408   6.521  70.556  1.00  0.00     0.000 HD 
ENDROOT
BRANCH   2   4
HETATM    4  C   UNL     1     -11.979   7.917  70.997  1.00  0.00    -0.252 C  
HETATM    5  S   UNL     1     -11.538   9.490  71.340  1.00  0.00    -0.407 S  
BRANCH   4   6
HETATM    6  N   UNL     1     -10.990   7.028  70.703  1.00  0.00    -0.250 N  
HETATM    7  H   UNL     1     -10.126   7.108  71.240  1.00  0.00     0.000 HD 
BRANCH   6   8
HETATM    8  C   UNL     1     -11.040   5.992  69.716  1.00  0.00    -0.406 C  
HETATM    9  O   UNL     1     -11.459   6.611  68.526  1.00  0.00    -0.576 OA 
HETATM   10  H   UNL     1     -11.492   5.923  67.871  1.00  0.00     0.000 HD 
ENDBRANCH   6   8
ENDBRANCH   4   6
ENDBRANCH   2   4
TORSDOF 3
ENDMDL
MODEL       50
REMARK 921   NORMALIZED FREE ENERGY PREDICTED BY IDOCK:   -2.71 KCAL/MOL
REMARK 922        TOTAL FREE ENERGY PREDICTED BY IDOCK:   -3.21 KCAL/MOL
REMARK 923 INTER-LIGAND FREE ENERGY PREDICTED BY IDOCK:   -2.99 KCAL/MOL
REMARK 924 INTRA-LIGAND FREE ENERGY PREDICTED BY IDOCK:   -0.22 KCAL/MOL
REMARK 927      BINDING AFFINITY PREDICTED BY RF-SCORE:    0.00 PKD
ROOT
HETATM    1  C   UNL     1     -12.294  14.043  66.154  1.00  0.00    -0.458 C  
HETATM    2  N   UNL     1     -12.370  14.312  67.577  1.00  0.00    -0.587 N  
HETATM    3  H   UNL     1     -13.113  14.932  67.897  1.00  0.00     0.000 HD 
ENDROOT
BRANCH   2   4
HETATM    4  C   UNL     1     -11.525  13.805  68.524  1.00  0.00    -0.307 C  
HETATM    5  S   UNL     1     -10.394  12.602  68.280  1.00  0.00    -0.244 S  
BRANCH   4   6
HETATM    6  N   UNL     1     -11.613  14.355  69.767  1.00  0.00    -0.284 N  
HETATM    7  H   UNL     1     -10.775  14.815  70.125  1.00  0.00     0.000 HD 
BRANCH   6   8
HETATM    8  C   UNL     1     -12.761  14.351  70.622  1.00  0.00    -0.357 C  
HETATM    9  O   UNL     1     -13.499  15.498  70.284  1.00  0.00    -0.752 OA 
HETATM   10  H   UNL     1     -14.261  15.495  70.852  1.00  0.00     0.000 HD 
ENDBRANCH   6   8
ENDBRANCH   4   6
ENDBRANCH   2   4
TORSDOF 3
ENDMDL
MODEL       51
REMARK 921   NORMALIZED FREE ENERGY PREDICTED BY IDOCK:   -2.71 KCAL/MOL
REMARK 922        TOTAL FREE ENERGY PREDICTED BY IDOCK:   -3.21 KCAL/MOL
REMARK 923 INTER-LIGAND FREE ENERGY PREDICTED BY IDOCK:   -3.30 KCAL/MOL
REMARK 924 INTRA-LIGAND FREE ENERGY PREDICTED BY IDOCK:    0.09 KCAL/MOL
REMARK 927      BINDING AFFINITY PREDICTED BY RF-SCORE:    0.00 PKD
ROOT
HETATM    1  C   UNL     1     -12.584  12.191  63.403  1.00  0.00    -0.463 C  
HETATM    2  N   UNL     1     -11.455  11.362  63.029  1.00  0.00    -0.852 N  
HETATM    3  H   UNL     1     -11.606  10.667  62.298  1.00  0.00     0.000 HD 
ENDROOT
BRANCH   2   4
HETATM    4  C   UNL     1     -10.204  11.435  63.575  1.00  0.00    -0.413 C  
HETATM    5  S   UNL     1      -9.056  10.224  63.553  1.00  0.00    -0.285 S  
BRANCH   4   6
HETATM    6  N   UNL     1      -9.874  12.616  64.169  1.00  0.00    -0.612 N  
HETATM    7  H   UNL     1      -9.458  13.329  63.569  1.00  0.00     0.000 HD 
BRANCH   6   8
HETATM    8  C   UNL     1     -10.051  12.957  65.548  1.00  0.00    -0.257 C  
HETATM    9  O   UNL     1      -8.870  12.563  66.199  1.00  0.00    -0.419 OA 
HETATM   10  H   UNL     1      -8.987  12.790  67.114  1.00  0.00     0.000 HD 
ENDBRANCH   6   8
ENDBRANCH   4   6
ENDBRANCH   2   4
TORSDOF 3
ENDMDL
MODEL       52
REMARK 921   NORMALIZED FREE ENERGY PREDICTED BY IDOCK:   -2.69 KCAL/MOL
REMARK 922        TOTAL FREE ENERGY PREDICTED BY IDOCK:   -3.18 KCAL/MOL
REMARK 923 INTER-LIGAND FREE ENERGY PREDICTED BY IDOCK:   -2.94 KCAL/MOL
REMARK 924 INTRA-LIGAND FREE ENERGY PREDICTED BY IDOCK:   -0.25 KCAL/MOL
REMARK 927      BINDING AFFINITY PREDICTED BY RF-SCORE:    0.00 PKD
ROOT
HETATM    1  C   UNL     1     -11.506  12.926  67.764  1.00  0.00    -0.323 C  
HETATM    2  N   UNL     1     -12.108  13.631  68.880  1.00  0.00    -0.342 N  
HETATM    3  H   UNL     1     -12.571  14.517  68.679  1.00  0.00     0.000 HD 
ENDROOT
BRANCH   2   4
HETATM    4  C   UNL     1     -12.106  13.205  70.179  1.00  0.00    -0.321 C  
HETATM    5  S   UNL     1     -12.357  11.637  70.693  1.00  0.00    -0.291 S  
BRANCH   4   6
HETATM    6  N   UNL     1     -11.852  14.153  71.123  1.00  0.00    -0.492 N  
HETATM    7  H   UNL     1     -10.873  14.312  71.363  1.00  0.00     0.000 HD 
BRANCH   6   8
HETATM    8  C   UNL     1     -12.821  14.948  71.815  1.00  0.00    -0.330 C  
HETATM    9  O   UNL     1     -13.662  15.482  70.825  1.00  0.00    -0.838 OA 
HETATM   10  H   UNL     1     -14.305  16.010  71.284  1.00  0.00     0.000 HD 
ENDBRANCH   6   8
ENDBRANCH   4   6
ENDBRANCH   2   4
TORSDOF 3
ENDMDL
MODEL       53
REMARK 921   NORMALIZED FREE ENERGY PREDICTED BY IDOCK:   -2.67 KCAL/MOL
REMARK 922        TOTAL FREE ENERGY PREDICTED BY IDOCK:   -3.16 KCAL/MOL
REMARK 923 INTER-LIGAND FREE ENERGY PREDICTED BY IDOCK:   -2.90 KCAL/MOL
REMARK 924 INTRA-LIGAND FREE ENERGY PREDICTED BY IDOCK:   -0.26 KCAL/MOL
REMARK 927      BINDING AFFINITY PREDICTED BY RF-SCORE:    0.00 PKD
ROOT
HETATM    1  C   UNL     1     -13.214   9.896  71.733  1.00  0.00    -0.434 C  
HETATM    2  N   UNL     1     -12.806  10.432  70.449  1.00  0.00    -0.520 N  
HETATM    3  H   UNL     1     -13.123   9.940  69.614  1.00  0.00     0.000 HD 
ENDROOT
BRANCH   2   4
HETATM    4  C   UNL     1     -12.032  11.544  70.266  1.00  0.00    -0.368 C  
HETATM    5  S   UNL     1     -12.420  13.095  70.745  1.00  0.00    -0.238 S  
BRANCH   4   6
HETATM    6  N   UNL     1     -10.830  11.348  69.656  1.00  0.00    -0.456 N  
HETATM    7  H   UNL     1     -10.011  11.296  70.262  1.00  0.00     0.000 HD 
BRANCH   6   8
HETATM    8  C   UNL     1     -10.600  11.206  68.250  1.00  0.00    -0.190 C  
HETATM    9  O   UNL     1     -11.794  10.698  67.711  1.00  0.00    -0.699 OA 
HETATM   10  H   UNL     1     -11.641  10.605  66.778  1.00  0.00     0.000 HD 
ENDBRANCH   6   8
ENDBRANCH   4   6
ENDBRANCH   2   4
TORSDOF 3
ENDMDL
MODEL       54
REMARK 921   NORMALIZED FREE ENERGY PREDICTED BY IDOCK:   -2.66 KCAL/MOL
REMARK 922        TOTAL FREE ENERGY PREDICTED BY IDOCK:   -3.15 KCAL/MOL
REMARK 923 INTER-LIGAND FREE ENERGY PREDICTED BY IDOCK:   -2.90 KCAL/MOL
REMARK 924 INTRA-LIGAND FREE ENERGY PREDICTED BY IDOCK:   -0.24 KCAL/MOL
REMARK 927      BINDING AFFINITY PREDICTED BY RF-SCORE:    0.00 PKD
ROOT
HETATM    1  C   UNL     1     -12.015  13.462  66.009  1.00  0.00    -0.415 C  
HETATM    2  N   UNL     1     -12.395  13.913  67.334  1.00  0.00    -0.482 N  
HETATM    3  H   UNL     1     -13.175  14.567  67.401  1.00  0.00     0.000 HD 
ENDROOT
BRANCH   2   4
HETATM    4  C   UNL     1     -11.794  13.533  68.502  1.00  0.00    -0.362 C  
HETATM    5  S   UNL     1     -12.140  14.135  70.020  1.00  0.00    -0.363 S  
BRANCH   4   6
HETATM    6  N   UNL     1     -10.846  12.561  68.403  1.00  0.00    -0.233 N  
HETATM    7  H   UNL     1      -9.973  12.817  67.940  1.00  0.00     0.000 HD 
BRANCH   6   8
HETATM    8  C   UNL     1     -10.949  11.216  68.884  1.00  0.00    -0.225 C  
HETATM    9  O   UNL     1     -12.229  10.770  68.516  1.00  0.00    -0.824 OA 
HETATM   10  H   UNL     1     -12.297   9.878  68.834  1.00  0.00     0.000 HD 
ENDBRANCH   6   8
ENDBRANCH   4   6
ENDBRANCH   2   4
TORSDOF 3
ENDMDL
MODEL       55
REMARK 921   NORMALIZED FREE ENERGY PREDICTED BY IDOCK:   -2.65 KCAL/MOL
REMARK 922        TOTAL FREE ENERGY PREDICTED BY IDOCK:   -3.14 KCAL/MOL
REMARK 923 INTER-LIGAND FREE ENERGY PREDICTED BY IDOCK:   -3.10 KCAL/MOL
REMARK 924 INTRA-LIGAND FREE ENERGY PREDICTED BY IDOCK:   -0.04 KCAL/MOL
REMARK 927      BINDING AFFINITY PREDICTED BY RF-SCORE:    0.00 PKD
ROOT
HETATM    1  C   UNL     1     -12.442  14.367  70.036  1.00  0.00    -0.301 C  
HETATM    2  N   UNL     1     -12.170  14.105  68.636  1.00  0.00    -0.554 N  
HETATM    3  H   UNL     1     -12.173  14.902  68.000  1.00  0.00     0.000 HD 
ENDROOT
BRANCH   2   4
HETATM    4  C   UNL     1     -11.910  12.875  68.098  1.00  0.00    -0.336 C  
HETATM    5  S   UNL     1     -11.661  11.466  68.956  1.00  0.00    -0.347 S  
BRANCH   4   6
HETATM    6  N   UNL     1     -11.877  12.807  66.738  1.00  0.00    -0.395 N  
HETATM    7  H   UNL     1     -11.606  11.912  66.330  1.00  0.00     0.000 HD 
BRANCH   6   8
HETATM    8  C   UNL     1     -12.183  13.865  65.823  1.00  0.00    -0.460 C  
HETATM    9  O   UNL     1     -12.937  13.279  64.792  1.00  0.00    -0.710 OA 
HETATM   10  H   UNL     1     -13.141  13.981  64.185  1.00  0.00     0.000 HD 
ENDBRANCH   6   8
ENDBRANCH   4   6
ENDBRANCH   2   4
TORSDOF 3
ENDMDL
MODEL       56
REMARK 921   NORMALIZED FREE ENERGY PREDICTED BY IDOCK:   -2.64 KCAL/MOL
REMARK 922        TOTAL FREE ENERGY PREDICTED BY IDOCK:   -3.13 KCAL/MOL
REMARK 923 INTER-LIGAND FREE ENERGY PREDICTED BY IDOCK:   -3.08 KCAL/MOL
REMARK 924 INTRA-LIGAND FREE ENERGY PREDICTED BY IDOCK:   -0.04 KCAL/MOL
REMARK 927      BINDING AFFINITY PREDICTED BY RF-SCORE:    0.00 PKD
ROOT
HETATM    1  C   UNL     1     -14.265  14.949  71.592  1.00  0.00    -0.542 C  
HETATM    2  N   UNL     1     -13.013  14.224  71.688  1.00  0.00    -0.328 N  
HETATM    3  H   UNL     1     -12.573  14.168  72.606  1.00  0.00     0.000 HD 
ENDROOT
BRANCH   2   4
HETATM    4  C   UNL     1     -12.373  13.610  70.648  1.00  0.00    -0.368 C  
HETATM    5  S   UNL     1     -11.750  14.369  69.298  1.00  0.00    -0.337 S  
BRANCH   4   6
HETATM    6  N   UNL     1     -12.220  12.260  70.747  1.00  0.00    -0.439 N  
HETATM    7  H   UNL     1     -12.608  11.814  71.579  1.00  0.00     0.000 HD 
BRANCH   6   8
HETATM    8  C   UNL     1     -11.570  11.403  69.802  1.00  0.00    -0.332 C  
HETATM    9  O   UNL     1     -12.595  10.699  69.149  1.00  0.00    -0.734 OA 
HETATM   10  H   UNL     1     -12.164  10.130  68.521  1.00  0.00     0.000 HD 
ENDBRANCH   6   8
ENDBRANCH   4   6
ENDBRANCH   2   4
TORSDOF 3
ENDMDL
MODEL       57
REMARK 921   NORMALIZED FREE ENERGY PREDICTED BY IDOCK:   -2.63 KCAL/MOL
REMARK 922        TOTAL FREE ENERGY PREDICTED BY IDOCK:   -3.11 KCAL/MOL
REMARK 923 INTER-LIGAND FREE ENERGY PREDICTED BY IDOCK:   -2.81 KCAL/MOL
REMARK 924 INTRA-LIGAND FREE ENERGY PREDICTED BY IDOCK:   -0.30 KCAL/MOL
REMARK 927      BINDING AFFINITY PREDICTED BY RF-SCORE:    0.00 PKD
ROOT
HETATM    1  C   UNL     1     -10.309  15.313  65.564  1.00  0.00    -0.383 C  
HETATM    2  N   UNL     1     -10.325  13.935  66.018  1.00  0.00    -0.297 N  
HETATM    3  H   UNL     1      -9.444  13.540  66.346  1.00  0.00     0.000 HD 
ENDROOT
BRANCH   2   4
HETATM    4  C   UNL     1     -11.424  13.123  66.041  1.00  0.00    -0.335 C  
HETATM    5  S   UNL     1     -12.325  12.660  64.714  1.00  0.00    -0.471 S  
BRANCH   4   6
HETATM    6  N   UNL     1     -11.791  12.639  67.260  1.00  0.00    -0.364 N  
HETATM    7  H   UNL     1     -12.073  11.659  67.298  1.00  0.00     0.000 HD 
BRANCH   6   8
HETATM    8  C   UNL     1     -11.820  13.366  68.493  1.00  0.00    -0.366 C  
HETATM    9  O   UNL     1     -12.461  14.583  68.209  1.00  0.00    -0.592 OA 
HETATM   10  H   UNL     1     -12.481  15.066  69.028  1.00  0.00     0.000 HD 
ENDBRANCH   6   8
ENDBRANCH   4   6
ENDBRANCH   2   4
TORSDOF 3
ENDMDL
MODEL       58
REMARK 921   NORMALIZED FREE ENERGY PREDICTED BY IDOCK:   -2.62 KCAL/MOL
REMARK 922        TOTAL FREE ENERGY PREDICTED BY IDOCK:   -3.10 KCAL/MOL
REMARK 923 INTER-LIGAND FREE ENERGY PREDICTED BY IDOCK:   -3.06 KCAL/MOL
REMARK 924 INTRA-LIGAND FREE ENERGY PREDICTED BY IDOCK:   -0.04 KCAL/MOL
REMARK 927      BINDING AFFINITY PREDICTED BY RF-SCORE:    0.00 PKD
ROOT
HETATM    1  C   UNL     1     -10.440   3.569  63.665  1.00  0.00    -0.258 C  
HETATM    2  N   UNL     1     -11.149   4.228  64.745  1.00  0.00    -0.761 N  
HETATM    3  H   UNL     1     -12.158   4.336  64.645  1.00  0.00     0.000 HD 
ENDROOT
BRANCH   2   4
HETATM    4  C   UNL     1     -10.577   4.715  65.887  1.00  0.00    -0.223 C  
HETATM    5  S   UNL     1      -9.230   4.089  66.648  1.00  0.00    -0.176 S  
BRANCH   4   6
HETATM    6  N   UNL     1     -11.157   5.822  66.427  1.00  0.00    -0.767 N  
HETATM    7  H   UNL     1     -12.082   6.073  66.077  1.00  0.00     0.000 HD 
BRANCH   6   8
HETATM    8  C   UNL     1     -10.599   6.671  67.436  1.00  0.00    -0.301 C  
HETATM    9  O   UNL     1     -11.441   6.549  68.554  1.00  0.00    -0.575 OA 
HETATM   10  H   UNL     1     -11.071   7.112  69.224  1.00  0.00     0.000 HD 
ENDBRANCH   6   8
ENDBRANCH   4   6
ENDBRANCH   2   4
TORSDOF 3
ENDMDL
MODEL       59
REMARK 921   NORMALIZED FREE ENERGY PREDICTED BY IDOCK:   -2.62 KCAL/MOL
REMARK 922        TOTAL FREE ENERGY PREDICTED BY IDOCK:   -3.10 KCAL/MOL
REMARK 923 INTER-LIGAND FREE ENERGY PREDICTED BY IDOCK:   -2.97 KCAL/MOL
REMARK 924 INTRA-LIGAND FREE ENERGY PREDICTED BY IDOCK:   -0.14 KCAL/MOL
REMARK 927      BINDING AFFINITY PREDICTED BY RF-SCORE:    0.00 PKD
ROOT
HETATM    1  C   UNL     1     -11.825  11.643  69.718  1.00  0.00    -0.357 C  
HETATM    2  N   UNL     1     -11.147  12.906  69.495  1.00  0.00    -0.458 N  
HETATM    3  H   UNL     1     -10.144  12.937  69.675  1.00  0.00     0.000 HD 
ENDROOT
BRANCH   2   4
HETATM    4  C   UNL     1     -11.743  14.057  69.063  1.00  0.00    -0.330 C  
HETATM    5  S   UNL     1     -11.639  15.549  69.805  1.00  0.00    -0.362 S  
BRANCH   4   6
HETATM    6  N   UNL     1     -12.465  13.968  67.912  1.00  0.00    -0.416 N  
HETATM    7  H   UNL     1     -13.459  14.188  67.975  1.00  0.00     0.000 HD 
BRANCH   6   8
HETATM    8  C   UNL     1     -11.969  13.596  66.621  1.00  0.00    -0.415 C  
HETATM    9  O   UNL     1     -12.114  12.201  66.538  1.00  0.00    -0.627 OA 
HETATM   10  H   UNL     1     -11.786  11.954  65.681  1.00  0.00     0.000 HD 
ENDBRANCH   6   8
ENDBRANCH   4   6
ENDBRANCH   2   4
TORSDOF 3
ENDMDL
MODEL       60
REMARK 921   NORMALIZED FREE ENERGY PREDICTED BY IDOCK:   -2.61 KCAL/MOL
REMARK 922        TOTAL FREE ENERGY PREDICTED BY IDOCK:   -3.09 KCAL/MOL
REMARK 923 INTER-LIGAND FREE ENERGY PREDICTED BY IDOCK:   -3.04 KCAL/MOL
REMARK 924 INTRA-LIGAND FREE ENERGY PREDICTED BY IDOCK:   -0.05 KCAL/MOL
REMARK 927      BINDING AFFINITY PREDICTED BY RF-SCORE:    0.00 PKD
ROOT
HETATM    1  C   UNL     1      -8.113  14.522  67.138  1.00  0.00    -0.168 C  
HETATM    2  N   UNL     1      -9.302  14.659  66.318  1.00  0.00    -0.405 N  
HETATM    3  H   UNL     1      -9.184  14.590  65.308  1.00  0.00     0.000 HD 
ENDROOT
BRANCH   2   4
HETATM    4  C   UNL     1     -10.567  14.874  66.789  1.00  0.00    -0.305 C  
HETATM    5  S   UNL     1     -11.060  14.711  68.375  1.00  0.00    -0.270 S  
BRANCH   4   6
HETATM    6  N   UNL     1     -11.491  15.278  65.873  1.00  0.00    -0.175 N  
HETATM    7  H   UNL     1     -12.337  15.716  66.238  1.00  0.00     0.000 HD 
BRANCH   6   8
HETATM    8  C   UNL     1     -11.394  15.149  64.451  1.00  0.00    -0.203 C  
HETATM    9  O   UNL     1     -11.332  16.459  63.947  1.00  0.00    -1.510 OA 
HETATM   10  H   UNL     1     -11.268  16.373  63.002  1.00  0.00     0.000 HD 
ENDBRANCH   6   8
ENDBRANCH   4   6
ENDBRANCH   2   4
TORSDOF 3
ENDMDL
MODEL       61
REMARK 921   NORMALIZED FREE ENERGY PREDICTED BY IDOCK:   -2.61 KCAL/MOL
REMARK 922        TOTAL FREE ENERGY PREDICTED BY IDOCK:   -3.09 KCAL/MOL
REMARK 923 INTER-LIGAND FREE ENERGY PREDICTED BY IDOCK:   -2.89 KCAL/MOL
REMARK 924 INTRA-LIGAND FREE ENERGY PREDICTED BY IDOCK:   -0.20 KCAL/MOL
REMARK 927      BINDING AFFINITY PREDICTED BY RF-SCORE:    0.00 PKD
ROOT
HETATM    1  C   UNL     1     -10.695  19.780  65.747  1.00  0.00    -0.370 C  
HETATM    2  N   UNL     1      -9.576  20.522  66.298  1.00  0.00    -0.657 N  
HETATM    3  H   UNL     1      -9.637  21.539  66.283  1.00  0.00     0.000 HD 
ENDROOT
BRANCH   2   4
HETATM    4  C   UNL     1      -8.448  19.968  66.835  1.00  0.00    -0.328 C  
HETATM    5  S   UNL     1      -7.069  19.551  65.993  1.00  0.00    -0.293 S  
BRANCH   4   6
HETATM    6  N   UNL     1      -8.458  19.766  68.182  1.00  0.00    -0.309 N  
HETATM    7  H   UNL     1      -7.719  20.221  68.719  1.00  0.00     0.000 HD 
BRANCH   6   8
HETATM    8  C   UNL     1      -9.400  18.979  68.919  1.00  0.00    -0.314 C  
HETATM    9  O   UNL     1     -10.439  19.854  69.277  1.00  0.00    -0.617 OA 
HETATM   10  H   UNL     1     -11.064  19.332  69.766  1.00  0.00     0.000 HD 
ENDBRANCH   6   8
ENDBRANCH   4   6
ENDBRANCH   2   4
TORSDOF 3
ENDMDL
MODEL       62
REMARK 921   NORMALIZED FREE ENERGY PREDICTED BY IDOCK:   -2.60 KCAL/MOL
REMARK 922        TOTAL FREE ENERGY PREDICTED BY IDOCK:   -3.08 KCAL/MOL
REMARK 923 INTER-LIGAND FREE ENERGY PREDICTED BY IDOCK:   -2.86 KCAL/MOL
REMARK 924 INTRA-LIGAND FREE ENERGY PREDICTED BY IDOCK:   -0.22 KCAL/MOL
REMARK 927      BINDING AFFINITY PREDICTED BY RF-SCORE:    0.00 PKD
ROOT
HETATM    1  C   UNL     1      -9.498   9.659  69.882  1.00  0.00    -0.231 C  
HETATM    2  N   UNL     1     -10.654  10.246  70.532  1.00  0.00    -0.421 N  
HETATM    3  H   UNL     1     -10.672  10.240  71.551  1.00  0.00     0.000 HD 
ENDROOT
BRANCH   2   4
HETATM    4  C   UNL     1     -11.722  10.807  69.890  1.00  0.00    -0.333 C  
HETATM    5  S   UNL     1     -11.660  12.104  68.840  1.00  0.00    -0.344 S  
BRANCH   4   6
HETATM    6  N   UNL     1     -12.935  10.232  70.120  1.00  0.00    -0.549 N  
HETATM    7  H   UNL     1     -13.596  10.229  69.343  1.00  0.00     0.000 HD 
BRANCH   6   8
HETATM    8  C   UNL     1     -13.376   9.632  71.343  1.00  0.00    -0.368 C  
HETATM    9  O   UNL     1     -13.385  10.661  72.299  1.00  0.00    -0.616 OA 
HETATM   10  H   UNL     1     -13.678  10.262  73.110  1.00  0.00     0.000 HD 
ENDBRANCH   6   8
ENDBRANCH   4   6
ENDBRANCH   2   4
TORSDOF 3
ENDMDL
MODEL       63
REMARK 921   NORMALIZED FREE ENERGY PREDICTED BY IDOCK:   -2.57 KCAL/MOL
REMARK 922        TOTAL FREE ENERGY PREDICTED BY IDOCK:   -3.04 KCAL/MOL
REMARK 923 INTER-LIGAND FREE ENERGY PREDICTED BY IDOCK:   -2.97 KCAL/MOL
REMARK 924 INTRA-LIGAND FREE ENERGY PREDICTED BY IDOCK:   -0.08 KCAL/MOL
REMARK 927      BINDING AFFINITY PREDICTED BY RF-SCORE:    0.00 PKD
ROOT
HETATM    1  C   UNL     1     -11.942  13.203  63.537  1.00  0.00    -0.513 C  
HETATM    2  N   UNL     1     -11.706  12.205  64.563  1.00  0.00    -0.348 N  
HETATM    3  H   UNL     1     -11.526  11.250  64.254  1.00  0.00     0.000 HD 
ENDROOT
BRANCH   2   4
HETATM    4  C   UNL     1     -11.705  12.439  65.909  1.00  0.00    -0.419 C  
HETATM    5  S   UNL     1     -11.084  11.421  67.077  1.00  0.00    -0.282 S  
BRANCH   4   6
HETATM    6  N   UNL     1     -12.242  13.623  66.316  1.00  0.00    -0.438 N  
HETATM    7  H   UNL     1     -13.186  13.834  65.991  1.00  0.00     0.000 HD 
BRANCH   6   8
HETATM    8  C   UNL     1     -11.616  14.601  67.153  1.00  0.00    -0.378 C  
HETATM    9  O   UNL     1     -12.424  14.705  68.298  1.00  0.00    -0.589 OA 
HETATM   10  H   UNL     1     -12.008  15.354  68.853  1.00  0.00     0.000 HD 
ENDBRANCH   6   8
ENDBRANCH   4   6
ENDBRANCH   2   4
TORSDOF 3
ENDMDL
MODEL       64
REMARK 921   NORMALIZED FREE ENERGY PREDICTED BY IDOCK:   -2.56 KCAL/MOL
REMARK 922        TOTAL FREE ENERGY PREDICTED BY IDOCK:   -3.03 KCAL/MOL
REMARK 923 INTER-LIGAND FREE ENERGY PREDICTED BY IDOCK:   -3.01 KCAL/MOL
REMARK 924 INTRA-LIGAND FREE ENERGY PREDICTED BY IDOCK:   -0.02 KCAL/MOL
REMARK 927      BINDING AFFINITY PREDICTED BY RF-SCORE:    0.00 PKD
ROOT
HETATM    1  C   UNL     1     -12.602  15.190  71.103  1.00  0.00    -0.367 C  
HETATM    2  N   UNL     1     -12.644  15.358  69.663  1.00  0.00    -0.617 N  
HETATM    3  H   UNL     1     -13.413  15.906  69.277  1.00  0.00     0.000 HD 
ENDROOT
BRANCH   2   4
HETATM    4  C   UNL     1     -11.737  14.842  68.779  1.00  0.00    -0.325 C  
HETATM    5  S   UNL     1     -10.108  15.202  68.730  1.00  0.00    -0.234 S  
BRANCH   4   6
HETATM    6  N   UNL     1     -12.218  13.940  67.880  1.00  0.00    -0.483 N  
HETATM    7  H   UNL     1     -13.117  14.158  67.447  1.00  0.00     0.000 HD 
BRANCH   6   8
HETATM    8  C   UNL     1     -11.591  12.717  67.480  1.00  0.00    -0.359 C  
HETATM    9  O   UNL     1     -12.227  12.327  66.289  1.00  0.00    -0.628 OA 
HETATM   10  H   UNL     1     -11.810  11.515  66.024  1.00  0.00     0.000 HD 
ENDBRANCH   6   8
ENDBRANCH   4   6
ENDBRANCH   2   4
TORSDOF 3
ENDMDL
MODEL       65
REMARK 921   NORMALIZED FREE ENERGY PREDICTED BY IDOCK:   -2.56 KCAL/MOL
REMARK 922        TOTAL FREE ENERGY PREDICTED BY IDOCK:   -3.03 KCAL/MOL
REMARK 923 INTER-LIGAND FREE ENERGY PREDICTED BY IDOCK:   -2.95 KCAL/MOL
REMARK 924 INTRA-LIGAND FREE ENERGY PREDICTED BY IDOCK:   -0.08 KCAL/MOL
REMARK 927      BINDING AFFINITY PREDICTED BY RF-SCORE:    0.00 PKD
ROOT
HETATM    1  C   UNL     1     -10.567  16.112  68.735  1.00  0.00    -0.279 C  
HETATM    2  N   UNL     1     -10.531  17.518  69.090  1.00  0.00    -0.392 N  
HETATM    3  H   UNL     1     -10.911  17.781  69.999  1.00  0.00     0.000 HD 
ENDROOT
BRANCH   2   4
HETATM    4  C   UNL     1     -10.030  18.519  68.306  1.00  0.00    -0.376 C  
HETATM    5  S   UNL     1      -8.448  19.052  68.293  1.00  0.00    -0.342 S  
BRANCH   4   6
HETATM    6  N   UNL     1     -10.908  19.110  67.449  1.00  0.00    -0.481 N  
HETATM    7  H   UNL     1     -11.859  19.251  67.791  1.00  0.00     0.000 HD 
BRANCH   6   8
HETATM    8  C   UNL     1     -10.632  19.554  66.116  1.00  0.00    -0.487 C  
HETATM    9  O   UNL     1     -10.691  18.407  65.306  1.00  0.00    -0.594 OA 
HETATM   10  H   UNL     1     -10.508  18.702  64.421  1.00  0.00     0.000 HD 
ENDBRANCH   6   8
ENDBRANCH   4   6
ENDBRANCH   2   4
TORSDOF 3
ENDMDL
MODEL       66
REMARK 921   NORMALIZED FREE ENERGY PREDICTED BY IDOCK:   -2.54 KCAL/MOL
REMARK 922        TOTAL FREE ENERGY PREDICTED BY IDOCK:   -3.01 KCAL/MOL
REMARK 923 INTER-LIGAND FREE ENERGY PREDICTED BY IDOCK:   -2.79 KCAL/MOL
REMARK 924 INTRA-LIGAND FREE ENERGY PREDICTED BY IDOCK:   -0.22 KCAL/MOL
REMARK 927      BINDING AFFINITY PREDICTED BY RF-SCORE:    0.00 PKD
ROOT
HETATM    1  C   UNL     1     -10.022  19.029  68.471  1.00  0.00    -0.421 C  
HETATM    2  N   UNL     1     -10.444  17.654  68.291  1.00  0.00    -0.380 N  
HETATM    3  H   UNL     1     -10.939  17.424  67.430  1.00  0.00     0.000 HD 
ENDROOT
BRANCH   2   4
HETATM    4  C   UNL     1     -10.234  16.639  69.183  1.00  0.00    -0.309 C  
HETATM    5  S   UNL     1      -8.930  15.596  69.186  1.00  0.00    -0.268 S  
BRANCH   4   6
HETATM    6  N   UNL     1     -11.169  16.493  70.162  1.00  0.00    -0.456 N  
HETATM    7  H   UNL     1     -11.068  17.089  70.985  1.00  0.00     0.000 HD 
BRANCH   6   8
HETATM    8  C   UNL     1     -12.278  15.588  70.154  1.00  0.00    -0.376 C  
HETATM    9  O   UNL     1     -12.430  15.173  68.821  1.00  0.00    -0.583 OA 
HETATM   10  H   UNL     1     -13.167  14.572  68.816  1.00  0.00     0.000 HD 
ENDBRANCH   6   8
ENDBRANCH   4   6
ENDBRANCH   2   4
TORSDOF 3
ENDMDL
MODEL       67
REMARK 921   NORMALIZED FREE ENERGY PREDICTED BY IDOCK:   -2.51 KCAL/MOL
REMARK 922        TOTAL FREE ENERGY PREDICTED BY IDOCK:   -2.98 KCAL/MOL
REMARK 923 INTER-LIGAND FREE ENERGY PREDICTED BY IDOCK:   -2.77 KCAL/MOL
REMARK 924 INTRA-LIGAND FREE ENERGY PREDICTED BY IDOCK:   -0.20 KCAL/MOL
REMARK 927      BINDING AFFINITY PREDICTED BY RF-SCORE:    0.00 PKD
ROOT
HETATM    1  C   UNL     1     -14.304   7.374  71.835  1.00  0.00    -0.373 C  
HETATM    2  N   UNL     1     -13.181   7.366  70.917  1.00  0.00    -0.603 N  
HETATM    3  H   UNL     1     -13.247   7.961  70.092  1.00  0.00     0.000 HD 
ENDROOT
BRANCH   2   4
HETATM    4  C   UNL     1     -12.041   6.626  71.067  1.00  0.00    -0.327 C  
HETATM    5  S   UNL     1     -10.817   6.479  69.942  1.00  0.00    -0.318 S  
BRANCH   4   6
HETATM    6  N   UNL     1     -11.898   5.974  72.254  1.00  0.00    -0.385 N  
HETATM    7  H   UNL     1     -12.544   5.206  72.437  1.00  0.00     0.000 HD 
BRANCH   6   8
HETATM    8  C   UNL     1     -10.932   6.258  73.272  1.00  0.00    -0.194 C  
HETATM    9  O   UNL     1     -11.159   7.590  73.660  1.00  0.00    -0.573 OA 
HETATM   10  H   UNL     1     -10.518   7.778  74.336  1.00  0.00     0.000 HD 
ENDBRANCH   6   8
ENDBRANCH   4   6
ENDBRANCH   2   4
TORSDOF 3
ENDMDL
MODEL       68
REMARK 921   NORMALIZED FREE ENERGY PREDICTED BY IDOCK:   -2.50 KCAL/MOL
REMARK 922        TOTAL FREE ENERGY PREDICTED BY IDOCK:   -2.96 KCAL/MOL
REMARK 923 INTER-LIGAND FREE ENERGY PREDICTED BY IDOCK:   -2.70 KCAL/MOL
REMARK 924 INTRA-LIGAND FREE ENERGY PREDICTED BY IDOCK:   -0.27 KCAL/MOL
REMARK 927      BINDING AFFINITY PREDICTED BY RF-SCORE:    0.00 PKD
ROOT
HETATM    1  C   UNL     1     -10.394  19.513  67.907  1.00  0.00    -0.444 C  
HETATM    2  N   UNL     1     -10.039  18.240  68.505  1.00  0.00    -0.388 N  
HETATM    3  H   UNL     1      -9.372  18.255  69.276  1.00  0.00     0.000 HD 
ENDROOT
BRANCH   2   4
HETATM    4  C   UNL     1     -10.525  17.022  68.120  1.00  0.00    -0.357 C  
HETATM    5  S   UNL     1     -11.176  15.866  69.132  1.00  0.00    -0.357 S  
BRANCH   4   6
HETATM    6  N   UNL     1     -10.488  16.753  66.785  1.00  0.00    -0.288 N  
HETATM    7  H   UNL     1     -11.322  16.988  66.246  1.00  0.00     0.000 HD 
BRANCH   6   8
HETATM    8  C   UNL     1      -9.397  16.172  66.063  1.00  0.00    -0.333 C  
HETATM    9  O   UNL     1      -8.451  17.198  65.899  1.00  0.00    -0.529 OA 
HETATM   10  H   UNL     1      -7.727  16.812  65.419  1.00  0.00     0.000 HD 
ENDBRANCH   6   8
ENDBRANCH   4   6
ENDBRANCH   2   4
TORSDOF 3
ENDMDL
MODEL       69
REMARK 921   NORMALIZED FREE ENERGY PREDICTED BY IDOCK:   -2.49 KCAL/MOL
REMARK 922        TOTAL FREE ENERGY PREDICTED BY IDOCK:   -2.95 KCAL/MOL
REMARK 923 INTER-LIGAND FREE ENERGY PREDICTED BY IDOCK:   -2.66 KCAL/MOL
REMARK 924 INTRA-LIGAND FREE ENERGY PREDICTED BY IDOCK:   -0.29 KCAL/MOL
REMARK 927      BINDING AFFINITY PREDICTED BY RF-SCORE:    0.00 PKD
ROOT
HETATM    1  C   UNL     1      -8.253  17.013  66.678  1.00  0.00    -0.260 C  
HETATM    2  N   UNL     1      -8.121  18.422  66.996  1.00  0.00    -0.226 N  
HETATM    3  H   UNL     1      -7.503  18.672  67.767  1.00  0.00     0.000 HD 
ENDROOT
BRANCH   2   4
HETATM    4  C   UNL     1      -8.758  19.442  66.347  1.00  0.00    -0.355 C  
HETATM    5  S   UNL     1     -10.409  19.674  66.274  1.00  0.00    -0.540 S  
BRANCH   4   6
HETATM    6  N   UNL     1      -7.959  20.355  65.728  1.00  0.00    -0.533 N  
HETATM    7  H   UNL     1      -8.399  21.229  65.440  1.00  0.00     0.000 HD 
BRANCH   6   8
HETATM    8  C   UNL     1      -6.564  20.211  65.440  1.00  0.00    -0.283 C  
HETATM    9  O   UNL     1      -6.461  19.123  64.557  1.00  0.00    -0.459 OA 
HETATM   10  H   UNL     1      -5.534  19.029  64.366  1.00  0.00     0.000 HD 
ENDBRANCH   6   8
ENDBRANCH   4   6
ENDBRANCH   2   4
TORSDOF 3
ENDMDL
MODEL       70
REMARK 921   NORMALIZED FREE ENERGY PREDICTED BY IDOCK:   -2.48 KCAL/MOL
REMARK 922        TOTAL FREE ENERGY PREDICTED BY IDOCK:   -2.93 KCAL/MOL
REMARK 923 INTER-LIGAND FREE ENERGY PREDICTED BY IDOCK:   -2.85 KCAL/MOL
REMARK 924 INTRA-LIGAND FREE ENERGY PREDICTED BY IDOCK:   -0.08 KCAL/MOL
REMARK 927      BINDING AFFINITY PREDICTED BY RF-SCORE:    0.00 PKD
ROOT
HETATM    1  C   UNL     1     -11.376  15.310  67.935  1.00  0.00    -0.334 C  
HETATM    2  N   UNL     1     -12.251  14.350  67.290  1.00  0.00    -0.608 N  
HETATM    3  H   UNL     1     -13.120  14.113  67.768  1.00  0.00     0.000 HD 
ENDROOT
BRANCH   2   4
HETATM    4  C   UNL     1     -12.007  13.736  66.093  1.00  0.00    -0.418 C  
HETATM    5  S   UNL     1     -12.152  14.440  64.587  1.00  0.00    -0.469 S  
BRANCH   4   6
HETATM    6  N   UNL     1     -11.587  12.442  66.154  1.00  0.00    -0.380 N  
HETATM    7  H   UNL     1     -12.260  11.728  65.873  1.00  0.00     0.000 HD 
BRANCH   6   8
HETATM    8  C   UNL     1     -10.298  11.981  66.572  1.00  0.00    -0.210 C  
HETATM    9  O   UNL     1      -9.390  12.440  65.603  1.00  0.00    -0.430 OA 
HETATM   10  H   UNL     1      -8.534  12.134  65.881  1.00  0.00     0.000 HD 
ENDBRANCH   6   8
ENDBRANCH   4   6
ENDBRANCH   2   4
TORSDOF 3
ENDMDL
MODEL       71
REMARK 921   NORMALIZED FREE ENERGY PREDICTED BY IDOCK:   -2.42 KCAL/MOL
REMARK 922        TOTAL FREE ENERGY PREDICTED BY IDOCK:   -2.87 KCAL/MOL
REMARK 923 INTER-LIGAND FREE ENERGY PREDICTED BY IDOCK:   -2.66 KCAL/MOL
REMARK 924 INTRA-LIGAND FREE ENERGY PREDICTED BY IDOCK:   -0.21 KCAL/MOL
REMARK 927      BINDING AFFINITY PREDICTED BY RF-SCORE:    0.00 PKD
ROOT
HETATM    1  C   UNL     1     -11.617  11.072  68.766  1.00  0.00    -0.318 C  
HETATM    2  N   UNL     1     -11.749   9.915  69.631  1.00  0.00    -0.456 N  
HETATM    3  H   UNL     1     -12.629   9.803  70.132  1.00  0.00     0.000 HD 
ENDROOT
BRANCH   2   4
HETATM    4  C   UNL     1     -10.789   8.962  69.829  1.00  0.00    -0.200 C  
HETATM    5  S   UNL     1      -9.257   9.230  70.436  1.00  0.00    -0.262 S  
BRANCH   4   6
HETATM    6  N   UNL     1     -11.136   7.683  69.519  1.00  0.00    -0.443 N  
HETATM    7  H   UNL     1     -10.986   7.388  68.553  1.00  0.00     0.000 HD 
BRANCH   6   8
HETATM    8  C   UNL     1     -11.691   6.709  70.410  1.00  0.00    -0.386 C  
HETATM    9  O   UNL     1     -13.000   7.139  70.686  1.00  0.00    -0.597 OA 
HETATM   10  H   UNL     1     -13.368   6.492  71.278  1.00  0.00     0.000 HD 
ENDBRANCH   6   8
ENDBRANCH   4   6
ENDBRANCH   2   4
TORSDOF 3
ENDMDL
MODEL       72
REMARK 921   NORMALIZED FREE ENERGY PREDICTED BY IDOCK:   -2.41 KCAL/MOL
REMARK 922        TOTAL FREE ENERGY PREDICTED BY IDOCK:   -2.86 KCAL/MOL
REMARK 923 INTER-LIGAND FREE ENERGY PREDICTED BY IDOCK:   -2.82 KCAL/MOL
REMARK 924 INTRA-LIGAND FREE ENERGY PREDICTED BY IDOCK:   -0.03 KCAL/MOL
REMARK 927      BINDING AFFINITY PREDICTED BY RF-SCORE:    0.00 PKD
ROOT
HETATM    1  C   UNL     1      -8.893  13.477  67.973  1.00  0.00    -0.181 C  
HETATM    2  N   UNL     1     -10.169  13.333  68.646  1.00  0.00    -0.355 N  
HETATM    3  H   UNL     1     -10.176  12.841  69.538  1.00  0.00     0.000 HD 
ENDROOT
BRANCH   2   4
HETATM    4  C   UNL     1     -11.366  13.804  68.181  1.00  0.00    -0.284 C  
HETATM    5  S   UNL     1     -11.739  14.116  66.584  1.00  0.00    -0.419 S  
BRANCH   4   6
HETATM    6  N   UNL     1     -12.336  14.011  69.114  1.00  0.00    -0.486 N  
HETATM    7  H   UNL     1     -13.224  13.530  68.967  1.00  0.00     0.000 HD 
BRANCH   6   8
HETATM    8  C   UNL     1     -12.236  14.835  70.280  1.00  0.00    -0.338 C  
HETATM    9  O   UNL     1     -13.374  15.658  70.271  1.00  0.00    -0.761 OA 
HETATM   10  H   UNL     1     -13.308  16.205  71.046  1.00  0.00     0.000 HD 
ENDBRANCH   6   8
ENDBRANCH   4   6
ENDBRANCH   2   4
TORSDOF 3
ENDMDL
MODEL       73
REMARK 921   NORMALIZED FREE ENERGY PREDICTED BY IDOCK:   -2.41 KCAL/MOL
REMARK 922        TOTAL FREE ENERGY PREDICTED BY IDOCK:   -2.85 KCAL/MOL
REMARK 923 INTER-LIGAND FREE ENERGY PREDICTED BY IDOCK:   -2.56 KCAL/MOL
REMARK 924 INTRA-LIGAND FREE ENERGY PREDICTED BY IDOCK:   -0.29 KCAL/MOL
REMARK 927      BINDING AFFINITY PREDICTED BY RF-SCORE:    0.00 PKD
ROOT
HETATM    1  C   UNL     1     -14.009   8.679  71.988  1.00  0.00    -0.446 C  
HETATM    2  N   UNL     1     -12.567   8.768  71.864  1.00  0.00    -0.346 N  
HETATM    3  H   UNL     1     -12.006   8.258  72.545  1.00  0.00     0.000 HD 
ENDROOT
BRANCH   2   4
HETATM    4  C   UNL     1     -11.898   9.481  70.908  1.00  0.00    -0.309 C  
HETATM    5  S   UNL     1     -12.137  11.093  70.546  1.00  0.00    -0.394 S  
BRANCH   4   6
HETATM    6  N   UNL     1     -10.940   8.807  70.213  1.00  0.00    -0.239 N  
HETATM    7  H   UNL     1     -10.385   9.351  69.552  1.00  0.00     0.000 HD 
BRANCH   6   8
HETATM    8  C   UNL     1     -10.634   7.412  70.316  1.00  0.00    -0.231 C  
HETATM    9  O   UNL     1     -11.730   6.733  69.758  1.00  0.00    -0.595 OA 
HETATM   10  H   UNL     1     -11.526   5.807  69.826  1.00  0.00     0.000 HD 
ENDBRANCH   6   8
ENDBRANCH   4   6
ENDBRANCH   2   4
TORSDOF 3
ENDMDL
MODEL       74
REMARK 921   NORMALIZED FREE ENERGY PREDICTED BY IDOCK:   -2.41 KCAL/MOL
REMARK 922        TOTAL FREE ENERGY PREDICTED BY IDOCK:   -2.85 KCAL/MOL
REMARK 923 INTER-LIGAND FREE ENERGY PREDICTED BY IDOCK:   -2.70 KCAL/MOL
REMARK 924 INTRA-LIGAND FREE ENERGY PREDICTED BY IDOCK:   -0.16 KCAL/MOL
REMARK 927      BINDING AFFINITY PREDICTED BY RF-SCORE:    0.00 PKD
ROOT
HETATM    1  C   UNL     1     -12.196  14.193  64.117  1.00  0.00    -0.390 C  
HETATM    2  N   UNL     1     -12.770  13.530  65.273  1.00  0.00    -0.657 N  
HETATM    3  H   UNL     1     -13.733  13.206  65.197  1.00  0.00     0.000 HD 
ENDROOT
BRANCH   2   4
HETATM    4  C   UNL     1     -12.124  13.305  66.457  1.00  0.00    -0.375 C  
HETATM    5  S   UNL     1     -11.987  14.391  67.717  1.00  0.00    -0.278 S  
BRANCH   4   6
HETATM    6  N   UNL     1     -11.567  12.072  66.614  1.00  0.00    -0.349 N  
HETATM    7  H   UNL     1     -12.171  11.341  66.991  1.00  0.00     0.000 HD 
BRANCH   6   8
HETATM    8  C   UNL     1     -10.220  11.699  66.305  1.00  0.00    -0.227 C  
HETATM    9  O   UNL     1      -9.605  12.855  65.796  1.00  0.00    -0.422 OA 
HETATM   10  H   UNL     1      -8.710  12.607  65.591  1.00  0.00     0.000 HD 
ENDBRANCH   6   8
ENDBRANCH   4   6
ENDBRANCH   2   4
TORSDOF 3
ENDMDL
MODEL       75
REMARK 921   NORMALIZED FREE ENERGY PREDICTED BY IDOCK:   -2.40 KCAL/MOL
REMARK 922        TOTAL FREE ENERGY PREDICTED BY IDOCK:   -2.84 KCAL/MOL
REMARK 923 INTER-LIGAND FREE ENERGY PREDICTED BY IDOCK:   -2.55 KCAL/MOL
REMARK 924 INTRA-LIGAND FREE ENERGY PREDICTED BY IDOCK:   -0.29 KCAL/MOL
REMARK 927      BINDING AFFINITY PREDICTED BY RF-SCORE:    0.00 PKD
ROOT
HETATM    1  C   UNL     1     -11.096  12.455  63.526  1.00  0.00    -0.458 C  
HETATM    2  N   UNL     1     -10.037  12.849  64.435  1.00  0.00    -0.594 N  
HETATM    3  H   UNL     1      -9.244  13.354  64.040  1.00  0.00     0.000 HD 
ENDROOT
BRANCH   2   4
HETATM    4  C   UNL     1     -10.015  12.599  65.779  1.00  0.00    -0.256 C  
HETATM    5  S   UNL     1     -10.959  11.479  66.580  1.00  0.00    -0.275 S  
BRANCH   4   6
HETATM    6  N   UNL     1      -9.123  13.321  66.512  1.00  0.00    -0.428 N  
HETATM    7  H   UNL     1      -8.329  12.810  66.900  1.00  0.00     0.000 HD 
BRANCH   6   8
HETATM    8  C   UNL     1      -9.186  14.723  66.793  1.00  0.00    -0.260 C  
HETATM    9  O   UNL     1     -10.473  15.137  66.411  1.00  0.00    -0.281 OA 
HETATM   10  H   UNL     1     -10.515  16.068  66.599  1.00  0.00     0.000 HD 
ENDBRANCH   6   8
ENDBRANCH   4   6
ENDBRANCH   2   4
TORSDOF 3
ENDMDL
MODEL       76
REMARK 921   NORMALIZED FREE ENERGY PREDICTED BY IDOCK:   -2.39 KCAL/MOL
REMARK 922        TOTAL FREE ENERGY PREDICTED BY IDOCK:   -2.83 KCAL/MOL
REMARK 923 INTER-LIGAND FREE ENERGY PREDICTED BY IDOCK:   -2.54 KCAL/MOL
REMARK 924 INTRA-LIGAND FREE ENERGY PREDICTED BY IDOCK:   -0.30 KCAL/MOL
REMARK 927      BINDING AFFINITY PREDICTED BY RF-SCORE:    0.00 PKD
ROOT
HETATM    1  C   UNL     1      -9.453  15.322  65.956  1.00  0.00    -0.337 C  
HETATM    2  N   UNL     1     -10.477  16.189  66.508  1.00  0.00    -0.303 N  
HETATM    3  H   UNL     1     -11.192  16.535  65.868  1.00  0.00     0.000 HD 
ENDROOT
BRANCH   2   4
HETATM    4  C   UNL     1     -10.562  16.580  67.814  1.00  0.00    -0.332 C  
HETATM    5  S   UNL     1      -9.545  17.662  68.578  1.00  0.00    -0.322 S  
BRANCH   4   6
HETATM    6  N   UNL     1     -11.585  16.047  68.538  1.00  0.00    -0.367 N  
HETATM    7  H   UNL     1     -12.283  16.700  68.896  1.00  0.00     0.000 HD 
BRANCH   6   8
HETATM    8  C   UNL     1     -11.781  14.663  68.848  1.00  0.00    -0.309 C  
HETATM    9  O   UNL     1     -12.399  14.098  67.721  1.00  0.00    -0.565 OA 
HETATM   10  H   UNL     1     -12.529  13.179  67.926  1.00  0.00     0.000 HD 
ENDBRANCH   6   8
ENDBRANCH   4   6
ENDBRANCH   2   4
TORSDOF 3
ENDMDL
MODEL       77
REMARK 921   NORMALIZED FREE ENERGY PREDICTED BY IDOCK:   -2.39 KCAL/MOL
REMARK 922        TOTAL FREE ENERGY PREDICTED BY IDOCK:   -2.83 KCAL/MOL
REMARK 923 INTER-LIGAND FREE ENERGY PREDICTED BY IDOCK:   -2.81 KCAL/MOL
REMARK 924 INTRA-LIGAND FREE ENERGY PREDICTED BY IDOCK:   -0.02 KCAL/MOL
REMARK 927      BINDING AFFINITY PREDICTED BY RF-SCORE:    0.00 PKD
ROOT
HETATM    1  C   UNL     1     -12.671   8.596  71.843  1.00  0.00    -0.366 C  
HETATM    2  N   UNL     1     -11.846   8.506  70.654  1.00  0.00    -0.471 N  
HETATM    3  H   UNL     1     -11.648   9.373  70.155  1.00  0.00     0.000 HD 
ENDROOT
BRANCH   2   4
HETATM    4  C   UNL     1     -11.313   7.354  70.147  1.00  0.00    -0.177 C  
HETATM    5  S   UNL     1     -10.921   5.990  71.024  1.00  0.00    -0.271 S  
BRANCH   4   6
HETATM    6  N   UNL     1     -11.110   7.326  68.800  1.00  0.00    -0.447 N  
HETATM    7  H   UNL     1     -11.063   8.227  68.324  1.00  0.00     0.000 HD 
BRANCH   6   8
HETATM    8  C   UNL     1     -10.955   6.159  67.985  1.00  0.00    -0.305 C  
HETATM    9  O   UNL     1     -11.446   6.505  66.716  1.00  0.00    -0.774 OA 
HETATM   10  H   UNL     1     -11.343   5.731  66.175  1.00  0.00     0.000 HD 
ENDBRANCH   6   8
ENDBRANCH   4   6
ENDBRANCH   2   4
TORSDOF 3
ENDMDL
MODEL       78
REMARK 921   NORMALIZED FREE ENERGY PREDICTED BY IDOCK:   -2.38 KCAL/MOL
REMARK 922        TOTAL FREE ENERGY PREDICTED BY IDOCK:   -2.82 KCAL/MOL
REMARK 923 INTER-LIGAND FREE ENERGY PREDICTED BY IDOCK:   -2.77 KCAL/MOL
REMARK 924 INTRA-LIGAND FREE ENERGY PREDICTED BY IDOCK:   -0.05 KCAL/MOL
REMARK 927      BINDING AFFINITY PREDICTED BY RF-SCORE:    0.00 PKD
ROOT
HETATM    1  C   UNL     1     -10.561  19.604  65.897  1.00  0.00    -0.466 C  
HETATM    2  N   UNL     1     -10.806  19.347  67.303  1.00  0.00    -0.493 N  
HETATM    3  H   UNL     1     -11.708  19.634  67.681  1.00  0.00     0.000 HD 
ENDROOT
BRANCH   2   4
HETATM    4  C   UNL     1      -9.926  18.751  68.163  1.00  0.00    -0.366 C  
HETATM    5  S   UNL     1      -8.397  19.307  68.537  1.00  0.00    -0.369 S  
BRANCH   4   6
HETATM    6  N   UNL     1     -10.359  17.616  68.778  1.00  0.00    -0.366 N  
HETATM    7  H   UNL     1     -10.209  17.554  69.786  1.00  0.00     0.000 HD 
BRANCH   6   8
HETATM    8  C   UNL     1     -11.004  16.500  68.155  1.00  0.00    -0.336 C  
HETATM    9  O   UNL     1     -11.749  15.869  69.165  1.00  0.00    -0.376 OA 
HETATM   10  H   UNL     1     -12.177  15.129  68.750  1.00  0.00     0.000 HD 
ENDBRANCH   6   8
ENDBRANCH   4   6
ENDBRANCH   2   4
TORSDOF 3
ENDMDL
MODEL       79
REMARK 921   NORMALIZED FREE ENERGY PREDICTED BY IDOCK:   -2.38 KCAL/MOL
REMARK 922        TOTAL FREE ENERGY PREDICTED BY IDOCK:   -2.82 KCAL/MOL
REMARK 923 INTER-LIGAND FREE ENERGY PREDICTED BY IDOCK:   -2.78 KCAL/MOL
REMARK 924 INTRA-LIGAND FREE ENERGY PREDICTED BY IDOCK:   -0.05 KCAL/MOL
REMARK 927      BINDING AFFINITY PREDICTED BY RF-SCORE:    0.00 PKD
ROOT
HETATM    1  C   UNL     1     -10.754  16.905  68.087  1.00  0.00    -0.375 C  
HETATM    2  N   UNL     1     -10.078  18.019  68.723  1.00  0.00    -0.385 N  
HETATM    3  H   UNL     1     -10.542  18.455  69.520  1.00  0.00     0.000 HD 
ENDROOT
BRANCH   2   4
HETATM    4  C   UNL     1      -8.870  18.534  68.343  1.00  0.00    -0.322 C  
HETATM    5  S   UNL     1      -7.385  17.805  68.564  1.00  0.00    -0.273 S  
BRANCH   4   6
HETATM    6  N   UNL     1      -8.901  19.739  67.709  1.00  0.00    -0.320 N  
HETATM    7  H   UNL     1      -9.581  20.419  68.050  1.00  0.00     0.000 HD 
BRANCH   6   8
HETATM    8  C   UNL     1      -8.075  20.147  66.613  1.00  0.00    -0.287 C  
HETATM    9  O   UNL     1      -7.462  21.346  67.016  1.00  0.00    -0.813 OA 
HETATM   10  H   UNL     1      -6.914  21.616  66.288  1.00  0.00     0.000 HD 
ENDBRANCH   6   8
ENDBRANCH   4   6
ENDBRANCH   2   4
TORSDOF 3
ENDMDL
MODEL       80
REMARK 921   NORMALIZED FREE ENERGY PREDICTED BY IDOCK:   -2.37 KCAL/MOL
REMARK 922        TOTAL FREE ENERGY PREDICTED BY IDOCK:   -2.81 KCAL/MOL
REMARK 923 INTER-LIGAND FREE ENERGY PREDICTED BY IDOCK:   -2.54 KCAL/MOL
REMARK 924 INTRA-LIGAND FREE ENERGY PREDICTED BY IDOCK:   -0.27 KCAL/MOL
REMARK 927      BINDING AFFINITY PREDICTED BY RF-SCORE:    0.00 PKD
ROOT
HETATM    1  C   UNL     1      -9.546  15.446  65.981  1.00  0.00    -0.347 C  
HETATM    2  N   UNL     1      -9.969  14.261  65.258  1.00  0.00    -0.550 N  
HETATM    3  H   UNL     1      -9.434  14.003  64.429  1.00  0.00     0.000 HD 
ENDROOT
BRANCH   2   4
HETATM    4  C   UNL     1     -11.025  13.463  65.598  1.00  0.00    -0.281 C  
HETATM    5  S   UNL     1     -12.637  13.889  65.518  1.00  0.00    -0.485 S  
BRANCH   4   6
HETATM    6  N   UNL     1     -10.719  12.203  66.015  1.00  0.00    -0.264 N  
HETATM    7  H   UNL     1     -11.465  11.509  65.965  1.00  0.00     0.000 HD 
BRANCH   6   8
HETATM    8  C   UNL     1      -9.455  11.754  66.518  1.00  0.00    -0.214 C  
HETATM    9  O   UNL     1      -8.669  11.469  65.389  1.00  0.00    -0.400 OA 
HETATM   10  H   UNL     1      -7.830  11.171  65.723  1.00  0.00     0.000 HD 
ENDBRANCH   6   8
ENDBRANCH   4   6
ENDBRANCH   2   4
TORSDOF 3
ENDMDL
MODEL       81
REMARK 921   NORMALIZED FREE ENERGY PREDICTED BY IDOCK:   -2.37 KCAL/MOL
REMARK 922        TOTAL FREE ENERGY PREDICTED BY IDOCK:   -2.81 KCAL/MOL
REMARK 923 INTER-LIGAND FREE ENERGY PREDICTED BY IDOCK:   -2.64 KCAL/MOL
REMARK 924 INTRA-LIGAND FREE ENERGY PREDICTED BY IDOCK:   -0.17 KCAL/MOL
REMARK 927      BINDING AFFINITY PREDICTED BY RF-SCORE:    0.00 PKD
ROOT
HETATM    1  C   UNL     1     -11.078   6.021  69.752  1.00  0.00    -0.406 C  
HETATM    2  N   UNL     1     -11.481   6.644  68.506  1.00  0.00    -0.559 N  
HETATM    3  H   UNL     1     -12.306   7.243  68.527  1.00  0.00     0.000 HD 
ENDROOT
BRANCH   2   4
HETATM    4  C   UNL     1     -10.846   6.495  67.305  1.00  0.00    -0.390 C  
HETATM    5  S   UNL     1     -10.407   5.044  66.606  1.00  0.00    -0.251 S  
BRANCH   4   6
HETATM    6  N   UNL     1     -10.573   7.640  66.620  1.00  0.00    -0.478 N  
HETATM    7  H   UNL     1     -10.754   7.628  65.615  1.00  0.00     0.000 HD 
BRANCH   6   8
HETATM    8  C   UNL     1     -10.059   8.859  67.166  1.00  0.00    -0.249 C  
HETATM    9  O   UNL     1     -11.147   9.745  67.231  1.00  0.00    -0.308 OA 
HETATM   10  H   UNL     1     -10.806  10.554  67.594  1.00  0.00     0.000 HD 
ENDBRANCH   6   8
ENDBRANCH   4   6
ENDBRANCH   2   4
TORSDOF 3
ENDMDL
MODEL       82
REMARK 921   NORMALIZED FREE ENERGY PREDICTED BY IDOCK:   -2.37 KCAL/MOL
REMARK 922        TOTAL FREE ENERGY PREDICTED BY IDOCK:   -2.80 KCAL/MOL
REMARK 923 INTER-LIGAND FREE ENERGY PREDICTED BY IDOCK:   -2.52 KCAL/MOL
REMARK 924 INTRA-LIGAND FREE ENERGY PREDICTED BY IDOCK:   -0.29 KCAL/MOL
REMARK 927      BINDING AFFINITY PREDICTED BY RF-SCORE:    0.00 PKD
ROOT
HETATM    1  C   UNL     1     -12.760  14.285  71.039  1.00  0.00    -0.359 C  
HETATM    2  N   UNL     1     -12.703  14.824  69.693  1.00  0.00    -0.584 N  
HETATM    3  H   UNL     1     -13.458  15.445  69.405  1.00  0.00     0.000 HD 
ENDROOT
BRANCH   2   4
HETATM    4  C   UNL     1     -11.719  14.567  68.779  1.00  0.00    -0.327 C  
HETATM    5  S   UNL     1     -11.955  14.050  67.210  1.00  0.00    -0.379 S  
BRANCH   4   6
HETATM    6  N   UNL     1     -10.440  14.778  69.195  1.00  0.00    -0.239 N  
HETATM    7  H   UNL     1      -9.874  13.949  69.376  1.00  0.00     0.000 HD 
BRANCH   6   8
HETATM    8  C   UNL     1      -9.808  16.046  69.404  1.00  0.00    -0.254 C  
HETATM    9  O   UNL     1     -10.845  16.956  69.668  1.00  0.00    -0.373 OA 
HETATM   10  H   UNL     1     -10.426  17.798  69.807  1.00  0.00     0.000 HD 
ENDBRANCH   6   8
ENDBRANCH   4   6
ENDBRANCH   2   4
TORSDOF 3
ENDMDL
MODEL       83
REMARK 921   NORMALIZED FREE ENERGY PREDICTED BY IDOCK:   -2.36 KCAL/MOL
REMARK 922        TOTAL FREE ENERGY PREDICTED BY IDOCK:   -2.80 KCAL/MOL
REMARK 923 INTER-LIGAND FREE ENERGY PREDICTED BY IDOCK:   -2.77 KCAL/MOL
REMARK 924 INTRA-LIGAND FREE ENERGY PREDICTED BY IDOCK:   -0.02 KCAL/MOL
REMARK 927      BINDING AFFINITY PREDICTED BY RF-SCORE:    0.00 PKD
ROOT
HETATM    1  C   UNL     1     -11.805  15.796  72.179  1.00  0.00    -0.496 C  
HETATM    2  N   UNL     1     -12.123  16.077  70.792  1.00  0.00    -0.502 N  
HETATM    3  H   UNL     1     -12.939  16.659  70.608  1.00  0.00     0.000 HD 
ENDROOT
BRANCH   2   4
HETATM    4  C   UNL     1     -11.418  15.625  69.712  1.00  0.00    -0.342 C  
HETATM    5  S   UNL     1     -10.907  16.552  68.422  1.00  0.00    -0.352 S  
BRANCH   4   6
HETATM    6  N   UNL     1     -11.092  14.303  69.715  1.00  0.00    -0.426 N  
HETATM    7  H   UNL     1     -11.327  13.774  70.556  1.00  0.00     0.000 HD 
BRANCH   6   8
HETATM    8  C   UNL     1     -10.452  13.579  68.658  1.00  0.00    -0.232 C  
HETATM    9  O   UNL     1     -10.337  12.254  69.110  1.00  0.00    -0.425 OA 
HETATM   10  H   UNL     1      -9.913  11.774  68.408  1.00  0.00     0.000 HD 
ENDBRANCH   6   8
ENDBRANCH   4   6
ENDBRANCH   2   4
TORSDOF 3
ENDMDL
MODEL       84
REMARK 921   NORMALIZED FREE ENERGY PREDICTED BY IDOCK:   -2.35 KCAL/MOL
REMARK 922        TOTAL FREE ENERGY PREDICTED BY IDOCK:   -2.79 KCAL/MOL
REMARK 923 INTER-LIGAND FREE ENERGY PREDICTED BY IDOCK:   -2.77 KCAL/MOL
REMARK 924 INTRA-LIGAND FREE ENERGY PREDICTED BY IDOCK:   -0.02 KCAL/MOL
REMARK 927      BINDING AFFINITY PREDICTED BY RF-SCORE:    0.00 PKD
ROOT
HETATM    1  C   UNL     1     -12.276  15.718  72.873  1.00  0.00    -0.481 C  
HETATM    2  N   UNL     1     -12.716  16.007  71.521  1.00  0.00    -0.537 N  
HETATM    3  H   UNL     1     -13.612  16.481  71.411  1.00  0.00     0.000 HD 
ENDROOT
BRANCH   2   4
HETATM    4  C   UNL     1     -12.028  15.695  70.382  1.00  0.00    -0.376 C  
HETATM    5  S   UNL     1     -12.015  14.207  69.625  1.00  0.00    -0.350 S  
BRANCH   4   6
HETATM    6  N   UNL     1     -11.312  16.705  69.815  1.00  0.00    -0.321 N  
HETATM    7  H   UNL     1     -11.089  17.501  70.413  1.00  0.00     0.000 HD 
BRANCH   6   8
HETATM    8  C   UNL     1     -10.840  16.762  68.464  1.00  0.00    -0.345 C  
HETATM    9  O   UNL     1     -10.181  17.996  68.336  1.00  0.00    -0.362 OA 
HETATM   10  H   UNL     1      -9.868  18.034  67.440  1.00  0.00     0.000 HD 
ENDBRANCH   6   8
ENDBRANCH   4   6
ENDBRANCH   2   4
TORSDOF 3
ENDMDL
MODEL       85
REMARK 921   NORMALIZED FREE ENERGY PREDICTED BY IDOCK:   -2.35 KCAL/MOL
REMARK 922        TOTAL FREE ENERGY PREDICTED BY IDOCK:   -2.79 KCAL/MOL
REMARK 923 INTER-LIGAND FREE ENERGY PREDICTED BY IDOCK:   -2.75 KCAL/MOL
REMARK 924 INTRA-LIGAND FREE ENERGY PREDICTED BY IDOCK:   -0.03 KCAL/MOL
REMARK 927      BINDING AFFINITY PREDICTED BY RF-SCORE:    0.00 PKD
ROOT
HETATM    1  C   UNL     1     -11.668  14.074  68.841  1.00  0.00    -0.340 C  
HETATM    2  N   UNL     1     -11.390  15.145  67.904  1.00  0.00    -0.329 N  
HETATM    3  H   UNL     1     -11.554  16.100  68.222  1.00  0.00     0.000 HD 
ENDROOT
BRANCH   2   4
HETATM    4  C   UNL     1     -10.926  14.980  66.629  1.00  0.00    -0.325 C  
HETATM    5  S   UNL     1      -9.799  15.947  65.866  1.00  0.00    -0.359 S  
BRANCH   4   6
HETATM    6  N   UNL     1     -11.422  13.914  65.940  1.00  0.00    -0.318 N  
HETATM    7  H   UNL     1     -11.443  13.020  66.432  1.00  0.00     0.000 HD 
BRANCH   6   8
HETATM    8  C   UNL     1     -11.916  13.922  64.596  1.00  0.00    -0.419 C  
HETATM    9  O   UNL     1     -13.137  13.230  64.629  1.00  0.00    -0.665 OA 
HETATM   10  H   UNL     1     -13.465  13.235  63.737  1.00  0.00     0.000 HD 
ENDBRANCH   6   8
ENDBRANCH   4   6
ENDBRANCH   2   4
TORSDOF 3
ENDMDL
MODEL       86
REMARK 921   NORMALIZED FREE ENERGY PREDICTED BY IDOCK:   -2.35 KCAL/MOL
REMARK 922        TOTAL FREE ENERGY PREDICTED BY IDOCK:   -2.78 KCAL/MOL
REMARK 923 INTER-LIGAND FREE ENERGY PREDICTED BY IDOCK:   -2.49 KCAL/MOL
REMARK 924 INTRA-LIGAND FREE ENERGY PREDICTED BY IDOCK:   -0.29 KCAL/MOL
REMARK 927      BINDING AFFINITY PREDICTED BY RF-SCORE:    0.00 PKD
ROOT
HETATM    1  C   UNL     1      -8.420   3.887  67.012  1.00  0.00    -0.101 C  
HETATM    2  N   UNL     1      -9.834   3.786  66.709  1.00  0.00    -0.373 N  
HETATM    3  H   UNL     1     -10.288   2.890  66.884  1.00  0.00     0.000 HD 
ENDROOT
BRANCH   2   4
HETATM    4  C   UNL     1     -10.610   4.794  66.208  1.00  0.00    -0.198 C  
HETATM    5  S   UNL     1     -10.779   6.317  66.869  1.00  0.00    -0.319 S  
BRANCH   4   6
HETATM    6  N   UNL     1     -11.282   4.521  65.055  1.00  0.00    -0.946 N  
HETATM    7  H   UNL     1     -12.252   4.835  65.004  1.00  0.00     0.000 HD 
BRANCH   6   8
HETATM    8  C   UNL     1     -10.765   3.840  63.907  1.00  0.00    -0.243 C  
HETATM    9  O   UNL     1      -9.568   4.496  63.574  1.00  0.00    -0.312 OA 
HETATM   10  H   UNL     1      -9.224   4.043  62.812  1.00  0.00     0.000 HD 
ENDBRANCH   6   8
ENDBRANCH   4   6
ENDBRANCH   2   4
TORSDOF 3
ENDMDL
MODEL       87
REMARK 921   NORMALIZED FREE ENERGY PREDICTED BY IDOCK:   -2.35 KCAL/MOL
REMARK 922        TOTAL FREE ENERGY PREDICTED BY IDOCK:   -2.78 KCAL/MOL
REMARK 923 INTER-LIGAND FREE ENERGY PREDICTED BY IDOCK:   -2.53 KCAL/MOL
REMARK 924 INTRA-LIGAND FREE ENERGY PREDICTED BY IDOCK:   -0.26 KCAL/MOL
REMARK 927      BINDING AFFINITY PREDICTED BY RF-SCORE:    0.00 PKD
ROOT
HETATM    1  C   UNL     1     -11.350   7.415  72.312  1.00  0.00    -0.281 C  
HETATM    2  N   UNL     1     -11.265   8.275  71.147  1.00  0.00    -0.252 N  
HETATM    3  H   UNL     1     -10.865   7.875  70.298  1.00  0.00     0.000 HD 
ENDROOT
BRANCH   2   4
HETATM    4  C   UNL     1     -11.675   9.577  71.093  1.00  0.00    -0.363 C  
HETATM    5  S   UNL     1     -13.110  10.175  71.703  1.00  0.00    -0.455 S  
BRANCH   4   6
HETATM    6  N   UNL     1     -10.817  10.456  70.505  1.00  0.00    -0.429 N  
HETATM    7  H   UNL     1     -10.102  10.870  71.104  1.00  0.00     0.000 HD 
BRANCH   6   8
HETATM    8  C   UNL     1     -10.817  10.859  69.131  1.00  0.00    -0.235 C  
HETATM    9  O   UNL     1     -11.391   9.795  68.416  1.00  0.00    -0.511 OA 
HETATM   10  H   UNL     1     -11.391  10.063  67.504  1.00  0.00     0.000 HD 
ENDBRANCH   6   8
ENDBRANCH   4   6
ENDBRANCH   2   4
TORSDOF 3
ENDMDL
MODEL       88
REMARK 921   NORMALIZED FREE ENERGY PREDICTED BY IDOCK:   -2.35 KCAL/MOL
REMARK 922        TOTAL FREE ENERGY PREDICTED BY IDOCK:   -2.78 KCAL/MOL
REMARK 923 INTER-LIGAND FREE ENERGY PREDICTED BY IDOCK:   -2.48 KCAL/MOL
REMARK 924 INTRA-LIGAND FREE ENERGY PREDICTED BY IDOCK:   -0.30 KCAL/MOL
REMARK 927      BINDING AFFINITY PREDICTED BY RF-SCORE:    0.00 PKD
ROOT
HETATM    1  C   UNL     1     -10.929   9.859  69.762  1.00  0.00    -0.268 C  
HETATM    2  N   UNL     1     -11.387   8.486  69.853  1.00  0.00    -0.456 N  
HETATM    3  H   UNL     1     -12.258   8.250  69.377  1.00  0.00     0.000 HD 
ENDROOT
BRANCH   2   4
HETATM    4  C   UNL     1     -10.747   7.481  70.523  1.00  0.00    -0.235 C  
HETATM    5  S   UNL     1     -10.601   5.901  70.007  1.00  0.00    -0.322 S  
BRANCH   4   6
HETATM    6  N   UNL     1     -10.164   7.822  71.706  1.00  0.00    -0.187 N  
HETATM    7  H   UNL     1      -9.240   8.251  71.655  1.00  0.00     0.000 HD 
BRANCH   6   8
HETATM    8  C   UNL     1     -10.717   7.638  73.014  1.00  0.00    -0.391 C  
HETATM    9  O   UNL     1     -12.088   7.921  72.898  1.00  0.00    -0.617 OA 
HETATM   10  H   UNL     1     -12.455   7.798  73.766  1.00  0.00     0.000 HD 
ENDBRANCH   6   8
ENDBRANCH   4   6
ENDBRANCH   2   4
TORSDOF 3
ENDMDL
MODEL       89
REMARK 921   NORMALIZED FREE ENERGY PREDICTED BY IDOCK:   -2.33 KCAL/MOL
REMARK 922        TOTAL FREE ENERGY PREDICTED BY IDOCK:   -2.76 KCAL/MOL
REMARK 923 INTER-LIGAND FREE ENERGY PREDICTED BY IDOCK:   -2.74 KCAL/MOL
REMARK 924 INTRA-LIGAND FREE ENERGY PREDICTED BY IDOCK:   -0.03 KCAL/MOL
REMARK 927      BINDING AFFINITY PREDICTED BY RF-SCORE:    0.00 PKD
ROOT
HETATM    1  C   UNL     1     -10.992   5.992  69.976  1.00  0.00    -0.380 C  
HETATM    2  N   UNL     1     -11.335   7.299  69.447  1.00  0.00    -0.476 N  
HETATM    3  H   UNL     1     -12.284   7.635  69.608  1.00  0.00     0.000 HD 
ENDROOT
BRANCH   2   4
HETATM    4  C   UNL     1     -10.490   8.116  68.750  1.00  0.00    -0.174 C  
HETATM    5  S   UNL     1      -8.831   7.957  68.658  1.00  0.00    -0.134 S  
BRANCH   4   6
HETATM    6  N   UNL     1     -11.072   9.134  68.056  1.00  0.00    -0.489 N  
HETATM    7  H   UNL     1     -11.570   8.881  67.202  1.00  0.00     0.000 HD 
BRANCH   6   8
HETATM    8  C   UNL     1     -11.055  10.522  68.404  1.00  0.00    -0.281 C  
HETATM    9  O   UNL     1     -12.400  10.928  68.443  1.00  0.00    -0.803 OA 
HETATM   10  H   UNL     1     -12.389  11.849  68.675  1.00  0.00     0.000 HD 
ENDBRANCH   6   8
ENDBRANCH   4   6
ENDBRANCH   2   4
TORSDOF 3
ENDMDL
MODEL       90
REMARK 921   NORMALIZED FREE ENERGY PREDICTED BY IDOCK:   -2.33 KCAL/MOL
REMARK 922        TOTAL FREE ENERGY PREDICTED BY IDOCK:   -2.76 KCAL/MOL
REMARK 923 INTER-LIGAND FREE ENERGY PREDICTED BY IDOCK:   -2.47 KCAL/MOL
REMARK 924 INTRA-LIGAND FREE ENERGY PREDICTED BY IDOCK:   -0.29 KCAL/MOL
REMARK 927      BINDING AFFINITY PREDICTED BY RF-SCORE:    0.00 PKD
ROOT
HETATM    1  C   UNL     1      -6.632  20.959  67.604  1.00  0.00    -0.354 C  
HETATM    2  N   UNL     1      -6.682  19.678  66.926  1.00  0.00    -0.194 N  
HETATM    3  H   UNL     1      -5.870  19.410  66.371  1.00  0.00     0.000 HD 
ENDROOT
BRANCH   2   4
HETATM    4  C   UNL     1      -7.729  18.800  66.969  1.00  0.00    -0.235 C  
HETATM    5  S   UNL     1      -7.720  17.240  66.377  1.00  0.00    -0.325 S  
BRANCH   4   6
HETATM    6  N   UNL     1      -8.866  19.247  67.571  1.00  0.00    -0.294 N  
HETATM    7  H   UNL     1      -8.876  19.244  68.591  1.00  0.00     0.000 HD 
BRANCH   6   8
HETATM    8  C   UNL     1     -10.048  19.720  66.917  1.00  0.00    -0.437 C  
HETATM    9  O   UNL     1      -9.614  20.347  65.737  1.00  0.00    -0.634 OA 
HETATM   10  H   UNL     1     -10.399  20.661  65.303  1.00  0.00     0.000 HD 
ENDBRANCH   6   8
ENDBRANCH   4   6
ENDBRANCH   2   4
TORSDOF 3
ENDMDL
MODEL       91
REMARK 921   NORMALIZED FREE ENERGY PREDICTED BY IDOCK:   -2.32 KCAL/MOL
REMARK 922        TOTAL FREE ENERGY PREDICTED BY IDOCK:   -2.75 KCAL/MOL
REMARK 923 INTER-LIGAND FREE ENERGY PREDICTED BY IDOCK:   -2.55 KCAL/MOL
REMARK 924 INTRA-LIGAND FREE ENERGY PREDICTED BY IDOCK:   -0.20 KCAL/MOL
REMARK 927      BINDING AFFINITY PREDICTED BY RF-SCORE:    0.00 PKD
ROOT
HETATM    1  C   UNL     1     -12.469  12.300  63.476  1.00  0.00    -0.534 C  
HETATM    2  N   UNL     1     -12.419  12.767  64.848  1.00  0.00    -0.529 N  
HETATM    3  H   UNL     1     -12.842  12.174  65.561  1.00  0.00     0.000 HD 
ENDROOT
BRANCH   2   4
HETATM    4  C   UNL     1     -11.852  13.939  65.264  1.00  0.00    -0.357 C  
HETATM    5  S   UNL     1     -11.623  15.301  64.326  1.00  0.00    -0.074 S  
BRANCH   4   6
HETATM    6  N   UNL     1     -11.464  13.992  66.568  1.00  0.00    -0.342 N  
HETATM    7  H   UNL     1     -12.198  14.147  67.260  1.00  0.00     0.000 HD 
BRANCH   6   8
HETATM    8  C   UNL     1     -10.129  13.852  67.067  1.00  0.00    -0.256 C  
HETATM    9  O   UNL     1      -9.411  13.176  66.067  1.00  0.00    -0.458 OA 
HETATM   10  H   UNL     1      -8.525  13.084  66.398  1.00  0.00     0.000 HD 
ENDBRANCH   6   8
ENDBRANCH   4   6
ENDBRANCH   2   4
TORSDOF 3
ENDMDL
MODEL       92
REMARK 921   NORMALIZED FREE ENERGY PREDICTED BY IDOCK:   -2.32 KCAL/MOL
REMARK 922        TOTAL FREE ENERGY PREDICTED BY IDOCK:   -2.75 KCAL/MOL
REMARK 923 INTER-LIGAND FREE ENERGY PREDICTED BY IDOCK:   -2.53 KCAL/MOL
REMARK 924 INTRA-LIGAND FREE ENERGY PREDICTED BY IDOCK:   -0.22 KCAL/MOL
REMARK 927      BINDING AFFINITY PREDICTED BY RF-SCORE:    0.00 PKD
ROOT
HETATM    1  C   UNL     1     -10.527  19.574  66.020  1.00  0.00    -0.516 C  
HETATM    2  N   UNL     1      -9.760  18.677  66.863  1.00  0.00    -0.301 N  
HETATM    3  H   UNL     1     -10.171  18.408  67.756  1.00  0.00     0.000 HD 
ENDROOT
BRANCH   2   4
HETATM    4  C   UNL     1      -8.531  18.162  66.558  1.00  0.00    -0.262 C  
HETATM    5  S   UNL     1      -8.143  16.541  66.479  1.00  0.00    -0.324 S  
BRANCH   4   6
HETATM    6  N   UNL     1      -7.552  19.066  66.276  1.00  0.00    -0.264 N  
HETATM    7  H   UNL     1      -7.193  19.070  65.320  1.00  0.00     0.000 HD 
BRANCH   6   8
HETATM    8  C   UNL     1      -6.975  20.011  67.184  1.00  0.00    -0.230 C  
HETATM    9  O   UNL     1      -7.804  21.144  67.142  1.00  0.00    -0.637 OA 
HETATM   10  H   UNL     1      -7.421  21.771  67.745  1.00  0.00     0.000 HD 
ENDBRANCH   6   8
ENDBRANCH   4   6
ENDBRANCH   2   4
TORSDOF 3
ENDMDL
MODEL       93
REMARK 921   NORMALIZED FREE ENERGY PREDICTED BY IDOCK:   -2.32 KCAL/MOL
REMARK 922        TOTAL FREE ENERGY PREDICTED BY IDOCK:   -2.75 KCAL/MOL
REMARK 923 INTER-LIGAND FREE ENERGY PREDICTED BY IDOCK:   -2.46 KCAL/MOL
REMARK 924 INTRA-LIGAND FREE ENERGY PREDICTED BY IDOCK:   -0.29 KCAL/MOL
REMARK 927      BINDING AFFINITY PREDICTED BY RF-SCORE:    0.00 PKD
ROOT
HETATM    1  C   UNL     1      -9.481  11.592  65.848  1.00  0.00    -0.228 C  
HETATM    2  N   UNL     1      -9.944  12.825  65.240  1.00  0.00    -0.435 N  
HETATM    3  H   UNL     1      -9.240  13.522  64.999  1.00  0.00     0.000 HD 
ENDROOT
BRANCH   2   4
HETATM    4  C   UNL     1     -11.248  13.129  64.963  1.00  0.00    -0.298 C  
HETATM    5  S   UNL     1     -12.070  12.727  63.567  1.00  0.00    -0.532 S  
BRANCH   4   6
HETATM    6  N   UNL     1     -11.929  13.800  65.933  1.00  0.00    -0.383 N  
HETATM    7  H   UNL     1     -12.920  13.577  66.035  1.00  0.00     0.000 HD 
BRANCH   6   8
HETATM    8  C   UNL     1     -11.397  14.787  66.822  1.00  0.00    -0.346 C  
HETATM    9  O   UNL     1     -10.914  14.083  67.938  1.00  0.00    -0.240 OA 
HETATM   10  H   UNL     1     -10.560  14.738  68.528  1.00  0.00     0.000 HD 
ENDBRANCH   6   8
ENDBRANCH   4   6
ENDBRANCH   2   4
TORSDOF 3
ENDMDL
MODEL       94
REMARK 921   NORMALIZED FREE ENERGY PREDICTED BY IDOCK:   -2.32 KCAL/MOL
REMARK 922        TOTAL FREE ENERGY PREDICTED BY IDOCK:   -2.74 KCAL/MOL
REMARK 923 INTER-LIGAND FREE ENERGY PREDICTED BY IDOCK:   -2.48 KCAL/MOL
REMARK 924 INTRA-LIGAND FREE ENERGY PREDICTED BY IDOCK:   -0.26 KCAL/MOL
REMARK 927      BINDING AFFINITY PREDICTED BY RF-SCORE:    0.00 PKD
ROOT
HETATM    1  C   UNL     1     -10.403   8.348  68.978  1.00  0.00    -0.218 C  
HETATM    2  N   UNL     1     -11.149   9.541  69.329  1.00  0.00    -0.417 N  
HETATM    3  H   UNL     1     -11.331  10.215  68.586  1.00  0.00     0.000 HD 
ENDROOT
BRANCH   2   4
HETATM    4  C   UNL     1     -11.628   9.836  70.575  1.00  0.00    -0.292 C  
HETATM    5  S   UNL     1     -12.473  11.213  70.996  1.00  0.00    -0.382 S  
BRANCH   4   6
HETATM    6  N   UNL     1     -11.406   8.904  71.543  1.00  0.00    -0.298 N  
HETATM    7  H   UNL     1     -10.460   8.853  71.922  1.00  0.00     0.000 HD 
BRANCH   6   8
HETATM    8  C   UNL     1     -12.366   7.989  72.082  1.00  0.00    -0.315 C  
HETATM    9  O   UNL     1     -13.136   7.549  70.992  1.00  0.00    -0.559 OA 
HETATM   10  H   UNL     1     -13.772   6.941  71.351  1.00  0.00     0.000 HD 
ENDBRANCH   6   8
ENDBRANCH   4   6
ENDBRANCH   2   4
TORSDOF 3
ENDMDL
MODEL       95
REMARK 921   NORMALIZED FREE ENERGY PREDICTED BY IDOCK:   -2.31 KCAL/MOL
REMARK 922        TOTAL FREE ENERGY PREDICTED BY IDOCK:   -2.74 KCAL/MOL
REMARK 923 INTER-LIGAND FREE ENERGY PREDICTED BY IDOCK:   -2.71 KCAL/MOL
REMARK 924 INTRA-LIGAND FREE ENERGY PREDICTED BY IDOCK:   -0.03 KCAL/MOL
REMARK 927      BINDING AFFINITY PREDICTED BY RF-SCORE:    0.00 PKD
ROOT
HETATM    1  C   UNL     1      -9.248  17.409  68.658  1.00  0.00    -0.265 C  
HETATM    2  N   UNL     1     -10.598  16.959  68.376  1.00  0.00    -0.347 N  
HETATM    3  H   UNL     1     -11.085  17.398  67.595  1.00  0.00     0.000 HD 
ENDROOT
BRANCH   2   4
HETATM    4  C   UNL     1     -11.271  15.994  69.072  1.00  0.00    -0.347 C  
HETATM    5  S   UNL     1     -11.116  15.678  70.704  1.00  0.00    -0.359 S  
BRANCH   4   6
HETATM    6  N   UNL     1     -12.159  15.246  68.360  1.00  0.00    -0.552 N  
HETATM    7  H   UNL     1     -13.096  15.633  68.245  1.00  0.00     0.000 HD 
BRANCH   6   8
HETATM    8  C   UNL     1     -11.910  13.971  67.757  1.00  0.00    -0.384 C  
HETATM    9  O   UNL     1     -12.420  14.055  66.450  1.00  0.00    -0.452 OA 
HETATM   10  H   UNL     1     -12.254  13.209  66.050  1.00  0.00     0.000 HD 
ENDBRANCH   6   8
ENDBRANCH   4   6
ENDBRANCH   2   4
TORSDOF 3
ENDMDL
MODEL       96
REMARK 921   NORMALIZED FREE ENERGY PREDICTED BY IDOCK:   -2.31 KCAL/MOL
REMARK 922        TOTAL FREE ENERGY PREDICTED BY IDOCK:   -2.74 KCAL/MOL
REMARK 923 INTER-LIGAND FREE ENERGY PREDICTED BY IDOCK:   -2.67 KCAL/MOL
REMARK 924 INTRA-LIGAND FREE ENERGY PREDICTED BY IDOCK:   -0.07 KCAL/MOL
REMARK 927      BINDING AFFINITY PREDICTED BY RF-SCORE:    0.00 PKD
ROOT
HETATM    1  C   UNL     1     -12.338   7.339  71.642  1.00  0.00    -0.352 C  
HETATM    2  N   UNL     1     -11.624   7.749  70.448  1.00  0.00    -0.456 N  
HETATM    3  H   UNL     1     -11.505   7.054  69.712  1.00  0.00     0.000 HD 
ENDROOT
BRANCH   2   4
HETATM    4  C   UNL     1     -11.097   8.991  70.229  1.00  0.00    -0.235 C  
HETATM    5  S   UNL     1      -9.478   9.392  70.306  1.00  0.00    -0.264 S  
BRANCH   4   6
HETATM    6  N   UNL     1     -11.981   9.972  69.899  1.00  0.00    -0.467 N  
HETATM    7  H   UNL     1     -12.301   9.995  68.930  1.00  0.00     0.000 HD 
BRANCH   6   8
HETATM    8  C   UNL     1     -12.508  10.976  70.774  1.00  0.00    -0.396 C  
HETATM    9  O   UNL     1     -11.806  12.156  70.477  1.00  0.00    -0.500 OA 
HETATM   10  H   UNL     1     -12.157  12.822  71.057  1.00  0.00     0.000 HD 
ENDBRANCH   6   8
ENDBRANCH   4   6
ENDBRANCH   2   4
TORSDOF 3
ENDMDL
MODEL       97
REMARK 921   NORMALIZED FREE ENERGY PREDICTED BY IDOCK:   -2.30 KCAL/MOL
REMARK 922        TOTAL FREE ENERGY PREDICTED BY IDOCK:   -2.72 KCAL/MOL
REMARK 923 INTER-LIGAND FREE ENERGY PREDICTED BY IDOCK:   -2.71 KCAL/MOL
REMARK 924 INTRA-LIGAND FREE ENERGY PREDICTED BY IDOCK:   -0.02 KCAL/MOL
REMARK 927      BINDING AFFINITY PREDICTED BY RF-SCORE:    0.00 PKD
ROOT
HETATM    1  C   UNL     1     -10.656  13.589  64.413  1.00  0.00    -0.377 C  
HETATM    2  N   UNL     1     -10.908  14.991  64.684  1.00  0.00    -0.625 N  
HETATM    3  H   UNL     1     -11.632  15.451  64.133  1.00  0.00     0.000 HD 
ENDROOT
BRANCH   2   4
HETATM    4  C   UNL     1     -10.254  15.747  65.616  1.00  0.00    -0.380 C  
HETATM    5  S   UNL     1      -9.012  15.223  66.601  1.00  0.00    -0.304 S  
BRANCH   4   6
HETATM    6  N   UNL     1     -10.647  17.046  65.722  1.00  0.00    -0.287 N  
HETATM    7  H   UNL     1     -11.622  17.250  65.500  1.00  0.00     0.000 HD 
BRANCH   6   8
HETATM    8  C   UNL     1      -9.831  18.155  66.115  1.00  0.00    -0.251 C  
HETATM    9  O   UNL     1     -10.623  19.302  65.935  1.00  0.00    -0.485 OA 
HETATM   10  H   UNL     1     -10.081  20.038  66.196  1.00  0.00     0.000 HD 
ENDBRANCH   6   8
ENDBRANCH   4   6
ENDBRANCH   2   4
TORSDOF 3
ENDMDL
MODEL       98
REMARK 921   NORMALIZED FREE ENERGY PREDICTED BY IDOCK:   -2.30 KCAL/MOL
REMARK 922        TOTAL FREE ENERGY PREDICTED BY IDOCK:   -2.72 KCAL/MOL
REMARK 923 INTER-LIGAND FREE ENERGY PREDICTED BY IDOCK:   -2.48 KCAL/MOL
REMARK 924 INTRA-LIGAND FREE ENERGY PREDICTED BY IDOCK:   -0.24 KCAL/MOL
REMARK 927      BINDING AFFINITY PREDICTED BY RF-SCORE:    0.00 PKD
ROOT
HETATM    1  C   UNL     1     -10.591   9.288  67.633  1.00  0.00    -0.261 C  
HETATM    2  N   UNL     1     -11.181   9.583  68.924  1.00  0.00    -0.457 N  
HETATM    3  H   UNL     1     -12.043  10.127  68.932  1.00  0.00     0.000 HD 
ENDROOT
BRANCH   2   4
HETATM    4  C   UNL     1     -10.675   9.192  70.132  1.00  0.00    -0.233 C  
HETATM    5  S   UNL     1      -9.160   8.542  70.393  1.00  0.00    -0.160 S  
BRANCH   4   6
HETATM    6  N   UNL     1     -11.484   9.376  71.213  1.00  0.00    -0.332 N  
HETATM    7  H   UNL     1     -11.317   8.773  72.019  1.00  0.00     0.000 HD 
BRANCH   6   8
HETATM    8  C   UNL     1     -12.545  10.330  71.332  1.00  0.00    -0.434 C  
HETATM    9  O   UNL     1     -13.658   9.753  70.699  1.00  0.00    -0.600 OA 
HETATM   10  H   UNL     1     -14.362  10.386  70.778  1.00  0.00     0.000 HD 
ENDBRANCH   6   8
ENDBRANCH   4   6
ENDBRANCH   2   4
TORSDOF 3
ENDMDL
MODEL       99
REMARK 921   NORMALIZED FREE ENERGY PREDICTED BY IDOCK:   -2.30 KCAL/MOL
REMARK 922        TOTAL FREE ENERGY PREDICTED BY IDOCK:   -2.72 KCAL/MOL
REMARK 923 INTER-LIGAND FREE ENERGY PREDICTED BY IDOCK:   -2.68 KCAL/MOL
REMARK 924 INTRA-LIGAND FREE ENERGY PREDICTED BY IDOCK:   -0.04 KCAL/MOL
REMARK 927      BINDING AFFINITY PREDICTED BY RF-SCORE:    0.00 PKD
ROOT
HETATM    1  C   UNL     1     -12.352  15.291  69.902  1.00  0.00    -0.288 C  
HETATM    2  N   UNL     1     -12.085  15.473  68.488  1.00  0.00    -0.535 N  
HETATM    3  H   UNL     1     -12.556  16.244  68.017  1.00  0.00     0.000 HD 
ENDROOT
BRANCH   2   4
HETATM    4  C   UNL     1     -11.252  14.694  67.735  1.00  0.00    -0.308 C  
HETATM    5  S   UNL     1     -10.178  13.559  68.323  1.00  0.00    -0.252 S  
BRANCH   4   6
HETATM    6  N   UNL     1     -11.333  14.855  66.385  1.00  0.00    -0.335 N  
HETATM    7  H   UNL     1     -12.238  14.665  65.954  1.00  0.00     0.000 HD 
BRANCH   6   8
HETATM    8  C   UNL     1     -10.276  15.263  65.510  1.00  0.00    -0.388 C  
HETATM    9  O   UNL     1      -9.979  14.145  64.713  1.00  0.00    -0.570 OA 
HETATM   10  H   UNL     1      -9.278  14.417  64.132  1.00  0.00     0.000 HD 
ENDBRANCH   6   8
ENDBRANCH   4   6
ENDBRANCH   2   4
TORSDOF 3
ENDMDL
MODEL      100
REMARK 921   NORMALIZED FREE ENERGY PREDICTED BY IDOCK:   -2.29 KCAL/MOL
REMARK 922        TOTAL FREE ENERGY PREDICTED BY IDOCK:   -2.72 KCAL/MOL
REMARK 923 INTER-LIGAND FREE ENERGY PREDICTED BY IDOCK:   -2.45 KCAL/MOL
REMARK 924 INTRA-LIGAND FREE ENERGY PREDICTED BY IDOCK:   -0.27 KCAL/MOL
REMARK 927      BINDING AFFINITY PREDICTED BY RF-SCORE:    0.00 PKD
ROOT
HETATM    1  C   UNL     1     -12.363  13.970  70.661  1.00  0.00    -0.375 C  
HETATM    2  N   UNL     1     -11.415  13.091  70.004  1.00  0.00    -0.522 N  
HETATM    3  H   UNL     1     -10.559  12.865  70.508  1.00  0.00     0.000 HD 
ENDROOT
BRANCH   2   4
HETATM    4  C   UNL     1     -11.576  12.540  68.763  1.00  0.00    -0.322 C  
HETATM    5  S   UNL     1     -11.215  10.967  68.339  1.00  0.00    -0.309 S  
BRANCH   4   6
HETATM    6  N   UNL     1     -12.099  13.354  67.805  1.00  0.00    -0.312 N  
HETATM    7  H   UNL     1     -13.038  13.128  67.474  1.00  0.00     0.000 HD 
BRANCH   6   8
HETATM    8  C   UNL     1     -11.466  14.495  67.216  1.00  0.00    -0.365 C  
HETATM    9  O   UNL     1     -10.090  14.339  67.454  1.00  0.00    -0.243 OA 
HETATM   10  H   UNL     1      -9.669  15.096  67.062  1.00  0.00     0.000 HD 
ENDBRANCH   6   8
ENDBRANCH   4   6
ENDBRANCH   2   4
TORSDOF 3
ENDMDL
MODEL      101
REMARK 921   NORMALIZED FREE ENERGY PREDICTED BY IDOCK:   -2.29 KCAL/MOL
REMARK 922        TOTAL FREE ENERGY PREDICTED BY IDOCK:   -2.71 KCAL/MOL
REMARK 923 INTER-LIGAND FREE ENERGY PREDICTED BY IDOCK:   -2.50 KCAL/MOL
REMARK 924 INTRA-LIGAND FREE ENERGY PREDICTED BY IDOCK:   -0.21 KCAL/MOL
REMARK 927      BINDING AFFINITY PREDICTED BY RF-SCORE:    0.00 PKD
ROOT
HETATM    1  C   UNL     1     -10.273  19.441  68.274  1.00  0.00    -0.433 C  
HETATM    2  N   UNL     1      -8.945  18.951  68.589  1.00  0.00    -0.356 N  
HETATM    3  H   UNL     1      -8.872  18.007  68.967  1.00  0.00     0.000 HD 
ENDROOT
BRANCH   2   4
HETATM    4  C   UNL     1      -7.783  19.651  68.421  1.00  0.00    -0.331 C  
HETATM    5  S   UNL     1      -6.483  19.651  69.468  1.00  0.00    -0.343 S  
BRANCH   4   6
HETATM    6  N   UNL     1      -7.685  20.393  67.284  1.00  0.00    -0.321 N  
HETATM    7  H   UNL     1      -8.200  21.274  67.264  1.00  0.00     0.000 HD 
BRANCH   6   8
HETATM    8  C   UNL     1      -6.932  20.062  66.112  1.00  0.00    -0.251 C  
HETATM    9  O   UNL     1      -7.586  18.964  65.528  1.00  0.00    -0.466 OA 
HETATM   10  H   UNL     1      -7.086  18.745  64.750  1.00  0.00     0.000 HD 
ENDBRANCH   6   8
ENDBRANCH   4   6
ENDBRANCH   2   4
TORSDOF 3
ENDMDL
MODEL      102
REMARK 921   NORMALIZED FREE ENERGY PREDICTED BY IDOCK:   -2.29 KCAL/MOL
REMARK 922        TOTAL FREE ENERGY PREDICTED BY IDOCK:   -2.71 KCAL/MOL
REMARK 923 INTER-LIGAND FREE ENERGY PREDICTED BY IDOCK:   -2.59 KCAL/MOL
REMARK 924 INTRA-LIGAND FREE ENERGY PREDICTED BY IDOCK:   -0.12 KCAL/MOL
REMARK 927      BINDING AFFINITY PREDICTED BY RF-SCORE:    0.00 PKD
ROOT
HETATM    1  C   UNL     1      -9.370   7.841  73.484  1.00  0.00    -0.290 C  
HETATM    2  N   UNL     1      -9.843   8.419  72.240  1.00  0.00    -0.290 N  
HETATM    3  H   UNL     1      -9.155   8.572  71.503  1.00  0.00     0.000 HD 
ENDROOT
BRANCH   2   4
HETATM    4  C   UNL     1     -11.135   8.774  71.974  1.00  0.00    -0.371 C  
HETATM    5  S   UNL     1     -11.620  10.020  70.974  1.00  0.00    -0.391 S  
BRANCH   4   6
HETATM    6  N   UNL     1     -12.103   8.021  72.567  1.00  0.00    -0.541 N  
HETATM    7  H   UNL     1     -12.418   8.324  73.489  1.00  0.00     0.000 HD 
BRANCH   6   8
HETATM    8  C   UNL     1     -12.721   6.848  72.028  1.00  0.00    -0.193 C  
HETATM    9  O   UNL     1     -12.057   5.757  72.613  1.00  0.00    -0.518 OA 
HETATM   10  H   UNL     1     -12.468   4.978  72.256  1.00  0.00     0.000 HD 
ENDBRANCH   6   8
ENDBRANCH   4   6
ENDBRANCH   2   4
TORSDOF 3
ENDMDL
MODEL      103
REMARK 921   NORMALIZED FREE ENERGY PREDICTED BY IDOCK:   -2.28 KCAL/MOL
REMARK 922        TOTAL FREE ENERGY PREDICTED BY IDOCK:   -2.70 KCAL/MOL
REMARK 923 INTER-LIGAND FREE ENERGY PREDICTED BY IDOCK:   -2.41 KCAL/MOL
REMARK 924 INTRA-LIGAND FREE ENERGY PREDICTED BY IDOCK:   -0.29 KCAL/MOL
REMARK 927      BINDING AFFINITY PREDICTED BY RF-SCORE:    0.00 PKD
ROOT
HETATM    1  C   UNL     1     -10.471  16.203  65.851  1.00  0.00    -0.352 C  
HETATM    2  N   UNL     1     -10.582  16.824  67.157  1.00  0.00    -0.294 N  
HETATM    3  H   UNL     1     -11.502  16.827  67.597  1.00  0.00     0.000 HD 
ENDROOT
BRANCH   2   4
HETATM    4  C   UNL     1      -9.555  17.406  67.846  1.00  0.00    -0.267 C  
HETATM    5  S   UNL     1      -8.457  16.610  68.819  1.00  0.00    -0.242 S  
BRANCH   4   6
HETATM    6  N   UNL     1      -9.416  18.753  67.698  1.00  0.00    -0.297 N  
HETATM    7  H   UNL     1      -8.470  19.128  67.779  1.00  0.00     0.000 HD 
BRANCH   6   8
HETATM    8  C   UNL     1     -10.463  19.695  67.441  1.00  0.00    -0.467 C  
HETATM    9  O   UNL     1     -10.609  19.740  66.045  1.00  0.00    -0.495 OA 
HETATM   10  H   UNL     1     -11.304  20.366  65.874  1.00  0.00     0.000 HD 
ENDBRANCH   6   8
ENDBRANCH   4   6
ENDBRANCH   2   4
TORSDOF 3
ENDMDL
MODEL      104
REMARK 921   NORMALIZED FREE ENERGY PREDICTED BY IDOCK:   -2.27 KCAL/MOL
REMARK 922        TOTAL FREE ENERGY PREDICTED BY IDOCK:   -2.69 KCAL/MOL
REMARK 923 INTER-LIGAND FREE ENERGY PREDICTED BY IDOCK:   -2.64 KCAL/MOL
REMARK 924 INTRA-LIGAND FREE ENERGY PREDICTED BY IDOCK:   -0.06 KCAL/MOL
REMARK 927      BINDING AFFINITY PREDICTED BY RF-SCORE:    0.00 PKD
ROOT
HETATM    1  C   UNL     1      -9.334  12.632  67.291  1.00  0.00    -0.195 C  
HETATM    2  N   UNL     1     -10.676  12.998  66.880  1.00  0.00    -0.261 N  
HETATM    3  H   UNL     1     -11.364  12.249  66.806  1.00  0.00     0.000 HD 
ENDROOT
BRANCH   2   4
HETATM    4  C   UNL     1     -11.094  14.265  66.584  1.00  0.00    -0.321 C  
HETATM    5  S   UNL     1     -10.694  15.130  65.213  1.00  0.00    -0.434 S  
BRANCH   4   6
HETATM    6  N   UNL     1     -11.928  14.852  67.487  1.00  0.00    -0.465 N  
HETATM    7  H   UNL     1     -12.924  14.849  67.261  1.00  0.00     0.000 HD 
BRANCH   6   8
HETATM    8  C   UNL     1     -11.549  15.473  68.720  1.00  0.00    -0.378 C  
HETATM    9  O   UNL     1     -12.560  15.152  69.641  1.00  0.00    -0.583 OA 
HETATM   10  H   UNL     1     -12.309  15.564  70.460  1.00  0.00     0.000 HD 
ENDBRANCH   6   8
ENDBRANCH   4   6
ENDBRANCH   2   4
TORSDOF 3
ENDMDL
MODEL      105
REMARK 921   NORMALIZED FREE ENERGY PREDICTED BY IDOCK:   -2.26 KCAL/MOL
REMARK 922        TOTAL FREE ENERGY PREDICTED BY IDOCK:   -2.68 KCAL/MOL
REMARK 923 INTER-LIGAND FREE ENERGY PREDICTED BY IDOCK:   -2.43 KCAL/MOL
REMARK 924 INTRA-LIGAND FREE ENERGY PREDICTED BY IDOCK:   -0.25 KCAL/MOL
REMARK 927      BINDING AFFINITY PREDICTED BY RF-SCORE:    0.00 PKD
ROOT
HETATM    1  C   UNL     1     -12.006  11.559  69.357  1.00  0.00    -0.325 C  
HETATM    2  N   UNL     1     -12.762  10.451  69.908  1.00  0.00    -0.537 N  
HETATM    3  H   UNL     1     -13.656  10.231  69.471  1.00  0.00     0.000 HD 
ENDROOT
BRANCH   2   4
HETATM    4  C   UNL     1     -12.374   9.677  70.965  1.00  0.00    -0.310 C  
HETATM    5  S   UNL     1     -13.266   9.392  72.347  1.00  0.00    -0.336 S  
BRANCH   4   6
HETATM    6  N   UNL     1     -11.157   9.073  70.857  1.00  0.00    -0.261 N  
HETATM    7  H   UNL     1     -10.339   9.656  71.037  1.00  0.00     0.000 HD 
BRANCH   6   8
HETATM    8  C   UNL     1     -10.911   7.705  70.515  1.00  0.00    -0.249 C  
HETATM    9  O   UNL     1     -11.646   7.460  69.343  1.00  0.00    -0.412 OA 
HETATM   10  H   UNL     1     -11.482   6.552  69.116  1.00  0.00     0.000 HD 
ENDBRANCH   6   8
ENDBRANCH   4   6
ENDBRANCH   2   4
TORSDOF 3
ENDMDL
MODEL      106
REMARK 921   NORMALIZED FREE ENERGY PREDICTED BY IDOCK:   -2.26 KCAL/MOL
REMARK 922        TOTAL FREE ENERGY PREDICTED BY IDOCK:   -2.68 KCAL/MOL
REMARK 923 INTER-LIGAND FREE ENERGY PREDICTED BY IDOCK:   -2.63 KCAL/MOL
REMARK 924 INTRA-LIGAND FREE ENERGY PREDICTED BY IDOCK:   -0.06 KCAL/MOL
REMARK 927      BINDING AFFINITY PREDICTED BY RF-SCORE:    0.00 PKD
ROOT
HETATM    1  C   UNL     1     -12.311  13.563  65.851  1.00  0.00    -0.456 C  
HETATM    2  N   UNL     1     -12.409  14.149  67.174  1.00  0.00    -0.572 N  
HETATM    3  H   UNL     1     -13.163  14.816  67.335  1.00  0.00     0.000 HD 
ENDROOT
BRANCH   2   4
HETATM    4  C   UNL     1     -11.574  13.881  68.222  1.00  0.00    -0.337 C  
HETATM    5  S   UNL     1     -12.017  13.806  69.829  1.00  0.00    -0.350 S  
BRANCH   4   6
HETATM    6  N   UNL     1     -10.272  13.633  67.907  1.00  0.00    -0.244 N  
HETATM    7  H   UNL     1      -9.959  12.665  67.981  1.00  0.00     0.000 HD 
BRANCH   6   8
HETATM    8  C   UNL     1      -9.299  14.594  67.483  1.00  0.00    -0.195 C  
HETATM    9  O   UNL     1      -8.815  14.135  66.247  1.00  0.00    -0.473 OA 
HETATM   10  H   UNL     1      -8.169  14.773  65.966  1.00  0.00     0.000 HD 
ENDBRANCH   6   8
ENDBRANCH   4   6
ENDBRANCH   2   4
TORSDOF 3
ENDMDL
MODEL      107
REMARK 921   NORMALIZED FREE ENERGY PREDICTED BY IDOCK:   -2.26 KCAL/MOL
REMARK 922        TOTAL FREE ENERGY PREDICTED BY IDOCK:   -2.68 KCAL/MOL
REMARK 923 INTER-LIGAND FREE ENERGY PREDICTED BY IDOCK:   -2.41 KCAL/MOL
REMARK 924 INTRA-LIGAND FREE ENERGY PREDICTED BY IDOCK:   -0.27 KCAL/MOL
REMARK 927      BINDING AFFINITY PREDICTED BY RF-SCORE:    0.00 PKD
ROOT
HETATM    1  C   UNL     1     -11.138   5.457  73.129  1.00  0.00    -0.308 C  
HETATM    2  N   UNL     1     -12.044   6.407  72.513  1.00  0.00    -0.531 N  
HETATM    3  H   UNL     1     -12.895   6.036  72.091  1.00  0.00     0.000 HD 
ENDROOT
BRANCH   2   4
HETATM    4  C   UNL     1     -11.852   7.759  72.453  1.00  0.00    -0.321 C  
HETATM    5  S   UNL     1     -13.022   8.897  72.105  1.00  0.00    -0.436 S  
BRANCH   4   6
HETATM    6  N   UNL     1     -10.593   8.202  72.724  1.00  0.00    -0.342 N  
HETATM    7  H   UNL     1     -10.298   8.175  73.700  1.00  0.00     0.000 HD 
BRANCH   6   8
HETATM    8  C   UNL     1      -9.642   8.702  71.777  1.00  0.00    -0.290 C  
HETATM    9  O   UNL     1      -9.787   7.908  70.627  1.00  0.00    -0.184 OA 
HETATM   10  H   UNL     1      -9.156   8.240  69.999  1.00  0.00     0.000 HD 
ENDBRANCH   6   8
ENDBRANCH   4   6
ENDBRANCH   2   4
TORSDOF 3
ENDMDL
MODEL      108
REMARK 921   NORMALIZED FREE ENERGY PREDICTED BY IDOCK:   -2.25 KCAL/MOL
REMARK 922        TOTAL FREE ENERGY PREDICTED BY IDOCK:   -2.67 KCAL/MOL
REMARK 923 INTER-LIGAND FREE ENERGY PREDICTED BY IDOCK:   -2.43 KCAL/MOL
REMARK 924 INTRA-LIGAND FREE ENERGY PREDICTED BY IDOCK:   -0.23 KCAL/MOL
REMARK 927      BINDING AFFINITY PREDICTED BY RF-SCORE:    0.00 PKD
ROOT
HETATM    1  C   UNL     1      -9.077   8.351  72.202  1.00  0.00    -0.239 C  
HETATM    2  N   UNL     1     -10.385   8.779  71.747  1.00  0.00    -0.315 N  
HETATM    3  H   UNL     1     -10.718   9.689  72.067  1.00  0.00     0.000 HD 
ENDROOT
BRANCH   2   4
HETATM    4  C   UNL     1     -11.210   8.064  70.924  1.00  0.00    -0.266 C  
HETATM    5  S   UNL     1     -10.723   6.951  69.780  1.00  0.00    -0.257 S  
BRANCH   4   6
HETATM    6  N   UNL     1     -12.547   8.275  71.079  1.00  0.00    -0.500 N  
HETATM    7  H   UNL     1     -13.156   7.465  70.961  1.00  0.00     0.000 HD 
BRANCH   6   8
HETATM    8  C   UNL     1     -13.184   9.519  71.392  1.00  0.00    -0.372 C  
HETATM    9  O   UNL     1     -12.798  10.416  70.382  1.00  0.00    -0.486 OA 
HETATM   10  H   UNL     1     -13.221  11.241  70.590  1.00  0.00     0.000 HD 
ENDBRANCH   6   8
ENDBRANCH   4   6
ENDBRANCH   2   4
TORSDOF 3
ENDMDL
MODEL      109
REMARK 921   NORMALIZED FREE ENERGY PREDICTED BY IDOCK:   -2.24 KCAL/MOL
REMARK 922        TOTAL FREE ENERGY PREDICTED BY IDOCK:   -2.66 KCAL/MOL
REMARK 923 INTER-LIGAND FREE ENERGY PREDICTED BY IDOCK:   -2.55 KCAL/MOL
REMARK 924 INTRA-LIGAND FREE ENERGY PREDICTED BY IDOCK:   -0.11 KCAL/MOL
REMARK 927      BINDING AFFINITY PREDICTED BY RF-SCORE:    0.00 PKD
ROOT
HETATM    1  C   UNL     1      -6.928  17.883  66.121  1.00  0.00    -0.301 C  
HETATM    2  N   UNL     1      -7.454  18.866  67.049  1.00  0.00    -0.214 N  
HETATM    3  H   UNL     1      -7.794  18.527  67.948  1.00  0.00     0.000 HD 
ENDROOT
BRANCH   2   4
HETATM    4  C   UNL     1      -7.533  20.211  66.816  1.00  0.00    -0.279 C  
HETATM    5  S   UNL     1      -6.261  21.206  66.396  1.00  0.00    -0.253 S  
BRANCH   4   6
HETATM    6  N   UNL     1      -8.772  20.769  66.918  1.00  0.00    -0.579 N  
HETATM    7  H   UNL     1      -8.847  21.762  66.696  1.00  0.00     0.000 HD 
BRANCH   6   8
HETATM    8  C   UNL     1      -9.978  20.103  67.306  1.00  0.00    -0.443 C  
HETATM    9  O   UNL     1     -10.654  19.799  66.113  1.00  0.00    -0.480 OA 
HETATM   10  H   UNL     1     -11.455  19.357  66.371  1.00  0.00     0.000 HD 
ENDBRANCH   6   8
ENDBRANCH   4   6
ENDBRANCH   2   4
TORSDOF 3
ENDMDL
MODEL      110
REMARK 921   NORMALIZED FREE ENERGY PREDICTED BY IDOCK:   -2.20 KCAL/MOL
REMARK 922        TOTAL FREE ENERGY PREDICTED BY IDOCK:   -2.60 KCAL/MOL
REMARK 923 INTER-LIGAND FREE ENERGY PREDICTED BY IDOCK:   -2.38 KCAL/MOL
REMARK 924 INTRA-LIGAND FREE ENERGY PREDICTED BY IDOCK:   -0.23 KCAL/MOL
REMARK 927      BINDING AFFINITY PREDICTED BY RF-SCORE:    0.00 PKD
ROOT
HETATM    1  C   UNL     1      -8.648   5.632  69.747  1.00  0.00    -0.121 C  
HETATM    2  N   UNL     1     -10.014   5.609  69.258  1.00  0.00    -0.172 N  
HETATM    3  H   UNL     1     -10.303   4.798  68.713  1.00  0.00     0.000 HD 
ENDROOT
BRANCH   2   4
HETATM    4  C   UNL     1     -10.945   6.588  69.468  1.00  0.00    -0.340 C  
HETATM    5  S   UNL     1     -11.798   6.837  70.881  1.00  0.00    -0.380 S  
BRANCH   4   6
HETATM    6  N   UNL     1     -11.170   7.439  68.429  1.00  0.00    -0.371 N  
HETATM    7  H   UNL     1     -11.760   8.250  68.620  1.00  0.00     0.000 HD 
BRANCH   6   8
HETATM    8  C   UNL     1     -10.662   7.312  67.096  1.00  0.00    -0.343 C  
HETATM    9  O   UNL     1     -11.480   6.365  66.459  1.00  0.00    -0.651 OA 
HETATM   10  H   UNL     1     -11.143   6.281  65.574  1.00  0.00     0.000 HD 
ENDBRANCH   6   8
ENDBRANCH   4   6
ENDBRANCH   2   4
TORSDOF 3
ENDMDL
MODEL      111
REMARK 921   NORMALIZED FREE ENERGY PREDICTED BY IDOCK:   -2.19 KCAL/MOL
REMARK 922        TOTAL FREE ENERGY PREDICTED BY IDOCK:   -2.60 KCAL/MOL
REMARK 923 INTER-LIGAND FREE ENERGY PREDICTED BY IDOCK:   -2.53 KCAL/MOL
REMARK 924 INTRA-LIGAND FREE ENERGY PREDICTED BY IDOCK:   -0.07 KCAL/MOL
REMARK 927      BINDING AFFINITY PREDICTED BY RF-SCORE:    0.00 PKD
ROOT
HETATM    1  C   UNL     1     -10.484  19.709  66.327  1.00  0.00    -0.519 C  
HETATM    2  N   UNL     1      -9.116  20.184  66.259  1.00  0.00    -0.559 N  
HETATM    3  H   UNL     1      -8.953  21.080  65.801  1.00  0.00     0.000 HD 
ENDROOT
BRANCH   2   4
HETATM    4  C   UNL     1      -8.025  19.529  66.759  1.00  0.00    -0.287 C  
HETATM    5  S   UNL     1      -7.336  19.781  68.258  1.00  0.00    -0.306 S  
BRANCH   4   6
HETATM    6  N   UNL     1      -7.477  18.573  65.958  1.00  0.00    -0.249 N  
HETATM    7  H   UNL     1      -7.045  18.894  65.091  1.00  0.00     0.000 HD 
BRANCH   6   8
HETATM    8  C   UNL     1      -7.446  17.164  66.210  1.00  0.00    -0.309 C  
HETATM    9  O   UNL     1      -6.098  16.841  66.435  1.00  0.00    -0.297 OA 
HETATM   10  H   UNL     1      -6.077  15.905  66.603  1.00  0.00     0.000 HD 
ENDBRANCH   6   8
ENDBRANCH   4   6
ENDBRANCH   2   4
TORSDOF 3
ENDMDL
MODEL      112
REMARK 921   NORMALIZED FREE ENERGY PREDICTED BY IDOCK:   -2.19 KCAL/MOL
REMARK 922        TOTAL FREE ENERGY PREDICTED BY IDOCK:   -2.59 KCAL/MOL
REMARK 923 INTER-LIGAND FREE ENERGY PREDICTED BY IDOCK:   -2.32 KCAL/MOL
REMARK 924 INTRA-LIGAND FREE ENERGY PREDICTED BY IDOCK:   -0.28 KCAL/MOL
REMARK 927      BINDING AFFINITY PREDICTED BY RF-SCORE:    0.00 PKD
ROOT
HETATM    1  C   UNL     1      -9.336  15.524  66.144  1.00  0.00    -0.345 C  
HETATM    2  N   UNL     1     -10.004  16.645  66.777  1.00  0.00    -0.268 N  
HETATM    3  H   UNL     1      -9.997  17.535  66.280  1.00  0.00     0.000 HD 
ENDROOT
BRANCH   2   4
HETATM    4  C   UNL     1     -10.642  16.606  67.985  1.00  0.00    -0.338 C  
HETATM    5  S   UNL     1     -11.331  15.255  68.682  1.00  0.00    -0.335 S  
BRANCH   4   6
HETATM    6  N   UNL     1     -10.693  17.777  68.678  1.00  0.00    -0.313 N  
HETATM    7  H   UNL     1     -11.407  17.850  69.404  1.00  0.00     0.000 HD 
BRANCH   6   8
HETATM    8  C   UNL     1      -9.847  18.916  68.492  1.00  0.00    -0.399 C  
HETATM    9  O   UNL     1      -8.529  18.433  68.546  1.00  0.00    -0.320 OA 
HETATM   10  H   UNL     1      -7.967  19.189  68.422  1.00  0.00     0.000 HD 
ENDBRANCH   6   8
ENDBRANCH   4   6
ENDBRANCH   2   4
TORSDOF 3
ENDMDL
MODEL      113
REMARK 921   NORMALIZED FREE ENERGY PREDICTED BY IDOCK:   -2.18 KCAL/MOL
REMARK 922        TOTAL FREE ENERGY PREDICTED BY IDOCK:   -2.58 KCAL/MOL
REMARK 923 INTER-LIGAND FREE ENERGY PREDICTED BY IDOCK:   -2.53 KCAL/MOL
REMARK 924 INTRA-LIGAND FREE ENERGY PREDICTED BY IDOCK:   -0.05 KCAL/MOL
REMARK 927      BINDING AFFINITY PREDICTED BY RF-SCORE:    0.00 PKD
ROOT
HETATM    1  C   UNL     1      -8.683   5.001  62.404  1.00  0.00    -0.120 C  
HETATM    2  N   UNL     1     -10.081   4.641  62.540  1.00  0.00    -0.382 N  
HETATM    3  H   UNL     1     -10.745   5.099  61.916  1.00  0.00     0.000 HD 
ENDROOT
BRANCH   2   4
HETATM    4  C   UNL     1     -10.582   3.740  63.437  1.00  0.00    -0.225 C  
HETATM    5  S   UNL     1     -10.554   2.079  63.271  1.00  0.00    -0.180 S  
BRANCH   4   6
HETATM    6  N   UNL     1     -11.130   4.258  64.571  1.00  0.00    -0.645 N  
HETATM    7  H   UNL     1     -12.140   4.405  64.566  1.00  0.00     0.000 HD 
BRANCH   6   8
HETATM    8  C   UNL     1     -10.433   4.616  65.769  1.00  0.00    -0.255 C  
HETATM    9  O   UNL     1     -11.214   5.605  66.390  1.00  0.00    -0.725 OA 
HETATM   10  H   UNL     1     -10.751   5.843  67.185  1.00  0.00     0.000 HD 
ENDBRANCH   6   8
ENDBRANCH   4   6
ENDBRANCH   2   4
TORSDOF 3
ENDMDL
MODEL      114
REMARK 921   NORMALIZED FREE ENERGY PREDICTED BY IDOCK:   -2.17 KCAL/MOL
REMARK 922        TOTAL FREE ENERGY PREDICTED BY IDOCK:   -2.57 KCAL/MOL
REMARK 923 INTER-LIGAND FREE ENERGY PREDICTED BY IDOCK:   -2.53 KCAL/MOL
REMARK 924 INTRA-LIGAND FREE ENERGY PREDICTED BY IDOCK:   -0.04 KCAL/MOL
REMARK 927      BINDING AFFINITY PREDICTED BY RF-SCORE:    0.00 PKD
ROOT
HETATM    1  C   UNL     1     -10.667  19.673  65.904  1.00  0.00    -0.413 C  
HETATM    2  N   UNL     1     -10.900  19.259  67.274  1.00  0.00    -0.488 N  
HETATM    3  H   UNL     1     -11.727  19.630  67.741  1.00  0.00     0.000 HD 
ENDROOT
BRANCH   2   4
HETATM    4  C   UNL     1     -10.102  18.412  67.992  1.00  0.00    -0.368 C  
HETATM    5  S   UNL     1     -10.149  16.745  67.936  1.00  0.00    -0.296 S  
BRANCH   4   6
HETATM    6  N   UNL     1      -9.178  18.997  68.803  1.00  0.00    -0.357 N  
HETATM    7  H   UNL     1      -9.490  19.263  69.737  1.00  0.00     0.000 HD 
BRANCH   6   8
HETATM    8  C   UNL     1      -7.812  19.277  68.477  1.00  0.00    -0.348 C  
HETATM    9  O   UNL     1      -7.275  19.940  69.593  1.00  0.00    -0.257 OA 
HETATM   10  H   UNL     1      -6.369  20.125  69.377  1.00  0.00     0.000 HD 
ENDBRANCH   6   8
ENDBRANCH   4   6
ENDBRANCH   2   4
TORSDOF 3
ENDMDL
MODEL      115
REMARK 921   NORMALIZED FREE ENERGY PREDICTED BY IDOCK:   -2.16 KCAL/MOL
REMARK 922        TOTAL FREE ENERGY PREDICTED BY IDOCK:   -2.57 KCAL/MOL
REMARK 923 INTER-LIGAND FREE ENERGY PREDICTED BY IDOCK:   -2.47 KCAL/MOL
REMARK 924 INTRA-LIGAND FREE ENERGY PREDICTED BY IDOCK:   -0.09 KCAL/MOL
REMARK 927      BINDING AFFINITY PREDICTED BY RF-SCORE:    0.00 PKD
ROOT
HETATM    1  C   UNL     1      -8.691  12.105  67.306  1.00  0.00    -0.182 C  
HETATM    2  N   UNL     1     -10.041  12.634  67.290  1.00  0.00    -0.213 N  
HETATM    3  H   UNL     1     -10.761  12.096  67.770  1.00  0.00     0.000 HD 
ENDROOT
BRANCH   2   4
HETATM    4  C   UNL     1     -10.427  13.796  66.683  1.00  0.00    -0.272 C  
HETATM    5  S   UNL     1     -11.243  15.056  67.414  1.00  0.00    -0.327 S  
BRANCH   4   6
HETATM    6  N   UNL     1     -10.090  13.932  65.371  1.00  0.00    -0.457 N  
HETATM    7  H   UNL     1      -9.285  14.525  65.163  1.00  0.00     0.000 HD 
BRANCH   6   8
HETATM    8  C   UNL     1     -10.750  13.329  64.253  1.00  0.00    -0.387 C  
HETATM    9  O   UNL     1      -9.763  12.606  63.564  1.00  0.00    -0.635 OA 
HETATM   10  H   UNL     1     -10.201  12.205  62.822  1.00  0.00     0.000 HD 
ENDBRANCH   6   8
ENDBRANCH   4   6
ENDBRANCH   2   4
TORSDOF 3
ENDMDL
MODEL      116
REMARK 921   NORMALIZED FREE ENERGY PREDICTED BY IDOCK:   -2.16 KCAL/MOL
REMARK 922        TOTAL FREE ENERGY PREDICTED BY IDOCK:   -2.56 KCAL/MOL
REMARK 923 INTER-LIGAND FREE ENERGY PREDICTED BY IDOCK:   -2.26 KCAL/MOL
REMARK 924 INTRA-LIGAND FREE ENERGY PREDICTED BY IDOCK:   -0.30 KCAL/MOL
REMARK 927      BINDING AFFINITY PREDICTED BY RF-SCORE:    0.00 PKD
ROOT
HETATM    1  C   UNL     1      -9.069  10.300  66.120  1.00  0.00    -0.155 C  
HETATM    2  N   UNL     1     -10.253  10.027  66.911  1.00  0.00    -0.227 N  
HETATM    3  H   UNL     1     -10.430   9.057  67.169  1.00  0.00     0.000 HD 
ENDROOT
BRANCH   2   4
HETATM    4  C   UNL     1     -11.151  10.964  67.340  1.00  0.00    -0.307 C  
HETATM    5  S   UNL     1     -11.511  12.398  66.565  1.00  0.00    -0.380 S  
BRANCH   4   6
HETATM    6  N   UNL     1     -11.818  10.677  68.492  1.00  0.00    -0.471 N  
HETATM    7  H   UNL     1     -12.838  10.681  68.445  1.00  0.00     0.000 HD 
BRANCH   6   8
HETATM    8  C   UNL     1     -11.234  10.370  69.762  1.00  0.00    -0.293 C  
HETATM    9  O   UNL     1      -9.933  10.899  69.729  1.00  0.00    -0.426 OA 
HETATM   10  H   UNL     1      -9.546  10.695  70.572  1.00  0.00     0.000 HD 
ENDBRANCH   6   8
ENDBRANCH   4   6
ENDBRANCH   2   4
TORSDOF 3
ENDMDL
MODEL      117
REMARK 921   NORMALIZED FREE ENERGY PREDICTED BY IDOCK:   -2.16 KCAL/MOL
REMARK 922        TOTAL FREE ENERGY PREDICTED BY IDOCK:   -2.56 KCAL/MOL
REMARK 923 INTER-LIGAND FREE ENERGY PREDICTED BY IDOCK:   -2.27 KCAL/MOL
REMARK 924 INTRA-LIGAND FREE ENERGY PREDICTED BY IDOCK:   -0.29 KCAL/MOL
REMARK 927      BINDING AFFINITY PREDICTED BY RF-SCORE:    0.00 PKD
ROOT
HETATM    1  C   UNL     1     -11.355   8.365  71.628  1.00  0.00    -0.286 C  
HETATM    2  N   UNL     1     -11.443   7.933  73.010  1.00  0.00    -0.548 N  
HETATM    3  H   UNL     1     -11.973   8.522  73.652  1.00  0.00     0.000 HD 
ENDROOT
BRANCH   2   4
HETATM    4  C   UNL     1     -10.873   6.801  73.522  1.00  0.00    -0.214 C  
HETATM    5  S   UNL     1     -11.240   5.235  73.077  1.00  0.00    -0.304 S  
BRANCH   4   6
HETATM    6  N   UNL     1      -9.907   6.986  74.464  1.00  0.00    -0.461 N  
HETATM    7  H   UNL     1     -10.179   6.834  75.436  1.00  0.00     0.000 HD 
BRANCH   6   8
HETATM    8  C   UNL     1      -8.549   7.372  74.228  1.00  0.00    -0.218 C  
HETATM    9  O   UNL     1      -8.577   8.754  73.979  1.00  0.00    -0.241 OA 
HETATM   10  H   UNL     1      -7.675   9.010  73.823  1.00  0.00     0.000 HD 
ENDBRANCH   6   8
ENDBRANCH   4   6
ENDBRANCH   2   4
TORSDOF 3
ENDMDL
MODEL      118
REMARK 921   NORMALIZED FREE ENERGY PREDICTED BY IDOCK:   -2.16 KCAL/MOL
REMARK 922        TOTAL FREE ENERGY PREDICTED BY IDOCK:   -2.56 KCAL/MOL
REMARK 923 INTER-LIGAND FREE ENERGY PREDICTED BY IDOCK:   -2.32 KCAL/MOL
REMARK 924 INTRA-LIGAND FREE ENERGY PREDICTED BY IDOCK:   -0.24 KCAL/MOL
REMARK 927      BINDING AFFINITY PREDICTED BY RF-SCORE:    0.00 PKD
ROOT
HETATM    1  C   UNL     1     -11.570  13.204  68.550  1.00  0.00    -0.326 C  
HETATM    2  N   UNL     1     -10.552  13.167  67.517  1.00  0.00    -0.233 N  
HETATM    3  H   UNL     1      -9.635  12.804  67.776  1.00  0.00     0.000 HD 
ENDROOT
BRANCH   2   4
HETATM    4  C   UNL     1     -10.721  13.578  66.225  1.00  0.00    -0.288 C  
HETATM    5  S   UNL     1     -12.060  13.283  65.273  1.00  0.00    -0.447 S  
BRANCH   4   6
HETATM    6  N   UNL     1      -9.707  14.312  65.688  1.00  0.00    -0.524 N  
HETATM    7  H   UNL     1      -9.691  14.396  64.671  1.00  0.00     0.000 HD 
BRANCH   6   8
HETATM    8  C   UNL     1      -8.662  14.977  66.406  1.00  0.00    -0.134 C  
HETATM    9  O   UNL     1      -7.880  13.961  66.979  1.00  0.00    -0.365 OA 
HETATM   10  H   UNL     1      -7.186  14.402  67.456  1.00  0.00     0.000 HD 
ENDBRANCH   6   8
ENDBRANCH   4   6
ENDBRANCH   2   4
TORSDOF 3
ENDMDL
MODEL      119
REMARK 921   NORMALIZED FREE ENERGY PREDICTED BY IDOCK:   -2.15 KCAL/MOL
REMARK 922        TOTAL FREE ENERGY PREDICTED BY IDOCK:   -2.55 KCAL/MOL
REMARK 923 INTER-LIGAND FREE ENERGY PREDICTED BY IDOCK:   -2.28 KCAL/MOL
REMARK 924 INTRA-LIGAND FREE ENERGY PREDICTED BY IDOCK:   -0.28 KCAL/MOL
REMARK 927      BINDING AFFINITY PREDICTED BY RF-SCORE:    0.00 PKD
ROOT
HETATM    1  C   UNL     1     -10.382  10.537  69.034  1.00  0.00    -0.213 C  
HETATM    2  N   UNL     1      -9.823  11.845  68.751  1.00  0.00    -0.389 N  
HETATM    3  H   UNL     1      -8.907  12.058  69.144  1.00  0.00     0.000 HD 
ENDROOT
BRANCH   2   4
HETATM    4  C   UNL     1     -10.425  12.815  67.999  1.00  0.00    -0.226 C  
HETATM    5  S   UNL     1      -9.751  13.589  66.682  1.00  0.00    -0.285 S  
BRANCH   4   6
HETATM    6  N   UNL     1     -11.694  13.155  68.357  1.00  0.00    -0.331 N  
HETATM    7  H   UNL     1     -12.450  12.765  67.793  1.00  0.00     0.000 HD 
BRANCH   6   8
HETATM    8  C   UNL     1     -12.076  14.004  69.445  1.00  0.00    -0.340 C  
HETATM    9  O   UNL     1     -11.929  13.232  70.609  1.00  0.00    -0.492 OA 
HETATM   10  H   UNL     1     -12.182  13.796  71.331  1.00  0.00     0.000 HD 
ENDBRANCH   6   8
ENDBRANCH   4   6
ENDBRANCH   2   4
TORSDOF 3
ENDMDL
MODEL      120
REMARK 921   NORMALIZED FREE ENERGY PREDICTED BY IDOCK:   -2.14 KCAL/MOL
REMARK 922        TOTAL FREE ENERGY PREDICTED BY IDOCK:   -2.53 KCAL/MOL
REMARK 923 INTER-LIGAND FREE ENERGY PREDICTED BY IDOCK:   -2.49 KCAL/MOL
REMARK 924 INTRA-LIGAND FREE ENERGY PREDICTED BY IDOCK:   -0.04 KCAL/MOL
REMARK 927      BINDING AFFINITY PREDICTED BY RF-SCORE:    0.00 PKD
ROOT
HETATM    1  C   UNL     1      -9.311   7.063  70.457  1.00  0.00    -0.159 C  
HETATM    2  N   UNL     1      -9.984   7.849  71.474  1.00  0.00    -0.170 N  
HETATM    3  H   UNL     1     -10.079   8.850  71.306  1.00  0.00     0.000 HD 
ENDROOT
BRANCH   2   4
HETATM    4  C   UNL     1     -10.503   7.357  72.639  1.00  0.00    -0.255 C  
HETATM    5  S   UNL     1      -9.824   6.157  73.580  1.00  0.00    -0.203 S  
BRANCH   4   6
HETATM    6  N   UNL     1     -11.665   7.923  73.068  1.00  0.00    -0.579 N  
HETATM    7  H   UNL     1     -12.076   7.536  73.918  1.00  0.00     0.000 HD 
BRANCH   6   8
HETATM    8  C   UNL     1     -12.368   9.004  72.447  1.00  0.00    -0.280 C  
HETATM    9  O   UNL     1     -13.702   8.894  72.873  1.00  0.00    -0.848 OA 
HETATM   10  H   UNL     1     -14.168   9.613  72.460  1.00  0.00     0.000 HD 
ENDBRANCH   6   8
ENDBRANCH   4   6
ENDBRANCH   2   4
TORSDOF 3
ENDMDL
MODEL      121
REMARK 921   NORMALIZED FREE ENERGY PREDICTED BY IDOCK:   -2.13 KCAL/MOL
REMARK 922        TOTAL FREE ENERGY PREDICTED BY IDOCK:   -2.53 KCAL/MOL
REMARK 923 INTER-LIGAND FREE ENERGY PREDICTED BY IDOCK:   -2.30 KCAL/MOL
REMARK 924 INTRA-LIGAND FREE ENERGY PREDICTED BY IDOCK:   -0.23 KCAL/MOL
REMARK 927      BINDING AFFINITY PREDICTED BY RF-SCORE:    0.00 PKD
ROOT
HETATM    1  C   UNL     1     -10.501   4.365  72.436  1.00  0.00    -0.149 C  
HETATM    2  N   UNL     1     -10.741   5.732  72.013  1.00  0.00    -0.225 N  
HETATM    3  H   UNL     1     -10.653   6.463  72.718  1.00  0.00     0.000 HD 
ENDROOT
BRANCH   2   4
HETATM    4  C   UNL     1     -11.075   6.120  70.746  1.00  0.00    -0.309 C  
HETATM    5  S   UNL     1     -10.290   5.665  69.345  1.00  0.00    -0.293 S  
BRANCH   4   6
HETATM    6  N   UNL     1     -12.161   6.934  70.632  1.00  0.00    -0.564 N  
HETATM    7  H   UNL     1     -12.955   6.568  70.104  1.00  0.00     0.000 HD 
BRANCH   6   8
HETATM    8  C   UNL     1     -12.303   8.250  71.177  1.00  0.00    -0.206 C  
HETATM    9  O   UNL     1     -12.749   8.077  72.498  1.00  0.00    -0.551 OA 
HETATM   10  H   UNL     1     -12.842   8.950  72.860  1.00  0.00     0.000 HD 
ENDBRANCH   6   8
ENDBRANCH   4   6
ENDBRANCH   2   4
TORSDOF 3
ENDMDL
MODEL      122
REMARK 921   NORMALIZED FREE ENERGY PREDICTED BY IDOCK:   -2.13 KCAL/MOL
REMARK 922        TOTAL FREE ENERGY PREDICTED BY IDOCK:   -2.52 KCAL/MOL
REMARK 923 INTER-LIGAND FREE ENERGY PREDICTED BY IDOCK:   -2.48 KCAL/MOL
REMARK 924 INTRA-LIGAND FREE ENERGY PREDICTED BY IDOCK:   -0.05 KCAL/MOL
REMARK 927      BINDING AFFINITY PREDICTED BY RF-SCORE:    0.00 PKD
ROOT
HETATM    1  C   UNL     1      -7.987  11.020  65.845  1.00  0.00    -0.054 C  
HETATM    2  N   UNL     1      -9.095  11.833  65.380  1.00  0.00    -0.418 N  
HETATM    3  H   UNL     1      -8.922  12.451  64.587  1.00  0.00     0.000 HD 
ENDROOT
BRANCH   2   4
HETATM    4  C   UNL     1     -10.352  11.838  65.917  1.00  0.00    -0.241 C  
HETATM    5  S   UNL     1     -10.725  11.641  67.532  1.00  0.00    -0.227 S  
BRANCH   4   6
HETATM    6  N   UNL     1     -11.379  12.046  65.047  1.00  0.00    -0.324 N  
HETATM    7  H   UNL     1     -12.319  12.059  65.442  1.00  0.00     0.000 HD 
BRANCH   6   8
HETATM    8  C   UNL     1     -11.272  12.249  63.634  1.00  0.00    -0.466 C  
HETATM    9  O   UNL     1     -12.045  13.386  63.346  1.00  0.00    -0.745 OA 
HETATM   10  H   UNL     1     -11.973  13.521  62.408  1.00  0.00     0.000 HD 
ENDBRANCH   6   8
ENDBRANCH   4   6
ENDBRANCH   2   4
TORSDOF 3
ENDMDL
MODEL      123
REMARK 921   NORMALIZED FREE ENERGY PREDICTED BY IDOCK:   -2.12 KCAL/MOL
REMARK 922        TOTAL FREE ENERGY PREDICTED BY IDOCK:   -2.52 KCAL/MOL
REMARK 923 INTER-LIGAND FREE ENERGY PREDICTED BY IDOCK:   -2.27 KCAL/MOL
REMARK 924 INTRA-LIGAND FREE ENERGY PREDICTED BY IDOCK:   -0.24 KCAL/MOL
REMARK 927      BINDING AFFINITY PREDICTED BY RF-SCORE:    0.00 PKD
ROOT
HETATM    1  C   UNL     1     -10.116  13.653  67.354  1.00  0.00    -0.241 C  
HETATM    2  N   UNL     1     -10.297  12.629  66.343  1.00  0.00    -0.245 N  
HETATM    3  H   UNL     1      -9.658  11.835  66.361  1.00  0.00     0.000 HD 
ENDROOT
BRANCH   2   4
HETATM    4  C   UNL     1     -11.255  12.641  65.368  1.00  0.00    -0.299 C  
HETATM    5  S   UNL     1     -12.598  13.633  65.330  1.00  0.00    -0.432 S  
BRANCH   4   6
HETATM    6  N   UNL     1     -11.072  11.776  64.332  1.00  0.00    -0.330 N  
HETATM    7  H   UNL     1     -11.821  11.724  63.641  1.00  0.00     0.000 HD 
BRANCH   6   8
HETATM    8  C   UNL     1      -9.935  10.934  64.115  1.00  0.00    -0.344 C  
HETATM    9  O   UNL     1     -10.099   9.834  64.974  1.00  0.00    -0.382 OA 
HETATM   10  H   UNL     1      -9.344   9.274  64.829  1.00  0.00     0.000 HD 
ENDBRANCH   6   8
ENDBRANCH   4   6
ENDBRANCH   2   4
TORSDOF 3
ENDMDL
MODEL      124
REMARK 921   NORMALIZED FREE ENERGY PREDICTED BY IDOCK:   -2.11 KCAL/MOL
REMARK 922        TOTAL FREE ENERGY PREDICTED BY IDOCK:   -2.50 KCAL/MOL
REMARK 923 INTER-LIGAND FREE ENERGY PREDICTED BY IDOCK:   -2.46 KCAL/MOL
REMARK 924 INTRA-LIGAND FREE ENERGY PREDICTED BY IDOCK:   -0.05 KCAL/MOL
REMARK 927      BINDING AFFINITY PREDICTED BY RF-SCORE:    0.00 PKD
ROOT
HETATM    1  C   UNL     1     -10.324  13.018  64.227  1.00  0.00    -0.362 C  
HETATM    2  N   UNL     1      -9.858  13.250  65.581  1.00  0.00    -0.446 N  
HETATM    3  H   UNL     1      -9.021  12.749  65.880  1.00  0.00     0.000 HD 
ENDROOT
BRANCH   2   4
HETATM    4  C   UNL     1     -10.448  14.084  66.489  1.00  0.00    -0.281 C  
HETATM    5  S   UNL     1     -10.422  15.752  66.444  1.00  0.00    -0.305 S  
BRANCH   4   6
HETATM    6  N   UNL     1     -11.132  13.484  67.503  1.00  0.00    -0.267 N  
HETATM    7  H   UNL     1     -11.264  12.475  67.433  1.00  0.00     0.000 HD 
BRANCH   6   8
HETATM    8  C   UNL     1     -11.685  14.127  68.656  1.00  0.00    -0.350 C  
HETATM    9  O   UNL     1     -10.699  14.048  69.654  1.00  0.00    -0.449 OA 
HETATM   10  H   UNL     1     -11.065  14.475  70.419  1.00  0.00     0.000 HD 
ENDBRANCH   6   8
ENDBRANCH   4   6
ENDBRANCH   2   4
TORSDOF 3
ENDMDL
MODEL      125
REMARK 921   NORMALIZED FREE ENERGY PREDICTED BY IDOCK:   -2.11 KCAL/MOL
REMARK 922        TOTAL FREE ENERGY PREDICTED BY IDOCK:   -2.50 KCAL/MOL
REMARK 923 INTER-LIGAND FREE ENERGY PREDICTED BY IDOCK:   -2.46 KCAL/MOL
REMARK 924 INTRA-LIGAND FREE ENERGY PREDICTED BY IDOCK:   -0.04 KCAL/MOL
REMARK 927      BINDING AFFINITY PREDICTED BY RF-SCORE:    0.00 PKD
ROOT
HETATM    1  C   UNL     1      -9.731   4.531  69.422  1.00  0.00    -0.202 C  
HETATM    2  N   UNL     1     -10.596   5.695  69.437  1.00  0.00    -0.297 N  
HETATM    3  H   UNL     1     -10.693   6.218  68.567  1.00  0.00     0.000 HD 
ENDROOT
BRANCH   2   4
HETATM    4  C   UNL     1     -11.291   6.150  70.523  1.00  0.00    -0.310 C  
HETATM    5  S   UNL     1     -11.124   5.601  72.090  1.00  0.00    -0.214 S  
BRANCH   4   6
HETATM    6  N   UNL     1     -12.181   7.155  70.291  1.00  0.00    -0.592 N  
HETATM    7  H   UNL     1     -12.262   7.483  69.328  1.00  0.00     0.000 HD 
BRANCH   6   8
HETATM    8  C   UNL     1     -13.012   7.799  71.262  1.00  0.00    -0.221 C  
HETATM    9  O   UNL     1     -14.336   7.493  70.903  1.00  0.00    -0.625 OA 
HETATM   10  H   UNL     1     -14.888   7.920  71.548  1.00  0.00     0.000 HD 
ENDBRANCH   6   8
ENDBRANCH   4   6
ENDBRANCH   2   4
TORSDOF 3
ENDMDL
MODEL      126
REMARK 921   NORMALIZED FREE ENERGY PREDICTED BY IDOCK:   -2.10 KCAL/MOL
REMARK 922        TOTAL FREE ENERGY PREDICTED BY IDOCK:   -2.49 KCAL/MOL
REMARK 923 INTER-LIGAND FREE ENERGY PREDICTED BY IDOCK:   -2.38 KCAL/MOL
REMARK 924 INTRA-LIGAND FREE ENERGY PREDICTED BY IDOCK:   -0.11 KCAL/MOL
REMARK 927      BINDING AFFINITY PREDICTED BY RF-SCORE:    0.00 PKD
ROOT
HETATM    1  C   UNL     1      -7.046  17.186  66.664  1.00  0.00    -0.248 C  
HETATM    2  N   UNL     1      -7.811  17.265  67.893  1.00  0.00    -0.191 N  
HETATM    3  H   UNL     1      -7.520  16.667  68.666  1.00  0.00     0.000 HD 
ENDROOT
BRANCH   2   4
HETATM    4  C   UNL     1      -8.893  18.074  68.101  1.00  0.00    -0.273 C  
HETATM    5  S   UNL     1     -10.466  17.564  68.328  1.00  0.00    -0.367 S  
BRANCH   4   6
HETATM    6  N   UNL     1      -8.645  19.413  68.145  1.00  0.00    -0.326 N  
HETATM    7  H   UNL     1      -7.868  19.716  68.733  1.00  0.00     0.000 HD 
BRANCH   6   8
HETATM    8  C   UNL     1      -9.363  20.437  67.448  1.00  0.00    -0.402 C  
HETATM    9  O   UNL     1      -8.816  20.483  66.155  1.00  0.00    -0.570 OA 
HETATM   10  H   UNL     1      -9.293  21.163  65.693  1.00  0.00     0.000 HD 
ENDBRANCH   6   8
ENDBRANCH   4   6
ENDBRANCH   2   4
TORSDOF 3
ENDMDL
MODEL      127
REMARK 921   NORMALIZED FREE ENERGY PREDICTED BY IDOCK:   -2.10 KCAL/MOL
REMARK 922        TOTAL FREE ENERGY PREDICTED BY IDOCK:   -2.49 KCAL/MOL
REMARK 923 INTER-LIGAND FREE ENERGY PREDICTED BY IDOCK:   -2.48 KCAL/MOL
REMARK 924 INTRA-LIGAND FREE ENERGY PREDICTED BY IDOCK:   -0.00 KCAL/MOL
REMARK 927      BINDING AFFINITY PREDICTED BY RF-SCORE:    0.00 PKD
ROOT
HETATM    1  C   UNL     1      -9.106   8.926  66.542  1.00  0.00    -0.166 C  
HETATM    2  N   UNL     1      -9.718   8.951  65.228  1.00  0.00    -0.373 N  
HETATM    3  H   UNL     1     -10.248   8.128  64.943  1.00  0.00     0.000 HD 
ENDROOT
BRANCH   2   4
HETATM    4  C   UNL     1      -9.643   9.987  64.340  1.00  0.00    -0.258 C  
HETATM    5  S   UNL     1      -8.814   9.973  62.891  1.00  0.00    -0.263 S  
BRANCH   4   6
HETATM    6  N   UNL     1     -10.329  11.116  64.671  1.00  0.00    -0.309 N  
HETATM    7  H   UNL     1     -10.862  11.091  65.541  1.00  0.00     0.000 HD 
BRANCH   6   8
HETATM    8  C   UNL     1     -10.377  12.335  63.921  1.00  0.00    -0.429 C  
HETATM    9  O   UNL     1     -11.476  12.214  63.054  1.00  0.00    -0.684 OA 
HETATM   10  H   UNL     1     -11.508  13.023  62.558  1.00  0.00     0.000 HD 
ENDBRANCH   6   8
ENDBRANCH   4   6
ENDBRANCH   2   4
TORSDOF 3
ENDMDL
MODEL      128
REMARK 921   NORMALIZED FREE ENERGY PREDICTED BY IDOCK:   -2.10 KCAL/MOL
REMARK 922        TOTAL FREE ENERGY PREDICTED BY IDOCK:   -2.49 KCAL/MOL
REMARK 923 INTER-LIGAND FREE ENERGY PREDICTED BY IDOCK:   -2.42 KCAL/MOL
REMARK 924 INTRA-LIGAND FREE ENERGY PREDICTED BY IDOCK:   -0.07 KCAL/MOL
REMARK 927      BINDING AFFINITY PREDICTED BY RF-SCORE:    0.00 PKD
ROOT
HETATM    1  C   UNL     1     -10.727  16.915  68.094  1.00  0.00    -0.375 C  
HETATM    2  N   UNL     1      -9.959  18.088  68.463  1.00  0.00    -0.371 N  
HETATM    3  H   UNL     1     -10.374  18.725  69.142  1.00  0.00     0.000 HD 
ENDROOT
BRANCH   2   4
HETATM    4  C   UNL     1      -8.723  18.410  67.976  1.00  0.00    -0.287 C  
HETATM    5  S   UNL     1      -7.522  19.215  68.811  1.00  0.00    -0.342 S  
BRANCH   4   6
HETATM    6  N   UNL     1      -8.455  18.013  66.701  1.00  0.00    -0.254 N  
HETATM    7  H   UNL     1      -9.202  18.135  66.016  1.00  0.00     0.000 HD 
BRANCH   6   8
HETATM    8  C   UNL     1      -7.233  17.440  66.224  1.00  0.00    -0.311 C  
HETATM    9  O   UNL     1      -6.804  18.265  65.171  1.00  0.00    -0.476 OA 
HETATM   10  H   UNL     1      -5.992  17.885  64.855  1.00  0.00     0.000 HD 
ENDBRANCH   6   8
ENDBRANCH   4   6
ENDBRANCH   2   4
TORSDOF 3
ENDMDL
MODEL      129
REMARK 921   NORMALIZED FREE ENERGY PREDICTED BY IDOCK:   -2.09 KCAL/MOL
REMARK 922        TOTAL FREE ENERGY PREDICTED BY IDOCK:   -2.48 KCAL/MOL
REMARK 923 INTER-LIGAND FREE ENERGY PREDICTED BY IDOCK:   -2.43 KCAL/MOL
REMARK 924 INTRA-LIGAND FREE ENERGY PREDICTED BY IDOCK:   -0.05 KCAL/MOL
REMARK 927      BINDING AFFINITY PREDICTED BY RF-SCORE:    0.00 PKD
ROOT
HETATM    1  C   UNL     1     -12.073  13.656  68.477  1.00  0.00    -0.286 C  
HETATM    2  N   UNL     1     -11.074  12.640  68.749  1.00  0.00    -0.251 N  
HETATM    3  H   UNL     1     -10.220  12.938  69.220  1.00  0.00     0.000 HD 
ENDROOT
BRANCH   2   4
HETATM    4  C   UNL     1     -11.184  11.317  68.427  1.00  0.00    -0.262 C  
HETATM    5  S   UNL     1     -10.323  10.528  67.233  1.00  0.00    -0.242 S  
BRANCH   4   6
HETATM    6  N   UNL     1     -12.061  10.586  69.168  1.00  0.00    -0.538 N  
HETATM    7  H   UNL     1     -12.831  10.144  68.664  1.00  0.00     0.000 HD 
BRANCH   6   8
HETATM    8  C   UNL     1     -12.014  10.374  70.583  1.00  0.00    -0.351 C  
HETATM    9  O   UNL     1     -12.680   9.159  70.816  1.00  0.00    -0.504 OA 
HETATM   10  H   UNL     1     -12.648   9.019  71.755  1.00  0.00     0.000 HD 
ENDBRANCH   6   8
ENDBRANCH   4   6
ENDBRANCH   2   4
TORSDOF 3
ENDMDL
MODEL      130
REMARK 921   NORMALIZED FREE ENERGY PREDICTED BY IDOCK:   -2.08 KCAL/MOL
REMARK 922        TOTAL FREE ENERGY PREDICTED BY IDOCK:   -2.47 KCAL/MOL
REMARK 923 INTER-LIGAND FREE ENERGY PREDICTED BY IDOCK:   -2.37 KCAL/MOL
REMARK 924 INTRA-LIGAND FREE ENERGY PREDICTED BY IDOCK:   -0.09 KCAL/MOL
REMARK 927      BINDING AFFINITY PREDICTED BY RF-SCORE:    0.00 PKD
ROOT
HETATM    1  C   UNL     1      -9.937   7.441  67.607  1.00  0.00    -0.167 C  
HETATM    2  N   UNL     1     -10.968   7.579  68.619  1.00  0.00    -0.427 N  
HETATM    3  H   UNL     1     -11.512   8.441  68.618  1.00  0.00     0.000 HD 
ENDROOT
BRANCH   2   4
HETATM    4  C   UNL     1     -11.269   6.648  69.573  1.00  0.00    -0.326 C  
HETATM    5  S   UNL     1     -10.382   5.276  69.914  1.00  0.00    -0.275 S  
BRANCH   4   6
HETATM    6  N   UNL     1     -12.384   6.887  70.318  1.00  0.00    -0.598 N  
HETATM    7  H   UNL     1     -13.263   6.508  69.963  1.00  0.00     0.000 HD 
BRANCH   6   8
HETATM    8  C   UNL     1     -12.448   7.617  71.548  1.00  0.00    -0.336 C  
HETATM    9  O   UNL     1     -11.116   7.876  71.914  1.00  0.00    -0.246 OA 
HETATM   10  H   UNL     1     -11.159   8.360  72.731  1.00  0.00     0.000 HD 
ENDBRANCH   6   8
ENDBRANCH   4   6
ENDBRANCH   2   4
TORSDOF 3
ENDMDL
MODEL      131
REMARK 921   NORMALIZED FREE ENERGY PREDICTED BY IDOCK:   -2.05 KCAL/MOL
REMARK 922        TOTAL FREE ENERGY PREDICTED BY IDOCK:   -2.43 KCAL/MOL
REMARK 923 INTER-LIGAND FREE ENERGY PREDICTED BY IDOCK:   -2.13 KCAL/MOL
REMARK 924 INTRA-LIGAND FREE ENERGY PREDICTED BY IDOCK:   -0.30 KCAL/MOL
REMARK 927      BINDING AFFINITY PREDICTED BY RF-SCORE:    0.00 PKD
ROOT
HETATM    1  C   UNL     1      -7.891  15.930  69.174  1.00  0.00    -0.227 C  
HETATM    2  N   UNL     1      -8.237  17.132  68.441  1.00  0.00    -0.244 N  
HETATM    3  H   UNL     1      -7.472  17.738  68.147  1.00  0.00     0.000 HD 
ENDROOT
BRANCH   2   4
HETATM    4  C   UNL     1      -9.506  17.519  68.112  1.00  0.00    -0.291 C  
HETATM    5  S   UNL     1     -10.134  19.057  68.283  1.00  0.00    -0.401 S  
BRANCH   4   6
HETATM    6  N   UNL     1     -10.311  16.559  67.578  1.00  0.00    -0.288 N  
HETATM    7  H   UNL     1     -10.918  16.057  68.226  1.00  0.00     0.000 HD 
BRANCH   6   8
HETATM    8  C   UNL     1     -10.390  16.182  66.199  1.00  0.00    -0.339 C  
HETATM    9  O   UNL     1      -9.109  15.722  65.849  1.00  0.00    -0.337 OA 
HETATM   10  H   UNL     1      -9.162  15.471  64.934  1.00  0.00     0.000 HD 
ENDBRANCH   6   8
ENDBRANCH   4   6
ENDBRANCH   2   4
TORSDOF 3
ENDMDL
MODEL      132
REMARK 921   NORMALIZED FREE ENERGY PREDICTED BY IDOCK:   -2.04 KCAL/MOL
REMARK 922        TOTAL FREE ENERGY PREDICTED BY IDOCK:   -2.43 KCAL/MOL
REMARK 923 INTER-LIGAND FREE ENERGY PREDICTED BY IDOCK:   -2.38 KCAL/MOL
REMARK 924 INTRA-LIGAND FREE ENERGY PREDICTED BY IDOCK:   -0.05 KCAL/MOL
REMARK 927      BINDING AFFINITY PREDICTED BY RF-SCORE:    0.00 PKD
ROOT
HETATM    1  C   UNL     1      -7.550  15.050  68.006  1.00  0.00    -0.119 C  
HETATM    2  N   UNL     1      -7.877  16.083  67.042  1.00  0.00    -0.204 N  
HETATM    3  H   UNL     1      -7.162  16.783  66.845  1.00  0.00     0.000 HD 
ENDROOT
BRANCH   2   4
HETATM    4  C   UNL     1      -9.065  16.196  66.375  1.00  0.00    -0.304 C  
HETATM    5  S   UNL     1     -10.067  17.531  66.385  1.00  0.00    -0.342 S  
BRANCH   4   6
HETATM    6  N   UNL     1      -9.439  15.124  65.624  1.00  0.00    -0.431 N  
HETATM    7  H   UNL     1      -8.701  14.649  65.103  1.00  0.00     0.000 HD 
BRANCH   6   8
HETATM    8  C   UNL     1     -10.763  14.595  65.491  1.00  0.00    -0.349 C  
HETATM    9  O   UNL     1     -11.200  14.963  64.208  1.00  0.00    -0.629 OA 
HETATM   10  H   UNL     1     -12.078  14.612  64.119  1.00  0.00     0.000 HD 
ENDBRANCH   6   8
ENDBRANCH   4   6
ENDBRANCH   2   4
TORSDOF 3
ENDMDL
MODEL      133
REMARK 921   NORMALIZED FREE ENERGY PREDICTED BY IDOCK:   -2.04 KCAL/MOL
REMARK 922        TOTAL FREE ENERGY PREDICTED BY IDOCK:   -2.42 KCAL/MOL
REMARK 923 INTER-LIGAND FREE ENERGY PREDICTED BY IDOCK:   -2.37 KCAL/MOL
REMARK 924 INTRA-LIGAND FREE ENERGY PREDICTED BY IDOCK:   -0.05 KCAL/MOL
REMARK 927      BINDING AFFINITY PREDICTED BY RF-SCORE:    0.00 PKD
ROOT
HETATM    1  C   UNL     1     -12.066  10.536  71.150  1.00  0.00    -0.370 C  
HETATM    2  N   UNL     1     -11.605  11.638  70.328  1.00  0.00    -0.510 N  
HETATM    3  H   UNL     1     -11.273  12.474  70.808  1.00  0.00     0.000 HD 
ENDROOT
BRANCH   2   4
HETATM    4  C   UNL     1     -11.579  11.648  68.961  1.00  0.00    -0.316 C  
HETATM    5  S   UNL     1     -11.780  12.990  67.990  1.00  0.00    -0.352 S  
BRANCH   4   6
HETATM    6  N   UNL     1     -11.345  10.451  68.354  1.00  0.00    -0.462 N  
HETATM    7  H   UNL     1     -11.626   9.614  68.866  1.00  0.00     0.000 HD 
BRANCH   6   8
HETATM    8  C   UNL     1     -10.745  10.249  67.070  1.00  0.00    -0.216 C  
HETATM    9  O   UNL     1      -9.403   9.916  67.318  1.00  0.00    -0.142 OA 
HETATM   10  H   UNL     1      -9.004   9.781  66.466  1.00  0.00     0.000 HD 
ENDBRANCH   6   8
ENDBRANCH   4   6
ENDBRANCH   2   4
TORSDOF 3
ENDMDL
MODEL      134
REMARK 921   NORMALIZED FREE ENERGY PREDICTED BY IDOCK:   -2.04 KCAL/MOL
REMARK 922        TOTAL FREE ENERGY PREDICTED BY IDOCK:   -2.42 KCAL/MOL
REMARK 923 INTER-LIGAND FREE ENERGY PREDICTED BY IDOCK:   -2.10 KCAL/MOL
REMARK 924 INTRA-LIGAND FREE ENERGY PREDICTED BY IDOCK:   -0.32 KCAL/MOL
REMARK 927      BINDING AFFINITY PREDICTED BY RF-SCORE:    0.00 PKD
ROOT
HETATM    1  C   UNL     1      -9.961   8.496  67.325  1.00  0.00    -0.225 C  
HETATM    2  N   UNL     1     -10.285   9.009  66.008  1.00  0.00    -0.334 N  
HETATM    3  H   UNL     1     -10.973   8.493  65.461  1.00  0.00     0.000 HD 
ENDROOT
BRANCH   2   4
HETATM    4  C   UNL     1      -9.745  10.129  65.440  1.00  0.00    -0.291 C  
HETATM    5  S   UNL     1      -9.303  10.296  63.839  1.00  0.00    -0.303 S  
BRANCH   4   6
HETATM    6  N   UNL     1      -9.578  11.202  66.263  1.00  0.00    -0.200 N  
HETATM    7  H   UNL     1      -8.698  11.252  66.777  1.00  0.00     0.000 HD 
BRANCH   6   8
HETATM    8  C   UNL     1     -10.512  12.265  66.478  1.00  0.00    -0.227 C  
HETATM    9  O   UNL     1     -11.761  11.652  66.665  1.00  0.00    -0.523 OA 
HETATM   10  H   UNL     1     -12.381  12.358  66.809  1.00  0.00     0.000 HD 
ENDBRANCH   6   8
ENDBRANCH   4   6
ENDBRANCH   2   4
TORSDOF 3
ENDMDL
MODEL      135
REMARK 921   NORMALIZED FREE ENERGY PREDICTED BY IDOCK:   -2.03 KCAL/MOL
REMARK 922        TOTAL FREE ENERGY PREDICTED BY IDOCK:   -2.40 KCAL/MOL
REMARK 923 INTER-LIGAND FREE ENERGY PREDICTED BY IDOCK:   -2.37 KCAL/MOL
REMARK 924 INTRA-LIGAND FREE ENERGY PREDICTED BY IDOCK:   -0.03 KCAL/MOL
REMARK 927      BINDING AFFINITY PREDICTED BY RF-SCORE:    0.00 PKD
ROOT
HETATM    1  C   UNL     1     -10.057  10.749  65.908  1.00  0.00    -0.256 C  
HETATM    2  N   UNL     1     -10.184   9.716  66.918  1.00  0.00    -0.230 N  
HETATM    3  H   UNL     1     -10.480  10.005  67.850  1.00  0.00     0.000 HD 
ENDROOT
BRANCH   2   4
HETATM    4  C   UNL     1      -9.938   8.385  66.724  1.00  0.00    -0.284 C  
HETATM    5  S   UNL     1      -8.473   7.716  66.287  1.00  0.00    -0.146 S  
BRANCH   4   6
HETATM    6  N   UNL     1     -10.988   7.542  66.930  1.00  0.00    -0.537 N  
HETATM    7  H   UNL     1     -11.875   7.798  66.495  1.00  0.00     0.000 HD 
BRANCH   6   8
HETATM    8  C   UNL     1     -10.973   6.332  67.695  1.00  0.00    -0.342 C  
HETATM    9  O   UNL     1     -11.691   6.608  68.870  1.00  0.00    -0.575 OA 
HETATM   10  H   UNL     1     -11.681   5.805  69.378  1.00  0.00     0.000 HD 
ENDBRANCH   6   8
ENDBRANCH   4   6
ENDBRANCH   2   4
TORSDOF 3
ENDMDL
MODEL      136
REMARK 921   NORMALIZED FREE ENERGY PREDICTED BY IDOCK:   -2.02 KCAL/MOL
REMARK 922        TOTAL FREE ENERGY PREDICTED BY IDOCK:   -2.40 KCAL/MOL
REMARK 923 INTER-LIGAND FREE ENERGY PREDICTED BY IDOCK:   -2.07 KCAL/MOL
REMARK 924 INTRA-LIGAND FREE ENERGY PREDICTED BY IDOCK:   -0.33 KCAL/MOL
REMARK 927      BINDING AFFINITY PREDICTED BY RF-SCORE:    0.00 PKD
ROOT
HETATM    1  C   UNL     1      -9.760  18.212  66.694  1.00  0.00    -0.334 C  
HETATM    2  N   UNL     1      -9.281  17.080  67.464  1.00  0.00    -0.230 N  
HETATM    3  H   UNL     1      -9.347  17.143  68.479  1.00  0.00     0.000 HD 
ENDROOT
BRANCH   2   4
HETATM    4  C   UNL     1      -8.749  15.935  66.940  1.00  0.00    -0.241 C  
HETATM    5  S   UNL     1      -7.585  14.980  67.660  1.00  0.00    -0.195 S  
BRANCH   4   6
HETATM    6  N   UNL     1      -9.239  15.541  65.731  1.00  0.00    -0.372 N  
HETATM    7  H   UNL     1      -8.762  15.901  64.904  1.00  0.00     0.000 HD 
BRANCH   6   8
HETATM    8  C   UNL     1     -10.355  14.673  65.505  1.00  0.00    -0.362 C  
HETATM    9  O   UNL     1     -11.268  14.938  66.539  1.00  0.00    -0.340 OA 
HETATM   10  H   UNL     1     -12.009  14.362  66.388  1.00  0.00     0.000 HD 
ENDBRANCH   6   8
ENDBRANCH   4   6
ENDBRANCH   2   4
TORSDOF 3
ENDMDL
MODEL      137
REMARK 921   NORMALIZED FREE ENERGY PREDICTED BY IDOCK:   -2.02 KCAL/MOL
REMARK 922        TOTAL FREE ENERGY PREDICTED BY IDOCK:   -2.40 KCAL/MOL
REMARK 923 INTER-LIGAND FREE ENERGY PREDICTED BY IDOCK:   -2.35 KCAL/MOL
REMARK 924 INTRA-LIGAND FREE ENERGY PREDICTED BY IDOCK:   -0.05 KCAL/MOL
REMARK 927      BINDING AFFINITY PREDICTED BY RF-SCORE:    0.00 PKD
ROOT
HETATM    1  C   UNL     1     -10.275   7.648  73.247  1.00  0.00    -0.339 C  
HETATM    2  N   UNL     1     -11.305   7.192  72.332  1.00  0.00    -0.266 N  
HETATM    3  H   UNL     1     -11.937   6.464  72.664  1.00  0.00     0.000 HD 
ENDROOT
BRANCH   2   4
HETATM    4  C   UNL     1     -11.497   7.657  71.062  1.00  0.00    -0.276 C  
HETATM    5  S   UNL     1     -11.295   9.236  70.559  1.00  0.00    -0.244 S  
BRANCH   4   6
HETATM    6  N   UNL     1     -11.865   6.734  70.130  1.00  0.00    -0.622 N  
HETATM    7  H   UNL     1     -12.812   6.363  70.202  1.00  0.00     0.000 HD 
BRANCH   6   8
HETATM    8  C   UNL     1     -11.056   6.233  69.061  1.00  0.00    -0.378 C  
HETATM    9  O   UNL     1     -10.521   5.017  69.517  1.00  0.00    -0.223 OA 
HETATM   10  H   UNL     1      -9.984   4.684  68.807  1.00  0.00     0.000 HD 
ENDBRANCH   6   8
ENDBRANCH   4   6
ENDBRANCH   2   4
TORSDOF 3
ENDMDL
MODEL      138
REMARK 921   NORMALIZED FREE ENERGY PREDICTED BY IDOCK:   -2.01 KCAL/MOL
REMARK 922        TOTAL FREE ENERGY PREDICTED BY IDOCK:   -2.39 KCAL/MOL
REMARK 923 INTER-LIGAND FREE ENERGY PREDICTED BY IDOCK:   -2.36 KCAL/MOL
REMARK 924 INTRA-LIGAND FREE ENERGY PREDICTED BY IDOCK:   -0.03 KCAL/MOL
REMARK 927      BINDING AFFINITY PREDICTED BY RF-SCORE:    0.00 PKD
ROOT
HETATM    1  C   UNL     1      -8.890   7.061  70.748  1.00  0.00    -0.149 C  
HETATM    2  N   UNL     1      -9.738   8.201  70.455  1.00  0.00    -0.173 N  
HETATM    3  H   UNL     1      -9.279   9.062  70.160  1.00  0.00     0.000 HD 
ENDROOT
BRANCH   2   4
HETATM    4  C   UNL     1     -11.102   8.215  70.544  1.00  0.00    -0.253 C  
HETATM    5  S   UNL     1     -12.058   6.966  71.101  1.00  0.00    -0.378 S  
BRANCH   4   6
HETATM    6  N   UNL     1     -11.719   9.367  70.160  1.00  0.00    -0.462 N  
HETATM    7  H   UNL     1     -12.600   9.591  70.622  1.00  0.00     0.000 HD 
BRANCH   6   8
HETATM    8  C   UNL     1     -11.255  10.296  69.174  1.00  0.00    -0.215 C  
HETATM    9  O   UNL     1     -12.388  11.014  68.755  1.00  0.00    -0.730 OA 
HETATM   10  H   UNL     1     -12.080  11.630  68.101  1.00  0.00     0.000 HD 
ENDBRANCH   6   8
ENDBRANCH   4   6
ENDBRANCH   2   4
TORSDOF 3
ENDMDL
MODEL      139
REMARK 921   NORMALIZED FREE ENERGY PREDICTED BY IDOCK:   -2.01 KCAL/MOL
REMARK 922        TOTAL FREE ENERGY PREDICTED BY IDOCK:   -2.39 KCAL/MOL
REMARK 923 INTER-LIGAND FREE ENERGY PREDICTED BY IDOCK:   -2.14 KCAL/MOL
REMARK 924 INTRA-LIGAND FREE ENERGY PREDICTED BY IDOCK:   -0.25 KCAL/MOL
REMARK 927      BINDING AFFINITY PREDICTED BY RF-SCORE:    0.00 PKD
ROOT
HETATM    1  C   UNL     1     -10.270  19.927  67.893  1.00  0.00    -0.434 C  
HETATM    2  N   UNL     1      -8.851  19.642  67.995  1.00  0.00    -0.315 N  
HETATM    3  H   UNL     1      -8.205  20.410  67.816  1.00  0.00     0.000 HD 
ENDROOT
BRANCH   2   4
HETATM    4  C   UNL     1      -8.309  18.427  68.311  1.00  0.00    -0.303 C  
HETATM    5  S   UNL     1      -9.165  17.043  68.684  1.00  0.00    -0.255 S  
BRANCH   4   6
HETATM    6  N   UNL     1      -6.950  18.351  68.295  1.00  0.00    -0.241 N  
HETATM    7  H   UNL     1      -6.525  17.905  67.481  1.00  0.00     0.000 HD 
BRANCH   6   8
HETATM    8  C   UNL     1      -6.056  18.834  69.304  1.00  0.00    -0.253 C  
HETATM    9  O   UNL     1      -6.671  19.971  69.853  1.00  0.00    -0.336 OA 
HETATM   10  H   UNL     1      -6.077  20.292  70.523  1.00  0.00     0.000 HD 
ENDBRANCH   6   8
ENDBRANCH   4   6
ENDBRANCH   2   4
TORSDOF 3
ENDMDL
MODEL      140
REMARK 921   NORMALIZED FREE ENERGY PREDICTED BY IDOCK:   -2.00 KCAL/MOL
REMARK 922        TOTAL FREE ENERGY PREDICTED BY IDOCK:   -2.38 KCAL/MOL
REMARK 923 INTER-LIGAND FREE ENERGY PREDICTED BY IDOCK:   -2.11 KCAL/MOL
REMARK 924 INTRA-LIGAND FREE ENERGY PREDICTED BY IDOCK:   -0.27 KCAL/MOL
REMARK 927      BINDING AFFINITY PREDICTED BY RF-SCORE:    0.00 PKD
ROOT
HETATM    1  C   UNL     1      -7.934   7.480  64.365  1.00  0.00    -0.117 C  
HETATM    2  N   UNL     1      -8.971   7.194  65.338  1.00  0.00    -0.373 N  
HETATM    3  H   UNL     1      -9.422   6.282  65.288  1.00  0.00     0.000 HD 
ENDROOT
BRANCH   2   4
HETATM    4  C   UNL     1      -9.393   8.049  66.318  1.00  0.00    -0.184 C  
HETATM    5  S   UNL     1      -9.721   9.674  66.122  1.00  0.00    -0.271 S  
BRANCH   4   6
HETATM    6  N   UNL     1      -9.577   7.506  67.553  1.00  0.00    -0.137 N  
HETATM    7  H   UNL     1      -8.862   7.706  68.254  1.00  0.00     0.000 HD 
BRANCH   6   8
HETATM    8  C   UNL     1     -10.673   6.684  67.969  1.00  0.00    -0.265 C  
HETATM    9  O   UNL     1     -11.478   6.508  66.831  1.00  0.00    -0.762 OA 
HETATM   10  H   UNL     1     -12.205   5.962  67.107  1.00  0.00     0.000 HD 
ENDBRANCH   6   8
ENDBRANCH   4   6
ENDBRANCH   2   4
TORSDOF 3
ENDMDL
MODEL      141
REMARK 921   NORMALIZED FREE ENERGY PREDICTED BY IDOCK:   -1.99 KCAL/MOL
REMARK 922        TOTAL FREE ENERGY PREDICTED BY IDOCK:   -2.37 KCAL/MOL
REMARK 923 INTER-LIGAND FREE ENERGY PREDICTED BY IDOCK:   -2.08 KCAL/MOL
REMARK 924 INTRA-LIGAND FREE ENERGY PREDICTED BY IDOCK:   -0.28 KCAL/MOL
REMARK 927      BINDING AFFINITY PREDICTED BY RF-SCORE:    0.00 PKD
ROOT
HETATM    1  C   UNL     1      -8.163  11.732  68.419  1.00  0.00    -0.154 C  
HETATM    2  N   UNL     1      -9.143  12.799  68.363  1.00  0.00    -0.325 N  
HETATM    3  H   UNL     1      -8.900  13.682  68.812  1.00  0.00     0.000 HD 
ENDROOT
BRANCH   2   4
HETATM    4  C   UNL     1     -10.365  12.720  67.756  1.00  0.00    -0.221 C  
HETATM    5  S   UNL     1     -11.268  11.330  67.556  1.00  0.00    -0.280 S  
BRANCH   4   6
HETATM    6  N   UNL     1     -10.890  13.891  67.300  1.00  0.00    -0.284 N  
HETATM    7  H   UNL     1     -11.414  14.451  67.972  1.00  0.00     0.000 HD 
BRANCH   6   8
HETATM    8  C   UNL     1     -10.779  14.414  65.972  1.00  0.00    -0.302 C  
HETATM    9  O   UNL     1      -9.556  13.941  65.469  1.00  0.00    -0.517 OA 
HETATM   10  H   UNL     1      -9.483  14.289  64.588  1.00  0.00     0.000 HD 
ENDBRANCH   6   8
ENDBRANCH   4   6
ENDBRANCH   2   4
TORSDOF 3
ENDMDL
MODEL      142
REMARK 921   NORMALIZED FREE ENERGY PREDICTED BY IDOCK:   -1.99 KCAL/MOL
REMARK 922        TOTAL FREE ENERGY PREDICTED BY IDOCK:   -2.36 KCAL/MOL
REMARK 923 INTER-LIGAND FREE ENERGY PREDICTED BY IDOCK:   -2.06 KCAL/MOL
REMARK 924 INTRA-LIGAND FREE ENERGY PREDICTED BY IDOCK:   -0.30 KCAL/MOL
REMARK 927      BINDING AFFINITY PREDICTED BY RF-SCORE:    0.00 PKD
ROOT
HETATM    1  C   UNL     1     -10.594   8.558  67.927  1.00  0.00    -0.156 C  
HETATM    2  N   UNL     1     -11.091   9.728  68.625  1.00  0.00    -0.454 N  
HETATM    3  H   UNL     1     -11.242  10.572  68.074  1.00  0.00     0.000 HD 
ENDROOT
BRANCH   2   4
HETATM    4  C   UNL     1     -11.372   9.791  69.961  1.00  0.00    -0.220 C  
HETATM    5  S   UNL     1     -12.289  10.967  70.711  1.00  0.00    -0.414 S  
BRANCH   4   6
HETATM    6  N   UNL     1     -10.869   8.787  70.731  1.00  0.00    -0.224 N  
HETATM    7  H   UNL     1     -11.393   7.911  70.742  1.00  0.00     0.000 HD 
BRANCH   6   8
HETATM    8  C   UNL     1      -9.681   8.836  71.528  1.00  0.00    -0.291 C  
HETATM    9  O   UNL     1      -8.753   9.593  70.794  1.00  0.00    -0.299 OA 
HETATM   10  H   UNL     1      -7.965   9.626  71.323  1.00  0.00     0.000 HD 
ENDBRANCH   6   8
ENDBRANCH   4   6
ENDBRANCH   2   4
TORSDOF 3
ENDMDL
MODEL      143
REMARK 921   NORMALIZED FREE ENERGY PREDICTED BY IDOCK:   -1.98 KCAL/MOL
REMARK 922        TOTAL FREE ENERGY PREDICTED BY IDOCK:   -2.35 KCAL/MOL
REMARK 923 INTER-LIGAND FREE ENERGY PREDICTED BY IDOCK:   -2.06 KCAL/MOL
REMARK 924 INTRA-LIGAND FREE ENERGY PREDICTED BY IDOCK:   -0.29 KCAL/MOL
REMARK 927      BINDING AFFINITY PREDICTED BY RF-SCORE:    0.00 PKD
ROOT
HETATM    1  C   UNL     1     -12.854   8.244  71.613  1.00  0.00    -0.329 C  
HETATM    2  N   UNL     1     -12.102   7.763  72.756  1.00  0.00    -0.602 N  
HETATM    3  H   UNL     1     -12.509   7.909  73.680  1.00  0.00     0.000 HD 
ENDROOT
BRANCH   2   4
HETATM    4  C   UNL     1     -10.892   7.130  72.698  1.00  0.00    -0.279 C  
HETATM    5  S   UNL     1      -9.399   7.863  72.828  1.00  0.00    -0.265 S  
BRANCH   4   6
HETATM    6  N   UNL     1     -10.926   5.777  72.540  1.00  0.00    -0.247 N  
HETATM    7  H   UNL     1     -10.450   5.399  71.721  1.00  0.00     0.000 HD 
BRANCH   6   8
HETATM    8  C   UNL     1     -11.563   4.833  73.408  1.00  0.00    -0.142 C  
HETATM    9  O   UNL     1     -12.933   4.887  73.101  1.00  0.00    -0.193 OA 
HETATM   10  H   UNL     1     -13.355   4.260  73.677  1.00  0.00     0.000 HD 
ENDBRANCH   6   8
ENDBRANCH   4   6
ENDBRANCH   2   4
TORSDOF 3
ENDMDL
MODEL      144
REMARK 921   NORMALIZED FREE ENERGY PREDICTED BY IDOCK:   -1.97 KCAL/MOL
REMARK 922        TOTAL FREE ENERGY PREDICTED BY IDOCK:   -2.34 KCAL/MOL
REMARK 923 INTER-LIGAND FREE ENERGY PREDICTED BY IDOCK:   -2.28 KCAL/MOL
REMARK 924 INTRA-LIGAND FREE ENERGY PREDICTED BY IDOCK:   -0.06 KCAL/MOL
REMARK 927      BINDING AFFINITY PREDICTED BY RF-SCORE:    0.00 PKD
ROOT
HETATM    1  C   UNL     1      -9.141   9.728  69.462  1.00  0.00    -0.216 C  
HETATM    2  N   UNL     1      -9.644   8.501  70.050  1.00  0.00    -0.167 N  
HETATM    3  H   UNL     1      -8.959   7.796  70.319  1.00  0.00     0.000 HD 
ENDROOT
BRANCH   2   4
HETATM    4  C   UNL     1     -10.961   8.213  70.272  1.00  0.00    -0.240 C  
HETATM    5  S   UNL     1     -11.595   6.694  70.552  1.00  0.00    -0.383 S  
BRANCH   4   6
HETATM    6  N   UNL     1     -11.817   9.272  70.284  1.00  0.00    -0.469 N  
HETATM    7  H   UNL     1     -12.221   9.546  69.387  1.00  0.00     0.000 HD 
BRANCH   6   8
HETATM    8  C   UNL     1     -12.207  10.041  71.427  1.00  0.00    -0.416 C  
HETATM    9  O   UNL     1     -13.499   9.603  71.765  1.00  0.00    -0.391 OA 
HETATM   10  H   UNL     1     -13.758  10.113  72.524  1.00  0.00     0.000 HD 
ENDBRANCH   6   8
ENDBRANCH   4   6
ENDBRANCH   2   4
TORSDOF 3
ENDMDL
MODEL      145
REMARK 921   NORMALIZED FREE ENERGY PREDICTED BY IDOCK:   -1.97 KCAL/MOL
REMARK 922        TOTAL FREE ENERGY PREDICTED BY IDOCK:   -2.34 KCAL/MOL
REMARK 923 INTER-LIGAND FREE ENERGY PREDICTED BY IDOCK:   -2.30 KCAL/MOL
REMARK 924 INTRA-LIGAND FREE ENERGY PREDICTED BY IDOCK:   -0.04 KCAL/MOL
REMARK 927      BINDING AFFINITY PREDICTED BY RF-SCORE:    0.00 PKD
ROOT
HETATM    1  C   UNL     1      -6.530  20.499  68.505  1.00  0.00    -0.275 C  
HETATM    2  N   UNL     1      -7.308  19.754  67.533  1.00  0.00    -0.254 N  
HETATM    3  H   UNL     1      -6.832  19.450  66.685  1.00  0.00     0.000 HD 
ENDROOT
BRANCH   2   4
HETATM    4  C   UNL     1      -8.629  19.425  67.662  1.00  0.00    -0.305 C  
HETATM    5  S   UNL     1      -9.902  20.171  66.881  1.00  0.00    -0.468 S  
BRANCH   4   6
HETATM    6  N   UNL     1      -8.913  18.381  68.489  1.00  0.00    -0.317 N  
HETATM    7  H   UNL     1      -8.254  18.205  69.248  1.00  0.00     0.000 HD 
BRANCH   6   8
HETATM    8  C   UNL     1     -10.041  17.504  68.400  1.00  0.00    -0.358 C  
HETATM    9  O   UNL     1     -10.668  17.551  69.656  1.00  0.00    -0.318 OA 
HETATM   10  H   UNL     1     -11.418  16.970  69.596  1.00  0.00     0.000 HD 
ENDBRANCH   6   8
ENDBRANCH   4   6
ENDBRANCH   2   4
TORSDOF 3
ENDMDL
MODEL      146
REMARK 921   NORMALIZED FREE ENERGY PREDICTED BY IDOCK:   -1.97 KCAL/MOL
REMARK 922        TOTAL FREE ENERGY PREDICTED BY IDOCK:   -2.34 KCAL/MOL
REMARK 923 INTER-LIGAND FREE ENERGY PREDICTED BY IDOCK:   -2.08 KCAL/MOL
REMARK 924 INTRA-LIGAND FREE ENERGY PREDICTED BY IDOCK:   -0.25 KCAL/MOL
REMARK 927      BINDING AFFINITY PREDICTED BY RF-SCORE:    0.00 PKD
ROOT
HETATM    1  C   UNL     1      -8.592  18.454  68.434  1.00  0.00    -0.325 C  
HETATM    2  N   UNL     1      -9.695  17.833  67.726  1.00  0.00    -0.277 N  
HETATM    3  H   UNL     1     -10.442  18.442  67.394  1.00  0.00     0.000 HD 
ENDROOT
BRANCH   2   4
HETATM    4  C   UNL     1      -9.814  16.496  67.465  1.00  0.00    -0.248 C  
HETATM    5  S   UNL     1     -10.234  15.820  65.998  1.00  0.00    -0.357 S  
BRANCH   4   6
HETATM    6  N   UNL     1      -9.543  15.654  68.500  1.00  0.00    -0.195 N  
HETATM    7  H   UNL     1      -8.651  15.159  68.467  1.00  0.00     0.000 HD 
BRANCH   6   8
HETATM    8  C   UNL     1     -10.383  15.392  69.630  1.00  0.00    -0.277 C  
HETATM    9  O   UNL     1     -11.044  16.600  69.909  1.00  0.00    -0.405 OA 
HETATM   10  H   UNL     1     -11.602  16.426  70.658  1.00  0.00     0.000 HD 
ENDBRANCH   6   8
ENDBRANCH   4   6
ENDBRANCH   2   4
TORSDOF 3
ENDMDL
MODEL      147
REMARK 921   NORMALIZED FREE ENERGY PREDICTED BY IDOCK:   -1.96 KCAL/MOL
REMARK 922        TOTAL FREE ENERGY PREDICTED BY IDOCK:   -2.33 KCAL/MOL
REMARK 923 INTER-LIGAND FREE ENERGY PREDICTED BY IDOCK:   -2.29 KCAL/MOL
REMARK 924 INTRA-LIGAND FREE ENERGY PREDICTED BY IDOCK:   -0.04 KCAL/MOL
REMARK 927      BINDING AFFINITY PREDICTED BY RF-SCORE:    0.00 PKD
ROOT
HETATM    1  C   UNL     1      -8.819   7.624  65.976  1.00  0.00    -0.155 C  
HETATM    2  N   UNL     1     -10.169   8.012  66.336  1.00  0.00    -0.483 N  
HETATM    3  H   UNL     1     -10.934   7.477  65.927  1.00  0.00     0.000 HD 
ENDROOT
BRANCH   2   4
HETATM    4  C   UNL     1     -10.499   9.036  67.178  1.00  0.00    -0.263 C  
HETATM    5  S   UNL     1     -10.399  10.664  66.822  1.00  0.00    -0.247 S  
BRANCH   4   6
HETATM    6  N   UNL     1     -10.971   8.680  68.405  1.00  0.00    -0.445 N  
HETATM    7  H   UNL     1     -11.472   7.793  68.464  1.00  0.00     0.000 HD 
BRANCH   6   8
HETATM    8  C   UNL     1     -10.835   9.424  69.620  1.00  0.00    -0.228 C  
HETATM    9  O   UNL     1     -12.111   9.937  69.906  1.00  0.00    -0.467 OA 
HETATM   10  H   UNL     1     -12.021  10.430  70.713  1.00  0.00     0.000 HD 
ENDBRANCH   6   8
ENDBRANCH   4   6
ENDBRANCH   2   4
TORSDOF 3
ENDMDL
MODEL      148
REMARK 921   NORMALIZED FREE ENERGY PREDICTED BY IDOCK:   -1.95 KCAL/MOL
REMARK 922        TOTAL FREE ENERGY PREDICTED BY IDOCK:   -2.32 KCAL/MOL
REMARK 923 INTER-LIGAND FREE ENERGY PREDICTED BY IDOCK:   -2.30 KCAL/MOL
REMARK 924 INTRA-LIGAND FREE ENERGY PREDICTED BY IDOCK:   -0.01 KCAL/MOL
REMARK 927      BINDING AFFINITY PREDICTED BY RF-SCORE:    0.00 PKD
ROOT
HETATM    1  C   UNL     1      -7.249  17.405  67.685  1.00  0.00    -0.164 C  
HETATM    2  N   UNL     1      -8.486  16.811  68.153  1.00  0.00    -0.206 N  
HETATM    3  H   UNL     1      -8.431  16.182  68.953  1.00  0.00     0.000 HD 
ENDROOT
BRANCH   2   4
HETATM    4  C   UNL     1      -9.722  17.026  67.609  1.00  0.00    -0.257 C  
HETATM    5  S   UNL     1     -10.309  18.491  67.065  1.00  0.00    -0.412 S  
BRANCH   4   6
HETATM    6  N   UNL     1     -10.525  15.933  67.487  1.00  0.00    -0.292 N  
HETATM    7  H   UNL     1     -10.338  15.312  66.698  1.00  0.00     0.000 HD 
BRANCH   6   8
HETATM    8  C   UNL     1     -11.605  15.567  68.352  1.00  0.00    -0.357 C  
HETATM    9  O   UNL     1     -12.300  14.540  67.691  1.00  0.00    -0.617 OA 
HETATM   10  H   UNL     1     -13.017  14.297  68.266  1.00  0.00     0.000 HD 
ENDBRANCH   6   8
ENDBRANCH   4   6
ENDBRANCH   2   4
TORSDOF 3
ENDMDL
MODEL      149
REMARK 921   NORMALIZED FREE ENERGY PREDICTED BY IDOCK:   -1.95 KCAL/MOL
REMARK 922        TOTAL FREE ENERGY PREDICTED BY IDOCK:   -2.32 KCAL/MOL
REMARK 923 INTER-LIGAND FREE ENERGY PREDICTED BY IDOCK:   -2.08 KCAL/MOL
REMARK 924 INTRA-LIGAND FREE ENERGY PREDICTED BY IDOCK:   -0.24 KCAL/MOL
REMARK 927      BINDING AFFINITY PREDICTED BY RF-SCORE:    0.00 PKD
ROOT
HETATM    1  C   UNL     1      -8.589  14.189  67.227  1.00  0.00    -0.218 C  
HETATM    2  N   UNL     1      -8.896  13.125  66.291  1.00  0.00    -0.432 N  
HETATM    3  H   UNL     1      -8.229  12.955  65.539  1.00  0.00     0.000 HD 
ENDROOT
BRANCH   2   4
HETATM    4  C   UNL     1     -10.007  12.330  66.334  1.00  0.00    -0.228 C  
HETATM    5  S   UNL     1     -11.009  12.122  67.653  1.00  0.00    -0.258 S  
BRANCH   4   6
HETATM    6  N   UNL     1     -10.323  11.673  65.184  1.00  0.00    -0.266 N  
HETATM    7  H   UNL     1     -11.088  12.061  64.629  1.00  0.00     0.000 HD 
BRANCH   6   8
HETATM    8  C   UNL     1      -9.693  10.493  64.674  1.00  0.00    -0.309 C  
HETATM    9  O   UNL     1      -8.392  10.878  64.306  1.00  0.00    -0.368 OA 
HETATM   10  H   UNL     1      -7.974  10.094  63.968  1.00  0.00     0.000 HD 
ENDBRANCH   6   8
ENDBRANCH   4   6
ENDBRANCH   2   4
TORSDOF 3
ENDMDL
MODEL      150
REMARK 921   NORMALIZED FREE ENERGY PREDICTED BY IDOCK:   -1.95 KCAL/MOL
REMARK 922        TOTAL FREE ENERGY PREDICTED BY IDOCK:   -2.32 KCAL/MOL
REMARK 923 INTER-LIGAND FREE ENERGY PREDICTED BY IDOCK:   -2.29 KCAL/MOL
REMARK 924 INTRA-LIGAND FREE ENERGY PREDICTED BY IDOCK:   -0.02 KCAL/MOL
REMARK 927      BINDING AFFINITY PREDICTED BY RF-SCORE:    0.00 PKD
ROOT
HETATM    1  C   UNL     1      -9.351  13.450  68.197  1.00  0.00    -0.217 C  
HETATM    2  N   UNL     1      -9.500  14.537  69.145  1.00  0.00    -0.396 N  
HETATM    3  H   UNL     1      -8.757  14.666  69.831  1.00  0.00     0.000 HD 
ENDROOT
BRANCH   2   4
HETATM    4  C   UNL     1     -10.556  15.403  69.195  1.00  0.00    -0.248 C  
HETATM    5  S   UNL     1     -11.872  15.281  70.214  1.00  0.00    -0.348 S  
BRANCH   4   6
HETATM    6  N   UNL     1     -10.505  16.467  68.346  1.00  0.00    -0.281 N  
HETATM    7  H   UNL     1     -10.727  16.283  67.367  1.00  0.00     0.000 HD 
BRANCH   6   8
HETATM    8  C   UNL     1     -10.169  17.816  68.687  1.00  0.00    -0.377 C  
HETATM    9  O   UNL     1     -10.756  18.623  67.698  1.00  0.00    -0.427 OA 
HETATM   10  H   UNL     1     -10.533  19.519  67.926  1.00  0.00     0.000 HD 
ENDBRANCH   6   8
ENDBRANCH   4   6
ENDBRANCH   2   4
TORSDOF 3
ENDMDL
MODEL      151
REMARK 921   NORMALIZED FREE ENERGY PREDICTED BY IDOCK:   -1.95 KCAL/MOL
REMARK 922        TOTAL FREE ENERGY PREDICTED BY IDOCK:   -2.31 KCAL/MOL
REMARK 923 INTER-LIGAND FREE ENERGY PREDICTED BY IDOCK:   -2.04 KCAL/MOL
REMARK 924 INTRA-LIGAND FREE ENERGY PREDICTED BY IDOCK:   -0.28 KCAL/MOL
REMARK 927      BINDING AFFINITY PREDICTED BY RF-SCORE:    0.00 PKD
ROOT
HETATM    1  C   UNL     1      -7.961  15.300  69.217  1.00  0.00    -0.223 C  
HETATM    2  N   UNL     1      -9.280  15.741  68.807  1.00  0.00    -0.202 N  
HETATM    3  H   UNL     1      -9.331  16.524  68.156  1.00  0.00     0.000 HD 
ENDROOT
BRANCH   2   4
HETATM    4  C   UNL     1     -10.462  15.192  69.223  1.00  0.00    -0.260 C  
HETATM    5  S   UNL     1     -11.443  15.789  70.434  1.00  0.00    -0.395 S  
BRANCH   4   6
HETATM    6  N   UNL     1     -10.871  14.072  68.565  1.00  0.00    -0.246 N  
HETATM    7  H   UNL     1     -10.602  13.176  68.974  1.00  0.00     0.000 HD 
BRANCH   6   8
HETATM    8  C   UNL     1     -11.640  14.024  67.358  1.00  0.00    -0.368 C  
HETATM    9  O   UNL     1     -11.178  15.085  66.562  1.00  0.00    -0.340 OA 
HETATM   10  H   UNL     1     -11.688  15.053  65.761  1.00  0.00     0.000 HD 
ENDBRANCH   6   8
ENDBRANCH   4   6
ENDBRANCH   2   4
TORSDOF 3
ENDMDL
MODEL      152
REMARK 921   NORMALIZED FREE ENERGY PREDICTED BY IDOCK:   -1.93 KCAL/MOL
REMARK 922        TOTAL FREE ENERGY PREDICTED BY IDOCK:   -2.29 KCAL/MOL
REMARK 923 INTER-LIGAND FREE ENERGY PREDICTED BY IDOCK:   -2.03 KCAL/MOL
REMARK 924 INTRA-LIGAND FREE ENERGY PREDICTED BY IDOCK:   -0.25 KCAL/MOL
REMARK 927      BINDING AFFINITY PREDICTED BY RF-SCORE:    0.00 PKD
ROOT
HETATM    1  C   UNL     1     -10.383  11.247  68.683  1.00  0.00    -0.201 C  
HETATM    2  N   UNL     1      -9.822  12.583  68.731  1.00  0.00    -0.421 N  
HETATM    3  H   UNL     1      -8.856  12.675  69.045  1.00  0.00     0.000 HD 
ENDROOT
BRANCH   2   4
HETATM    4  C   UNL     1     -10.481  13.731  68.388  1.00  0.00    -0.252 C  
HETATM    5  S   UNL     1     -11.241  14.024  66.931  1.00  0.00    -0.324 S  
BRANCH   4   6
HETATM    6  N   UNL     1     -10.532  14.704  69.340  1.00  0.00    -0.368 N  
HETATM    7  H   UNL     1     -11.278  14.630  70.032  1.00  0.00     0.000 HD 
BRANCH   6   8
HETATM    8  C   UNL     1      -9.643  15.819  69.468  1.00  0.00    -0.262 C  
HETATM    9  O   UNL     1      -8.372  15.346  69.103  1.00  0.00    -0.206 OA 
HETATM   10  H   UNL     1      -7.783  16.087  69.187  1.00  0.00     0.000 HD 
ENDBRANCH   6   8
ENDBRANCH   4   6
ENDBRANCH   2   4
TORSDOF 3
ENDMDL
MODEL      153
REMARK 921   NORMALIZED FREE ENERGY PREDICTED BY IDOCK:   -1.93 KCAL/MOL
REMARK 922        TOTAL FREE ENERGY PREDICTED BY IDOCK:   -2.29 KCAL/MOL
REMARK 923 INTER-LIGAND FREE ENERGY PREDICTED BY IDOCK:   -2.31 KCAL/MOL
REMARK 924 INTRA-LIGAND FREE ENERGY PREDICTED BY IDOCK:    0.02 KCAL/MOL
REMARK 927      BINDING AFFINITY PREDICTED BY RF-SCORE:    0.00 PKD
ROOT
HETATM    1  C   UNL     1      -8.196  10.835  65.889  1.00  0.00    -0.155 C  
HETATM    2  N   UNL     1      -9.101  11.812  65.314  1.00  0.00    -0.416 N  
HETATM    3  H   UNL     1      -8.780  12.320  64.491  1.00  0.00     0.000 HD 
ENDROOT
BRANCH   2   4
HETATM    4  C   UNL     1     -10.349  12.107  65.786  1.00  0.00    -0.258 C  
HETATM    5  S   UNL     1     -11.633  12.662  64.873  1.00  0.00    -0.352 S  
BRANCH   4   6
HETATM    6  N   UNL     1     -10.555  11.906  67.117  1.00  0.00    -0.224 N  
HETATM    7  H   UNL     1     -10.237  12.644  67.747  1.00  0.00     0.000 HD 
BRANCH   6   8
HETATM    8  C   UNL     1     -11.170  10.764  67.723  1.00  0.00    -0.316 C  
HETATM    9  O   UNL     1     -12.216  11.263  68.517  1.00  0.00    -0.588 OA 
HETATM   10  H   UNL     1     -12.624  10.505  68.919  1.00  0.00     0.000 HD 
ENDBRANCH   6   8
ENDBRANCH   4   6
ENDBRANCH   2   4
TORSDOF 3
ENDMDL
MODEL      154
REMARK 921   NORMALIZED FREE ENERGY PREDICTED BY IDOCK:   -1.93 KCAL/MOL
REMARK 922        TOTAL FREE ENERGY PREDICTED BY IDOCK:   -2.29 KCAL/MOL
REMARK 923 INTER-LIGAND FREE ENERGY PREDICTED BY IDOCK:   -2.01 KCAL/MOL
REMARK 924 INTRA-LIGAND FREE ENERGY PREDICTED BY IDOCK:   -0.28 KCAL/MOL
REMARK 927      BINDING AFFINITY PREDICTED BY RF-SCORE:    0.00 PKD
ROOT
HETATM    1  C   UNL     1      -8.677  15.530  68.492  1.00  0.00    -0.184 C  
HETATM    2  N   UNL     1      -8.821  14.172  68.981  1.00  0.00    -0.379 N  
HETATM    3  H   UNL     1      -8.411  13.955  69.889  1.00  0.00     0.000 HD 
ENDROOT
BRANCH   2   4
HETATM    4  C   UNL     1      -9.460  13.158  68.324  1.00  0.00    -0.210 C  
HETATM    5  S   UNL     1      -8.889  12.353  66.978  1.00  0.00    -0.210 S  
BRANCH   4   6
HETATM    6  N   UNL     1     -10.659  12.768  68.839  1.00  0.00    -0.401 N  
HETATM    7  H   UNL     1     -10.722  11.807  69.177  1.00  0.00     0.000 HD 
BRANCH   6   8
HETATM    8  C   UNL     1     -11.840  13.569  68.954  1.00  0.00    -0.345 C  
HETATM    9  O   UNL     1     -11.740  14.232  70.188  1.00  0.00    -0.276 OA 
HETATM   10  H   UNL     1     -12.524  14.764  70.264  1.00  0.00     0.000 HD 
ENDBRANCH   6   8
ENDBRANCH   4   6
ENDBRANCH   2   4
TORSDOF 3
ENDMDL
MODEL      155
REMARK 921   NORMALIZED FREE ENERGY PREDICTED BY IDOCK:   -1.92 KCAL/MOL
REMARK 922        TOTAL FREE ENERGY PREDICTED BY IDOCK:   -2.28 KCAL/MOL
REMARK 923 INTER-LIGAND FREE ENERGY PREDICTED BY IDOCK:   -2.17 KCAL/MOL
REMARK 924 INTRA-LIGAND FREE ENERGY PREDICTED BY IDOCK:   -0.11 KCAL/MOL
REMARK 927      BINDING AFFINITY PREDICTED BY RF-SCORE:    0.00 PKD
ROOT
HETATM    1  C   UNL     1     -11.734   9.472  71.575  1.00  0.00    -0.402 C  
HETATM    2  N   UNL     1     -10.459   8.948  72.024  1.00  0.00    -0.340 N  
HETATM    3  H   UNL     1     -10.010   9.418  72.810  1.00  0.00     0.000 HD 
ENDROOT
BRANCH   2   4
HETATM    4  C   UNL     1      -9.809   7.876  71.481  1.00  0.00    -0.165 C  
HETATM    5  S   UNL     1      -8.185   7.808  71.099  1.00  0.00    -0.102 S  
BRANCH   4   6
HETATM    6  N   UNL     1     -10.563   6.764  71.256  1.00  0.00    -0.217 N  
HETATM    7  H   UNL     1     -11.036   6.359  72.065  1.00  0.00     0.000 HD 
BRANCH   6   8
HETATM    8  C   UNL     1     -10.759   6.105  70.000  1.00  0.00    -0.305 C  
HETATM    9  O   UNL     1     -11.969   6.601  69.488  1.00  0.00    -0.642 OA 
HETATM   10  H   UNL     1     -12.099   6.164  68.654  1.00  0.00     0.000 HD 
ENDBRANCH   6   8
ENDBRANCH   4   6
ENDBRANCH   2   4
TORSDOF 3
ENDMDL
MODEL      156
REMARK 921   NORMALIZED FREE ENERGY PREDICTED BY IDOCK:   -1.92 KCAL/MOL
REMARK 922        TOTAL FREE ENERGY PREDICTED BY IDOCK:   -2.28 KCAL/MOL
REMARK 923 INTER-LIGAND FREE ENERGY PREDICTED BY IDOCK:   -2.24 KCAL/MOL
REMARK 924 INTRA-LIGAND FREE ENERGY PREDICTED BY IDOCK:   -0.04 KCAL/MOL
REMARK 927      BINDING AFFINITY PREDICTED BY RF-SCORE:    0.00 PKD
ROOT
HETATM    1  C   UNL     1     -10.541  13.310  65.069  1.00  0.00    -0.346 C  
HETATM    2  N   UNL     1     -10.081  14.680  65.187  1.00  0.00    -0.443 N  
HETATM    3  H   UNL     1     -10.385  15.339  64.471  1.00  0.00     0.000 HD 
ENDROOT
BRANCH   2   4
HETATM    4  C   UNL     1      -9.272  15.161  66.178  1.00  0.00    -0.283 C  
HETATM    5  S   UNL     1      -9.036  16.770  66.552  1.00  0.00    -0.293 S  
BRANCH   4   6
HETATM    6  N   UNL     1      -8.625  14.229  66.933  1.00  0.00    -0.366 N  
HETATM    7  H   UNL     1      -8.392  13.348  66.474  1.00  0.00     0.000 HD 
BRANCH   6   8
HETATM    8  C   UNL     1      -8.241  14.362  68.306  1.00  0.00    -0.149 C  
HETATM    9  O   UNL     1      -8.469  13.107  68.895  1.00  0.00    -0.357 OA 
HETATM   10  H   UNL     1      -8.213  13.195  69.806  1.00  0.00     0.000 HD 
ENDBRANCH   6   8
ENDBRANCH   4   6
ENDBRANCH   2   4
TORSDOF 3
ENDMDL
MODEL      157
REMARK 921   NORMALIZED FREE ENERGY PREDICTED BY IDOCK:   -1.91 KCAL/MOL
REMARK 922        TOTAL FREE ENERGY PREDICTED BY IDOCK:   -2.27 KCAL/MOL
REMARK 923 INTER-LIGAND FREE ENERGY PREDICTED BY IDOCK:   -2.21 KCAL/MOL
REMARK 924 INTRA-LIGAND FREE ENERGY PREDICTED BY IDOCK:   -0.06 KCAL/MOL
REMARK 927      BINDING AFFINITY PREDICTED BY RF-SCORE:    0.00 PKD
ROOT
HETATM    1  C   UNL     1      -7.086  12.087  67.124  1.00  0.00    -0.130 C  
HETATM    2  N   UNL     1      -8.205  12.925  66.741  1.00  0.00    -0.408 N  
HETATM    3  H   UNL     1      -8.112  13.929  66.892  1.00  0.00     0.000 HD 
ENDROOT
BRANCH   2   4
HETATM    4  C   UNL     1      -9.375  12.480  66.193  1.00  0.00    -0.134 C  
HETATM    5  S   UNL     1     -10.908  12.988  66.616  1.00  0.00    -0.279 S  
BRANCH   4   6
HETATM    6  N   UNL     1      -9.263  11.555  65.199  1.00  0.00    -0.398 N  
HETATM    7  H   UNL     1      -8.385  11.545  64.679  1.00  0.00     0.000 HD 
BRANCH   6   8
HETATM    8  C   UNL     1     -10.252  10.596  64.810  1.00  0.00    -0.331 C  
HETATM    9  O   UNL     1     -10.463  10.793  63.435  1.00  0.00    -0.535 OA 
HETATM   10  H   UNL     1     -11.119  10.157  63.177  1.00  0.00     0.000 HD 
ENDBRANCH   6   8
ENDBRANCH   4   6
ENDBRANCH   2   4
TORSDOF 3
ENDMDL
MODEL      158
REMARK 921   NORMALIZED FREE ENERGY PREDICTED BY IDOCK:   -1.91 KCAL/MOL
REMARK 922        TOTAL FREE ENERGY PREDICTED BY IDOCK:   -2.26 KCAL/MOL
REMARK 923 INTER-LIGAND FREE ENERGY PREDICTED BY IDOCK:   -2.22 KCAL/MOL
REMARK 924 INTRA-LIGAND FREE ENERGY PREDICTED BY IDOCK:   -0.04 KCAL/MOL
REMARK 927      BINDING AFFINITY PREDICTED BY RF-SCORE:    0.00 PKD
ROOT
HETATM    1  C   UNL     1     -12.641  13.638  70.658  1.00  0.00    -0.296 C  
HETATM    2  N   UNL     1     -11.632  12.732  70.144  1.00  0.00    -0.536 N  
HETATM    3  H   UNL     1     -11.304  11.994  70.766  1.00  0.00     0.000 HD 
ENDROOT
BRANCH   2   4
HETATM    4  C   UNL     1     -11.084  12.786  68.892  1.00  0.00    -0.262 C  
HETATM    5  S   UNL     1     -11.818  13.413  67.531  1.00  0.00    -0.349 S  
BRANCH   4   6
HETATM    6  N   UNL     1      -9.818  12.300  68.767  1.00  0.00    -0.414 N  
HETATM    7  H   UNL     1      -9.223  12.352  69.594  1.00  0.00     0.000 HD 
BRANCH   6   8
HETATM    8  C   UNL     1      -9.238  11.723  67.592  1.00  0.00    -0.180 C  
HETATM    9  O   UNL     1      -8.275  12.642  67.144  1.00  0.00    -0.182 OA 
HETATM   10  H   UNL     1      -7.890  12.259  66.364  1.00  0.00     0.000 HD 
ENDBRANCH   6   8
ENDBRANCH   4   6
ENDBRANCH   2   4
TORSDOF 3
ENDMDL
MODEL      159
REMARK 921   NORMALIZED FREE ENERGY PREDICTED BY IDOCK:   -1.90 KCAL/MOL
REMARK 922        TOTAL FREE ENERGY PREDICTED BY IDOCK:   -2.26 KCAL/MOL
REMARK 923 INTER-LIGAND FREE ENERGY PREDICTED BY IDOCK:   -2.24 KCAL/MOL
REMARK 924 INTRA-LIGAND FREE ENERGY PREDICTED BY IDOCK:   -0.02 KCAL/MOL
REMARK 927      BINDING AFFINITY PREDICTED BY RF-SCORE:    0.00 PKD
ROOT
HETATM    1  C   UNL     1     -10.180  12.460  65.837  1.00  0.00    -0.251 C  
HETATM    2  N   UNL     1      -9.999  13.899  65.826  1.00  0.00    -0.389 N  
HETATM    3  H   UNL     1     -10.585  14.439  65.190  1.00  0.00     0.000 HD 
ENDROOT
BRANCH   2   4
HETATM    4  C   UNL     1      -9.108  14.591  66.597  1.00  0.00    -0.251 C  
HETATM    5  S   UNL     1      -8.452  14.067  68.040  1.00  0.00    -0.183 S  
BRANCH   4   6
HETATM    6  N   UNL     1      -8.713  15.804  66.121  1.00  0.00    -0.356 N  
HETATM    7  H   UNL     1      -9.252  16.190  65.345  1.00  0.00     0.000 HD 
BRANCH   6   8
HETATM    8  C   UNL     1      -7.617  16.592  66.599  1.00  0.00    -0.279 C  
HETATM    9  O   UNL     1      -7.585  17.740  65.789  1.00  0.00    -0.536 OA 
HETATM   10  H   UNL     1      -6.858  18.264  66.107  1.00  0.00     0.000 HD 
ENDBRANCH   6   8
ENDBRANCH   4   6
ENDBRANCH   2   4
TORSDOF 3
ENDMDL
MODEL      160
REMARK 921   NORMALIZED FREE ENERGY PREDICTED BY IDOCK:   -1.89 KCAL/MOL
REMARK 922        TOTAL FREE ENERGY PREDICTED BY IDOCK:   -2.24 KCAL/MOL
REMARK 923 INTER-LIGAND FREE ENERGY PREDICTED BY IDOCK:   -2.23 KCAL/MOL
REMARK 924 INTRA-LIGAND FREE ENERGY PREDICTED BY IDOCK:   -0.01 KCAL/MOL
REMARK 927      BINDING AFFINITY PREDICTED BY RF-SCORE:    0.00 PKD
ROOT
HETATM    1  C   UNL     1     -10.563   4.423  65.450  1.00  0.00    -0.161 C  
HETATM    2  N   UNL     1     -11.190   5.506  66.183  1.00  0.00    -0.761 N  
HETATM    3  H   UNL     1     -12.198   5.620  66.079  1.00  0.00     0.000 HD 
ENDROOT
BRANCH   2   4
HETATM    4  C   UNL     1     -10.540   6.387  67.002  1.00  0.00    -0.327 C  
HETATM    5  S   UNL     1      -9.678   7.728  66.507  1.00  0.00    -0.159 S  
BRANCH   4   6
HETATM    6  N   UNL     1     -10.633   6.148  68.340  1.00  0.00    -0.235 N  
HETATM    7  H   UNL     1     -10.414   5.201  68.652  1.00  0.00     0.000 HD 
BRANCH   6   8
HETATM    8  C   UNL     1     -11.007   7.090  69.351  1.00  0.00    -0.201 C  
HETATM    9  O   UNL     1     -11.659   6.347  70.349  1.00  0.00    -0.386 OA 
HETATM   10  H   UNL     1     -11.907   6.973  71.021  1.00  0.00     0.000 HD 
ENDBRANCH   6   8
ENDBRANCH   4   6
ENDBRANCH   2   4
TORSDOF 3
ENDMDL
MODEL      161
REMARK 921   NORMALIZED FREE ENERGY PREDICTED BY IDOCK:   -1.89 KCAL/MOL
REMARK 922        TOTAL FREE ENERGY PREDICTED BY IDOCK:   -2.24 KCAL/MOL
REMARK 923 INTER-LIGAND FREE ENERGY PREDICTED BY IDOCK:   -2.18 KCAL/MOL
REMARK 924 INTRA-LIGAND FREE ENERGY PREDICTED BY IDOCK:   -0.06 KCAL/MOL
REMARK 927      BINDING AFFINITY PREDICTED BY RF-SCORE:    0.00 PKD
ROOT
HETATM    1  C   UNL     1      -8.538  15.411  69.099  1.00  0.00    -0.242 C  
HETATM    2  N   UNL     1      -9.513  15.916  68.152  1.00  0.00    -0.202 N  
HETATM    3  H   UNL     1      -9.194  16.609  67.476  1.00  0.00     0.000 HD 
ENDROOT
BRANCH   2   4
HETATM    4  C   UNL     1     -10.826  15.539  68.091  1.00  0.00    -0.296 C  
HETATM    5  S   UNL     1     -11.568  14.789  66.798  1.00  0.00    -0.277 S  
BRANCH   4   6
HETATM    6  N   UNL     1     -11.576  15.785  69.201  1.00  0.00    -0.376 N  
HETATM    7  H   UNL     1     -11.846  16.756  69.366  1.00  0.00     0.000 HD 
BRANCH   6   8
HETATM    8  C   UNL     1     -12.024  14.821  70.159  1.00  0.00    -0.312 C  
HETATM    9  O   UNL     1     -11.204  13.693  69.985  1.00  0.00    -0.478 OA 
HETATM   10  H   UNL     1     -11.501  13.053  70.622  1.00  0.00     0.000 HD 
ENDBRANCH   6   8
ENDBRANCH   4   6
ENDBRANCH   2   4
TORSDOF 3
ENDMDL
MODEL      162
REMARK 921   NORMALIZED FREE ENERGY PREDICTED BY IDOCK:   -1.88 KCAL/MOL
REMARK 922        TOTAL FREE ENERGY PREDICTED BY IDOCK:   -2.24 KCAL/MOL
REMARK 923 INTER-LIGAND FREE ENERGY PREDICTED BY IDOCK:   -1.91 KCAL/MOL
REMARK 924 INTRA-LIGAND FREE ENERGY PREDICTED BY IDOCK:   -0.32 KCAL/MOL
REMARK 927      BINDING AFFINITY PREDICTED BY RF-SCORE:    0.00 PKD
ROOT
HETATM    1  C   UNL     1     -11.156  16.066  68.632  1.00  0.00    -0.349 C  
HETATM    2  N   UNL     1     -10.039  16.798  68.068  1.00  0.00    -0.273 N  
HETATM    3  H   UNL     1     -10.255  17.567  67.434  1.00  0.00     0.000 HD 
ENDROOT
BRANCH   2   4
HETATM    4  C   UNL     1      -8.719  16.542  68.315  1.00  0.00    -0.209 C  
HETATM    5  S   UNL     1      -7.522  17.689  68.510  1.00  0.00    -0.277 S  
BRANCH   4   6
HETATM    6  N   UNL     1      -8.371  15.231  68.432  1.00  0.00    -0.144 N  
HETATM    7  H   UNL     1      -8.433  14.821  69.365  1.00  0.00     0.000 HD 
BRANCH   6   8
HETATM    8  C   UNL     1      -7.926  14.369  67.379  1.00  0.00    -0.201 C  
HETATM    9  O   UNL     1      -8.728  14.672  66.266  1.00  0.00    -0.462 OA 
HETATM   10  H   UNL     1      -8.432  14.101  65.567  1.00  0.00     0.000 HD 
ENDBRANCH   6   8
ENDBRANCH   4   6
ENDBRANCH   2   4
TORSDOF 3
ENDMDL
MODEL      163
REMARK 921   NORMALIZED FREE ENERGY PREDICTED BY IDOCK:   -1.88 KCAL/MOL
REMARK 922        TOTAL FREE ENERGY PREDICTED BY IDOCK:   -2.23 KCAL/MOL
REMARK 923 INTER-LIGAND FREE ENERGY PREDICTED BY IDOCK:   -1.96 KCAL/MOL
REMARK 924 INTRA-LIGAND FREE ENERGY PREDICTED BY IDOCK:   -0.27 KCAL/MOL
REMARK 927      BINDING AFFINITY PREDICTED BY RF-SCORE:    0.00 PKD
ROOT
HETATM    1  C   UNL     1     -11.896  12.907  67.384  1.00  0.00    -0.360 C  
HETATM    2  N   UNL     1     -11.034  13.143  66.241  1.00  0.00    -0.278 N  
HETATM    3  H   UNL     1     -10.977  14.098  65.888  1.00  0.00     0.000 HD 
ENDROOT
BRANCH   2   4
HETATM    4  C   UNL     1     -10.293  12.191  65.599  1.00  0.00    -0.257 C  
HETATM    5  S   UNL     1     -10.496  11.698  64.017  1.00  0.00    -0.409 S  
BRANCH   4   6
HETATM    6  N   UNL     1      -9.291  11.618  66.321  1.00  0.00    -0.212 N  
HETATM    7  H   UNL     1      -9.421  10.643  66.592  1.00  0.00     0.000 HD 
BRANCH   6   8
HETATM    8  C   UNL     1      -8.074  12.245  66.738  1.00  0.00    -0.024 C  
HETATM    9  O   UNL     1      -8.318  13.628  66.700  1.00  0.00    -0.420 OA 
HETATM   10  H   UNL     1      -7.510  14.045  66.977  1.00  0.00     0.000 HD 
ENDBRANCH   6   8
ENDBRANCH   4   6
ENDBRANCH   2   4
TORSDOF 3
ENDMDL
MODEL      164
REMARK 921   NORMALIZED FREE ENERGY PREDICTED BY IDOCK:   -1.88 KCAL/MOL
REMARK 922        TOTAL FREE ENERGY PREDICTED BY IDOCK:   -2.23 KCAL/MOL
REMARK 923 INTER-LIGAND FREE ENERGY PREDICTED BY IDOCK:   -2.03 KCAL/MOL
REMARK 924 INTRA-LIGAND FREE ENERGY PREDICTED BY IDOCK:   -0.20 KCAL/MOL
REMARK 927      BINDING AFFINITY PREDICTED BY RF-SCORE:    0.00 PKD
ROOT
HETATM    1  C   UNL     1     -11.813  13.072  68.682  1.00  0.00    -0.318 C  
HETATM    2  N   UNL     1     -11.030  12.268  67.763  1.00  0.00    -0.221 N  
HETATM    3  H   UNL     1     -10.199  11.808  68.134  1.00  0.00     0.000 HD 
ENDROOT
BRANCH   2   4
HETATM    4  C   UNL     1     -11.315  12.076  66.440  1.00  0.00    -0.354 C  
HETATM    5  S   UNL     1     -12.277  13.059  65.495  1.00  0.00    -0.469 S  
BRANCH   4   6
HETATM    6  N   UNL     1     -10.737  10.993  65.850  1.00  0.00    -0.203 N  
HETATM    7  H   UNL     1     -11.038  10.773  64.900  1.00  0.00     0.000 HD 
BRANCH   6   8
HETATM    8  C   UNL     1      -9.749  10.132  66.427  1.00  0.00    -0.205 C  
HETATM    9  O   UNL     1     -10.460   9.119  67.092  1.00  0.00    -0.260 OA 
HETATM   10  H   UNL     1      -9.805   8.547  67.475  1.00  0.00     0.000 HD 
ENDBRANCH   6   8
ENDBRANCH   4   6
ENDBRANCH   2   4
TORSDOF 3
ENDMDL
MODEL      165
REMARK 921   NORMALIZED FREE ENERGY PREDICTED BY IDOCK:   -1.86 KCAL/MOL
REMARK 922        TOTAL FREE ENERGY PREDICTED BY IDOCK:   -2.21 KCAL/MOL
REMARK 923 INTER-LIGAND FREE ENERGY PREDICTED BY IDOCK:   -2.16 KCAL/MOL
REMARK 924 INTRA-LIGAND FREE ENERGY PREDICTED BY IDOCK:   -0.05 KCAL/MOL
REMARK 927      BINDING AFFINITY PREDICTED BY RF-SCORE:    0.00 PKD
ROOT
HETATM    1  C   UNL     1     -11.821  15.463  69.301  1.00  0.00    -0.343 C  
HETATM    2  N   UNL     1     -10.526  15.461  68.648  1.00  0.00    -0.232 N  
HETATM    3  H   UNL     1     -10.098  14.554  68.459  1.00  0.00     0.000 HD 
ENDROOT
BRANCH   2   4
HETATM    4  C   UNL     1      -9.830  16.574  68.266  1.00  0.00    -0.243 C  
HETATM    5  S   UNL     1     -10.213  18.149  68.664  1.00  0.00    -0.312 S  
BRANCH   4   6
HETATM    6  N   UNL     1      -8.717  16.359  67.511  1.00  0.00    -0.177 N  
HETATM    7  H   UNL     1      -7.845  16.197  68.016  1.00  0.00     0.000 HD 
BRANCH   6   8
HETATM    8  C   UNL     1      -8.646  16.340  66.082  1.00  0.00    -0.307 C  
HETATM    9  O   UNL     1      -7.973  17.516  65.711  1.00  0.00    -0.548 OA 
HETATM   10  H   UNL     1      -7.926  17.503  64.762  1.00  0.00     0.000 HD 
ENDBRANCH   6   8
ENDBRANCH   4   6
ENDBRANCH   2   4
TORSDOF 3
ENDMDL
MODEL      166
REMARK 921   NORMALIZED FREE ENERGY PREDICTED BY IDOCK:   -1.85 KCAL/MOL
REMARK 922        TOTAL FREE ENERGY PREDICTED BY IDOCK:   -2.20 KCAL/MOL
REMARK 923 INTER-LIGAND FREE ENERGY PREDICTED BY IDOCK:   -1.98 KCAL/MOL
REMARK 924 INTRA-LIGAND FREE ENERGY PREDICTED BY IDOCK:   -0.22 KCAL/MOL
REMARK 927      BINDING AFFINITY PREDICTED BY RF-SCORE:    0.00 PKD
ROOT
HETATM    1  C   UNL     1      -7.872  15.475  69.337  1.00  0.00    -0.231 C  
HETATM    2  N   UNL     1      -7.539  16.836  68.962  1.00  0.00    -0.235 N  
HETATM    3  H   UNL     1      -6.575  17.138  69.100  1.00  0.00     0.000 HD 
ENDROOT
BRANCH   2   4
HETATM    4  C   UNL     1      -8.412  17.748  68.439  1.00  0.00    -0.295 C  
HETATM    5  S   UNL     1     -10.078  17.647  68.490  1.00  0.00    -0.392 S  
BRANCH   4   6
HETATM    6  N   UNL     1      -7.859  18.843  67.847  1.00  0.00    -0.258 N  
HETATM    7  H   UNL     1      -7.916  18.892  66.829  1.00  0.00     0.000 HD 
BRANCH   6   8
HETATM    8  C   UNL     1      -7.204  19.931  68.508  1.00  0.00    -0.296 C  
HETATM    9  O   UNL     1      -6.269  19.349  69.380  1.00  0.00    -0.270 OA 
HETATM   10  H   UNL     1      -5.834  20.071  69.818  1.00  0.00     0.000 HD 
ENDBRANCH   6   8
ENDBRANCH   4   6
ENDBRANCH   2   4
TORSDOF 3
ENDMDL
MODEL      167
REMARK 921   NORMALIZED FREE ENERGY PREDICTED BY IDOCK:   -1.84 KCAL/MOL
REMARK 922        TOTAL FREE ENERGY PREDICTED BY IDOCK:   -2.18 KCAL/MOL
REMARK 923 INTER-LIGAND FREE ENERGY PREDICTED BY IDOCK:   -1.92 KCAL/MOL
REMARK 924 INTRA-LIGAND FREE ENERGY PREDICTED BY IDOCK:   -0.26 KCAL/MOL
REMARK 927      BINDING AFFINITY PREDICTED BY RF-SCORE:    0.00 PKD
ROOT
HETATM    1  C   UNL     1      -8.070   5.972  65.211  1.00  0.00    -0.134 C  
HETATM    2  N   UNL     1      -9.253   6.758  65.502  1.00  0.00    -0.360 N  
HETATM    3  H   UNL     1     -10.145   6.411  65.149  1.00  0.00     0.000 HD 
ENDROOT
BRANCH   2   4
HETATM    4  C   UNL     1      -9.273   7.927  66.210  1.00  0.00    -0.178 C  
HETATM    5  S   UNL     1      -8.714   8.134  67.769  1.00  0.00    -0.130 S  
BRANCH   4   6
HETATM    6  N   UNL     1      -9.775   9.016  65.564  1.00  0.00    -0.461 N  
HETATM    7  H   UNL     1     -10.719   9.307  65.823  1.00  0.00     0.000 HD 
BRANCH   6   8
HETATM    8  C   UNL     1      -9.115   9.792  64.559  1.00  0.00    -0.249 C  
HETATM    9  O   UNL     1      -9.346   9.128  63.343  1.00  0.00    -0.409 OA 
HETATM   10  H   UNL     1      -8.908   9.644  62.676  1.00  0.00     0.000 HD 
ENDBRANCH   6   8
ENDBRANCH   4   6
ENDBRANCH   2   4
TORSDOF 3
ENDMDL
MODEL      168
REMARK 921   NORMALIZED FREE ENERGY PREDICTED BY IDOCK:   -1.84 KCAL/MOL
REMARK 922        TOTAL FREE ENERGY PREDICTED BY IDOCK:   -2.18 KCAL/MOL
REMARK 923 INTER-LIGAND FREE ENERGY PREDICTED BY IDOCK:   -1.91 KCAL/MOL
REMARK 924 INTRA-LIGAND FREE ENERGY PREDICTED BY IDOCK:   -0.27 KCAL/MOL
REMARK 927      BINDING AFFINITY PREDICTED BY RF-SCORE:    0.00 PKD
ROOT
HETATM    1  C   UNL     1      -9.034   8.159  72.680  1.00  0.00    -0.232 C  
HETATM    2  N   UNL     1     -10.208   8.703  72.025  1.00  0.00    -0.321 N  
HETATM    3  H   UNL     1     -10.382   9.702  72.131  1.00  0.00     0.000 HD 
ENDROOT
BRANCH   2   4
HETATM    4  C   UNL     1     -11.100   7.986  71.278  1.00  0.00    -0.247 C  
HETATM    5  S   UNL     1     -12.103   6.779  71.846  1.00  0.00    -0.319 S  
BRANCH   4   6
HETATM    6  N   UNL     1     -11.180   8.313  69.958  1.00  0.00    -0.433 N  
HETATM    7  H   UNL     1     -11.559   7.602  69.332  1.00  0.00     0.000 HD 
BRANCH   6   8
HETATM    8  C   UNL     1     -10.787   9.553  69.360  1.00  0.00    -0.206 C  
HETATM    9  O   UNL     1      -9.430   9.409  69.028  1.00  0.00    -0.154 OA 
HETATM   10  H   UNL     1      -9.169  10.232  68.631  1.00  0.00     0.000 HD 
ENDBRANCH   6   8
ENDBRANCH   4   6
ENDBRANCH   2   4
TORSDOF 3
ENDMDL
MODEL      169
REMARK 921   NORMALIZED FREE ENERGY PREDICTED BY IDOCK:   -1.83 KCAL/MOL
REMARK 922        TOTAL FREE ENERGY PREDICTED BY IDOCK:   -2.17 KCAL/MOL
REMARK 923 INTER-LIGAND FREE ENERGY PREDICTED BY IDOCK:   -2.07 KCAL/MOL
REMARK 924 INTRA-LIGAND FREE ENERGY PREDICTED BY IDOCK:   -0.10 KCAL/MOL
REMARK 927      BINDING AFFINITY PREDICTED BY RF-SCORE:    0.00 PKD
ROOT
HETATM    1  C   UNL     1     -11.902  13.181  68.468  1.00  0.00    -0.342 C  
HETATM    2  N   UNL     1     -10.659  13.606  69.083  1.00  0.00    -0.429 N  
HETATM    3  H   UNL     1     -10.490  13.317  70.046  1.00  0.00     0.000 HD 
ENDROOT
BRANCH   2   4
HETATM    4  C   UNL     1      -9.696  14.363  68.477  1.00  0.00    -0.225 C  
HETATM    5  S   UNL     1      -9.954  15.778  67.630  1.00  0.00    -0.242 S  
BRANCH   4   6
HETATM    6  N   UNL     1      -8.413  13.922  68.605  1.00  0.00    -0.296 N  
HETATM    7  H   UNL     1      -7.747  14.566  69.032  1.00  0.00     0.000 HD 
BRANCH   6   8
HETATM    8  C   UNL     1      -7.906  12.646  68.200  1.00  0.00    -0.145 C  
HETATM    9  O   UNL     1      -7.880  12.667  66.795  1.00  0.00    -0.392 OA 
HETATM   10  H   UNL     1      -7.543  11.820  66.527  1.00  0.00     0.000 HD 
ENDBRANCH   6   8
ENDBRANCH   4   6
ENDBRANCH   2   4
TORSDOF 3
ENDMDL
MODEL      170
REMARK 921   NORMALIZED FREE ENERGY PREDICTED BY IDOCK:   -1.81 KCAL/MOL
REMARK 922        TOTAL FREE ENERGY PREDICTED BY IDOCK:   -2.15 KCAL/MOL
REMARK 923 INTER-LIGAND FREE ENERGY PREDICTED BY IDOCK:   -1.87 KCAL/MOL
REMARK 924 INTRA-LIGAND FREE ENERGY PREDICTED BY IDOCK:   -0.28 KCAL/MOL
REMARK 927      BINDING AFFINITY PREDICTED BY RF-SCORE:    0.00 PKD
ROOT
HETATM    1  C   UNL     1      -9.669   9.605  69.047  1.00  0.00    -0.169 C  
HETATM    2  N   UNL     1      -9.804  10.466  67.888  1.00  0.00    -0.152 N  
HETATM    3  H   UNL     1     -10.232  10.066  67.054  1.00  0.00     0.000 HD 
ENDROOT
BRANCH   2   4
HETATM    4  C   UNL     1      -9.404  11.772  67.822  1.00  0.00    -0.181 C  
HETATM    5  S   UNL     1      -7.867  12.304  67.447  1.00  0.00    -0.177 S  
BRANCH   4   6
HETATM    6  N   UNL     1     -10.361  12.709  68.066  1.00  0.00    -0.221 N  
HETATM    7  H   UNL     1     -10.037  13.631  68.357  1.00  0.00     0.000 HD 
BRANCH   6   8
HETATM    8  C   UNL     1     -11.778  12.531  67.954  1.00  0.00    -0.359 C  
HETATM    9  O   UNL     1     -12.001  11.998  66.674  1.00  0.00    -0.614 OA 
HETATM   10  H   UNL     1     -12.941  11.880  66.600  1.00  0.00     0.000 HD 
ENDBRANCH   6   8
ENDBRANCH   4   6
ENDBRANCH   2   4
TORSDOF 3
ENDMDL
MODEL      171
REMARK 921   NORMALIZED FREE ENERGY PREDICTED BY IDOCK:   -1.80 KCAL/MOL
REMARK 922        TOTAL FREE ENERGY PREDICTED BY IDOCK:   -2.14 KCAL/MOL
REMARK 923 INTER-LIGAND FREE ENERGY PREDICTED BY IDOCK:   -1.85 KCAL/MOL
REMARK 924 INTRA-LIGAND FREE ENERGY PREDICTED BY IDOCK:   -0.29 KCAL/MOL
REMARK 927      BINDING AFFINITY PREDICTED BY RF-SCORE:    0.00 PKD
ROOT
HETATM    1  C   UNL     1      -5.999  20.637  69.040  1.00  0.00    -0.344 C  
HETATM    2  N   UNL     1      -6.275  19.218  68.919  1.00  0.00    -0.238 N  
HETATM    3  H   UNL     1      -5.531  18.572  69.179  1.00  0.00     0.000 HD 
ENDROOT
BRANCH   2   4
HETATM    4  C   UNL     1      -7.453  18.676  68.484  1.00  0.00    -0.302 C  
HETATM    5  S   UNL     1      -8.958  19.388  68.601  1.00  0.00    -0.342 S  
BRANCH   4   6
HETATM    6  N   UNL     1      -7.370  17.456  67.886  1.00  0.00    -0.186 N  
HETATM    7  H   UNL     1      -7.540  16.642  68.478  1.00  0.00     0.000 HD 
BRANCH   6   8
HETATM    8  C   UNL     1      -7.069  17.199  66.510  1.00  0.00    -0.268 C  
HETATM    9  O   UNL     1      -6.137  18.178  66.128  1.00  0.00    -0.170 OA 
HETATM   10  H   UNL     1      -5.937  18.007  65.215  1.00  0.00     0.000 HD 
ENDBRANCH   6   8
ENDBRANCH   4   6
ENDBRANCH   2   4
TORSDOF 3
ENDMDL
MODEL      172
REMARK 921   NORMALIZED FREE ENERGY PREDICTED BY IDOCK:   -1.80 KCAL/MOL
REMARK 922        TOTAL FREE ENERGY PREDICTED BY IDOCK:   -2.13 KCAL/MOL
REMARK 923 INTER-LIGAND FREE ENERGY PREDICTED BY IDOCK:   -2.07 KCAL/MOL
REMARK 924 INTRA-LIGAND FREE ENERGY PREDICTED BY IDOCK:   -0.07 KCAL/MOL
REMARK 927      BINDING AFFINITY PREDICTED BY RF-SCORE:    0.00 PKD
ROOT
HETATM    1  C   UNL     1      -8.277  20.126  66.527  1.00  0.00    -0.271 C  
HETATM    2  N   UNL     1      -8.634  19.500  67.785  1.00  0.00    -0.308 N  
HETATM    3  H   UNL     1      -8.708  20.103  68.604  1.00  0.00     0.000 HD 
ENDROOT
BRANCH   2   4
HETATM    4  C   UNL     1      -8.879  18.167  67.965  1.00  0.00    -0.279 C  
HETATM    5  S   UNL     1      -7.833  17.066  68.659  1.00  0.00    -0.259 S  
BRANCH   4   6
HETATM    6  N   UNL     1     -10.097  17.717  67.555  1.00  0.00    -0.325 N  
HETATM    7  H   UNL     1     -10.871  17.825  68.212  1.00  0.00     0.000 HD 
BRANCH   6   8
HETATM    8  C   UNL     1     -10.403  17.109  66.295  1.00  0.00    -0.313 C  
HETATM    9  O   UNL     1     -10.776  15.786  66.585  1.00  0.00    -0.314 OA 
HETATM   10  H   UNL     1     -10.979  15.382  65.749  1.00  0.00     0.000 HD 
ENDBRANCH   6   8
ENDBRANCH   4   6
ENDBRANCH   2   4
TORSDOF 3
ENDMDL
MODEL      173
REMARK 921   NORMALIZED FREE ENERGY PREDICTED BY IDOCK:   -1.80 KCAL/MOL
REMARK 922        TOTAL FREE ENERGY PREDICTED BY IDOCK:   -2.13 KCAL/MOL
REMARK 923 INTER-LIGAND FREE ENERGY PREDICTED BY IDOCK:   -1.82 KCAL/MOL
REMARK 924 INTRA-LIGAND FREE ENERGY PREDICTED BY IDOCK:   -0.32 KCAL/MOL
REMARK 927      BINDING AFFINITY PREDICTED BY RF-SCORE:    0.00 PKD
ROOT
HETATM    1  C   UNL     1      -9.172   6.635  71.073  1.00  0.00    -0.160 C  
HETATM    2  N   UNL     1      -9.157   7.316  69.793  1.00  0.00    -0.142 N  
HETATM    3  H   UNL     1      -8.256   7.420  69.328  1.00  0.00     0.000 HD 
ENDROOT
BRANCH   2   4
HETATM    4  C   UNL     1     -10.253   7.832  69.159  1.00  0.00    -0.208 C  
HETATM    5  S   UNL     1     -10.409   8.066  67.514  1.00  0.00    -0.266 S  
BRANCH   4   6
HETATM    6  N   UNL     1     -11.311   8.158  69.952  1.00  0.00    -0.455 N  
HETATM    7  H   UNL     1     -11.950   7.402  70.198  1.00  0.00     0.000 HD 
BRANCH   6   8
HETATM    8  C   UNL     1     -11.616   9.455  70.475  1.00  0.00    -0.235 C  
HETATM    9  O   UNL     1     -10.387  10.018  70.857  1.00  0.00    -0.350 OA 
HETATM   10  H   UNL     1     -10.590  10.879  71.204  1.00  0.00     0.000 HD 
ENDBRANCH   6   8
ENDBRANCH   4   6
ENDBRANCH   2   4
TORSDOF 3
ENDMDL
MODEL      174
REMARK 921   NORMALIZED FREE ENERGY PREDICTED BY IDOCK:   -1.76 KCAL/MOL
REMARK 922        TOTAL FREE ENERGY PREDICTED BY IDOCK:   -2.09 KCAL/MOL
REMARK 923 INTER-LIGAND FREE ENERGY PREDICTED BY IDOCK:   -2.05 KCAL/MOL
REMARK 924 INTRA-LIGAND FREE ENERGY PREDICTED BY IDOCK:   -0.04 KCAL/MOL
REMARK 927      BINDING AFFINITY PREDICTED BY RF-SCORE:    0.00 PKD
ROOT
HETATM    1  C   UNL     1     -10.391  14.972  65.372  1.00  0.00    -0.383 C  
HETATM    2  N   UNL     1     -10.467  16.346  65.829  1.00  0.00    -0.366 N  
HETATM    3  H   UNL     1     -11.263  16.901  65.515  1.00  0.00     0.000 HD 
ENDROOT
BRANCH   2   4
HETATM    4  C   UNL     1      -9.559  16.960  66.646  1.00  0.00    -0.267 C  
HETATM    5  S   UNL     1      -7.990  17.357  66.239  1.00  0.00    -0.254 S  
BRANCH   4   6
HETATM    6  N   UNL     1      -9.996  17.289  67.894  1.00  0.00    -0.284 N  
HETATM    7  H   UNL     1      -9.452  17.988  68.400  1.00  0.00     0.000 HD 
BRANCH   6   8
HETATM    8  C   UNL     1     -11.140  16.752  68.566  1.00  0.00    -0.260 C  
HETATM    9  O   UNL     1     -11.114  17.289  69.864  1.00  0.00    -0.234 OA 
HETATM   10  H   UNL     1     -11.874  16.933  70.310  1.00  0.00     0.000 HD 
ENDBRANCH   6   8
ENDBRANCH   4   6
ENDBRANCH   2   4
TORSDOF 3
ENDMDL
MODEL      175
REMARK 921   NORMALIZED FREE ENERGY PREDICTED BY IDOCK:   -1.76 KCAL/MOL
REMARK 922        TOTAL FREE ENERGY PREDICTED BY IDOCK:   -2.09 KCAL/MOL
REMARK 923 INTER-LIGAND FREE ENERGY PREDICTED BY IDOCK:   -1.81 KCAL/MOL
REMARK 924 INTRA-LIGAND FREE ENERGY PREDICTED BY IDOCK:   -0.28 KCAL/MOL
REMARK 927      BINDING AFFINITY PREDICTED BY RF-SCORE:    0.00 PKD
ROOT
HETATM    1  C   UNL     1      -7.804  16.180  67.647  1.00  0.00    -0.147 C  
HETATM    2  N   UNL     1      -7.944  17.129  66.559  1.00  0.00    -0.261 N  
HETATM    3  H   UNL     1      -8.623  16.910  65.831  1.00  0.00     0.000 HD 
ENDROOT
BRANCH   2   4
HETATM    4  C   UNL     1      -7.240  18.294  66.430  1.00  0.00    -0.244 C  
HETATM    5  S   UNL     1      -6.085  18.613  65.269  1.00  0.00    -0.258 S  
BRANCH   4   6
HETATM    6  N   UNL     1      -7.535  19.278  67.324  1.00  0.00    -0.230 N  
HETATM    7  H   UNL     1      -7.004  19.281  68.195  1.00  0.00     0.000 HD 
BRANCH   6   8
HETATM    8  C   UNL     1      -8.514  20.310  67.164  1.00  0.00    -0.339 C  
HETATM    9  O   UNL     1      -9.678  19.672  66.705  1.00  0.00    -0.329 OA 
HETATM   10  H   UNL     1     -10.328  20.357  66.600  1.00  0.00     0.000 HD 
ENDBRANCH   6   8
ENDBRANCH   4   6
ENDBRANCH   2   4
TORSDOF 3
ENDMDL
MODEL      176
REMARK 921   NORMALIZED FREE ENERGY PREDICTED BY IDOCK:   -1.76 KCAL/MOL
REMARK 922        TOTAL FREE ENERGY PREDICTED BY IDOCK:   -2.09 KCAL/MOL
REMARK 923 INTER-LIGAND FREE ENERGY PREDICTED BY IDOCK:   -2.02 KCAL/MOL
REMARK 924 INTRA-LIGAND FREE ENERGY PREDICTED BY IDOCK:   -0.06 KCAL/MOL
REMARK 927      BINDING AFFINITY PREDICTED BY RF-SCORE:    0.00 PKD
ROOT
HETATM    1  C   UNL     1      -7.238   6.603  63.876  1.00  0.00    -0.064 C  
HETATM    2  N   UNL     1      -7.451   5.210  63.530  1.00  0.00    -0.051 N  
HETATM    3  H   UNL     1      -6.759   4.766  62.927  1.00  0.00     0.000 HD 
ENDROOT
BRANCH   2   4
HETATM    4  C   UNL     1      -8.503   4.444  63.948  1.00  0.00    -0.117 C  
HETATM    5  S   UNL     1      -8.677   2.803  63.696  1.00  0.00    -0.085 S  
BRANCH   4   6
HETATM    6  N   UNL     1      -9.477   5.087  64.649  1.00  0.00    -0.358 N  
HETATM    7  H   UNL     1      -9.572   6.091  64.488  1.00  0.00     0.000 HD 
BRANCH   6   8
HETATM    8  C   UNL     1     -10.382   4.499  65.590  1.00  0.00    -0.247 C  
HETATM    9  O   UNL     1     -11.646   4.520  64.977  1.00  0.00    -1.101 OA 
HETATM   10  H   UNL     1     -12.246   4.129  65.601  1.00  0.00     0.000 HD 
ENDBRANCH   6   8
ENDBRANCH   4   6
ENDBRANCH   2   4
TORSDOF 3
ENDMDL
MODEL      177
REMARK 921   NORMALIZED FREE ENERGY PREDICTED BY IDOCK:   -1.75 KCAL/MOL
REMARK 922        TOTAL FREE ENERGY PREDICTED BY IDOCK:   -2.08 KCAL/MOL
REMARK 923 INTER-LIGAND FREE ENERGY PREDICTED BY IDOCK:   -2.22 KCAL/MOL
REMARK 924 INTRA-LIGAND FREE ENERGY PREDICTED BY IDOCK:    0.14 KCAL/MOL
REMARK 927      BINDING AFFINITY PREDICTED BY RF-SCORE:    0.00 PKD
ROOT
HETATM    1  C   UNL     1      -7.638   4.606  67.944  1.00  0.00    -0.078 C  
HETATM    2  N   UNL     1      -8.942   4.642  68.578  1.00  0.00    -0.105 N  
HETATM    3  H   UNL     1      -9.092   4.026  69.377  1.00  0.00     0.000 HD 
ENDROOT
BRANCH   2   4
HETATM    4  C   UNL     1      -9.988   5.433  68.192  1.00  0.00    -0.158 C  
HETATM    5  S   UNL     1     -10.959   6.333  69.208  1.00  0.00    -0.392 S  
BRANCH   4   6
HETATM    6  N   UNL     1     -10.232   5.499  66.854  1.00  0.00    -0.206 N  
HETATM    7  H   UNL     1     -10.366   6.430  66.457  1.00  0.00     0.000 HD 
BRANCH   6   8
HETATM    8  C   UNL     1     -10.321   4.394  65.947  1.00  0.00    -0.204 C  
HETATM    9  O   UNL     1     -11.417   4.666  65.111  1.00  0.00    -1.082 OA 
HETATM   10  H   UNL     1     -11.475   3.933  64.509  1.00  0.00     0.000 HD 
ENDBRANCH   6   8
ENDBRANCH   4   6
ENDBRANCH   2   4
TORSDOF 3
ENDMDL
MODEL      178
REMARK 921   NORMALIZED FREE ENERGY PREDICTED BY IDOCK:   -1.75 KCAL/MOL
REMARK 922        TOTAL FREE ENERGY PREDICTED BY IDOCK:   -2.07 KCAL/MOL
REMARK 923 INTER-LIGAND FREE ENERGY PREDICTED BY IDOCK:   -1.77 KCAL/MOL
REMARK 924 INTRA-LIGAND FREE ENERGY PREDICTED BY IDOCK:   -0.30 KCAL/MOL
REMARK 927      BINDING AFFINITY PREDICTED BY RF-SCORE:    0.00 PKD
ROOT
HETATM    1  C   UNL     1      -8.341   8.372  67.405  1.00  0.00    -0.124 C  
HETATM    2  N   UNL     1      -9.768   8.557  67.588  1.00  0.00    -0.153 N  
HETATM    3  H   UNL     1     -10.390   8.048  66.961  1.00  0.00     0.000 HD 
ENDROOT
BRANCH   2   4
HETATM    4  C   UNL     1     -10.347   9.358  68.532  1.00  0.00    -0.209 C  
HETATM    5  S   UNL     1      -9.880   9.480  70.130  1.00  0.00    -0.258 S  
BRANCH   4   6
HETATM    6  N   UNL     1     -11.382  10.137  68.109  1.00  0.00    -0.523 N  
HETATM    7  H   UNL     1     -12.319   9.742  68.199  1.00  0.00     0.000 HD 
BRANCH   6   8
HETATM    8  C   UNL     1     -11.288  11.452  67.553  1.00  0.00    -0.292 C  
HETATM    9  O   UNL     1     -10.164  11.437  66.710  1.00  0.00    -0.211 OA 
HETATM   10  H   UNL     1     -10.102  12.310  66.340  1.00  0.00     0.000 HD 
ENDBRANCH   6   8
ENDBRANCH   4   6
ENDBRANCH   2   4
TORSDOF 3
ENDMDL
MODEL      179
REMARK 921   NORMALIZED FREE ENERGY PREDICTED BY IDOCK:   -1.74 KCAL/MOL
REMARK 922        TOTAL FREE ENERGY PREDICTED BY IDOCK:   -2.07 KCAL/MOL
REMARK 923 INTER-LIGAND FREE ENERGY PREDICTED BY IDOCK:   -1.80 KCAL/MOL
REMARK 924 INTRA-LIGAND FREE ENERGY PREDICTED BY IDOCK:   -0.27 KCAL/MOL
REMARK 927      BINDING AFFINITY PREDICTED BY RF-SCORE:    0.00 PKD
ROOT
HETATM    1  C   UNL     1      -7.743  11.759  68.389  1.00  0.00    -0.131 C  
HETATM    2  N   UNL     1      -8.909  11.320  67.646  1.00  0.00    -0.136 N  
HETATM    3  H   UNL     1      -9.512  10.628  68.087  1.00  0.00     0.000 HD 
ENDROOT
BRANCH   2   4
HETATM    4  C   UNL     1      -9.265  11.760  66.401  1.00  0.00    -0.217 C  
HETATM    5  S   UNL     1     -10.031  10.853  65.227  1.00  0.00    -0.293 S  
BRANCH   4   6
HETATM    6  N   UNL     1      -8.981  13.061  66.117  1.00  0.00    -0.437 N  
HETATM    7  H   UNL     1      -8.008  13.283  65.907  1.00  0.00     0.000 HD 
BRANCH   6   8
HETATM    8  C   UNL     1      -9.911  14.149  66.083  1.00  0.00    -0.314 C  
HETATM    9  O   UNL     1     -10.607  14.102  67.302  1.00  0.00    -0.273 OA 
HETATM   10  H   UNL     1     -11.224  14.824  67.280  1.00  0.00     0.000 HD 
ENDBRANCH   6   8
ENDBRANCH   4   6
ENDBRANCH   2   4
TORSDOF 3
ENDMDL
MODEL      180
REMARK 921   NORMALIZED FREE ENERGY PREDICTED BY IDOCK:   -1.73 KCAL/MOL
REMARK 922        TOTAL FREE ENERGY PREDICTED BY IDOCK:   -2.06 KCAL/MOL
REMARK 923 INTER-LIGAND FREE ENERGY PREDICTED BY IDOCK:   -1.79 KCAL/MOL
REMARK 924 INTRA-LIGAND FREE ENERGY PREDICTED BY IDOCK:   -0.27 KCAL/MOL
REMARK 927      BINDING AFFINITY PREDICTED BY RF-SCORE:    0.00 PKD
ROOT
HETATM    1  C   UNL     1     -10.039  19.862  68.870  1.00  0.00    -0.335 C  
HETATM    2  N   UNL     1      -9.192  19.514  67.746  1.00  0.00    -0.315 N  
HETATM    3  H   UNL     1      -8.543  20.225  67.411  1.00  0.00     0.000 HD 
ENDROOT
BRANCH   2   4
HETATM    4  C   UNL     1      -9.194  18.311  67.097  1.00  0.00    -0.264 C  
HETATM    5  S   UNL     1     -10.146  16.995  67.481  1.00  0.00    -0.303 S  
BRANCH   4   6
HETATM    6  N   UNL     1      -8.353  18.200  66.031  1.00  0.00    -0.109 N  
HETATM    7  H   UNL     1      -8.761  17.864  65.158  1.00  0.00     0.000 HD 
BRANCH   6   8
HETATM    8  C   UNL     1      -6.955  18.505  66.012  1.00  0.00    -0.275 C  
HETATM    9  O   UNL     1      -6.506  18.348  67.334  1.00  0.00    -0.187 OA 
HETATM   10  H   UNL     1      -5.577  18.551  67.321  1.00  0.00     0.000 HD 
ENDBRANCH   6   8
ENDBRANCH   4   6
ENDBRANCH   2   4
TORSDOF 3
ENDMDL
MODEL      181
REMARK 921   NORMALIZED FREE ENERGY PREDICTED BY IDOCK:   -1.73 KCAL/MOL
REMARK 922        TOTAL FREE ENERGY PREDICTED BY IDOCK:   -2.05 KCAL/MOL
REMARK 923 INTER-LIGAND FREE ENERGY PREDICTED BY IDOCK:   -1.98 KCAL/MOL
REMARK 924 INTRA-LIGAND FREE ENERGY PREDICTED BY IDOCK:   -0.07 KCAL/MOL
REMARK 927      BINDING AFFINITY PREDICTED BY RF-SCORE:    0.00 PKD
ROOT
HETATM    1  C   UNL     1     -10.381   9.156  66.998  1.00  0.00    -0.263 C  
HETATM    2  N   UNL     1      -9.141   9.864  66.747  1.00  0.00    -0.142 N  
HETATM    3  H   UNL     1      -8.350   9.652  67.355  1.00  0.00     0.000 HD 
ENDROOT
BRANCH   2   4
HETATM    4  C   UNL     1      -8.945  10.792  65.763  1.00  0.00    -0.187 C  
HETATM    5  S   UNL     1      -9.411  10.638  64.168  1.00  0.00    -0.306 S  
BRANCH   4   6
HETATM    6  N   UNL     1      -8.334  11.950  66.139  1.00  0.00    -0.389 N  
HETATM    7  H   UNL     1      -7.346  12.046  65.900  1.00  0.00     0.000 HD 
BRANCH   6   8
HETATM    8  C   UNL     1      -8.937  13.046  66.836  1.00  0.00    -0.209 C  
HETATM    9  O   UNL     1      -9.461  13.893  65.845  1.00  0.00    -0.485 OA 
HETATM   10  H   UNL     1      -9.862  14.620  66.308  1.00  0.00     0.000 HD 
ENDBRANCH   6   8
ENDBRANCH   4   6
ENDBRANCH   2   4
TORSDOF 3
ENDMDL
MODEL      182
REMARK 921   NORMALIZED FREE ENERGY PREDICTED BY IDOCK:   -1.72 KCAL/MOL
REMARK 922        TOTAL FREE ENERGY PREDICTED BY IDOCK:   -2.04 KCAL/MOL
REMARK 923 INTER-LIGAND FREE ENERGY PREDICTED BY IDOCK:   -1.98 KCAL/MOL
REMARK 924 INTRA-LIGAND FREE ENERGY PREDICTED BY IDOCK:   -0.07 KCAL/MOL
REMARK 927      BINDING AFFINITY PREDICTED BY RF-SCORE:    0.00 PKD
ROOT
HETATM    1  C   UNL     1     -10.424  12.414  63.742  1.00  0.00    -0.443 C  
HETATM    2  N   UNL     1      -9.429  11.496  64.263  1.00  0.00    -0.413 N  
HETATM    3  H   UNL     1      -8.884  10.963  63.586  1.00  0.00     0.000 HD 
ENDROOT
BRANCH   2   4
HETATM    4  C   UNL     1      -9.163  11.286  65.587  1.00  0.00    -0.213 C  
HETATM    5  S   UNL     1      -8.176  10.092  66.208  1.00  0.00    -0.126 S  
BRANCH   4   6
HETATM    6  N   UNL     1      -9.747  12.149  66.464  1.00  0.00    -0.218 N  
HETATM    7  H   UNL     1     -10.747  12.028  66.630  1.00  0.00     0.000 HD 
BRANCH   6   8
HETATM    8  C   UNL     1      -9.100  13.209  67.176  1.00  0.00    -0.230 C  
HETATM    9  O   UNL     1      -9.457  13.045  68.525  1.00  0.00    -0.333 OA 
HETATM   10  H   UNL     1      -9.027  13.748  68.997  1.00  0.00     0.000 HD 
ENDBRANCH   6   8
ENDBRANCH   4   6
ENDBRANCH   2   4
TORSDOF 3
ENDMDL
MODEL      183
REMARK 921   NORMALIZED FREE ENERGY PREDICTED BY IDOCK:   -1.71 KCAL/MOL
REMARK 922        TOTAL FREE ENERGY PREDICTED BY IDOCK:   -2.03 KCAL/MOL
REMARK 923 INTER-LIGAND FREE ENERGY PREDICTED BY IDOCK:   -1.99 KCAL/MOL
REMARK 924 INTRA-LIGAND FREE ENERGY PREDICTED BY IDOCK:   -0.04 KCAL/MOL
REMARK 927      BINDING AFFINITY PREDICTED BY RF-SCORE:    0.00 PKD
ROOT
HETATM    1  C   UNL     1     -10.159   4.458  65.777  1.00  0.00    -0.245 C  
HETATM    2  N   UNL     1      -9.960   5.891  65.868  1.00  0.00    -0.387 N  
HETATM    3  H   UNL     1      -9.616   6.370  65.036  1.00  0.00     0.000 HD 
ENDROOT
BRANCH   2   4
HETATM    4  C   UNL     1     -10.194   6.654  66.978  1.00  0.00    -0.223 C  
HETATM    5  S   UNL     1      -9.922   6.189  68.558  1.00  0.00    -0.159 S  
BRANCH   4   6
HETATM    6  N   UNL     1     -10.673   7.910  66.757  1.00  0.00    -0.435 N  
HETATM    7  H   UNL     1     -11.657   7.986  66.496  1.00  0.00     0.000 HD 
BRANCH   6   8
HETATM    8  C   UNL     1      -9.936   9.133  66.853  1.00  0.00    -0.238 C  
HETATM    9  O   UNL     1      -9.801   9.609  65.538  1.00  0.00    -0.302 OA 
HETATM   10  H   UNL     1      -9.312  10.421  65.602  1.00  0.00     0.000 HD 
ENDBRANCH   6   8
ENDBRANCH   4   6
ENDBRANCH   2   4
TORSDOF 3
ENDMDL
MODEL      184
REMARK 921   NORMALIZED FREE ENERGY PREDICTED BY IDOCK:   -1.70 KCAL/MOL
REMARK 922        TOTAL FREE ENERGY PREDICTED BY IDOCK:   -2.02 KCAL/MOL
REMARK 923 INTER-LIGAND FREE ENERGY PREDICTED BY IDOCK:   -1.75 KCAL/MOL
REMARK 924 INTRA-LIGAND FREE ENERGY PREDICTED BY IDOCK:   -0.27 KCAL/MOL
REMARK 927      BINDING AFFINITY PREDICTED BY RF-SCORE:    0.00 PKD
ROOT
HETATM    1  C   UNL     1     -10.520   9.367  67.437  1.00  0.00    -0.278 C  
HETATM    2  N   UNL     1     -10.127   8.646  66.242  1.00  0.00    -0.424 N  
HETATM    3  H   UNL     1     -10.645   7.798  66.015  1.00  0.00     0.000 HD 
ENDROOT
BRANCH   2   4
HETATM    4  C   UNL     1      -9.118   9.010  65.395  1.00  0.00    -0.193 C  
HETATM    5  S   UNL     1      -9.219  10.164  64.194  1.00  0.00    -0.287 S  
BRANCH   4   6
HETATM    6  N   UNL     1      -7.924   8.380  65.573  1.00  0.00    -0.108 N  
HETATM    7  H   UNL     1      -7.151   8.950  65.920  1.00  0.00     0.000 HD 
BRANCH   6   8
HETATM    8  C   UNL     1      -7.642   6.998  65.324  1.00  0.00    -0.099 C  
HETATM    9  O   UNL     1      -8.836   6.442  64.835  1.00  0.00    -0.358 OA 
HETATM   10  H   UNL     1      -8.648   5.525  64.669  1.00  0.00     0.000 HD 
ENDBRANCH   6   8
ENDBRANCH   4   6
ENDBRANCH   2   4
TORSDOF 3
ENDMDL
MODEL      185
REMARK 921   NORMALIZED FREE ENERGY PREDICTED BY IDOCK:   -1.67 KCAL/MOL
REMARK 922        TOTAL FREE ENERGY PREDICTED BY IDOCK:   -1.99 KCAL/MOL
REMARK 923 INTER-LIGAND FREE ENERGY PREDICTED BY IDOCK:   -2.07 KCAL/MOL
REMARK 924 INTRA-LIGAND FREE ENERGY PREDICTED BY IDOCK:    0.08 KCAL/MOL
REMARK 927      BINDING AFFINITY PREDICTED BY RF-SCORE:    0.00 PKD
ROOT
HETATM    1  C   UNL     1     -10.519   5.333  69.866  1.00  0.00    -0.281 C  
HETATM    2  N   UNL     1     -10.931   6.714  70.029  1.00  0.00    -0.283 N  
HETATM    3  H   UNL     1     -11.256   7.208  69.198  1.00  0.00     0.000 HD 
ENDROOT
BRANCH   2   4
HETATM    4  C   UNL     1     -10.920   7.409  71.206  1.00  0.00    -0.242 C  
HETATM    5  S   UNL     1     -10.441   8.997  71.398  1.00  0.00    -0.346 S  
BRANCH   4   6
HETATM    6  N   UNL     1     -11.362   6.739  72.306  1.00  0.00    -0.264 N  
HETATM    7  H   UNL     1     -12.365   6.772  72.491  1.00  0.00     0.000 HD 
BRANCH   6   8
HETATM    8  C   UNL     1     -10.561   5.994  73.229  1.00  0.00    -0.256 C  
HETATM    9  O   UNL     1     -11.449   5.154  73.922  1.00  0.00    -0.394 OA 
HETATM   10  H   UNL     1     -10.918   4.659  74.535  1.00  0.00     0.000 HD 
ENDBRANCH   6   8
ENDBRANCH   4   6
ENDBRANCH   2   4
TORSDOF 3
ENDMDL
MODEL      186
REMARK 921   NORMALIZED FREE ENERGY PREDICTED BY IDOCK:   -1.67 KCAL/MOL
REMARK 922        TOTAL FREE ENERGY PREDICTED BY IDOCK:   -1.99 KCAL/MOL
REMARK 923 INTER-LIGAND FREE ENERGY PREDICTED BY IDOCK:   -1.94 KCAL/MOL
REMARK 924 INTRA-LIGAND FREE ENERGY PREDICTED BY IDOCK:   -0.05 KCAL/MOL
REMARK 927      BINDING AFFINITY PREDICTED BY RF-SCORE:    0.00 PKD
ROOT
HETATM    1  C   UNL     1      -9.221  15.145  66.812  1.00  0.00    -0.254 C  
HETATM    2  N   UNL     1      -9.333  13.802  66.277  1.00  0.00    -0.468 N  
HETATM    3  H   UNL     1      -9.838  13.688  65.399  1.00  0.00     0.000 HD 
ENDROOT
BRANCH   2   4
HETATM    4  C   UNL     1      -8.817  12.675  66.854  1.00  0.00    -0.201 C  
HETATM    5  S   UNL     1      -9.670  11.566  67.764  1.00  0.00    -0.178 S  
BRANCH   4   6
HETATM    6  N   UNL     1      -7.493  12.440  66.640  1.00  0.00    -0.356 N  
HETATM    7  H   UNL     1      -7.237  12.052  65.731  1.00  0.00     0.000 HD 
BRANCH   6   8
HETATM    8  C   UNL     1      -6.423  12.683  67.560  1.00  0.00    -0.158 C  
HETATM    9  O   UNL     1      -5.238  12.410  66.857  1.00  0.00    -0.329 OA 
HETATM   10  H   UNL     1      -4.528  12.572  67.468  1.00  0.00     0.000 HD 
ENDBRANCH   6   8
ENDBRANCH   4   6
ENDBRANCH   2   4
TORSDOF 3
ENDMDL
MODEL      187
REMARK 921   NORMALIZED FREE ENERGY PREDICTED BY IDOCK:   -1.67 KCAL/MOL
REMARK 922        TOTAL FREE ENERGY PREDICTED BY IDOCK:   -1.99 KCAL/MOL
REMARK 923 INTER-LIGAND FREE ENERGY PREDICTED BY IDOCK:   -1.92 KCAL/MOL
REMARK 924 INTRA-LIGAND FREE ENERGY PREDICTED BY IDOCK:   -0.06 KCAL/MOL
REMARK 927      BINDING AFFINITY PREDICTED BY RF-SCORE:    0.00 PKD
ROOT
HETATM    1  C   UNL     1     -10.256   8.313  66.883  1.00  0.00    -0.318 C  
HETATM    2  N   UNL     1      -9.694   7.953  68.170  1.00  0.00    -0.155 N  
HETATM    3  H   UNL     1      -9.075   7.144  68.201  1.00  0.00     0.000 HD 
ENDROOT
BRANCH   2   4
HETATM    4  C   UNL     1      -9.927   8.609  69.346  1.00  0.00    -0.197 C  
HETATM    5  S   UNL     1      -9.914  10.265  69.561  1.00  0.00    -0.204 S  
BRANCH   4   6
HETATM    6  N   UNL     1     -10.216   7.830  70.425  1.00  0.00    -0.195 N  
HETATM    7  H   UNL     1      -9.459   7.248  70.786  1.00  0.00     0.000 HD 
BRANCH   6   8
HETATM    8  C   UNL     1     -11.474   7.744  71.104  1.00  0.00    -0.274 C  
HETATM    9  O   UNL     1     -12.234   6.801  70.392  1.00  0.00    -0.581 OA 
HETATM   10  H   UNL     1     -13.069   6.744  70.843  1.00  0.00     0.000 HD 
ENDBRANCH   6   8
ENDBRANCH   4   6
ENDBRANCH   2   4
TORSDOF 3
ENDMDL
MODEL      188
REMARK 921   NORMALIZED FREE ENERGY PREDICTED BY IDOCK:   -1.66 KCAL/MOL
REMARK 922        TOTAL FREE ENERGY PREDICTED BY IDOCK:   -1.97 KCAL/MOL
REMARK 923 INTER-LIGAND FREE ENERGY PREDICTED BY IDOCK:   -1.93 KCAL/MOL
REMARK 924 INTRA-LIGAND FREE ENERGY PREDICTED BY IDOCK:   -0.05 KCAL/MOL
REMARK 927      BINDING AFFINITY PREDICTED BY RF-SCORE:    0.00 PKD
ROOT
HETATM    1  C   UNL     1     -11.404  10.304  70.252  1.00  0.00    -0.323 C  
HETATM    2  N   UNL     1      -9.979  10.264  69.987  1.00  0.00    -0.420 N  
HETATM    3  H   UNL     1      -9.403  10.991  70.410  1.00  0.00     0.000 HD 
ENDROOT
BRANCH   2   4
HETATM    4  C   UNL     1      -9.344   9.331  69.215  1.00  0.00    -0.160 C  
HETATM    5  S   UNL     1      -8.334   8.125  69.773  1.00  0.00    -0.125 S  
BRANCH   4   6
HETATM    6  N   UNL     1      -9.585   9.392  67.876  1.00  0.00    -0.133 N  
HETATM    7  H   UNL     1      -9.088  10.115  67.353  1.00  0.00     0.000 HD 
BRANCH   6   8
HETATM    8  C   UNL     1     -10.463   8.546  67.127  1.00  0.00    -0.299 C  
HETATM    9  O   UNL     1      -9.834   8.333  65.889  1.00  0.00    -0.466 OA 
HETATM   10  H   UNL     1     -10.418   7.770  65.392  1.00  0.00     0.000 HD 
ENDBRANCH   6   8
ENDBRANCH   4   6
ENDBRANCH   2   4
TORSDOF 3
ENDMDL
MODEL      189
REMARK 921   NORMALIZED FREE ENERGY PREDICTED BY IDOCK:   -1.66 KCAL/MOL
REMARK 922        TOTAL FREE ENERGY PREDICTED BY IDOCK:   -1.97 KCAL/MOL
REMARK 923 INTER-LIGAND FREE ENERGY PREDICTED BY IDOCK:   -1.70 KCAL/MOL
REMARK 924 INTRA-LIGAND FREE ENERGY PREDICTED BY IDOCK:   -0.27 KCAL/MOL
REMARK 927      BINDING AFFINITY PREDICTED BY RF-SCORE:    0.00 PKD
ROOT
HETATM    1  C   UNL     1      -9.204   8.889  65.263  1.00  0.00    -0.091 C  
HETATM    2  N   UNL     1      -9.850   8.027  66.235  1.00  0.00    -0.450 N  
HETATM    3  H   UNL     1      -9.967   7.046  65.986  1.00  0.00     0.000 HD 
ENDROOT
BRANCH   2   4
HETATM    4  C   UNL     1     -10.315   8.423  67.458  1.00  0.00    -0.265 C  
HETATM    5  S   UNL     1     -10.502  10.002  67.967  1.00  0.00    -0.234 S  
BRANCH   4   6
HETATM    6  N   UNL     1     -10.672   7.430  68.318  1.00  0.00    -0.383 N  
HETATM    7  H   UNL     1     -11.630   7.083  68.245  1.00  0.00     0.000 HD 
BRANCH   6   8
HETATM    8  C   UNL     1      -9.842   6.823  69.313  1.00  0.00    -0.155 C  
HETATM    9  O   UNL     1      -8.538   6.834  68.789  1.00  0.00    -0.123 OA 
HETATM   10  H   UNL     1      -7.987   6.431  69.451  1.00  0.00     0.000 HD 
ENDBRANCH   6   8
ENDBRANCH   4   6
ENDBRANCH   2   4
TORSDOF 3
ENDMDL
MODEL      190
REMARK 921   NORMALIZED FREE ENERGY PREDICTED BY IDOCK:   -1.64 KCAL/MOL
REMARK 922        TOTAL FREE ENERGY PREDICTED BY IDOCK:   -1.95 KCAL/MOL
REMARK 923 INTER-LIGAND FREE ENERGY PREDICTED BY IDOCK:   -1.91 KCAL/MOL
REMARK 924 INTRA-LIGAND FREE ENERGY PREDICTED BY IDOCK:   -0.04 KCAL/MOL
REMARK 927      BINDING AFFINITY PREDICTED BY RF-SCORE:    0.00 PKD
ROOT
HETATM    1  C   UNL     1     -10.779   3.238  63.687  1.00  0.00    -0.247 C  
HETATM    2  N   UNL     1     -10.847   4.259  64.714  1.00  0.00    -0.689 N  
HETATM    3  H   UNL     1     -11.740   4.735  64.843  1.00  0.00     0.000 HD 
ENDROOT
BRANCH   2   4
HETATM    4  C   UNL     1      -9.813   4.636  65.525  1.00  0.00    -0.184 C  
HETATM    5  S   UNL     1      -9.940   5.075  67.130  1.00  0.00    -0.197 S  
BRANCH   4   6
HETATM    6  N   UNL     1      -8.573   4.627  64.963  1.00  0.00    -0.132 N  
HETATM    7  H   UNL     1      -7.948   3.869  65.243  1.00  0.00     0.000 HD 
BRANCH   6   8
HETATM    8  C   UNL     1      -8.056   5.572  64.020  1.00  0.00    -0.123 C  
HETATM    9  O   UNL     1      -8.448   6.838  64.486  1.00  0.00    -0.334 OA 
HETATM   10  H   UNL     1      -8.105   7.465  63.860  1.00  0.00     0.000 HD 
ENDBRANCH   6   8
ENDBRANCH   4   6
ENDBRANCH   2   4
TORSDOF 3
ENDMDL
MODEL      191
REMARK 921   NORMALIZED FREE ENERGY PREDICTED BY IDOCK:   -1.61 KCAL/MOL
REMARK 922        TOTAL FREE ENERGY PREDICTED BY IDOCK:   -1.92 KCAL/MOL
REMARK 923 INTER-LIGAND FREE ENERGY PREDICTED BY IDOCK:   -1.60 KCAL/MOL
REMARK 924 INTRA-LIGAND FREE ENERGY PREDICTED BY IDOCK:   -0.31 KCAL/MOL
REMARK 927      BINDING AFFINITY PREDICTED BY RF-SCORE:    0.00 PKD
ROOT
HETATM    1  C   UNL     1      -9.242   3.016  65.246  1.00  0.00    -0.146 C  
HETATM    2  N   UNL     1      -9.954   3.700  66.309  1.00  0.00    -0.414 N  
HETATM    3  H   UNL     1     -10.968   3.593  66.338  1.00  0.00     0.000 HD 
ENDROOT
BRANCH   2   4
HETATM    4  C   UNL     1      -9.378   4.477  67.274  1.00  0.00    -0.147 C  
HETATM    5  S   UNL     1      -9.477   4.222  68.921  1.00  0.00    -0.162 S  
BRANCH   4   6
HETATM    6  N   UNL     1      -8.643   5.537  66.837  1.00  0.00    -0.110 N  
HETATM    7  H   UNL     1      -7.629   5.458  66.920  1.00  0.00     0.000 HD 
BRANCH   6   8
HETATM    8  C   UNL     1      -9.150   6.751  66.272  1.00  0.00    -0.139 C  
HETATM    9  O   UNL     1     -10.549   6.668  66.367  1.00  0.00    -0.487 OA 
HETATM   10  H   UNL     1     -10.885   7.474  65.993  1.00  0.00     0.000 HD 
ENDBRANCH   6   8
ENDBRANCH   4   6
ENDBRANCH   2   4
TORSDOF 3
ENDMDL
MODEL      192
REMARK 921   NORMALIZED FREE ENERGY PREDICTED BY IDOCK:   -1.61 KCAL/MOL
REMARK 922        TOTAL FREE ENERGY PREDICTED BY IDOCK:   -1.91 KCAL/MOL
REMARK 923 INTER-LIGAND FREE ENERGY PREDICTED BY IDOCK:   -1.65 KCAL/MOL
REMARK 924 INTRA-LIGAND FREE ENERGY PREDICTED BY IDOCK:   -0.26 KCAL/MOL
REMARK 927      BINDING AFFINITY PREDICTED BY RF-SCORE:    0.00 PKD
ROOT
HETATM    1  C   UNL     1      -9.372   8.493  67.545  1.00  0.00    -0.144 C  
HETATM    2  N   UNL     1      -9.072   9.104  66.264  1.00  0.00    -0.166 N  
HETATM    3  H   UNL     1      -9.254   8.551  65.427  1.00  0.00     0.000 HD 
ENDROOT
BRANCH   2   4
HETATM    4  C   UNL     1      -8.564  10.361  66.088  1.00  0.00    -0.144 C  
HETATM    5  S   UNL     1      -7.255  11.009  66.896  1.00  0.00    -0.140 S  
BRANCH   4   6
HETATM    6  N   UNL     1      -9.180  11.133  65.150  1.00  0.00    -0.279 N  
HETATM    7  H   UNL     1      -8.939  12.125  65.143  1.00  0.00     0.000 HD 
BRANCH   6   8
HETATM    8  C   UNL     1     -10.130  10.695  64.173  1.00  0.00    -0.334 C  
HETATM    9  O   UNL     1      -9.446   9.786  63.348  1.00  0.00    -0.446 OA 
HETATM   10  H   UNL     1     -10.077   9.495  62.700  1.00  0.00     0.000 HD 
ENDBRANCH   6   8
ENDBRANCH   4   6
ENDBRANCH   2   4
TORSDOF 3
ENDMDL
MODEL      193
REMARK 921   NORMALIZED FREE ENERGY PREDICTED BY IDOCK:   -1.59 KCAL/MOL
REMARK 922        TOTAL FREE ENERGY PREDICTED BY IDOCK:   -1.89 KCAL/MOL
REMARK 923 INTER-LIGAND FREE ENERGY PREDICTED BY IDOCK:   -1.84 KCAL/MOL
REMARK 924 INTRA-LIGAND FREE ENERGY PREDICTED BY IDOCK:   -0.05 KCAL/MOL
REMARK 927      BINDING AFFINITY PREDICTED BY RF-SCORE:    0.00 PKD
ROOT
HETATM    1  C   UNL     1      -9.244  17.495  67.622  1.00  0.00    -0.243 C  
HETATM    2  N   UNL     1      -8.195  18.384  68.084  1.00  0.00    -0.279 N  
HETATM    3  H   UNL     1      -8.303  19.378  67.886  1.00  0.00     0.000 HD 
ENDROOT
BRANCH   2   4
HETATM    4  C   UNL     1      -7.073  17.998  68.762  1.00  0.00    -0.276 C  
HETATM    5  S   UNL     1      -6.728  16.448  69.278  1.00  0.00    -0.219 S  
BRANCH   4   6
HETATM    6  N   UNL     1      -6.155  18.972  69.014  1.00  0.00    -0.231 N  
HETATM    7  H   UNL     1      -5.299  18.949  68.459  1.00  0.00     0.000 HD 
BRANCH   6   8
HETATM    8  C   UNL     1      -6.270  20.024  69.978  1.00  0.00    -0.359 C  
HETATM    9  O   UNL     1      -5.672  19.539  71.153  1.00  0.00    -0.233 OA 
HETATM   10  H   UNL     1      -5.748  20.238  71.793  1.00  0.00     0.000 HD 
ENDBRANCH   6   8
ENDBRANCH   4   6
ENDBRANCH   2   4
TORSDOF 3
ENDMDL
MODEL      194
REMARK 921   NORMALIZED FREE ENERGY PREDICTED BY IDOCK:   -1.58 KCAL/MOL
REMARK 922        TOTAL FREE ENERGY PREDICTED BY IDOCK:   -1.88 KCAL/MOL
REMARK 923 INTER-LIGAND FREE ENERGY PREDICTED BY IDOCK:   -1.85 KCAL/MOL
REMARK 924 INTRA-LIGAND FREE ENERGY PREDICTED BY IDOCK:   -0.04 KCAL/MOL
REMARK 927      BINDING AFFINITY PREDICTED BY RF-SCORE:    0.00 PKD
ROOT
HETATM    1  C   UNL     1     -10.127   4.149  64.969  1.00  0.00    -0.208 C  
HETATM    2  N   UNL     1     -10.800   5.141  65.786  1.00  0.00    -0.712 N  
HETATM    3  H   UNL     1     -11.697   5.492  65.452  1.00  0.00     0.000 HD 
ENDROOT
BRANCH   2   4
HETATM    4  C   UNL     1     -10.330   5.645  66.966  1.00  0.00    -0.254 C  
HETATM    5  S   UNL     1     -10.627   7.175  67.563  1.00  0.00    -0.285 S  
BRANCH   4   6
HETATM    6  N   UNL     1      -9.569   4.803  67.720  1.00  0.00    -0.146 N  
HETATM    7  H   UNL     1      -8.725   4.432  67.284  1.00  0.00     0.000 HD 
BRANCH   6   8
HETATM    8  C   UNL     1      -9.835   4.387  69.064  1.00  0.00    -0.111 C  
HETATM    9  O   UNL     1      -9.279   3.103  69.189  1.00  0.00    -0.130 OA 
HETATM   10  H   UNL     1      -9.455   2.827  70.081  1.00  0.00     0.000 HD 
ENDBRANCH   6   8
ENDBRANCH   4   6
ENDBRANCH   2   4
TORSDOF 3
ENDMDL
MODEL      195
REMARK 921   NORMALIZED FREE ENERGY PREDICTED BY IDOCK:   -1.57 KCAL/MOL
REMARK 922        TOTAL FREE ENERGY PREDICTED BY IDOCK:   -1.86 KCAL/MOL
REMARK 923 INTER-LIGAND FREE ENERGY PREDICTED BY IDOCK:   -1.64 KCAL/MOL
REMARK 924 INTRA-LIGAND FREE ENERGY PREDICTED BY IDOCK:   -0.22 KCAL/MOL
REMARK 927      BINDING AFFINITY PREDICTED BY RF-SCORE:    0.00 PKD
ROOT
HETATM    1  C   UNL     1      -7.967   5.733  71.394  1.00  0.00    -0.113 C  
HETATM    2  N   UNL     1      -8.601   7.018  71.617  1.00  0.00    -0.116 N  
HETATM    3  H   UNL     1      -8.025   7.851  71.499  1.00  0.00     0.000 HD 
ENDROOT
BRANCH   2   4
HETATM    4  C   UNL     1      -9.907   7.205  71.972  1.00  0.00    -0.158 C  
HETATM    5  S   UNL     1     -10.546   6.980  73.497  1.00  0.00    -0.326 S  
BRANCH   4   6
HETATM    6  N   UNL     1     -10.745   7.633  70.987  1.00  0.00    -0.226 N  
HETATM    7  H   UNL     1     -10.737   8.632  70.780  1.00  0.00     0.000 HD 
BRANCH   6   8
HETATM    8  C   UNL     1     -11.636   6.823  70.213  1.00  0.00    -0.362 C  
HETATM    9  O   UNL     1     -10.921   5.656  69.895  1.00  0.00    -0.339 OA 
HETATM   10  H   UNL     1     -11.512   5.118  69.381  1.00  0.00     0.000 HD 
ENDBRANCH   6   8
ENDBRANCH   4   6
ENDBRANCH   2   4
TORSDOF 3
ENDMDL
MODEL      196
REMARK 921   NORMALIZED FREE ENERGY PREDICTED BY IDOCK:   -1.56 KCAL/MOL
REMARK 922        TOTAL FREE ENERGY PREDICTED BY IDOCK:   -1.86 KCAL/MOL
REMARK 923 INTER-LIGAND FREE ENERGY PREDICTED BY IDOCK:   -1.81 KCAL/MOL
REMARK 924 INTRA-LIGAND FREE ENERGY PREDICTED BY IDOCK:   -0.05 KCAL/MOL
REMARK 927      BINDING AFFINITY PREDICTED BY RF-SCORE:    0.00 PKD
ROOT
HETATM    1  C   UNL     1      -8.324   6.111  65.251  1.00  0.00    -0.144 C  
HETATM    2  N   UNL     1      -9.306   5.274  64.588  1.00  0.00    -0.350 N  
HETATM    3  H   UNL     1      -9.848   5.696  63.834  1.00  0.00     0.000 HD 
ENDROOT
BRANCH   2   4
HETATM    4  C   UNL     1      -9.566   3.967  64.892  1.00  0.00    -0.179 C  
HETATM    5  S   UNL     1      -9.311   2.661  63.885  1.00  0.00    -0.118 S  
BRANCH   4   6
HETATM    6  N   UNL     1     -10.056   3.724  66.139  1.00  0.00    -0.413 N  
HETATM    7  H   UNL     1     -11.054   3.883  66.279  1.00  0.00     0.000 HD 
BRANCH   6   8
HETATM    8  C   UNL     1      -9.312   3.268  67.274  1.00  0.00    -0.192 C  
HETATM    9  O   UNL     1      -9.758   1.960  67.529  1.00  0.00    -0.410 OA 
HETATM   10  H   UNL     1      -9.264   1.657  68.282  1.00  0.00     0.000 HD 
ENDBRANCH   6   8
ENDBRANCH   4   6
ENDBRANCH   2   4
TORSDOF 3
ENDMDL
MODEL      197
REMARK 921   NORMALIZED FREE ENERGY PREDICTED BY IDOCK:   -1.54 KCAL/MOL
REMARK 922        TOTAL FREE ENERGY PREDICTED BY IDOCK:   -1.83 KCAL/MOL
REMARK 923 INTER-LIGAND FREE ENERGY PREDICTED BY IDOCK:   -1.57 KCAL/MOL
REMARK 924 INTRA-LIGAND FREE ENERGY PREDICTED BY IDOCK:   -0.27 KCAL/MOL
REMARK 927      BINDING AFFINITY PREDICTED BY RF-SCORE:    0.00 PKD
ROOT
HETATM    1  C   UNL     1      -7.953   6.964  65.213  1.00  0.00    -0.127 C  
HETATM    2  N   UNL     1      -8.806   5.980  64.574  1.00  0.00    -0.339 N  
HETATM    3  H   UNL     1      -9.083   6.157  63.609  1.00  0.00     0.000 HD 
ENDROOT
BRANCH   2   4
HETATM    4  C   UNL     1      -9.268   4.835  65.159  1.00  0.00    -0.145 C  
HETATM    5  S   UNL     1      -9.931   4.717  66.687  1.00  0.00    -0.247 S  
BRANCH   4   6
HETATM    6  N   UNL     1      -9.193   3.701  64.408  1.00  0.00    -0.128 N  
HETATM    7  H   UNL     1      -8.410   3.075  64.600  1.00  0.00     0.000 HD 
BRANCH   6   8
HETATM    8  C   UNL     1     -10.102   3.298  63.378  1.00  0.00    -0.164 C  
HETATM    9  O   UNL     1     -10.877   4.432  63.081  1.00  0.00    -0.417 OA 
HETATM   10  H   UNL     1     -11.480   4.164  62.397  1.00  0.00     0.000 HD 
ENDBRANCH   6   8
ENDBRANCH   4   6
ENDBRANCH   2   4
TORSDOF 3
ENDMDL
MODEL      198
REMARK 921   NORMALIZED FREE ENERGY PREDICTED BY IDOCK:   -1.54 KCAL/MOL
REMARK 922        TOTAL FREE ENERGY PREDICTED BY IDOCK:   -1.83 KCAL/MOL
REMARK 923 INTER-LIGAND FREE ENERGY PREDICTED BY IDOCK:   -1.56 KCAL/MOL
REMARK 924 INTRA-LIGAND FREE ENERGY PREDICTED BY IDOCK:   -0.27 KCAL/MOL
REMARK 927      BINDING AFFINITY PREDICTED BY RF-SCORE:    0.00 PKD
ROOT
HETATM    1  C   UNL     1      -8.674   5.337  67.765  1.00  0.00    -0.103 C  
HETATM    2  N   UNL     1      -9.634   5.173  68.840  1.00  0.00    -0.134 N  
HETATM    3  H   UNL     1     -10.566   4.846  68.589  1.00  0.00     0.000 HD 
ENDROOT
BRANCH   2   4
HETATM    4  C   UNL     1      -9.391   5.421  70.162  1.00  0.00    -0.149 C  
HETATM    5  S   UNL     1      -8.225   4.678  71.097  1.00  0.00    -0.093 S  
BRANCH   4   6
HETATM    6  N   UNL     1     -10.164   6.377  70.748  1.00  0.00    -0.187 N  
HETATM    7  H   UNL     1     -10.232   6.351  71.766  1.00  0.00     0.000 HD 
BRANCH   6   8
HETATM    8  C   UNL     1     -10.890   7.414  70.081  1.00  0.00    -0.256 C  
HETATM    9  O   UNL     1     -12.071   6.818  69.609  1.00  0.00    -0.635 OA 
HETATM   10  H   UNL     1     -12.554   7.507  69.166  1.00  0.00     0.000 HD 
ENDBRANCH   6   8
ENDBRANCH   4   6
ENDBRANCH   2   4
TORSDOF 3
ENDMDL
MODEL      199
REMARK 921   NORMALIZED FREE ENERGY PREDICTED BY IDOCK:   -1.54 KCAL/MOL
REMARK 922        TOTAL FREE ENERGY PREDICTED BY IDOCK:   -1.83 KCAL/MOL
REMARK 923 INTER-LIGAND FREE ENERGY PREDICTED BY IDOCK:   -1.59 KCAL/MOL
REMARK 924 INTRA-LIGAND FREE ENERGY PREDICTED BY IDOCK:   -0.23 KCAL/MOL
REMARK 927      BINDING AFFINITY PREDICTED BY RF-SCORE:    0.00 PKD
ROOT
HETATM    1  C   UNL     1      -9.166   8.450  72.445  1.00  0.00    -0.275 C  
HETATM    2  N   UNL     1      -8.703   7.296  71.700  1.00  0.00    -0.118 N  
HETATM    3  H   UNL     1      -7.953   6.742  72.113  1.00  0.00     0.000 HD 
ENDROOT
BRANCH   2   4
HETATM    4  C   UNL     1      -9.188   6.890  70.488  1.00  0.00    -0.156 C  
HETATM    5  S   UNL     1      -8.377   5.944  69.378  1.00  0.00    -0.114 S  
BRANCH   4   6
HETATM    6  N   UNL     1     -10.457   7.282  70.185  1.00  0.00    -0.213 N  
HETATM    7  H   UNL     1     -10.575   8.242  69.860  1.00  0.00     0.000 HD 
BRANCH   6   8
HETATM    8  C   UNL     1     -11.641   6.483  70.276  1.00  0.00    -0.409 C  
HETATM    9  O   UNL     1     -11.886   6.308  71.648  1.00  0.00    -0.308 OA 
HETATM   10  H   UNL     1     -12.673   5.778  71.709  1.00  0.00     0.000 HD 
ENDBRANCH   6   8
ENDBRANCH   4   6
ENDBRANCH   2   4
TORSDOF 3
ENDMDL
MODEL      200
REMARK 921   NORMALIZED FREE ENERGY PREDICTED BY IDOCK:   -1.53 KCAL/MOL
REMARK 922        TOTAL FREE ENERGY PREDICTED BY IDOCK:   -1.82 KCAL/MOL
REMARK 923 INTER-LIGAND FREE ENERGY PREDICTED BY IDOCK:   -1.52 KCAL/MOL
REMARK 924 INTRA-LIGAND FREE ENERGY PREDICTED BY IDOCK:   -0.30 KCAL/MOL
REMARK 927      BINDING AFFINITY PREDICTED BY RF-SCORE:    0.00 PKD
ROOT
HETATM    1  C   UNL     1      -9.779   7.315  71.016  1.00  0.00    -0.169 C  
HETATM    2  N   UNL     1      -9.216   6.548  69.922  1.00  0.00    -0.149 N  
HETATM    3  H   UNL     1      -9.052   5.554  70.082  1.00  0.00     0.000 HD 
ENDROOT
BRANCH   2   4
HETATM    4  C   UNL     1      -8.888   7.047  68.692  1.00  0.00    -0.128 C  
HETATM    5  S   UNL     1      -7.958   8.403  68.406  1.00  0.00    -0.120 S  
BRANCH   4   6
HETATM    6  N   UNL     1      -9.350   6.353  67.616  1.00  0.00    -0.118 N  
HETATM    7  H   UNL     1      -8.674   6.140  66.882  1.00  0.00     0.000 HD 
BRANCH   6   8
HETATM    8  C   UNL     1     -10.690   5.892  67.410  1.00  0.00    -0.287 C  
HETATM    9  O   UNL     1     -11.527   6.959  67.775  1.00  0.00    -0.548 OA 
HETATM   10  H   UNL     1     -12.417   6.653  67.637  1.00  0.00     0.000 HD 
ENDBRANCH   6   8
ENDBRANCH   4   6
ENDBRANCH   2   4
TORSDOF 3
ENDMDL
MODEL      201
REMARK 921   NORMALIZED FREE ENERGY PREDICTED BY IDOCK:   -1.53 KCAL/MOL
REMARK 922        TOTAL FREE ENERGY PREDICTED BY IDOCK:   -1.82 KCAL/MOL
REMARK 923 INTER-LIGAND FREE ENERGY PREDICTED BY IDOCK:   -1.53 KCAL/MOL
REMARK 924 INTRA-LIGAND FREE ENERGY PREDICTED BY IDOCK:   -0.29 KCAL/MOL
REMARK 927      BINDING AFFINITY PREDICTED BY RF-SCORE:    0.00 PKD
ROOT
HETATM    1  C   UNL     1      -9.406   2.658  67.724  1.00  0.00    -0.181 C  
HETATM    2  N   UNL     1      -9.813   3.891  67.079  1.00  0.00    -0.305 N  
HETATM    3  H   UNL     1     -10.486   3.821  66.316  1.00  0.00     0.000 HD 
ENDROOT
BRANCH   2   4
HETATM    4  C   UNL     1      -9.368   5.140  67.409  1.00  0.00    -0.120 C  
HETATM    5  S   UNL     1      -7.773   5.632  67.442  1.00  0.00    -0.101 S  
BRANCH   4   6
HETATM    6  N   UNL     1     -10.325   6.060  67.715  1.00  0.00    -0.179 N  
HETATM    7  H   UNL     1     -10.500   6.788  67.021  1.00  0.00     0.000 HD 
BRANCH   6   8
HETATM    8  C   UNL     1     -11.110   6.109  68.911  1.00  0.00    -0.345 C  
HETATM    9  O   UNL     1     -10.418   5.338  69.860  1.00  0.00    -0.297 OA 
HETATM   10  H   UNL     1     -10.939   5.372  70.654  1.00  0.00     0.000 HD 
ENDBRANCH   6   8
ENDBRANCH   4   6
ENDBRANCH   2   4
TORSDOF 3
ENDMDL
MODEL      202
REMARK 921   NORMALIZED FREE ENERGY PREDICTED BY IDOCK:   -1.52 KCAL/MOL
REMARK 922        TOTAL FREE ENERGY PREDICTED BY IDOCK:   -1.81 KCAL/MOL
REMARK 923 INTER-LIGAND FREE ENERGY PREDICTED BY IDOCK:   -1.73 KCAL/MOL
REMARK 924 INTRA-LIGAND FREE ENERGY PREDICTED BY IDOCK:   -0.07 KCAL/MOL
REMARK 927      BINDING AFFINITY PREDICTED BY RF-SCORE:    0.00 PKD
ROOT
HETATM    1  C   UNL     1      -7.827  10.338  69.396  1.00  0.00    -0.157 C  
HETATM    2  N   UNL     1      -8.417   9.775  70.594  1.00  0.00    -0.196 N  
HETATM    3  H   UNL     1      -7.885   9.854  71.460  1.00  0.00     0.000 HD 
ENDROOT
BRANCH   2   4
HETATM    4  C   UNL     1      -9.629   9.146  70.659  1.00  0.00    -0.255 C  
HETATM    5  S   UNL     1     -10.555   8.949  72.034  1.00  0.00    -0.235 S  
BRANCH   4   6
HETATM    6  N   UNL     1     -10.121   8.662  69.485  1.00  0.00    -0.197 N  
HETATM    7  H   UNL     1     -10.565   9.337  68.861  1.00  0.00     0.000 HD 
BRANCH   6   8
HETATM    8  C   UNL     1     -10.078   7.303  69.037  1.00  0.00    -0.186 C  
HETATM    9  O   UNL     1     -11.374   6.794  69.221  1.00  0.00    -0.507 OA 
HETATM   10  H   UNL     1     -11.346   5.892  68.924  1.00  0.00     0.000 HD 
ENDBRANCH   6   8
ENDBRANCH   4   6
ENDBRANCH   2   4
TORSDOF 3
ENDMDL
MODEL      203
REMARK 921   NORMALIZED FREE ENERGY PREDICTED BY IDOCK:   -1.50 KCAL/MOL
REMARK 922        TOTAL FREE ENERGY PREDICTED BY IDOCK:   -1.78 KCAL/MOL
REMARK 923 INTER-LIGAND FREE ENERGY PREDICTED BY IDOCK:   -1.56 KCAL/MOL
REMARK 924 INTRA-LIGAND FREE ENERGY PREDICTED BY IDOCK:   -0.22 KCAL/MOL
REMARK 927      BINDING AFFINITY PREDICTED BY RF-SCORE:    0.00 PKD
ROOT
HETATM    1  C   UNL     1      -8.126   7.687  64.893  1.00  0.00    -0.128 C  
HETATM    2  N   UNL     1      -8.964   7.028  65.876  1.00  0.00    -0.317 N  
HETATM    3  H   UNL     1      -8.802   6.034  66.038  1.00  0.00     0.000 HD 
ENDROOT
BRANCH   2   4
HETATM    4  C   UNL     1      -9.953   7.629  66.603  1.00  0.00    -0.214 C  
HETATM    5  S   UNL     1     -10.785   6.941  67.876  1.00  0.00    -0.224 S  
BRANCH   4   6
HETATM    6  N   UNL     1     -10.259   8.911  66.261  1.00  0.00    -0.353 N  
HETATM    7  H   UNL     1     -10.783   9.041  65.395  1.00  0.00     0.000 HD 
BRANCH   6   8
HETATM    8  C   UNL     1      -9.920  10.094  66.992  1.00  0.00    -0.199 C  
HETATM    9  O   UNL     1      -8.713   9.809  67.652  1.00  0.00    -0.125 OA 
HETATM   10  H   UNL     1      -8.488  10.594  68.137  1.00  0.00     0.000 HD 
ENDBRANCH   6   8
ENDBRANCH   4   6
ENDBRANCH   2   4
TORSDOF 3
ENDMDL
MODEL      204
REMARK 921   NORMALIZED FREE ENERGY PREDICTED BY IDOCK:   -1.47 KCAL/MOL
REMARK 922        TOTAL FREE ENERGY PREDICTED BY IDOCK:   -1.75 KCAL/MOL
REMARK 923 INTER-LIGAND FREE ENERGY PREDICTED BY IDOCK:   -1.65 KCAL/MOL
REMARK 924 INTRA-LIGAND FREE ENERGY PREDICTED BY IDOCK:   -0.10 KCAL/MOL
REMARK 927      BINDING AFFINITY PREDICTED BY RF-SCORE:    0.00 PKD
ROOT
HETATM    1  C   UNL     1      -7.381  10.281  69.700  1.00  0.00    -0.150 C  
HETATM    2  N   UNL     1      -8.605  11.014  69.443  1.00  0.00    -0.379 N  
HETATM    3  H   UNL     1      -8.583  12.025  69.575  1.00  0.00     0.000 HD 
ENDROOT
BRANCH   2   4
HETATM    4  C   UNL     1      -9.788  10.461  69.037  1.00  0.00    -0.212 C  
HETATM    5  S   UNL     1     -11.136  10.227  69.994  1.00  0.00    -0.328 S  
BRANCH   4   6
HETATM    6  N   UNL     1      -9.864  10.093  67.728  1.00  0.00    -0.159 N  
HETATM    7  H   UNL     1      -9.430  10.721  67.049  1.00  0.00     0.000 HD 
BRANCH   6   8
HETATM    8  C   UNL     1     -10.491   8.916  67.207  1.00  0.00    -0.277 C  
HETATM    9  O   UNL     1      -9.605   7.858  67.468  1.00  0.00    -0.144 OA 
HETATM   10  H   UNL     1     -10.021   7.077  67.123  1.00  0.00     0.000 HD 
ENDBRANCH   6   8
ENDBRANCH   4   6
ENDBRANCH   2   4
TORSDOF 3
ENDMDL
MODEL      205
REMARK 921   NORMALIZED FREE ENERGY PREDICTED BY IDOCK:   -1.45 KCAL/MOL
REMARK 922        TOTAL FREE ENERGY PREDICTED BY IDOCK:   -1.73 KCAL/MOL
REMARK 923 INTER-LIGAND FREE ENERGY PREDICTED BY IDOCK:   -1.48 KCAL/MOL
REMARK 924 INTRA-LIGAND FREE ENERGY PREDICTED BY IDOCK:   -0.25 KCAL/MOL
REMARK 927      BINDING AFFINITY PREDICTED BY RF-SCORE:    0.00 PKD
ROOT
HETATM    1  C   UNL     1      -8.064   6.011  63.875  1.00  0.00    -0.084 C  
HETATM    2  N   UNL     1      -8.784   6.855  64.809  1.00  0.00    -0.340 N  
HETATM    3  H   UNL     1      -9.287   7.655  64.426  1.00  0.00     0.000 HD 
ENDROOT
BRANCH   2   4
HETATM    4  C   UNL     1      -8.843   6.667  66.162  1.00  0.00    -0.149 C  
HETATM    5  S   UNL     1      -8.898   7.872  67.315  1.00  0.00    -0.129 S  
BRANCH   4   6
HETATM    6  N   UNL     1      -8.881   5.374  66.589  1.00  0.00    -0.114 N  
HETATM    7  H   UNL     1      -7.983   4.910  66.728  1.00  0.00     0.000 HD 
BRANCH   6   8
HETATM    8  C   UNL     1     -10.055   4.601  66.864  1.00  0.00    -0.191 C  
HETATM    9  O   UNL     1     -10.564   4.213  65.613  1.00  0.00    -0.478 OA 
HETATM   10  H   UNL     1     -11.343   3.699  65.796  1.00  0.00     0.000 HD 
ENDBRANCH   6   8
ENDBRANCH   4   6
ENDBRANCH   2   4
TORSDOF 3
ENDMDL
MODEL      206
REMARK 921   NORMALIZED FREE ENERGY PREDICTED BY IDOCK:   -1.44 KCAL/MOL
REMARK 922        TOTAL FREE ENERGY PREDICTED BY IDOCK:   -1.71 KCAL/MOL
REMARK 923 INTER-LIGAND FREE ENERGY PREDICTED BY IDOCK:   -1.64 KCAL/MOL
REMARK 924 INTRA-LIGAND FREE ENERGY PREDICTED BY IDOCK:   -0.07 KCAL/MOL
REMARK 927      BINDING AFFINITY PREDICTED BY RF-SCORE:    0.00 PKD
ROOT
HETATM    1  C   UNL     1      -9.297   2.909  67.509  1.00  0.00    -0.174 C  
HETATM    2  N   UNL     1     -10.020   3.845  66.670  1.00  0.00    -0.374 N  
HETATM    3  H   UNL     1     -10.737   3.465  66.053  1.00  0.00     0.000 HD 
ENDROOT
BRANCH   2   4
HETATM    4  C   UNL     1      -9.817   5.197  66.637  1.00  0.00    -0.189 C  
HETATM    5  S   UNL     1     -10.893   6.359  67.165  1.00  0.00    -0.398 S  
BRANCH   4   6
HETATM    6  N   UNL     1      -8.617   5.615  66.147  1.00  0.00    -0.127 N  
HETATM    7  H   UNL     1      -8.055   6.209  66.757  1.00  0.00     0.000 HD 
BRANCH   6   8
HETATM    8  C   UNL     1      -8.065   5.306  64.863  1.00  0.00    -0.122 C  
HETATM    9  O   UNL     1      -8.229   6.462  64.082  1.00  0.00    -0.257 OA 
HETATM   10  H   UNL     1      -7.862   6.257  63.230  1.00  0.00     0.000 HD 
ENDBRANCH   6   8
ENDBRANCH   4   6
ENDBRANCH   2   4
TORSDOF 3
ENDMDL
MODEL      207
REMARK 921   NORMALIZED FREE ENERGY PREDICTED BY IDOCK:   -1.43 KCAL/MOL
REMARK 922        TOTAL FREE ENERGY PREDICTED BY IDOCK:   -1.71 KCAL/MOL
REMARK 923 INTER-LIGAND FREE ENERGY PREDICTED BY IDOCK:   -1.44 KCAL/MOL
REMARK 924 INTRA-LIGAND FREE ENERGY PREDICTED BY IDOCK:   -0.27 KCAL/MOL
REMARK 927      BINDING AFFINITY PREDICTED BY RF-SCORE:    0.00 PKD
ROOT
HETATM    1  C   UNL     1      -7.521   6.189  63.538  1.00  0.00    -0.078 C  
HETATM    2  N   UNL     1      -8.412   6.701  64.561  1.00  0.00    -0.347 N  
HETATM    3  H   UNL     1      -9.368   6.918  64.283  1.00  0.00     0.000 HD 
ENDROOT
BRANCH   2   4
HETATM    4  C   UNL     1      -8.075   6.917  65.868  1.00  0.00    -0.119 C  
HETATM    5  S   UNL     1      -7.415   5.788  66.906  1.00  0.00    -0.085 S  
BRANCH   4   6
HETATM    6  N   UNL     1      -8.282   8.176  66.344  1.00  0.00    -0.105 N  
HETATM    7  H   UNL     1      -7.458   8.686  66.665  1.00  0.00     0.000 HD 
BRANCH   6   8
HETATM    8  C   UNL     1      -9.538   8.857  66.439  1.00  0.00    -0.238 C  
HETATM    9  O   UNL     1     -10.522   7.854  66.447  1.00  0.00    -0.464 OA 
HETATM   10  H   UNL     1     -11.355   8.306  66.510  1.00  0.00     0.000 HD 
ENDBRANCH   6   8
ENDBRANCH   4   6
ENDBRANCH   2   4
TORSDOF 3
ENDMDL
MODEL      208
REMARK 921   NORMALIZED FREE ENERGY PREDICTED BY IDOCK:   -1.43 KCAL/MOL
REMARK 922        TOTAL FREE ENERGY PREDICTED BY IDOCK:   -1.70 KCAL/MOL
REMARK 923 INTER-LIGAND FREE ENERGY PREDICTED BY IDOCK:   -1.46 KCAL/MOL
REMARK 924 INTRA-LIGAND FREE ENERGY PREDICTED BY IDOCK:   -0.24 KCAL/MOL
REMARK 927      BINDING AFFINITY PREDICTED BY RF-SCORE:    0.00 PKD
ROOT
HETATM    1  C   UNL     1      -8.564   5.031  65.662  1.00  0.00    -0.135 C  
HETATM    2  N   UNL     1      -8.818   5.068  67.089  1.00  0.00    -0.107 N  
HETATM    3  H   UNL     1      -9.251   4.247  67.509  1.00  0.00     0.000 HD 
ENDROOT
BRANCH   2   4
HETATM    4  C   UNL     1      -8.523   6.114  67.918  1.00  0.00    -0.116 C  
HETATM    5  S   UNL     1      -7.046   6.401  68.642  1.00  0.00    -0.085 S  
BRANCH   4   6
HETATM    6  N   UNL     1      -9.528   7.004  68.146  1.00  0.00    -0.125 N  
HETATM    7  H   UNL     1      -9.268   7.991  68.179  1.00  0.00     0.000 HD 
BRANCH   6   8
HETATM    8  C   UNL     1     -10.912   6.696  68.345  1.00  0.00    -0.239 C  
HETATM    9  O   UNL     1     -11.536   6.902  67.104  1.00  0.00    -0.653 OA 
HETATM   10  H   UNL     1     -12.455   6.697  67.236  1.00  0.00     0.000 HD 
ENDBRANCH   6   8
ENDBRANCH   4   6
ENDBRANCH   2   4
TORSDOF 3
ENDMDL
MODEL      209
REMARK 921   NORMALIZED FREE ENERGY PREDICTED BY IDOCK:   -1.42 KCAL/MOL
REMARK 922        TOTAL FREE ENERGY PREDICTED BY IDOCK:   -1.69 KCAL/MOL
REMARK 923 INTER-LIGAND FREE ENERGY PREDICTED BY IDOCK:   -1.58 KCAL/MOL
REMARK 924 INTRA-LIGAND FREE ENERGY PREDICTED BY IDOCK:   -0.11 KCAL/MOL
REMARK 927      BINDING AFFINITY PREDICTED BY RF-SCORE:    0.00 PKD
ROOT
HETATM    1  C   UNL     1      -9.913  10.610  67.598  1.00  0.00    -0.169 C  
HETATM    2  N   UNL     1     -10.357   9.242  67.413  1.00  0.00    -0.246 N  
HETATM    3  H   UNL     1     -11.129   8.917  67.993  1.00  0.00     0.000 HD 
ENDROOT
BRANCH   2   4
HETATM    4  C   UNL     1      -9.824   8.351  66.524  1.00  0.00    -0.268 C  
HETATM    5  S   UNL     1      -9.574   6.724  66.802  1.00  0.00    -0.162 S  
BRANCH   4   6
HETATM    6  N   UNL     1      -9.492   8.846  65.299  1.00  0.00    -0.447 N  
HETATM    7  H   UNL     1     -10.225   9.342  64.791  1.00  0.00     0.000 HD 
BRANCH   6   8
HETATM    8  C   UNL     1      -8.219   8.740  64.652  1.00  0.00    -0.165 C  
HETATM    9  O   UNL     1      -7.526   9.921  64.967  1.00  0.00    -0.122 OA 
HETATM   10  H   UNL     1      -6.681   9.851  64.538  1.00  0.00     0.000 HD 
ENDBRANCH   6   8
ENDBRANCH   4   6
ENDBRANCH   2   4
TORSDOF 3
ENDMDL
MODEL      210
REMARK 921   NORMALIZED FREE ENERGY PREDICTED BY IDOCK:   -1.42 KCAL/MOL
REMARK 922        TOTAL FREE ENERGY PREDICTED BY IDOCK:   -1.69 KCAL/MOL
REMARK 923 INTER-LIGAND FREE ENERGY PREDICTED BY IDOCK:   -1.66 KCAL/MOL
REMARK 924 INTRA-LIGAND FREE ENERGY PREDICTED BY IDOCK:   -0.02 KCAL/MOL
REMARK 927      BINDING AFFINITY PREDICTED BY RF-SCORE:    0.00 PKD
ROOT
HETATM    1  C   UNL     1     -11.567  12.190  64.072  1.00  0.00    -0.423 C  
HETATM    2  N   UNL     1     -10.388  11.476  64.523  1.00  0.00    -0.280 N  
HETATM    3  H   UNL     1      -9.807  11.034  63.812  1.00  0.00     0.000 HD 
ENDROOT
BRANCH   2   4
HETATM    4  C   UNL     1      -9.992  11.346  65.825  1.00  0.00    -0.230 C  
HETATM    5  S   UNL     1     -10.996  11.059  67.128  1.00  0.00    -0.261 S  
BRANCH   4   6
HETATM    6  N   UNL     1      -8.654  11.440  66.061  1.00  0.00    -0.316 N  
HETATM    7  H   UNL     1      -8.356  12.147  66.735  1.00  0.00     0.000 HD 
BRANCH   6   8
HETATM    8  C   UNL     1      -7.624  10.649  65.459  1.00  0.00    -0.072 C  
HETATM    9  O   UNL     1      -6.734  10.320  66.495  1.00  0.00    -0.080 OA 
HETATM   10  H   UNL     1      -6.050   9.794  66.095  1.00  0.00     0.000 HD 
ENDBRANCH   6   8
ENDBRANCH   4   6
ENDBRANCH   2   4
TORSDOF 3
ENDMDL
MODEL      211
REMARK 921   NORMALIZED FREE ENERGY PREDICTED BY IDOCK:   -1.41 KCAL/MOL
REMARK 922        TOTAL FREE ENERGY PREDICTED BY IDOCK:   -1.68 KCAL/MOL
REMARK 923 INTER-LIGAND FREE ENERGY PREDICTED BY IDOCK:   -1.61 KCAL/MOL
REMARK 924 INTRA-LIGAND FREE ENERGY PREDICTED BY IDOCK:   -0.07 KCAL/MOL
REMARK 927      BINDING AFFINITY PREDICTED BY RF-SCORE:    0.00 PKD
ROOT
HETATM    1  C   UNL     1      -8.773  16.967  67.699  1.00  0.00    -0.209 C  
HETATM    2  N   UNL     1      -8.642  15.804  68.556  1.00  0.00    -0.175 N  
HETATM    3  H   UNL     1      -8.181  15.934  69.456  1.00  0.00     0.000 HD 
ENDROOT
BRANCH   2   4
HETATM    4  C   UNL     1      -9.086  14.546  68.255  1.00  0.00    -0.196 C  
HETATM    5  S   UNL     1      -8.139  13.275  67.731  1.00  0.00    -0.182 S  
BRANCH   4   6
HETATM    6  N   UNL     1     -10.418  14.321  68.423  1.00  0.00    -0.242 N  
HETATM    7  H   UNL     1     -10.885  14.856  69.155  1.00  0.00     0.000 HD 
BRANCH   6   8
HETATM    8  C   UNL     1     -11.230  13.409  67.675  1.00  0.00    -0.276 C  
HETATM    9  O   UNL     1     -11.493  14.040  66.448  1.00  0.00    -0.329 OA 
HETATM   10  H   UNL     1     -12.032  13.434  65.952  1.00  0.00     0.000 HD 
ENDBRANCH   6   8
ENDBRANCH   4   6
ENDBRANCH   2   4
TORSDOF 3
ENDMDL
MODEL      212
REMARK 921   NORMALIZED FREE ENERGY PREDICTED BY IDOCK:   -1.40 KCAL/MOL
REMARK 922        TOTAL FREE ENERGY PREDICTED BY IDOCK:   -1.67 KCAL/MOL
REMARK 923 INTER-LIGAND FREE ENERGY PREDICTED BY IDOCK:   -1.38 KCAL/MOL
REMARK 924 INTRA-LIGAND FREE ENERGY PREDICTED BY IDOCK:   -0.28 KCAL/MOL
REMARK 927      BINDING AFFINITY PREDICTED BY RF-SCORE:    0.00 PKD
ROOT
HETATM    1  C   UNL     1     -11.032   6.794  67.097  1.00  0.00    -0.388 C  
HETATM    2  N   UNL     1      -9.585   6.865  67.044  1.00  0.00    -0.151 N  
HETATM    3  H   UNL     1      -9.074   6.660  67.902  1.00  0.00     0.000 HD 
ENDROOT
BRANCH   2   4
HETATM    4  C   UNL     1      -8.849   7.186  65.938  1.00  0.00    -0.103 C  
HETATM    5  S   UNL     1      -7.883   8.536  65.765  1.00  0.00    -0.105 S  
BRANCH   4   6
HETATM    6  N   UNL     1      -8.903   6.304  64.901  1.00  0.00    -0.354 N  
HETATM    7  H   UNL     1      -9.364   6.625  64.049  1.00  0.00     0.000 HD 
BRANCH   6   8
HETATM    8  C   UNL     1      -8.378   4.972  64.886  1.00  0.00    -0.142 C  
HETATM    9  O   UNL     1      -9.316   4.179  65.568  1.00  0.00    -0.141 OA 
HETATM   10  H   UNL     1      -8.967   3.294  65.557  1.00  0.00     0.000 HD 
ENDBRANCH   6   8
ENDBRANCH   4   6
ENDBRANCH   2   4
TORSDOF 3
ENDMDL
MODEL      213
REMARK 921   NORMALIZED FREE ENERGY PREDICTED BY IDOCK:   -1.40 KCAL/MOL
REMARK 922        TOTAL FREE ENERGY PREDICTED BY IDOCK:   -1.66 KCAL/MOL
REMARK 923 INTER-LIGAND FREE ENERGY PREDICTED BY IDOCK:   -1.40 KCAL/MOL
REMARK 924 INTRA-LIGAND FREE ENERGY PREDICTED BY IDOCK:   -0.26 KCAL/MOL
REMARK 927      BINDING AFFINITY PREDICTED BY RF-SCORE:    0.00 PKD
ROOT
HETATM    1  C   UNL     1      -7.279   9.257  68.409  1.00  0.00    -0.076 C  
HETATM    2  N   UNL     1      -6.860  10.128  67.327  1.00  0.00    -0.077 N  
HETATM    3  H   UNL     1      -5.857  10.230  67.170  1.00  0.00     0.000 HD 
ENDROOT
BRANCH   2   4
HETATM    4  C   UNL     1      -7.698  10.823  66.501  1.00  0.00    -0.145 C  
HETATM    5  S   UNL     1      -8.533  10.192  65.202  1.00  0.00    -0.168 S  
BRANCH   4   6
HETATM    6  N   UNL     1      -7.872  12.142  66.791  1.00  0.00    -0.366 N  
HETATM    7  H   UNL     1      -8.701  12.592  66.401  1.00  0.00     0.000 HD 
BRANCH   6   8
HETATM    8  C   UNL     1      -7.010  12.962  67.587  1.00  0.00    -0.152 C  
HETATM    9  O   UNL     1      -5.812  13.082  66.863  1.00  0.00    -0.418 OA 
HETATM   10  H   UNL     1      -5.240  13.627  67.392  1.00  0.00     0.000 HD 
ENDBRANCH   6   8
ENDBRANCH   4   6
ENDBRANCH   2   4
TORSDOF 3
ENDMDL
MODEL      214
REMARK 921   NORMALIZED FREE ENERGY PREDICTED BY IDOCK:   -1.37 KCAL/MOL
REMARK 922        TOTAL FREE ENERGY PREDICTED BY IDOCK:   -1.64 KCAL/MOL
REMARK 923 INTER-LIGAND FREE ENERGY PREDICTED BY IDOCK:   -1.56 KCAL/MOL
REMARK 924 INTRA-LIGAND FREE ENERGY PREDICTED BY IDOCK:   -0.08 KCAL/MOL
REMARK 927      BINDING AFFINITY PREDICTED BY RF-SCORE:    0.00 PKD
ROOT
HETATM    1  C   UNL     1     -10.073   4.019  64.401  1.00  0.00    -0.190 C  
HETATM    2  N   UNL     1     -10.499   4.219  65.773  1.00  0.00    -0.479 N  
HETATM    3  H   UNL     1     -11.192   3.572  66.147  1.00  0.00     0.000 HD 
ENDROOT
BRANCH   2   4
HETATM    4  C   UNL     1     -10.047   5.204  66.605  1.00  0.00    -0.237 C  
HETATM    5  S   UNL     1     -10.896   6.569  67.055  1.00  0.00    -0.371 S  
BRANCH   4   6
HETATM    6  N   UNL     1      -8.799   5.031  67.123  1.00  0.00    -0.107 N  
HETATM    7  H   UNL     1      -8.688   4.287  67.813  1.00  0.00     0.000 HD 
BRANCH   6   8
HETATM    8  C   UNL     1      -7.628   5.787  66.798  1.00  0.00    -0.096 C  
HETATM    9  O   UNL     1      -7.209   6.387  67.997  1.00  0.00    -0.082 OA 
HETATM   10  H   UNL     1      -6.431   6.889  67.780  1.00  0.00     0.000 HD 
ENDBRANCH   6   8
ENDBRANCH   4   6
ENDBRANCH   2   4
TORSDOF 3
ENDMDL
MODEL      215
REMARK 921   NORMALIZED FREE ENERGY PREDICTED BY IDOCK:   -1.36 KCAL/MOL
REMARK 922        TOTAL FREE ENERGY PREDICTED BY IDOCK:   -1.62 KCAL/MOL
REMARK 923 INTER-LIGAND FREE ENERGY PREDICTED BY IDOCK:   -1.58 KCAL/MOL
REMARK 924 INTRA-LIGAND FREE ENERGY PREDICTED BY IDOCK:   -0.04 KCAL/MOL
REMARK 927      BINDING AFFINITY PREDICTED BY RF-SCORE:    0.00 PKD
ROOT
HETATM    1  C   UNL     1      -8.603   3.934  70.611  1.00  0.00    -0.071 C  
HETATM    2  N   UNL     1      -8.760   5.064  71.506  1.00  0.00    -0.130 N  
HETATM    3  H   UNL     1      -8.311   5.004  72.419  1.00  0.00     0.000 HD 
ENDROOT
BRANCH   2   4
HETATM    4  C   UNL     1      -9.461   6.203  71.225  1.00  0.00    -0.163 C  
HETATM    5  S   UNL     1      -8.800   7.692  70.861  1.00  0.00    -0.147 S  
BRANCH   4   6
HETATM    6  N   UNL     1     -10.819   6.092  71.226  1.00  0.00    -0.255 N  
HETATM    7  H   UNL     1     -11.279   6.086  70.315  1.00  0.00     0.000 HD 
BRANCH   6   8
HETATM    8  C   UNL     1     -11.665   5.983  72.376  1.00  0.00    -0.271 C  
HETATM    9  O   UNL     1     -12.814   6.738  72.084  1.00  0.00    -0.540 OA 
HETATM   10  H   UNL     1     -13.376   6.665  72.847  1.00  0.00     0.000 HD 
ENDBRANCH   6   8
ENDBRANCH   4   6
ENDBRANCH   2   4
TORSDOF 3
ENDMDL
MODEL      216
REMARK 921   NORMALIZED FREE ENERGY PREDICTED BY IDOCK:   -1.36 KCAL/MOL
REMARK 922        TOTAL FREE ENERGY PREDICTED BY IDOCK:   -1.62 KCAL/MOL
REMARK 923 INTER-LIGAND FREE ENERGY PREDICTED BY IDOCK:   -1.36 KCAL/MOL
REMARK 924 INTRA-LIGAND FREE ENERGY PREDICTED BY IDOCK:   -0.26 KCAL/MOL
REMARK 927      BINDING AFFINITY PREDICTED BY RF-SCORE:    0.00 PKD
ROOT
HETATM    1  C   UNL     1     -10.544   8.423  67.093  1.00  0.00    -0.256 C  
HETATM    2  N   UNL     1     -10.381   7.921  68.444  1.00  0.00    -0.210 N  
HETATM    3  H   UNL     1     -10.603   6.940  68.609  1.00  0.00     0.000 HD 
ENDROOT
BRANCH   2   4
HETATM    4  C   UNL     1      -9.955   8.656  69.514  1.00  0.00    -0.196 C  
HETATM    5  S   UNL     1     -10.774   9.934  70.210  1.00  0.00    -0.326 S  
BRANCH   4   6
HETATM    6  N   UNL     1      -8.766   8.286  70.065  1.00  0.00    -0.132 N  
HETATM    7  H   UNL     1      -8.106   9.036  70.277  1.00  0.00     0.000 HD 
BRANCH   6   8
HETATM    8  C   UNL     1      -8.347   6.953  70.376  1.00  0.00    -0.130 C  
HETATM    9  O   UNL     1      -8.055   6.342  69.145  1.00  0.00    -0.107 OA 
HETATM   10  H   UNL     1      -7.777   5.457  69.352  1.00  0.00     0.000 HD 
ENDBRANCH   6   8
ENDBRANCH   4   6
ENDBRANCH   2   4
TORSDOF 3
ENDMDL
MODEL      217
REMARK 921   NORMALIZED FREE ENERGY PREDICTED BY IDOCK:   -1.32 KCAL/MOL
REMARK 922        TOTAL FREE ENERGY PREDICTED BY IDOCK:   -1.57 KCAL/MOL
REMARK 923 INTER-LIGAND FREE ENERGY PREDICTED BY IDOCK:   -1.55 KCAL/MOL
REMARK 924 INTRA-LIGAND FREE ENERGY PREDICTED BY IDOCK:   -0.02 KCAL/MOL
REMARK 927      BINDING AFFINITY PREDICTED BY RF-SCORE:    0.00 PKD
ROOT
HETATM    1  C   UNL     1     -10.482   7.667  73.094  1.00  0.00    -0.374 C  
HETATM    2  N   UNL     1     -10.004   6.406  72.562  1.00  0.00    -0.171 N  
HETATM    3  H   UNL     1      -9.296   5.908  73.100  1.00  0.00     0.000 HD 
ENDROOT
BRANCH   2   4
HETATM    4  C   UNL     1     -10.427   5.829  71.397  1.00  0.00    -0.238 C  
HETATM    5  S   UNL     1     -11.298   6.586  70.192  1.00  0.00    -0.414 S  
BRANCH   4   6
HETATM    6  N   UNL     1     -10.078   4.525  71.209  1.00  0.00    -0.182 N  
HETATM    7  H   UNL     1     -10.791   3.825  71.418  1.00  0.00     0.000 HD 
BRANCH   6   8
HETATM    8  C   UNL     1      -8.814   4.038  70.747  1.00  0.00    -0.084 C  
HETATM    9  O   UNL     1      -9.075   2.801  70.136  1.00  0.00    -0.093 OA 
HETATM   10  H   UNL     1      -8.235   2.478  69.830  1.00  0.00     0.000 HD 
ENDBRANCH   6   8
ENDBRANCH   4   6
ENDBRANCH   2   4
TORSDOF 3
ENDMDL
MODEL      218
REMARK 921   NORMALIZED FREE ENERGY PREDICTED BY IDOCK:   -1.30 KCAL/MOL
REMARK 922        TOTAL FREE ENERGY PREDICTED BY IDOCK:   -1.55 KCAL/MOL
REMARK 923 INTER-LIGAND FREE ENERGY PREDICTED BY IDOCK:   -1.27 KCAL/MOL
REMARK 924 INTRA-LIGAND FREE ENERGY PREDICTED BY IDOCK:   -0.28 KCAL/MOL
REMARK 927      BINDING AFFINITY PREDICTED BY RF-SCORE:    0.00 PKD
ROOT
HETATM    1  C   UNL     1      -9.646   4.007  63.123  1.00  0.00    -0.150 C  
HETATM    2  N   UNL     1      -9.389   4.864  64.264  1.00  0.00    -0.354 N  
HETATM    3  H   UNL     1     -10.193   5.310  64.705  1.00  0.00     0.000 HD 
ENDROOT
BRANCH   2   4
HETATM    4  C   UNL     1      -8.158   5.122  64.798  1.00  0.00    -0.117 C  
HETATM    5  S   UNL     1      -6.739   4.332  64.410  1.00  0.00    -0.045 S  
BRANCH   4   6
HETATM    6  N   UNL     1      -8.096   6.132  65.710  1.00  0.00    -0.118 N  
HETATM    7  H   UNL     1      -7.784   5.883  66.649  1.00  0.00     0.000 HD 
BRANCH   6   8
HETATM    8  C   UNL     1      -8.423   7.507  65.484  1.00  0.00    -0.119 C  
HETATM    9  O   UNL     1      -8.546   7.652  64.092  1.00  0.00    -0.366 OA 
HETATM   10  H   UNL     1      -8.764   8.565  63.942  1.00  0.00     0.000 HD 
ENDBRANCH   6   8
ENDBRANCH   4   6
ENDBRANCH   2   4
TORSDOF 3
ENDMDL
MODEL      219
REMARK 921   NORMALIZED FREE ENERGY PREDICTED BY IDOCK:   -1.29 KCAL/MOL
REMARK 922        TOTAL FREE ENERGY PREDICTED BY IDOCK:   -1.54 KCAL/MOL
REMARK 923 INTER-LIGAND FREE ENERGY PREDICTED BY IDOCK:   -1.26 KCAL/MOL
REMARK 924 INTRA-LIGAND FREE ENERGY PREDICTED BY IDOCK:   -0.28 KCAL/MOL
REMARK 927      BINDING AFFINITY PREDICTED BY RF-SCORE:    0.00 PKD
ROOT
HETATM    1  C   UNL     1      -7.706   7.440  69.277  1.00  0.00    -0.107 C  
HETATM    2  N   UNL     1      -8.197   7.175  67.939  1.00  0.00    -0.118 N  
HETATM    3  H   UNL     1      -7.596   7.438  67.158  1.00  0.00     0.000 HD 
ENDROOT
BRANCH   2   4
HETATM    4  C   UNL     1      -9.400   6.600  67.637  1.00  0.00    -0.119 C  
HETATM    5  S   UNL     1      -9.826   5.013  67.931  1.00  0.00    -0.136 S  
BRANCH   4   6
HETATM    6  N   UNL     1     -10.331   7.414  67.066  1.00  0.00    -0.289 N  
HETATM    7  H   UNL     1     -11.267   7.025  66.943  1.00  0.00     0.000 HD 
BRANCH   6   8
HETATM    8  C   UNL     1     -10.129   8.760  66.620  1.00  0.00    -0.288 C  
HETATM    9  O   UNL     1     -10.305   9.573  67.752  1.00  0.00    -0.208 OA 
HETATM   10  H   UNL     1     -10.171  10.466  67.456  1.00  0.00     0.000 HD 
ENDBRANCH   6   8
ENDBRANCH   4   6
ENDBRANCH   2   4
TORSDOF 3
ENDMDL
MODEL      220
REMARK 921   NORMALIZED FREE ENERGY PREDICTED BY IDOCK:   -1.29 KCAL/MOL
REMARK 922        TOTAL FREE ENERGY PREDICTED BY IDOCK:   -1.53 KCAL/MOL
REMARK 923 INTER-LIGAND FREE ENERGY PREDICTED BY IDOCK:   -1.50 KCAL/MOL
REMARK 924 INTRA-LIGAND FREE ENERGY PREDICTED BY IDOCK:   -0.03 KCAL/MOL
REMARK 927      BINDING AFFINITY PREDICTED BY RF-SCORE:    0.00 PKD
ROOT
HETATM    1  C   UNL     1      -8.026  16.222  66.987  1.00  0.00    -0.213 C  
HETATM    2  N   UNL     1      -8.409  15.378  68.103  1.00  0.00    -0.143 N  
HETATM    3  H   UNL     1      -7.997  15.588  69.011  1.00  0.00     0.000 HD 
ENDROOT
BRANCH   2   4
HETATM    4  C   UNL     1      -9.277  14.324  68.036  1.00  0.00    -0.192 C  
HETATM    5  S   UNL     1     -10.653  14.251  67.094  1.00  0.00    -0.281 S  
BRANCH   4   6
HETATM    6  N   UNL     1      -8.965  13.237  68.794  1.00  0.00    -0.388 N  
HETATM    7  H   UNL     1      -9.407  13.176  69.712  1.00  0.00     0.000 HD 
BRANCH   6   8
HETATM    8  C   UNL     1      -8.079  12.172  68.434  1.00  0.00    -0.149 C  
HETATM    9  O   UNL     1      -8.841  11.277  67.665  1.00  0.00    -0.134 OA 
HETATM   10  H   UNL     1      -8.253  10.570  67.426  1.00  0.00     0.000 HD 
ENDBRANCH   6   8
ENDBRANCH   4   6
ENDBRANCH   2   4
TORSDOF 3
ENDMDL
MODEL      221
REMARK 921   NORMALIZED FREE ENERGY PREDICTED BY IDOCK:   -1.28 KCAL/MOL
REMARK 922        TOTAL FREE ENERGY PREDICTED BY IDOCK:   -1.52 KCAL/MOL
REMARK 923 INTER-LIGAND FREE ENERGY PREDICTED BY IDOCK:   -1.46 KCAL/MOL
REMARK 924 INTRA-LIGAND FREE ENERGY PREDICTED BY IDOCK:   -0.06 KCAL/MOL
REMARK 927      BINDING AFFINITY PREDICTED BY RF-SCORE:    0.00 PKD
ROOT
HETATM    1  C   UNL     1      -7.553   9.249  66.940  1.00  0.00    -0.091 C  
HETATM    2  N   UNL     1      -8.785   9.497  66.216  1.00  0.00    -0.140 N  
HETATM    3  H   UNL     1      -8.878   9.078  65.292  1.00  0.00     0.000 HD 
ENDROOT
BRANCH   2   4
HETATM    4  C   UNL     1      -9.832  10.248  66.672  1.00  0.00    -0.204 C  
HETATM    5  S   UNL     1     -10.663  10.002  68.098  1.00  0.00    -0.238 S  
BRANCH   4   6
HETATM    6  N   UNL     1     -10.204  11.300  65.891  1.00  0.00    -0.241 N  
HETATM    7  H   UNL     1     -10.771  11.084  65.070  1.00  0.00     0.000 HD 
BRANCH   6   8
HETATM    8  C   UNL     1      -9.881  12.678  66.105  1.00  0.00    -0.259 C  
HETATM    9  O   UNL     1     -11.108  13.346  66.250  1.00  0.00    -0.290 OA 
HETATM   10  H   UNL     1     -10.894  14.261  66.393  1.00  0.00     0.000 HD 
ENDBRANCH   6   8
ENDBRANCH   4   6
ENDBRANCH   2   4
TORSDOF 3
ENDMDL
MODEL      222
REMARK 921   NORMALIZED FREE ENERGY PREDICTED BY IDOCK:   -1.27 KCAL/MOL
REMARK 922        TOTAL FREE ENERGY PREDICTED BY IDOCK:   -1.51 KCAL/MOL
REMARK 923 INTER-LIGAND FREE ENERGY PREDICTED BY IDOCK:   -1.66 KCAL/MOL
REMARK 924 INTRA-LIGAND FREE ENERGY PREDICTED BY IDOCK:    0.15 KCAL/MOL
REMARK 927      BINDING AFFINITY PREDICTED BY RF-SCORE:    0.00 PKD
ROOT
HETATM    1  C   UNL     1     -11.987   8.369  71.359  1.00  0.00    -0.297 C  
HETATM    2  N   UNL     1     -11.390   7.700  72.499  1.00  0.00    -0.331 N  
HETATM    3  H   UNL     1     -11.971   7.577  73.327  1.00  0.00     0.000 HD 
ENDROOT
BRANCH   2   4
HETATM    4  C   UNL     1     -10.111   7.221  72.554  1.00  0.00    -0.187 C  
HETATM    5  S   UNL     1      -9.303   6.751  73.936  1.00  0.00    -0.214 S  
BRANCH   4   6
HETATM    6  N   UNL     1      -9.460   7.103  71.364  1.00  0.00    -0.162 N  
HETATM    7  H   UNL     1      -9.389   6.164  70.970  1.00  0.00     0.000 HD 
BRANCH   6   8
HETATM    8  C   UNL     1      -8.863   8.163  70.608  1.00  0.00    -0.140 C  
HETATM    9  O   UNL     1      -8.430   9.112  71.549  1.00  0.00    -0.333 OA 
HETATM   10  H   UNL     1      -8.034   9.816  71.048  1.00  0.00     0.000 HD 
ENDBRANCH   6   8
ENDBRANCH   4   6
ENDBRANCH   2   4
TORSDOF 3
ENDMDL
MODEL      223
REMARK 921   NORMALIZED FREE ENERGY PREDICTED BY IDOCK:   -1.25 KCAL/MOL
REMARK 922        TOTAL FREE ENERGY PREDICTED BY IDOCK:   -1.49 KCAL/MOL
REMARK 923 INTER-LIGAND FREE ENERGY PREDICTED BY IDOCK:   -1.42 KCAL/MOL
REMARK 924 INTRA-LIGAND FREE ENERGY PREDICTED BY IDOCK:   -0.07 KCAL/MOL
REMARK 927      BINDING AFFINITY PREDICTED BY RF-SCORE:    0.00 PKD
ROOT
HETATM    1  C   UNL     1      -7.716   6.686  70.484  1.00  0.00    -0.104 C  
HETATM    2  N   UNL     1      -9.086   6.301  70.205  1.00  0.00    -0.153 N  
HETATM    3  H   UNL     1      -9.469   6.558  69.296  1.00  0.00     0.000 HD 
ENDROOT
BRANCH   2   4
HETATM    4  C   UNL     1      -9.907   5.623  71.062  1.00  0.00    -0.178 C  
HETATM    5  S   UNL     1      -9.835   3.989  71.396  1.00  0.00    -0.150 S  
BRANCH   4   6
HETATM    6  N   UNL     1     -10.848   6.365  71.709  1.00  0.00    -0.233 N  
HETATM    7  H   UNL     1     -11.325   5.918  72.493  1.00  0.00     0.000 HD 
BRANCH   6   8
HETATM    8  C   UNL     1     -11.236   7.708  71.401  1.00  0.00    -0.246 C  
HETATM    9  O   UNL     1     -11.106   8.433  72.598  1.00  0.00    -0.359 OA 
HETATM   10  H   UNL     1     -11.364   9.324  72.393  1.00  0.00     0.000 HD 
ENDBRANCH   6   8
ENDBRANCH   4   6
ENDBRANCH   2   4
TORSDOF 3
ENDMDL
MODEL      224
REMARK 921   NORMALIZED FREE ENERGY PREDICTED BY IDOCK:   -1.25 KCAL/MOL
REMARK 922        TOTAL FREE ENERGY PREDICTED BY IDOCK:   -1.49 KCAL/MOL
REMARK 923 INTER-LIGAND FREE ENERGY PREDICTED BY IDOCK:   -1.35 KCAL/MOL
REMARK 924 INTRA-LIGAND FREE ENERGY PREDICTED BY IDOCK:   -0.14 KCAL/MOL
REMARK 927      BINDING AFFINITY PREDICTED BY RF-SCORE:    0.00 PKD
ROOT
HETATM    1  C   UNL     1     -10.180   4.284  65.694  1.00  0.00    -0.197 C  
HETATM    2  N   UNL     1      -9.689   5.646  65.618  1.00  0.00    -0.368 N  
HETATM    3  H   UNL     1      -9.318   5.960  64.722  1.00  0.00     0.000 HD 
ENDROOT
BRANCH   2   4
HETATM    4  C   UNL     1      -9.682   6.543  66.649  1.00  0.00    -0.154 C  
HETATM    5  S   UNL     1     -10.604   6.444  68.037  1.00  0.00    -0.286 S  
BRANCH   4   6
HETATM    6  N   UNL     1      -8.826   7.595  66.527  1.00  0.00    -0.140 N  
HETATM    7  H   UNL     1      -8.569   8.080  67.388  1.00  0.00     0.000 HD 
BRANCH   6   8
HETATM    8  C   UNL     1      -8.249   8.090  65.314  1.00  0.00    -0.146 C  
HETATM    9  O   UNL     1      -6.939   7.582  65.273  1.00  0.00    -0.056 OA 
HETATM   10  H   UNL     1      -6.556   7.910  64.467  1.00  0.00     0.000 HD 
ENDBRANCH   6   8
ENDBRANCH   4   6
ENDBRANCH   2   4
TORSDOF 3
ENDMDL
MODEL      225
REMARK 921   NORMALIZED FREE ENERGY PREDICTED BY IDOCK:   -1.24 KCAL/MOL
REMARK 922        TOTAL FREE ENERGY PREDICTED BY IDOCK:   -1.48 KCAL/MOL
REMARK 923 INTER-LIGAND FREE ENERGY PREDICTED BY IDOCK:   -1.19 KCAL/MOL
REMARK 924 INTRA-LIGAND FREE ENERGY PREDICTED BY IDOCK:   -0.29 KCAL/MOL
REMARK 927      BINDING AFFINITY PREDICTED BY RF-SCORE:    0.00 PKD
ROOT
HETATM    1  C   UNL     1     -10.490   9.094  67.098  1.00  0.00    -0.255 C  
HETATM    2  N   UNL     1      -9.263   9.567  66.487  1.00  0.00    -0.153 N  
HETATM    3  H   UNL     1      -9.342  10.059  65.598  1.00  0.00     0.000 HD 
ENDROOT
BRANCH   2   4
HETATM    4  C   UNL     1      -8.008   9.407  67.006  1.00  0.00    -0.102 C  
HETATM    5  S   UNL     1      -6.579   9.480  66.146  1.00  0.00    -0.072 S  
BRANCH   4   6
HETATM    6  N   UNL     1      -7.934   9.190  68.348  1.00  0.00    -0.102 N  
HETATM    7  H   UNL     1      -8.073   8.231  68.667  1.00  0.00     0.000 HD 
BRANCH   6   8
HETATM    8  C   UNL     1      -7.680  10.173  69.358  1.00  0.00    -0.138 C  
HETATM    9  O   UNL     1      -8.578  11.225  69.109  1.00  0.00    -0.366 OA 
HETATM   10  H   UNL     1      -8.410  11.877  69.780  1.00  0.00     0.000 HD 
ENDBRANCH   6   8
ENDBRANCH   4   6
ENDBRANCH   2   4
TORSDOF 3
ENDMDL
MODEL      226
REMARK 921   NORMALIZED FREE ENERGY PREDICTED BY IDOCK:   -1.24 KCAL/MOL
REMARK 922        TOTAL FREE ENERGY PREDICTED BY IDOCK:   -1.48 KCAL/MOL
REMARK 923 INTER-LIGAND FREE ENERGY PREDICTED BY IDOCK:   -1.24 KCAL/MOL
REMARK 924 INTRA-LIGAND FREE ENERGY PREDICTED BY IDOCK:   -0.24 KCAL/MOL
REMARK 927      BINDING AFFINITY PREDICTED BY RF-SCORE:    0.00 PKD
ROOT
HETATM    1  C   UNL     1     -10.563   7.793  72.976  1.00  0.00    -0.379 C  
HETATM    2  N   UNL     1     -10.027   6.959  71.918  1.00  0.00    -0.172 N  
HETATM    3  H   UNL     1     -10.159   5.951  72.003  1.00  0.00     0.000 HD 
ENDROOT
BRANCH   2   4
HETATM    4  C   UNL     1      -9.359   7.412  70.815  1.00  0.00    -0.159 C  
HETATM    5  S   UNL     1      -9.282   8.999  70.303  1.00  0.00    -0.221 S  
BRANCH   4   6
HETATM    6  N   UNL     1      -8.683   6.476  70.092  1.00  0.00    -0.139 N  
HETATM    7  H   UNL     1      -8.955   6.369  69.114  1.00  0.00     0.000 HD 
BRANCH   6   8
HETATM    8  C   UNL     1      -7.632   5.628  70.565  1.00  0.00    -0.089 C  
HETATM    9  O   UNL     1      -8.264   4.524  71.162  1.00  0.00    -0.083 OA 
HETATM   10  H   UNL     1      -7.565   3.961  71.476  1.00  0.00     0.000 HD 
ENDBRANCH   6   8
ENDBRANCH   4   6
ENDBRANCH   2   4
TORSDOF 3
ENDMDL
MODEL      227
REMARK 921   NORMALIZED FREE ENERGY PREDICTED BY IDOCK:   -1.24 KCAL/MOL
REMARK 922        TOTAL FREE ENERGY PREDICTED BY IDOCK:   -1.48 KCAL/MOL
REMARK 923 INTER-LIGAND FREE ENERGY PREDICTED BY IDOCK:   -1.45 KCAL/MOL
REMARK 924 INTRA-LIGAND FREE ENERGY PREDICTED BY IDOCK:   -0.02 KCAL/MOL
REMARK 927      BINDING AFFINITY PREDICTED BY RF-SCORE:    0.00 PKD
ROOT
HETATM    1  C   UNL     1     -10.001   8.905  66.797  1.00  0.00    -0.267 C  
HETATM    2  N   UNL     1      -9.326   8.417  65.610  1.00  0.00    -0.425 N  
HETATM    3  H   UNL     1      -9.885   7.902  64.931  1.00  0.00     0.000 HD 
ENDROOT
BRANCH   2   4
HETATM    4  C   UNL     1      -8.000   8.590  65.327  1.00  0.00    -0.120 C  
HETATM    5  S   UNL     1      -6.735   7.750  66.020  1.00  0.00    -0.050 S  
BRANCH   4   6
HETATM    6  N   UNL     1      -7.702   9.521  64.378  1.00  0.00    -0.117 N  
HETATM    7  H   UNL     1      -8.403  10.242  64.208  1.00  0.00     0.000 HD 
BRANCH   6   8
HETATM    8  C   UNL     1      -6.505   9.589  63.596  1.00  0.00    -0.103 C  
HETATM    9  O   UNL     1      -6.243  10.956  63.407  1.00  0.00    -0.370 OA 
HETATM   10  H   UNL     1      -5.449  11.001  62.888  1.00  0.00     0.000 HD 
ENDBRANCH   6   8
ENDBRANCH   4   6
ENDBRANCH   2   4
TORSDOF 3
ENDMDL
MODEL      228
REMARK 921   NORMALIZED FREE ENERGY PREDICTED BY IDOCK:   -1.24 KCAL/MOL
REMARK 922        TOTAL FREE ENERGY PREDICTED BY IDOCK:   -1.47 KCAL/MOL
REMARK 923 INTER-LIGAND FREE ENERGY PREDICTED BY IDOCK:   -1.22 KCAL/MOL
REMARK 924 INTRA-LIGAND FREE ENERGY PREDICTED BY IDOCK:   -0.25 KCAL/MOL
REMARK 927      BINDING AFFINITY PREDICTED BY RF-SCORE:    0.00 PKD
ROOT
HETATM    1  C   UNL     1      -7.390   5.875  67.724  1.00  0.00    -0.077 C  
HETATM    2  N   UNL     1      -8.781   6.283  67.779  1.00  0.00    -0.114 N  
HETATM    3  H   UNL     1      -9.483   5.584  67.538  1.00  0.00     0.000 HD 
ENDROOT
BRANCH   2   4
HETATM    4  C   UNL     1      -9.227   7.527  68.127  1.00  0.00    -0.137 C  
HETATM    5  S   UNL     1      -9.225   8.876  67.143  1.00  0.00    -0.143 S  
BRANCH   4   6
HETATM    6  N   UNL     1      -9.736   7.656  69.384  1.00  0.00    -0.163 N  
HETATM    7  H   UNL     1      -9.184   8.199  70.048  1.00  0.00     0.000 HD 
BRANCH   6   8
HETATM    8  C   UNL     1     -10.966   7.105  69.867  1.00  0.00    -0.253 C  
HETATM    9  O   UNL     1     -10.791   5.712  69.873  1.00  0.00    -0.331 OA 
HETATM   10  H   UNL     1     -11.608   5.346  70.194  1.00  0.00     0.000 HD 
ENDBRANCH   6   8
ENDBRANCH   4   6
ENDBRANCH   2   4
TORSDOF 3
ENDMDL
MODEL      229
REMARK 921   NORMALIZED FREE ENERGY PREDICTED BY IDOCK:   -1.23 KCAL/MOL
REMARK 922        TOTAL FREE ENERGY PREDICTED BY IDOCK:   -1.46 KCAL/MOL
REMARK 923 INTER-LIGAND FREE ENERGY PREDICTED BY IDOCK:   -1.36 KCAL/MOL
REMARK 924 INTRA-LIGAND FREE ENERGY PREDICTED BY IDOCK:   -0.11 KCAL/MOL
REMARK 927      BINDING AFFINITY PREDICTED BY RF-SCORE:    0.00 PKD
ROOT
HETATM    1  C   UNL     1      -9.359   8.215  69.542  1.00  0.00    -0.155 C  
HETATM    2  N   UNL     1     -10.276   7.986  68.442  1.00  0.00    -0.203 N  
HETATM    3  H   UNL     1     -10.922   7.201  68.527  1.00  0.00     0.000 HD 
ENDROOT
BRANCH   2   4
HETATM    4  C   UNL     1     -10.347   8.736  67.301  1.00  0.00    -0.290 C  
HETATM    5  S   UNL     1      -9.485   8.462  65.898  1.00  0.00    -0.016 S  
BRANCH   4   6
HETATM    6  N   UNL     1     -11.217   9.783  67.320  1.00  0.00    -0.235 N  
HETATM    7  H   UNL     1     -12.149   9.598  67.692  1.00  0.00     0.000 HD 
BRANCH   6   8
HETATM    8  C   UNL     1     -10.957  11.117  66.871  1.00  0.00    -0.273 C  
HETATM    9  O   UNL     1      -9.930  11.609  67.694  1.00  0.00    -0.184 OA 
HETATM   10  H   UNL     1      -9.757  12.495  67.396  1.00  0.00     0.000 HD 
ENDBRANCH   6   8
ENDBRANCH   4   6
ENDBRANCH   2   4
TORSDOF 3
ENDMDL
MODEL      230
REMARK 921   NORMALIZED FREE ENERGY PREDICTED BY IDOCK:   -1.22 KCAL/MOL
REMARK 922        TOTAL FREE ENERGY PREDICTED BY IDOCK:   -1.46 KCAL/MOL
REMARK 923 INTER-LIGAND FREE ENERGY PREDICTED BY IDOCK:   -1.20 KCAL/MOL
REMARK 924 INTRA-LIGAND FREE ENERGY PREDICTED BY IDOCK:   -0.26 KCAL/MOL
REMARK 927      BINDING AFFINITY PREDICTED BY RF-SCORE:    0.00 PKD
ROOT
HETATM    1  C   UNL     1     -10.958   2.457  63.061  1.00  0.00    -0.231 C  
HETATM    2  N   UNL     1     -10.219   3.635  63.472  1.00  0.00    -0.192 N  
HETATM    3  H   UNL     1     -10.754   4.484  63.654  1.00  0.00     0.000 HD 
ENDROOT
BRANCH   2   4
HETATM    4  C   UNL     1      -8.864   3.701  63.636  1.00  0.00    -0.097 C  
HETATM    5  S   UNL     1      -7.758   4.137  62.464  1.00  0.00    -0.061 S  
BRANCH   4   6
HETATM    6  N   UNL     1      -8.391   3.404  64.878  1.00  0.00    -0.093 N  
HETATM    7  H   UNL     1      -7.479   2.947  64.925  1.00  0.00     0.000 HD 
BRANCH   6   8
HETATM    8  C   UNL     1      -9.044   3.666  66.125  1.00  0.00    -0.154 C  
HETATM    9  O   UNL     1      -9.713   2.479  66.469  1.00  0.00    -0.371 OA 
HETATM   10  H   UNL     1     -10.146   2.653  67.297  1.00  0.00     0.000 HD 
ENDBRANCH   6   8
ENDBRANCH   4   6
ENDBRANCH   2   4
TORSDOF 3
ENDMDL
MODEL      231
REMARK 921   NORMALIZED FREE ENERGY PREDICTED BY IDOCK:   -1.22 KCAL/MOL
REMARK 922        TOTAL FREE ENERGY PREDICTED BY IDOCK:   -1.46 KCAL/MOL
REMARK 923 INTER-LIGAND FREE ENERGY PREDICTED BY IDOCK:   -1.44 KCAL/MOL
REMARK 924 INTRA-LIGAND FREE ENERGY PREDICTED BY IDOCK:   -0.01 KCAL/MOL
REMARK 927      BINDING AFFINITY PREDICTED BY RF-SCORE:    0.00 PKD
ROOT
HETATM    1  C   UNL     1     -11.601   6.527  70.461  1.00  0.00    -0.393 C  
HETATM    2  N   UNL     1     -11.358   5.856  71.723  1.00  0.00    -0.259 N  
HETATM    3  H   UNL     1     -12.164   5.454  72.203  1.00  0.00     0.000 HD 
ENDROOT
BRANCH   2   4
HETATM    4  C   UNL     1     -10.138   5.718  72.324  1.00  0.00    -0.184 C  
HETATM    5  S   UNL     1      -8.941   6.880  72.382  1.00  0.00    -0.132 S  
BRANCH   4   6
HETATM    6  N   UNL     1      -9.902   4.528  72.943  1.00  0.00    -0.140 N  
HETATM    7  H   UNL     1      -9.293   3.870  72.456  1.00  0.00     0.000 HD 
BRANCH   6   8
HETATM    8  C   UNL     1     -10.421   4.108  74.209  1.00  0.00    -0.240 C  
HETATM    9  O   UNL     1      -9.772   2.900  74.512  1.00  0.00    -0.093 OA 
HETATM   10  H   UNL     1     -10.116   2.621  75.353  1.00  0.00     0.000 HD 
ENDBRANCH   6   8
ENDBRANCH   4   6
ENDBRANCH   2   4
TORSDOF 3
ENDMDL
MODEL      232
REMARK 921   NORMALIZED FREE ENERGY PREDICTED BY IDOCK:   -1.22 KCAL/MOL
REMARK 922        TOTAL FREE ENERGY PREDICTED BY IDOCK:   -1.45 KCAL/MOL
REMARK 923 INTER-LIGAND FREE ENERGY PREDICTED BY IDOCK:   -1.15 KCAL/MOL
REMARK 924 INTRA-LIGAND FREE ENERGY PREDICTED BY IDOCK:   -0.30 KCAL/MOL
REMARK 927      BINDING AFFINITY PREDICTED BY RF-SCORE:    0.00 PKD
ROOT
HETATM    1  C   UNL     1      -9.127   5.038  70.498  1.00  0.00    -0.138 C  
HETATM    2  N   UNL     1      -8.940   6.476  70.474  1.00  0.00    -0.151 N  
HETATM    3  H   UNL     1      -8.294   6.853  69.782  1.00  0.00     0.000 HD 
ENDROOT
BRANCH   2   4
HETATM    4  C   UNL     1      -9.560   7.368  71.304  1.00  0.00    -0.161 C  
HETATM    5  S   UNL     1      -9.943   8.948  70.928  1.00  0.00    -0.266 S  
BRANCH   4   6
HETATM    6  N   UNL     1      -9.909   6.903  72.536  1.00  0.00    -0.157 N  
HETATM    7  H   UNL     1     -10.816   6.443  72.613  1.00  0.00     0.000 HD 
BRANCH   6   8
HETATM    8  C   UNL     1      -9.131   6.996  73.734  1.00  0.00    -0.185 C  
HETATM    9  O   UNL     1      -7.821   7.296  73.323  1.00  0.00    -0.093 OA 
HETATM   10  H   UNL     1      -7.305   7.358  74.119  1.00  0.00     0.000 HD 
ENDBRANCH   6   8
ENDBRANCH   4   6
ENDBRANCH   2   4
TORSDOF 3
ENDMDL
MODEL      233
REMARK 921   NORMALIZED FREE ENERGY PREDICTED BY IDOCK:   -1.20 KCAL/MOL
REMARK 922        TOTAL FREE ENERGY PREDICTED BY IDOCK:   -1.43 KCAL/MOL
REMARK 923 INTER-LIGAND FREE ENERGY PREDICTED BY IDOCK:   -1.16 KCAL/MOL
REMARK 924 INTRA-LIGAND FREE ENERGY PREDICTED BY IDOCK:   -0.27 KCAL/MOL
REMARK 927      BINDING AFFINITY PREDICTED BY RF-SCORE:    0.00 PKD
ROOT
HETATM    1  C   UNL     1      -9.012   8.017  69.227  1.00  0.00    -0.148 C  
HETATM    2  N   UNL     1      -8.659   8.898  68.131  1.00  0.00    -0.129 N  
HETATM    3  H   UNL     1      -8.545   8.477  67.209  1.00  0.00     0.000 HD 
ENDROOT
BRANCH   2   4
HETATM    4  C   UNL     1      -8.465  10.248  68.232  1.00  0.00    -0.121 C  
HETATM    5  S   UNL     1      -7.236  10.998  69.076  1.00  0.00    -0.120 S  
BRANCH   4   6
HETATM    6  N   UNL     1      -9.350  11.036  67.560  1.00  0.00    -0.158 N  
HETATM    7  H   UNL     1      -9.071  12.004  67.398  1.00  0.00     0.000 HD 
BRANCH   6   8
HETATM    8  C   UNL     1     -10.633  10.643  67.059  1.00  0.00    -0.262 C  
HETATM    9  O   UNL     1     -10.379   9.812  65.955  1.00  0.00    -0.221 OA 
HETATM   10  H   UNL     1     -11.231   9.551  65.623  1.00  0.00     0.000 HD 
ENDBRANCH   6   8
ENDBRANCH   4   6
ENDBRANCH   2   4
TORSDOF 3
ENDMDL
MODEL      234
REMARK 921   NORMALIZED FREE ENERGY PREDICTED BY IDOCK:   -1.18 KCAL/MOL
REMARK 922        TOTAL FREE ENERGY PREDICTED BY IDOCK:   -1.40 KCAL/MOL
REMARK 923 INTER-LIGAND FREE ENERGY PREDICTED BY IDOCK:   -1.37 KCAL/MOL
REMARK 924 INTRA-LIGAND FREE ENERGY PREDICTED BY IDOCK:   -0.03 KCAL/MOL
REMARK 927      BINDING AFFINITY PREDICTED BY RF-SCORE:    0.00 PKD
ROOT
HETATM    1  C   UNL     1      -8.638   4.008  70.590  1.00  0.00    -0.071 C  
HETATM    2  N   UNL     1      -8.820   5.200  71.394  1.00  0.00    -0.131 N  
HETATM    3  H   UNL     1      -8.393   5.210  72.320  1.00  0.00     0.000 HD 
ENDROOT
BRANCH   2   4
HETATM    4  C   UNL     1      -9.518   6.313  71.014  1.00  0.00    -0.175 C  
HETATM    5  S   UNL     1     -11.149   6.371  70.666  1.00  0.00    -0.340 S  
BRANCH   4   6
HETATM    6  N   UNL     1      -8.808   7.473  70.937  1.00  0.00    -0.143 N  
HETATM    7  H   UNL     1      -7.984   7.546  71.534  1.00  0.00     0.000 HD 
BRANCH   6   8
HETATM    8  C   UNL     1      -9.103   8.599  70.104  1.00  0.00    -0.158 C  
HETATM    9  O   UNL     1      -8.841   9.737  70.886  1.00  0.00    -0.355 OA 
HETATM   10  H   UNL     1      -9.036  10.485  70.333  1.00  0.00     0.000 HD 
ENDBRANCH   6   8
ENDBRANCH   4   6
ENDBRANCH   2   4
TORSDOF 3
ENDMDL
MODEL      235
REMARK 921   NORMALIZED FREE ENERGY PREDICTED BY IDOCK:   -1.17 KCAL/MOL
REMARK 922        TOTAL FREE ENERGY PREDICTED BY IDOCK:   -1.40 KCAL/MOL
REMARK 923 INTER-LIGAND FREE ENERGY PREDICTED BY IDOCK:   -1.09 KCAL/MOL
REMARK 924 INTRA-LIGAND FREE ENERGY PREDICTED BY IDOCK:   -0.31 KCAL/MOL
REMARK 927      BINDING AFFINITY PREDICTED BY RF-SCORE:    0.00 PKD
ROOT
HETATM    1  C   UNL     1      -9.835  10.223  69.151  1.00  0.00    -0.216 C  
HETATM    2  N   UNL     1      -8.429   9.920  69.337  1.00  0.00    -0.151 N  
HETATM    3  H   UNL     1      -7.780  10.705  69.365  1.00  0.00     0.000 HD 
ENDROOT
BRANCH   2   4
HETATM    4  C   UNL     1      -7.902   8.666  69.477  1.00  0.00    -0.095 C  
HETATM    5  S   UNL     1      -6.483   8.121  68.789  1.00  0.00    -0.054 S  
BRANCH   4   6
HETATM    6  N   UNL     1      -8.599   7.804  70.269  1.00  0.00    -0.137 N  
HETATM    7  H   UNL     1      -9.192   7.123  69.795  1.00  0.00     0.000 HD 
BRANCH   6   8
HETATM    8  C   UNL     1      -8.583   7.758  71.700  1.00  0.00    -0.118 C  
HETATM    9  O   UNL     1      -7.750   8.812  72.112  1.00  0.00    -0.315 OA 
HETATM   10  H   UNL     1      -7.740   8.781  73.062  1.00  0.00     0.000 HD 
ENDBRANCH   6   8
ENDBRANCH   4   6
ENDBRANCH   2   4
TORSDOF 3
ENDMDL
MODEL      236
REMARK 921   NORMALIZED FREE ENERGY PREDICTED BY IDOCK:   -1.17 KCAL/MOL
REMARK 922        TOTAL FREE ENERGY PREDICTED BY IDOCK:   -1.39 KCAL/MOL
REMARK 923 INTER-LIGAND FREE ENERGY PREDICTED BY IDOCK:   -1.35 KCAL/MOL
REMARK 924 INTRA-LIGAND FREE ENERGY PREDICTED BY IDOCK:   -0.04 KCAL/MOL
REMARK 927      BINDING AFFINITY PREDICTED BY RF-SCORE:    0.00 PKD
ROOT
HETATM    1  C   UNL     1      -9.854   8.533  69.352  1.00  0.00    -0.185 C  
HETATM    2  N   UNL     1     -10.655   7.748  70.271  1.00  0.00    -0.226 N  
HETATM    3  H   UNL     1     -11.616   7.546  69.999  1.00  0.00     0.000 HD 
ENDROOT
BRANCH   2   4
HETATM    4  C   UNL     1     -10.226   7.256  71.472  1.00  0.00    -0.193 C  
HETATM    5  S   UNL     1     -10.969   7.496  72.947  1.00  0.00    -0.386 S  
BRANCH   4   6
HETATM    6  N   UNL     1      -9.103   6.486  71.442  1.00  0.00    -0.148 N  
HETATM    7  H   UNL     1      -8.565   6.492  70.574  1.00  0.00     0.000 HD 
BRANCH   6   8
HETATM    8  C   UNL     1      -8.601   5.667  72.504  1.00  0.00    -0.124 C  
HETATM    9  O   UNL     1      -7.304   6.134  72.773  1.00  0.00    -0.087 OA 
HETATM   10  H   UNL     1      -6.971   5.591  73.478  1.00  0.00     0.000 HD 
ENDBRANCH   6   8
ENDBRANCH   4   6
ENDBRANCH   2   4
TORSDOF 3
ENDMDL
MODEL      237
REMARK 921   NORMALIZED FREE ENERGY PREDICTED BY IDOCK:   -1.14 KCAL/MOL
REMARK 922        TOTAL FREE ENERGY PREDICTED BY IDOCK:   -1.36 KCAL/MOL
REMARK 923 INTER-LIGAND FREE ENERGY PREDICTED BY IDOCK:   -1.07 KCAL/MOL
REMARK 924 INTRA-LIGAND FREE ENERGY PREDICTED BY IDOCK:   -0.28 KCAL/MOL
REMARK 927      BINDING AFFINITY PREDICTED BY RF-SCORE:    0.00 PKD
ROOT
HETATM    1  C   UNL     1      -7.414   5.093  69.769  1.00  0.00    -0.061 C  
HETATM    2  N   UNL     1      -8.142   6.142  70.458  1.00  0.00    -0.111 N  
HETATM    3  H   UNL     1      -7.737   6.504  71.320  1.00  0.00     0.000 HD 
ENDROOT
BRANCH   2   4
HETATM    4  C   UNL     1      -9.327   6.684  70.045  1.00  0.00    -0.158 C  
HETATM    5  S   UNL     1      -9.559   7.584  68.659  1.00  0.00    -0.153 S  
BRANCH   4   6
HETATM    6  N   UNL     1     -10.409   6.442  70.837  1.00  0.00    -0.199 N  
HETATM    7  H   UNL     1     -11.323   6.671  70.446  1.00  0.00     0.000 HD 
BRANCH   6   8
HETATM    8  C   UNL     1     -10.392   5.899  72.161  1.00  0.00    -0.201 C  
HETATM    9  O   UNL     1     -10.355   4.503  72.007  1.00  0.00    -0.192 OA 
HETATM   10  H   UNL     1     -10.344   4.143  72.886  1.00  0.00     0.000 HD 
ENDBRANCH   6   8
ENDBRANCH   4   6
ENDBRANCH   2   4
TORSDOF 3
ENDMDL
MODEL      238
REMARK 921   NORMALIZED FREE ENERGY PREDICTED BY IDOCK:   -1.13 KCAL/MOL
REMARK 922        TOTAL FREE ENERGY PREDICTED BY IDOCK:   -1.35 KCAL/MOL
REMARK 923 INTER-LIGAND FREE ENERGY PREDICTED BY IDOCK:   -1.04 KCAL/MOL
REMARK 924 INTRA-LIGAND FREE ENERGY PREDICTED BY IDOCK:   -0.31 KCAL/MOL
REMARK 927      BINDING AFFINITY PREDICTED BY RF-SCORE:    0.00 PKD
ROOT
HETATM    1  C   UNL     1      -9.870   4.084  64.420  1.00  0.00    -0.180 C  
HETATM    2  N   UNL     1      -9.870   3.772  65.836  1.00  0.00    -0.379 N  
HETATM    3  H   UNL     1     -10.401   2.955  66.136  1.00  0.00     0.000 HD 
ENDROOT
BRANCH   2   4
HETATM    4  C   UNL     1      -9.216   4.483  66.803  1.00  0.00    -0.132 C  
HETATM    5  S   UNL     1      -9.934   5.302  68.068  1.00  0.00    -0.141 S  
BRANCH   4   6
HETATM    6  N   UNL     1      -7.856   4.496  66.726  1.00  0.00    -0.098 N  
HETATM    7  H   UNL     1      -7.410   5.412  66.664  1.00  0.00     0.000 HD 
BRANCH   6   8
HETATM    8  C   UNL     1      -6.990   3.356  66.722  1.00  0.00    -0.054 C  
HETATM    9  O   UNL     1      -7.702   2.328  67.362  1.00  0.00    -0.060 OA 
HETATM   10  H   UNL     1      -7.127   1.571  67.360  1.00  0.00     0.000 HD 
ENDBRANCH   6   8
ENDBRANCH   4   6
ENDBRANCH   2   4
TORSDOF 3
ENDMDL
MODEL      239
REMARK 921   NORMALIZED FREE ENERGY PREDICTED BY IDOCK:   -1.12 KCAL/MOL
REMARK 922        TOTAL FREE ENERGY PREDICTED BY IDOCK:   -1.34 KCAL/MOL
REMARK 923 INTER-LIGAND FREE ENERGY PREDICTED BY IDOCK:   -1.32 KCAL/MOL
REMARK 924 INTRA-LIGAND FREE ENERGY PREDICTED BY IDOCK:   -0.02 KCAL/MOL
REMARK 927      BINDING AFFINITY PREDICTED BY RF-SCORE:    0.00 PKD
ROOT
HETATM    1  C   UNL     1     -11.598   6.525  70.460  1.00  0.00    -0.393 C  
HETATM    2  N   UNL     1     -11.338   5.844  71.714  1.00  0.00    -0.259 N  
HETATM    3  H   UNL     1     -12.136   5.433  72.198  1.00  0.00     0.000 HD 
ENDROOT
BRANCH   2   4
HETATM    4  C   UNL     1     -10.111   5.708  72.301  1.00  0.00    -0.187 C  
HETATM    5  S   UNL     1      -9.732   6.108  73.876  1.00  0.00    -0.211 S  
BRANCH   4   6
HETATM    6  N   UNL     1      -9.127   5.177  71.524  1.00  0.00    -0.143 N  
HETATM    7  H   UNL     1      -9.045   5.541  70.574  1.00  0.00     0.000 HD 
BRANCH   6   8
HETATM    8  C   UNL     1      -8.195   4.158  71.904  1.00  0.00    -0.092 C  
HETATM    9  O   UNL     1      -7.644   3.671  70.708  1.00  0.00    -0.040 OA 
HETATM   10  H   UNL     1      -7.025   2.995  70.961  1.00  0.00     0.000 HD 
ENDBRANCH   6   8
ENDBRANCH   4   6
ENDBRANCH   2   4
TORSDOF 3
ENDMDL
MODEL      240
REMARK 921   NORMALIZED FREE ENERGY PREDICTED BY IDOCK:   -1.06 KCAL/MOL
REMARK 922        TOTAL FREE ENERGY PREDICTED BY IDOCK:   -1.27 KCAL/MOL
REMARK 923 INTER-LIGAND FREE ENERGY PREDICTED BY IDOCK:   -1.15 KCAL/MOL
REMARK 924 INTRA-LIGAND FREE ENERGY PREDICTED BY IDOCK:   -0.11 KCAL/MOL
REMARK 927      BINDING AFFINITY PREDICTED BY RF-SCORE:    0.00 PKD
ROOT
HETATM    1  C   UNL     1      -6.178   7.202  71.411  1.00  0.00    -0.037 C  
HETATM    2  N   UNL     1      -7.399   6.702  70.807  1.00  0.00    -0.077 N  
HETATM    3  H   UNL     1      -7.388   6.530  69.802  1.00  0.00     0.000 HD 
ENDROOT
BRANCH   2   4
HETATM    4  C   UNL     1      -8.563   6.442  71.475  1.00  0.00    -0.130 C  
HETATM    5  S   UNL     1      -9.099   4.936  71.954  1.00  0.00    -0.137 S  
BRANCH   4   6
HETATM    6  N   UNL     1      -9.331   7.521  71.789  1.00  0.00    -0.144 N  
HETATM    7  H   UNL     1      -9.714   8.055  71.008  1.00  0.00     0.000 HD 
BRANCH   6   8
HETATM    8  C   UNL     1      -9.657   7.984  73.105  1.00  0.00    -0.274 C  
HETATM    9  O   UNL     1      -8.508   8.637  73.581  1.00  0.00    -0.353 OA 
HETATM   10  H   UNL     1      -8.724   8.944  74.454  1.00  0.00     0.000 HD 
ENDBRANCH   6   8
ENDBRANCH   4   6
ENDBRANCH   2   4
TORSDOF 3
ENDMDL
MODEL      241
REMARK 921   NORMALIZED FREE ENERGY PREDICTED BY IDOCK:   -1.05 KCAL/MOL
REMARK 922        TOTAL FREE ENERGY PREDICTED BY IDOCK:   -1.25 KCAL/MOL
REMARK 923 INTER-LIGAND FREE ENERGY PREDICTED BY IDOCK:   -1.12 KCAL/MOL
REMARK 924 INTRA-LIGAND FREE ENERGY PREDICTED BY IDOCK:   -0.13 KCAL/MOL
REMARK 927      BINDING AFFINITY PREDICTED BY RF-SCORE:    0.00 PKD
ROOT
HETATM    1  C   UNL     1      -8.808   5.185  67.827  1.00  0.00    -0.105 C  
HETATM    2  N   UNL     1      -9.137   6.315  68.674  1.00  0.00    -0.127 N  
HETATM    3  H   UNL     1      -8.979   7.247  68.293  1.00  0.00     0.000 HD 
ENDROOT
BRANCH   2   4
HETATM    4  C   UNL     1      -9.641   6.234  69.942  1.00  0.00    -0.156 C  
HETATM    5  S   UNL     1     -11.246   6.400  70.368  1.00  0.00    -0.392 S  
BRANCH   4   6
HETATM    6  N   UNL     1      -8.743   5.972  70.932  1.00  0.00    -0.134 N  
HETATM    7  H   UNL     1      -7.944   6.603  71.006  1.00  0.00     0.000 HD 
BRANCH   6   8
HETATM    8  C   UNL     1      -8.807   4.900  71.880  1.00  0.00    -0.128 C  
HETATM    9  O   UNL     1      -8.842   3.717  71.124  1.00  0.00    -0.076 OA 
HETATM   10  H   UNL     1      -8.884   3.006  71.754  1.00  0.00     0.000 HD 
ENDBRANCH   6   8
ENDBRANCH   4   6
ENDBRANCH   2   4
TORSDOF 3
ENDMDL
MODEL      242
REMARK 921   NORMALIZED FREE ENERGY PREDICTED BY IDOCK:   -1.02 KCAL/MOL
REMARK 922        TOTAL FREE ENERGY PREDICTED BY IDOCK:   -1.22 KCAL/MOL
REMARK 923 INTER-LIGAND FREE ENERGY PREDICTED BY IDOCK:   -1.12 KCAL/MOL
REMARK 924 INTRA-LIGAND FREE ENERGY PREDICTED BY IDOCK:   -0.10 KCAL/MOL
REMARK 927      BINDING AFFINITY PREDICTED BY RF-SCORE:    0.00 PKD
ROOT
HETATM    1  C   UNL     1      -7.286   3.640  66.022  1.00  0.00    -0.076 C  
HETATM    2  N   UNL     1      -7.713   2.667  65.035  1.00  0.00    -0.076 N  
HETATM    3  H   UNL     1      -7.601   1.682  65.270  1.00  0.00     0.000 HD 
ENDROOT
BRANCH   2   4
HETATM    4  C   UNL     1      -8.254   2.963  63.815  1.00  0.00    -0.086 C  
HETATM    5  S   UNL     1      -7.853   2.236  62.367  1.00  0.00    -0.055 S  
BRANCH   4   6
HETATM    6  N   UNL     1      -9.220   3.923  63.800  1.00  0.00    -0.124 N  
HETATM    7  H   UNL     1      -8.941   4.850  63.476  1.00  0.00     0.000 HD 
BRANCH   6   8
HETATM    8  C   UNL     1     -10.587   3.764  64.194  1.00  0.00    -0.250 C  
HETATM    9  O   UNL     1     -10.932   2.442  63.871  1.00  0.00    -0.455 OA 
HETATM   10  H   UNL     1     -11.840   2.336  64.132  1.00  0.00     0.000 HD 
ENDBRANCH   6   8
ENDBRANCH   4   6
ENDBRANCH   2   4
TORSDOF 3
ENDMDL
MODEL      243
REMARK 921   NORMALIZED FREE ENERGY PREDICTED BY IDOCK:   -0.97 KCAL/MOL
REMARK 922        TOTAL FREE ENERGY PREDICTED BY IDOCK:   -1.17 KCAL/MOL
REMARK 923 INTER-LIGAND FREE ENERGY PREDICTED BY IDOCK:   -1.14 KCAL/MOL
REMARK 924 INTRA-LIGAND FREE ENERGY PREDICTED BY IDOCK:   -0.02 KCAL/MOL
REMARK 927      BINDING AFFINITY PREDICTED BY RF-SCORE:    0.00 PKD
ROOT
HETATM    1  C   UNL     1      -7.931   7.002  70.447  1.00  0.00    -0.113 C  
HETATM    2  N   UNL     1      -8.081   5.857  69.570  1.00  0.00    -0.104 N  
HETATM    3  H   UNL     1      -7.925   4.934  69.975  1.00  0.00     0.000 HD 
ENDROOT
BRANCH   2   4
HETATM    4  C   UNL     1      -8.414   5.912  68.246  1.00  0.00    -0.114 C  
HETATM    5  S   UNL     1      -8.572   7.303  67.336  1.00  0.00    -0.121 S  
BRANCH   4   6
HETATM    6  N   UNL     1      -8.609   4.717  67.622  1.00  0.00    -0.104 N  
HETATM    7  H   UNL     1      -8.157   4.594  66.716  1.00  0.00     0.000 HD 
BRANCH   6   8
HETATM    8  C   UNL     1      -9.383   3.617  68.110  1.00  0.00    -0.180 C  
HETATM    9  O   UNL     1      -9.717   2.848  66.983  1.00  0.00    -0.407 OA 
HETATM   10  H   UNL     1     -10.231   2.117  67.307  1.00  0.00     0.000 HD 
ENDBRANCH   6   8
ENDBRANCH   4   6
ENDBRANCH   2   4
TORSDOF 3
ENDMDL
MODEL      244
REMARK 921   NORMALIZED FREE ENERGY PREDICTED BY IDOCK:   -0.97 KCAL/MOL
REMARK 922        TOTAL FREE ENERGY PREDICTED BY IDOCK:   -1.17 KCAL/MOL
REMARK 923 INTER-LIGAND FREE ENERGY PREDICTED BY IDOCK:   -1.14 KCAL/MOL
REMARK 924 INTRA-LIGAND FREE ENERGY PREDICTED BY IDOCK:   -0.03 KCAL/MOL
REMARK 927      BINDING AFFINITY PREDICTED BY RF-SCORE:    0.00 PKD
ROOT
HETATM    1  C   UNL     1     -11.492   6.403  69.640  1.00  0.00    -0.378 C  
HETATM    2  N   UNL     1     -10.347   6.741  70.462  1.00  0.00    -0.199 N  
HETATM    3  H   UNL     1     -10.471   6.710  71.474  1.00  0.00     0.000 HD 
ENDROOT
BRANCH   2   4
HETATM    4  C   UNL     1      -9.114   7.100  69.993  1.00  0.00    -0.145 C  
HETATM    5  S   UNL     1      -7.965   7.974  70.832  1.00  0.00    -0.098 S  
BRANCH   4   6
HETATM    6  N   UNL     1      -8.802   6.681  68.735  1.00  0.00    -0.127 N  
HETATM    7  H   UNL     1      -9.584   6.435  68.127  1.00  0.00     0.000 HD 
BRANCH   6   8
HETATM    8  C   UNL     1      -7.489   6.551  68.180  1.00  0.00    -0.095 C  
HETATM    9  O   UNL     1      -7.664   6.011  66.895  1.00  0.00    -0.098 OA 
HETATM   10  H   UNL     1      -6.792   5.925  66.526  1.00  0.00     0.000 HD 
ENDBRANCH   6   8
ENDBRANCH   4   6
ENDBRANCH   2   4
TORSDOF 3
ENDMDL
MODEL      245
REMARK 921   NORMALIZED FREE ENERGY PREDICTED BY IDOCK:   -0.95 KCAL/MOL
REMARK 922        TOTAL FREE ENERGY PREDICTED BY IDOCK:   -1.14 KCAL/MOL
REMARK 923 INTER-LIGAND FREE ENERGY PREDICTED BY IDOCK:   -1.11 KCAL/MOL
REMARK 924 INTRA-LIGAND FREE ENERGY PREDICTED BY IDOCK:   -0.03 KCAL/MOL
REMARK 927      BINDING AFFINITY PREDICTED BY RF-SCORE:    0.00 PKD
ROOT
HETATM    1  C   UNL     1      -9.071  11.217  67.106  1.00  0.00    -0.147 C  
HETATM    2  N   UNL     1      -9.772  10.366  68.048  1.00  0.00    -0.149 N  
HETATM    3  H   UNL     1     -10.791  10.403  68.046  1.00  0.00     0.000 HD 
ENDROOT
BRANCH   2   4
HETATM    4  C   UNL     1      -9.178   9.518  68.941  1.00  0.00    -0.145 C  
HETATM    5  S   UNL     1      -7.628   8.908  68.826  1.00  0.00    -0.092 S  
BRANCH   4   6
HETATM    6  N   UNL     1      -9.923   9.165  70.025  1.00  0.00    -0.188 N  
HETATM    7  H   UNL     1     -10.883   9.508  70.053  1.00  0.00     0.000 HD 
BRANCH   6   8
HETATM    8  C   UNL     1      -9.494   8.362  71.130  1.00  0.00    -0.179 C  
HETATM    9  O   UNL     1     -10.553   7.480  71.402  1.00  0.00    -0.211 OA 
HETATM   10  H   UNL     1     -10.268   6.947  72.135  1.00  0.00     0.000 HD 
ENDBRANCH   6   8
ENDBRANCH   4   6
ENDBRANCH   2   4
TORSDOF 3
ENDMDL
MODEL      246
REMARK 921   NORMALIZED FREE ENERGY PREDICTED BY IDOCK:   -0.95 KCAL/MOL
REMARK 922        TOTAL FREE ENERGY PREDICTED BY IDOCK:   -1.13 KCAL/MOL
REMARK 923 INTER-LIGAND FREE ENERGY PREDICTED BY IDOCK:   -1.03 KCAL/MOL
REMARK 924 INTRA-LIGAND FREE ENERGY PREDICTED BY IDOCK:   -0.10 KCAL/MOL
REMARK 927      BINDING AFFINITY PREDICTED BY RF-SCORE:    0.00 PKD
ROOT
HETATM    1  C   UNL     1     -10.759   7.183  72.603  1.00  0.00    -0.268 C  
HETATM    2  N   UNL     1     -10.089   6.259  73.497  1.00  0.00    -0.198 N  
HETATM    3  H   UNL     1     -10.572   6.008  74.359  1.00  0.00     0.000 HD 
ENDROOT
BRANCH   2   4
HETATM    4  C   UNL     1      -8.862   5.697  73.279  1.00  0.00    -0.121 C  
HETATM    5  S   UNL     1      -8.269   4.326  74.025  1.00  0.00    -0.096 S  
BRANCH   4   6
HETATM    6  N   UNL     1      -8.074   6.311  72.354  1.00  0.00    -0.104 N  
HETATM    7  H   UNL     1      -7.538   7.119  72.671  1.00  0.00     0.000 HD 
BRANCH   6   8
HETATM    8  C   UNL     1      -7.921   5.936  70.980  1.00  0.00    -0.116 C  
HETATM    9  O   UNL     1      -8.952   5.021  70.712  1.00  0.00    -0.127 OA 
HETATM   10  H   UNL     1      -8.851   4.772  69.800  1.00  0.00     0.000 HD 
ENDBRANCH   6   8
ENDBRANCH   4   6
ENDBRANCH   2   4
TORSDOF 3
ENDMDL
MODEL      247
REMARK 921   NORMALIZED FREE ENERGY PREDICTED BY IDOCK:   -0.94 KCAL/MOL
REMARK 922        TOTAL FREE ENERGY PREDICTED BY IDOCK:   -1.13 KCAL/MOL
REMARK 923 INTER-LIGAND FREE ENERGY PREDICTED BY IDOCK:   -1.08 KCAL/MOL
REMARK 924 INTRA-LIGAND FREE ENERGY PREDICTED BY IDOCK:   -0.06 KCAL/MOL
REMARK 927      BINDING AFFINITY PREDICTED BY RF-SCORE:    0.00 PKD
ROOT
HETATM    1  C   UNL     1      -7.622   7.490  67.096  1.00  0.00    -0.107 C  
HETATM    2  N   UNL     1      -8.689   7.350  68.068  1.00  0.00    -0.125 N  
HETATM    3  H   UNL     1      -9.636   7.567  67.758  1.00  0.00     0.000 HD 
ENDROOT
BRANCH   2   4
HETATM    4  C   UNL     1      -8.530   6.953  69.366  1.00  0.00    -0.133 C  
HETATM    5  S   UNL     1      -7.825   5.527  69.871  1.00  0.00    -0.083 S  
BRANCH   4   6
HETATM    6  N   UNL     1      -8.971   7.818  70.320  1.00  0.00    -0.147 N  
HETATM    7  H   UNL     1      -9.864   7.597  70.763  1.00  0.00     0.000 HD 
BRANCH   6   8
HETATM    8  C   UNL     1      -8.310   9.008  70.765  1.00  0.00    -0.192 C  
HETATM    9  O   UNL     1      -9.301  10.001  70.827  1.00  0.00    -0.289 OA 
HETATM   10  H   UNL     1      -8.862  10.791  71.123  1.00  0.00     0.000 HD 
ENDBRANCH   6   8
ENDBRANCH   4   6
ENDBRANCH   2   4
TORSDOF 3
ENDMDL
MODEL      248
REMARK 921   NORMALIZED FREE ENERGY PREDICTED BY IDOCK:   -0.93 KCAL/MOL
REMARK 922        TOTAL FREE ENERGY PREDICTED BY IDOCK:   -1.12 KCAL/MOL
REMARK 923 INTER-LIGAND FREE ENERGY PREDICTED BY IDOCK:   -1.13 KCAL/MOL
REMARK 924 INTRA-LIGAND FREE ENERGY PREDICTED BY IDOCK:    0.01 KCAL/MOL
REMARK 927      BINDING AFFINITY PREDICTED BY RF-SCORE:    0.00 PKD
ROOT
HETATM    1  C   UNL     1     -10.947   6.489  69.292  1.00  0.00    -0.331 C  
HETATM    2  N   UNL     1     -10.484   5.780  70.469  1.00  0.00    -0.244 N  
HETATM    3  H   UNL     1     -11.190   5.336  71.056  1.00  0.00     0.000 HD 
ENDROOT
BRANCH   2   4
HETATM    4  C   UNL     1      -9.180   5.660  70.858  1.00  0.00    -0.155 C  
HETATM    5  S   UNL     1      -8.435   6.541  72.065  1.00  0.00    -0.113 S  
BRANCH   4   6
HETATM    6  N   UNL     1      -8.441   4.719  70.208  1.00  0.00    -0.082 N  
HETATM    7  H   UNL     1      -7.431   4.744  70.358  1.00  0.00     0.000 HD 
BRANCH   6   8
HETATM    8  C   UNL     1      -8.936   3.698  69.336  1.00  0.00    -0.114 C  
HETATM    9  O   UNL     1      -8.601   4.104  68.034  1.00  0.00    -0.093 OA 
HETATM   10  H   UNL     1      -8.929   3.426  67.455  1.00  0.00     0.000 HD 
ENDBRANCH   6   8
ENDBRANCH   4   6
ENDBRANCH   2   4
TORSDOF 3
ENDMDL
MODEL      249
REMARK 921   NORMALIZED FREE ENERGY PREDICTED BY IDOCK:   -0.92 KCAL/MOL
REMARK 922        TOTAL FREE ENERGY PREDICTED BY IDOCK:   -1.10 KCAL/MOL
REMARK 923 INTER-LIGAND FREE ENERGY PREDICTED BY IDOCK:   -0.86 KCAL/MOL
REMARK 924 INTRA-LIGAND FREE ENERGY PREDICTED BY IDOCK:   -0.25 KCAL/MOL
REMARK 927      BINDING AFFINITY PREDICTED BY RF-SCORE:    0.00 PKD
ROOT
HETATM    1  C   UNL     1     -10.499   9.100  67.102  1.00  0.00    -0.255 C  
HETATM    2  N   UNL     1      -9.302   9.615  66.466  1.00  0.00    -0.157 N  
HETATM    3  H   UNL     1      -9.416  10.099  65.575  1.00  0.00     0.000 HD 
ENDROOT
BRANCH   2   4
HETATM    4  C   UNL     1      -8.033   9.507  66.962  1.00  0.00    -0.109 C  
HETATM    5  S   UNL     1      -7.611   8.820  68.423  1.00  0.00    -0.096 S  
BRANCH   4   6
HETATM    6  N   UNL     1      -7.034   9.988  66.172  1.00  0.00    -0.101 N  
HETATM    7  H   UNL     1      -6.842  10.988  66.233  1.00  0.00     0.000 HD 
BRANCH   6   8
HETATM    8  C   UNL     1      -6.225   9.232  65.264  1.00  0.00    -0.064 C  
HETATM    9  O   UNL     1      -7.119   8.478  64.485  1.00  0.00    -0.076 OA 
HETATM   10  H   UNL     1      -6.582   7.977  63.882  1.00  0.00     0.000 HD 
ENDBRANCH   6   8
ENDBRANCH   4   6
ENDBRANCH   2   4
TORSDOF 3
ENDMDL
MODEL      250
REMARK 921   NORMALIZED FREE ENERGY PREDICTED BY IDOCK:   -0.92 KCAL/MOL
REMARK 922        TOTAL FREE ENERGY PREDICTED BY IDOCK:   -1.10 KCAL/MOL
REMARK 923 INTER-LIGAND FREE ENERGY PREDICTED BY IDOCK:   -0.88 KCAL/MOL
REMARK 924 INTRA-LIGAND FREE ENERGY PREDICTED BY IDOCK:   -0.22 KCAL/MOL
REMARK 927      BINDING AFFINITY PREDICTED BY RF-SCORE:    0.00 PKD
ROOT
HETATM    1  C   UNL     1     -10.411   8.867  67.001  1.00  0.00    -0.256 C  
HETATM    2  N   UNL     1      -9.083   8.363  67.294  1.00  0.00    -0.135 N  
HETATM    3  H   UNL     1      -8.325   8.652  66.677  1.00  0.00     0.000 HD 
ENDROOT
BRANCH   2   4
HETATM    4  C   UNL     1      -8.764   7.530  68.331  1.00  0.00    -0.123 C  
HETATM    5  S   UNL     1      -9.811   7.008  69.522  1.00  0.00    -0.161 S  
BRANCH   4   6
HETATM    6  N   UNL     1      -7.480   7.079  68.369  1.00  0.00    -0.100 N  
HETATM    7  H   UNL     1      -7.330   6.100  68.124  1.00  0.00     0.000 HD 
BRANCH   6   8
HETATM    8  C   UNL     1      -6.318   7.840  68.717  1.00  0.00    -0.043 C  
HETATM    9  O   UNL     1      -6.459   9.080  68.071  1.00  0.00    -0.058 OA 
HETATM   10  H   UNL     1      -5.688   9.585  68.303  1.00  0.00     0.000 HD 
ENDBRANCH   6   8
ENDBRANCH   4   6
ENDBRANCH   2   4
TORSDOF 3
ENDMDL
MODEL      251
REMARK 921   NORMALIZED FREE ENERGY PREDICTED BY IDOCK:   -0.92 KCAL/MOL
REMARK 922        TOTAL FREE ENERGY PREDICTED BY IDOCK:   -1.10 KCAL/MOL
REMARK 923 INTER-LIGAND FREE ENERGY PREDICTED BY IDOCK:   -1.05 KCAL/MOL
REMARK 924 INTRA-LIGAND FREE ENERGY PREDICTED BY IDOCK:   -0.05 KCAL/MOL
REMARK 927      BINDING AFFINITY PREDICTED BY RF-SCORE:    0.00 PKD
ROOT
HETATM    1  C   UNL     1     -11.237   6.341  69.143  1.00  0.00    -0.371 C  
HETATM    2  N   UNL     1     -10.182   6.776  70.038  1.00  0.00    -0.188 N  
HETATM    3  H   UNL     1     -10.384   6.770  71.037  1.00  0.00     0.000 HD 
ENDROOT
BRANCH   2   4
HETATM    4  C   UNL     1      -8.940   7.195  69.652  1.00  0.00    -0.141 C  
HETATM    5  S   UNL     1      -8.587   8.063  68.270  1.00  0.00    -0.130 S  
BRANCH   4   6
HETATM    6  N   UNL     1      -7.912   6.886  70.490  1.00  0.00    -0.112 N  
HETATM    7  H   UNL     1      -7.525   7.652  71.042  1.00  0.00     0.000 HD 
BRANCH   6   8
HETATM    8  C   UNL     1      -7.319   5.596  70.675  1.00  0.00    -0.083 C  
HETATM    9  O   UNL     1      -6.026   5.683  70.134  1.00  0.00    -0.022 OA 
HETATM   10  H   UNL     1      -5.633   4.826  70.256  1.00  0.00     0.000 HD 
ENDBRANCH   6   8
ENDBRANCH   4   6
ENDBRANCH   2   4
TORSDOF 3
ENDMDL
MODEL      252
REMARK 921   NORMALIZED FREE ENERGY PREDICTED BY IDOCK:   -0.89 KCAL/MOL
REMARK 922        TOTAL FREE ENERGY PREDICTED BY IDOCK:   -1.07 KCAL/MOL
REMARK 923 INTER-LIGAND FREE ENERGY PREDICTED BY IDOCK:   -1.01 KCAL/MOL
REMARK 924 INTRA-LIGAND FREE ENERGY PREDICTED BY IDOCK:   -0.06 KCAL/MOL
REMARK 927      BINDING AFFINITY PREDICTED BY RF-SCORE:    0.00 PKD
ROOT
HETATM    1  C   UNL     1      -8.431  11.235  67.076  1.00  0.00    -0.150 C  
HETATM    2  N   UNL     1      -9.512  10.420  67.596  1.00  0.00    -0.148 N  
HETATM    3  H   UNL     1     -10.462  10.770  67.477  1.00  0.00     0.000 HD 
ENDROOT
BRANCH   2   4
HETATM    4  C   UNL     1      -9.362   9.220  68.232  1.00  0.00    -0.134 C  
HETATM    5  S   UNL     1     -10.377   8.601  69.404  1.00  0.00    -0.218 S  
BRANCH   4   6
HETATM    6  N   UNL     1      -8.295   8.464  67.850  1.00  0.00    -0.130 N  
HETATM    7  H   UNL     1      -7.564   8.938  67.319  1.00  0.00     0.000 HD 
BRANCH   6   8
HETATM    8  C   UNL     1      -8.097   7.071  68.117  1.00  0.00    -0.119 C  
HETATM    9  O   UNL     1      -8.691   6.383  67.045  1.00  0.00    -0.114 OA 
HETATM   10  H   UNL     1      -8.559   5.459  67.222  1.00  0.00     0.000 HD 
ENDBRANCH   6   8
ENDBRANCH   4   6
ENDBRANCH   2   4
TORSDOF 3
ENDMDL
MODEL      253
REMARK 921   NORMALIZED FREE ENERGY PREDICTED BY IDOCK:   -0.89 KCAL/MOL
REMARK 922        TOTAL FREE ENERGY PREDICTED BY IDOCK:   -1.07 KCAL/MOL
REMARK 923 INTER-LIGAND FREE ENERGY PREDICTED BY IDOCK:   -1.01 KCAL/MOL
REMARK 924 INTRA-LIGAND FREE ENERGY PREDICTED BY IDOCK:   -0.06 KCAL/MOL
REMARK 927      BINDING AFFINITY PREDICTED BY RF-SCORE:    0.00 PKD
ROOT
HETATM    1  C   UNL     1     -10.535   7.841  66.862  1.00  0.00    -0.317 C  
HETATM    2  N   UNL     1      -9.114   7.674  66.624  1.00  0.00    -0.156 N  
HETATM    3  H   UNL     1      -8.747   8.004  65.731  1.00  0.00     0.000 HD 
ENDROOT
BRANCH   2   4
HETATM    4  C   UNL     1      -8.226   7.111  67.497  1.00  0.00    -0.117 C  
HETATM    5  S   UNL     1      -6.571   7.330  67.485  1.00  0.00    -0.058 S  
BRANCH   4   6
HETATM    6  N   UNL     1      -8.757   6.319  68.470  1.00  0.00    -0.113 N  
HETATM    7  H   UNL     1      -9.172   5.437  68.168  1.00  0.00     0.000 HD 
BRANCH   6   8
HETATM    8  C   UNL     1      -8.791   6.600  69.873  1.00  0.00    -0.144 C  
HETATM    9  O   UNL     1      -8.158   5.514  70.501  1.00  0.00    -0.099 OA 
HETATM   10  H   UNL     1      -8.180   5.700  71.432  1.00  0.00     0.000 HD 
ENDBRANCH   6   8
ENDBRANCH   4   6
ENDBRANCH   2   4
TORSDOF 3
ENDMDL
MODEL      254
REMARK 921   NORMALIZED FREE ENERGY PREDICTED BY IDOCK:   -0.87 KCAL/MOL
REMARK 922        TOTAL FREE ENERGY PREDICTED BY IDOCK:   -1.04 KCAL/MOL
REMARK 923 INTER-LIGAND FREE ENERGY PREDICTED BY IDOCK:   -0.83 KCAL/MOL
REMARK 924 INTRA-LIGAND FREE ENERGY PREDICTED BY IDOCK:   -0.22 KCAL/MOL
REMARK 927      BINDING AFFINITY PREDICTED BY RF-SCORE:    0.00 PKD
ROOT
HETATM    1  C   UNL     1     -10.429   5.344  66.852  1.00  0.00    -0.277 C  
HETATM    2  N   UNL     1      -9.405   6.298  67.233  1.00  0.00    -0.117 N  
HETATM    3  H   UNL     1      -9.566   6.845  68.078  1.00  0.00     0.000 HD 
ENDROOT
BRANCH   2   4
HETATM    4  C   UNL     1      -8.242   6.525  66.551  1.00  0.00    -0.113 C  
HETATM    5  S   UNL     1      -8.069   7.510  65.216  1.00  0.00    -0.127 S  
BRANCH   4   6
HETATM    6  N   UNL     1      -7.131   5.900  67.031  1.00  0.00    -0.069 N  
HETATM    7  H   UNL     1      -6.231   6.234  66.684  1.00  0.00     0.000 HD 
BRANCH   6   8
HETATM    8  C   UNL     1      -7.097   4.821  67.972  1.00  0.00    -0.062 C  
HETATM    9  O   UNL     1      -7.194   5.413  69.242  1.00  0.00    -0.061 OA 
HETATM   10  H   UNL     1      -7.172   4.697  69.867  1.00  0.00     0.000 HD 
ENDBRANCH   6   8
ENDBRANCH   4   6
ENDBRANCH   2   4
TORSDOF 3
ENDMDL
MODEL      255
REMARK 921   NORMALIZED FREE ENERGY PREDICTED BY IDOCK:   -0.80 KCAL/MOL
REMARK 922        TOTAL FREE ENERGY PREDICTED BY IDOCK:   -0.97 KCAL/MOL
REMARK 923 INTER-LIGAND FREE ENERGY PREDICTED BY IDOCK:   -0.71 KCAL/MOL
REMARK 924 INTRA-LIGAND FREE ENERGY PREDICTED BY IDOCK:   -0.25 KCAL/MOL
REMARK 927      BINDING AFFINITY PREDICTED BY RF-SCORE:    0.00 PKD
ROOT
HETATM    1  C   UNL     1      -9.873   6.985  71.876  1.00  0.00    -0.163 C  
HETATM    2  N   UNL     1      -9.183   6.058  72.752  1.00  0.00    -0.142 N  
HETATM    3  H   UNL     1      -9.673   5.759  73.595  1.00  0.00     0.000 HD 
ENDROOT
BRANCH   2   4
HETATM    4  C   UNL     1      -7.931   5.553  72.542  1.00  0.00    -0.103 C  
HETATM    5  S   UNL     1      -7.140   5.483  71.073  1.00  0.00    -0.071 S  
BRANCH   4   6
HETATM    6  N   UNL     1      -7.275   5.089  73.641  1.00  0.00    -0.081 N  
HETATM    7  H   UNL     1      -6.404   5.560  73.888  1.00  0.00     0.000 HD 
BRANCH   6   8
HETATM    8  C   UNL     1      -7.684   4.007  74.485  1.00  0.00    -0.079 C  
HETATM    9  O   UNL     1      -8.397   3.121  73.661  1.00  0.00    -0.073 OA 
HETATM   10  H   UNL     1      -8.668   2.403  74.222  1.00  0.00     0.000 HD 
ENDBRANCH   6   8
ENDBRANCH   4   6
ENDBRANCH   2   4
TORSDOF 3
ENDMDL
MODEL      256
REMARK 921   NORMALIZED FREE ENERGY PREDICTED BY IDOCK:   -0.74 KCAL/MOL
REMARK 922        TOTAL FREE ENERGY PREDICTED BY IDOCK:   -0.89 KCAL/MOL
REMARK 923 INTER-LIGAND FREE ENERGY PREDICTED BY IDOCK:   -0.65 KCAL/MOL
REMARK 924 INTRA-LIGAND FREE ENERGY PREDICTED BY IDOCK:   -0.24 KCAL/MOL
REMARK 927      BINDING AFFINITY PREDICTED BY RF-SCORE:    0.00 PKD
ROOT
HETATM    1  C   UNL     1      -9.132   5.015  65.220  1.00  0.00    -0.139 C  
HETATM    2  N   UNL     1      -8.410   4.160  66.143  1.00  0.00    -0.108 N  
HETATM    3  H   UNL     1      -8.739   3.201  66.248  1.00  0.00     0.000 HD 
ENDROOT
BRANCH   2   4
HETATM    4  C   UNL     1      -7.325   4.536  66.885  1.00  0.00    -0.081 C  
HETATM    5  S   UNL     1      -5.876   3.714  66.980  1.00  0.00    -0.024 S  
BRANCH   4   6
HETATM    6  N   UNL     1      -7.447   5.697  67.586  1.00  0.00    -0.077 N  
HETATM    7  H   UNL     1      -7.036   6.532  67.165  1.00  0.00     0.000 HD 
BRANCH   6   8
HETATM    8  C   UNL     1      -8.091   5.865  68.853  1.00  0.00    -0.103 C  
HETATM    9  O   UNL     1      -9.441   6.129  68.569  1.00  0.00    -0.120 OA 
HETATM   10  H   UNL     1      -9.869   6.240  69.410  1.00  0.00     0.000 HD 
ENDBRANCH   6   8
ENDBRANCH   4   6
ENDBRANCH   2   4
TORSDOF 3
ENDMDL
MODEL      257
REMARK 921   NORMALIZED FREE ENERGY PREDICTED BY IDOCK:   -0.71 KCAL/MOL
REMARK 922        TOTAL FREE ENERGY PREDICTED BY IDOCK:   -0.86 KCAL/MOL
REMARK 923 INTER-LIGAND FREE ENERGY PREDICTED BY IDOCK:   -0.69 KCAL/MOL
REMARK 924 INTRA-LIGAND FREE ENERGY PREDICTED BY IDOCK:   -0.17 KCAL/MOL
REMARK 927      BINDING AFFINITY PREDICTED BY RF-SCORE:    0.00 PKD
ROOT
HETATM    1  C   UNL     1      -6.224   4.231  66.083  1.00  0.00    -0.032 C  
HETATM    2  N   UNL     1      -7.467   3.482  66.081  1.00  0.00    -0.076 N  
HETATM    3  H   UNL     1      -7.437   2.525  66.430  1.00  0.00     0.000 HD 
ENDROOT
BRANCH   2   4
HETATM    4  C   UNL     1      -8.674   3.955  65.649  1.00  0.00    -0.117 C  
HETATM    5  S   UNL     1      -9.597   5.119  66.410  1.00  0.00    -0.175 S  
BRANCH   4   6
HETATM    6  N   UNL     1      -9.142   3.435  64.480  1.00  0.00    -0.125 N  
HETATM    7  H   UNL     1      -9.655   2.554  64.543  1.00  0.00     0.000 HD 
BRANCH   6   8
HETATM    8  C   UNL     1      -8.988   3.998  63.173  1.00  0.00    -0.113 C  
HETATM    9  O   UNL     1      -7.768   3.505  62.681  1.00  0.00    -0.057 OA 
HETATM   10  H   UNL     1      -7.665   3.879  61.813  1.00  0.00     0.000 HD 
ENDBRANCH   6   8
ENDBRANCH   4   6
ENDBRANCH   2   4
TORSDOF 3
ENDMDL
MODEL      258
REMARK 921   NORMALIZED FREE ENERGY PREDICTED BY IDOCK:   -0.71 KCAL/MOL
REMARK 922        TOTAL FREE ENERGY PREDICTED BY IDOCK:   -0.85 KCAL/MOL
REMARK 923 INTER-LIGAND FREE ENERGY PREDICTED BY IDOCK:   -0.78 KCAL/MOL
REMARK 924 INTRA-LIGAND FREE ENERGY PREDICTED BY IDOCK:   -0.08 KCAL/MOL
REMARK 927      BINDING AFFINITY PREDICTED BY RF-SCORE:    0.00 PKD
ROOT
HETATM    1  C   UNL     1      -8.946   4.509  66.624  1.00  0.00    -0.114 C  
HETATM    2  N   UNL     1      -8.760   4.452  68.061  1.00  0.00    -0.102 N  
HETATM    3  H   UNL     1      -9.218   3.692  68.563  1.00  0.00     0.000 HD 
ENDROOT
BRANCH   2   4
HETATM    4  C   UNL     1      -8.020   5.334  68.799  1.00  0.00    -0.086 C  
HETATM    5  S   UNL     1      -7.101   6.587  68.189  1.00  0.00    -0.085 S  
BRANCH   4   6
HETATM    6  N   UNL     1      -8.065   5.176  70.151  1.00  0.00    -0.081 N  
HETATM    7  H   UNL     1      -7.716   4.291  70.521  1.00  0.00     0.000 HD 
BRANCH   6   8
HETATM    8  C   UNL     1      -8.552   6.125  71.105  1.00  0.00    -0.125 C  
HETATM    9  O   UNL     1      -9.899   6.350  70.776  1.00  0.00    -0.182 OA 
HETATM   10  H   UNL     1     -10.222   6.980  71.409  1.00  0.00     0.000 HD 
ENDBRANCH   6   8
ENDBRANCH   4   6
ENDBRANCH   2   4
TORSDOF 3
ENDMDL
MODEL      259
REMARK 921   NORMALIZED FREE ENERGY PREDICTED BY IDOCK:   -0.70 KCAL/MOL
REMARK 922        TOTAL FREE ENERGY PREDICTED BY IDOCK:   -0.85 KCAL/MOL
REMARK 923 INTER-LIGAND FREE ENERGY PREDICTED BY IDOCK:   -0.55 KCAL/MOL
REMARK 924 INTRA-LIGAND FREE ENERGY PREDICTED BY IDOCK:   -0.30 KCAL/MOL
REMARK 927      BINDING AFFINITY PREDICTED BY RF-SCORE:    0.00 PKD
ROOT
HETATM    1  C   UNL     1      -9.278   5.954  68.003  1.00  0.00    -0.112 C  
HETATM    2  N   UNL     1      -9.265   5.295  69.295  1.00  0.00    -0.110 N  
HETATM    3  H   UNL     1     -10.135   5.290  69.827  1.00  0.00     0.000 HD 
ENDROOT
BRANCH   2   4
HETATM    4  C   UNL     1      -8.182   4.681  69.859  1.00  0.00    -0.067 C  
HETATM    5  S   UNL     1      -7.365   3.369  69.228  1.00  0.00    -0.049 S  
BRANCH   4   6
HETATM    6  N   UNL     1      -7.729   5.211  71.029  1.00  0.00    -0.093 N  
HETATM    7  H   UNL     1      -7.790   4.616  71.856  1.00  0.00     0.000 HD 
BRANCH   6   8
HETATM    8  C   UNL     1      -7.176   6.518  71.216  1.00  0.00    -0.079 C  
HETATM    9  O   UNL     1      -6.575   6.862  69.994  1.00  0.00    -0.042 OA 
HETATM   10  H   UNL     1      -6.208   7.730  70.118  1.00  0.00     0.000 HD 
ENDBRANCH   6   8
ENDBRANCH   4   6
ENDBRANCH   2   4
TORSDOF 3
ENDMDL
MODEL      260
REMARK 921   NORMALIZED FREE ENERGY PREDICTED BY IDOCK:   -0.63 KCAL/MOL
REMARK 922        TOTAL FREE ENERGY PREDICTED BY IDOCK:   -0.76 KCAL/MOL
REMARK 923 INTER-LIGAND FREE ENERGY PREDICTED BY IDOCK:   -0.73 KCAL/MOL
REMARK 924 INTRA-LIGAND FREE ENERGY PREDICTED BY IDOCK:   -0.03 KCAL/MOL
REMARK 927      BINDING AFFINITY PREDICTED BY RF-SCORE:    0.00 PKD
ROOT
HETATM    1  C   UNL     1      -7.526   7.418  67.094  1.00  0.00    -0.106 C  
HETATM    2  N   UNL     1      -8.284   6.922  68.227  1.00  0.00    -0.122 N  
HETATM    3  H   UNL     1      -9.268   7.186  68.284  1.00  0.00     0.000 HD 
ENDROOT
BRANCH   2   4
HETATM    4  C   UNL     1      -7.789   6.130  69.224  1.00  0.00    -0.104 C  
HETATM    5  S   UNL     1      -7.173   4.590  69.034  1.00  0.00    -0.052 S  
BRANCH   4   6
HETATM    6  N   UNL     1      -7.785   6.667  70.476  1.00  0.00    -0.102 N  
HETATM    7  H   UNL     1      -6.964   7.214  70.737  1.00  0.00     0.000 HD 
BRANCH   6   8
HETATM    8  C   UNL     1      -8.816   6.543  71.461  1.00  0.00    -0.139 C  
HETATM    9  O   UNL     1      -8.159   6.316  72.682  1.00  0.00    -0.106 OA 
HETATM   10  H   UNL     1      -8.844   6.234  73.336  1.00  0.00     0.000 HD 
ENDBRANCH   6   8
ENDBRANCH   4   6
ENDBRANCH   2   4
TORSDOF 3
ENDMDL
MODEL      261
REMARK 921   NORMALIZED FREE ENERGY PREDICTED BY IDOCK:   -0.61 KCAL/MOL
REMARK 922        TOTAL FREE ENERGY PREDICTED BY IDOCK:   -0.74 KCAL/MOL
REMARK 923 INTER-LIGAND FREE ENERGY PREDICTED BY IDOCK:   -0.52 KCAL/MOL
REMARK 924 INTRA-LIGAND FREE ENERGY PREDICTED BY IDOCK:   -0.22 KCAL/MOL
REMARK 927      BINDING AFFINITY PREDICTED BY RF-SCORE:    0.00 PKD
ROOT
HETATM    1  C   UNL     1      -8.405   4.980  65.673  1.00  0.00    -0.120 C  
HETATM    2  N   UNL     1      -8.220   4.925  67.111  1.00  0.00    -0.107 N  
HETATM    3  H   UNL     1      -8.675   4.163  67.613  1.00  0.00     0.000 HD 
ENDROOT
BRANCH   2   4
HETATM    4  C   UNL     1      -7.485   5.811  67.848  1.00  0.00    -0.078 C  
HETATM    5  S   UNL     1      -6.572   7.068  67.238  1.00  0.00    -0.053 S  
BRANCH   4   6
HETATM    6  N   UNL     1      -7.530   5.654  69.200  1.00  0.00    -0.081 N  
HETATM    7  H   UNL     1      -7.482   6.504  69.762  1.00  0.00     0.000 HD 
BRANCH   6   8
HETATM    8  C   UNL     1      -7.639   4.417  69.912  1.00  0.00    -0.050 C  
HETATM    9  O   UNL     1      -6.510   3.662  69.551  1.00  0.00    -0.032 OA 
HETATM   10  H   UNL     1      -6.582   2.841  70.024  1.00  0.00     0.000 HD 
ENDBRANCH   6   8
ENDBRANCH   4   6
ENDBRANCH   2   4
TORSDOF 3
ENDMDL
MODEL      262
REMARK 921   NORMALIZED FREE ENERGY PREDICTED BY IDOCK:   -0.41 KCAL/MOL
REMARK 922        TOTAL FREE ENERGY PREDICTED BY IDOCK:   -0.51 KCAL/MOL
REMARK 923 INTER-LIGAND FREE ENERGY PREDICTED BY IDOCK:   -0.48 KCAL/MOL
REMARK 924 INTRA-LIGAND FREE ENERGY PREDICTED BY IDOCK:   -0.03 KCAL/MOL
REMARK 927      BINDING AFFINITY PREDICTED BY RF-SCORE:    0.00 PKD
ROOT
HETATM    1  C   UNL     1      -9.194   4.906  65.279  1.00  0.00    -0.139 C  
HETATM    2  N   UNL     1      -8.614   4.037  66.285  1.00  0.00    -0.109 N  
HETATM    3  H   UNL     1      -8.995   3.095  66.365  1.00  0.00     0.000 HD 
ENDROOT
BRANCH   2   4
HETATM    4  C   UNL     1      -7.599   4.377  67.134  1.00  0.00    -0.085 C  
HETATM    5  S   UNL     1      -7.722   4.531  68.792  1.00  0.00    -0.071 S  
BRANCH   4   6
HETATM    6  N   UNL     1      -6.379   4.584  66.564  1.00  0.00    -0.036 N  
HETATM    7  H   UNL     1      -5.753   3.779  66.515  1.00  0.00     0.000 HD 
BRANCH   6   8
HETATM    8  C   UNL     1      -5.887   5.815  66.026  1.00  0.00    -0.021 C  
HETATM    9  O   UNL     1      -5.731   5.600  64.646  1.00  0.00    -0.019 OA 
HETATM   10  H   UNL     1      -5.404   6.418  64.289  1.00  0.00     0.000 HD 
ENDBRANCH   6   8
ENDBRANCH   4   6
ENDBRANCH   2   4
TORSDOF 3
ENDMDL
MODEL      263
REMARK 921   NORMALIZED FREE ENERGY PREDICTED BY IDOCK:   -0.25 KCAL/MOL
REMARK 922        TOTAL FREE ENERGY PREDICTED BY IDOCK:   -0.31 KCAL/MOL
REMARK 923 INTER-LIGAND FREE ENERGY PREDICTED BY IDOCK:   -0.63 KCAL/MOL
REMARK 924 INTRA-LIGAND FREE ENERGY PREDICTED BY IDOCK:    0.31 KCAL/MOL
REMARK 927      BINDING AFFINITY PREDICTED BY RF-SCORE:    0.00 PKD
ROOT
HETATM    1  C   UNL     1      -9.591   6.973  71.932  1.00  0.00    -0.150 C  
HETATM    2  N   UNL     1      -8.530   6.292  72.647  1.00  0.00    -0.123 N  
HETATM    3  H   UNL     1      -8.768   5.862  73.541  1.00  0.00     0.000 HD 
ENDROOT
BRANCH   2   4
HETATM    4  C   UNL     1      -7.236   6.178  72.222  1.00  0.00    -0.088 C  
HETATM    5  S   UNL     1      -5.887   6.729  73.036  1.00  0.00    -0.042 S  
BRANCH   4   6
HETATM    6  N   UNL     1      -7.045   5.535  71.036  1.00  0.00    -0.067 N  
HETATM    7  H   UNL     1      -6.440   4.714  71.051  1.00  0.00     0.000 HD 
BRANCH   6   8
HETATM    8  C   UNL     1      -7.609   5.896  69.770  1.00  0.00    -0.081 C  
HETATM    9  O   UNL     1      -7.239   7.232  69.548  1.00  0.00    -0.075 OA 
HETATM   10  H   UNL     1      -7.613   7.471  68.707  1.00  0.00     0.000 HD 
ENDBRANCH   6   8
ENDBRANCH   4   6
ENDBRANCH   2   4
TORSDOF 3
ENDMDL
