MODEL        1
REMARK 921   NORMALIZED FREE ENERGY PREDICTED BY IDOCK:   -6.37 KCAL/MOL
REMARK 922        TOTAL FREE ENERGY PREDICTED BY IDOCK:  -10.62 KCAL/MOL
REMARK 923 INTER-LIGAND FREE ENERGY PREDICTED BY IDOCK:   -8.98 KCAL/MOL
REMARK 924 INTRA-LIGAND FREE ENERGY PREDICTED BY IDOCK:   -1.63 KCAL/MOL
REMARK 927      BINDING AFFINITY PREDICTED BY RF-SCORE:    0.00 PKD
ROOT
HETATM    1  C   UNL     1     -10.936  12.377  67.101  1.00  0.00    -0.304 C  
HETATM    2  C   UNL     1     -11.829  13.546  67.545  1.00  0.00    -0.368 C  
ENDROOT
BRANCH   2   3
HETATM    3  N   UNL     1     -12.078  14.511  66.462  1.00  0.00    -0.365 NA 
HETATM    4  H   UNL     1     -11.909  15.460  66.796  1.00  0.00     0.000 HD 
BRANCH   3   5
HETATM    5  C   UNL     1     -11.325  14.276  65.200  1.00  0.00    -0.345 C  
HETATM    6  C   UNL     1     -12.268  13.859  64.066  1.00  0.00    -0.413 C  
BRANCH   5   7
HETATM    7  C   UNL     1     -10.538  15.575  64.804  1.00  0.00    -0.217 C  
HETATM    8  H   UNL     1     -10.980  17.270  63.942  1.00  0.00     0.000 HD 
HETATM    9  O   UNL     1     -11.456  16.484  64.182  1.00  0.00    -1.059 OA 
BRANCH   7  10
HETATM   10  C   UNL     1      -9.815  16.295  65.937  1.00  0.00    -0.365 A  
HETATM   11  C   UNL     1      -8.675  15.761  66.566  1.00  0.00    -0.354 A  
HETATM   12  C   UNL     1      -8.506  17.688  68.001  1.00  0.00    -0.244 A  
HETATM   13  C   UNL     1      -9.605  18.256  67.379  1.00  0.00    -0.284 A  
HETATM   14  O   UNL     1      -7.911  18.384  69.013  1.00  0.00    -0.238 OA 
HETATM   15  C   UNL     1      -8.029  16.447  67.601  1.00  0.00    -0.165 A  
HETATM   16  C   UNL     1     -10.251  17.568  66.348  1.00  0.00    -0.354 A  
HETATM   17  H   UNL     1      -8.237  19.233  69.288  1.00  0.00     0.000 HD 
ENDBRANCH   7  10
ENDBRANCH   5   7
ENDBRANCH   3   5
ENDBRANCH   2   3
BRANCH   2  18
HETATM   18  C   UNL     1     -11.114  14.248  68.718  1.00  0.00    -0.276 C  
BRANCH  18  19
HETATM   19  C   UNL     1     -11.775  15.539  69.215  1.00  0.00    -0.380 C  
BRANCH  19  20
HETATM   20  C   UNL     1     -12.200  15.354  70.656  1.00  0.00    -0.431 A  
HETATM   21  C   UNL     1     -11.718  16.214  71.653  1.00  0.00    -0.558 A  
HETATM   22  C   UNL     1     -12.013  15.975  72.996  1.00  0.00    -0.597 A  
HETATM   23  C   UNL     1     -13.286  14.022  72.372  1.00  0.00    -0.617 A  
HETATM   24  C   UNL     1     -12.993  14.259  71.028  1.00  0.00    -0.411 A  
HETATM   25  C   UNL     1     -12.792  14.877  73.356  1.00  0.00    -0.638 A  
ENDBRANCH  19  20
ENDBRANCH  18  19
ENDBRANCH   2  18
TORSDOF 7
ENDMDL
MODEL        2
REMARK 921   NORMALIZED FREE ENERGY PREDICTED BY IDOCK:   -6.33 KCAL/MOL
REMARK 922        TOTAL FREE ENERGY PREDICTED BY IDOCK:  -10.56 KCAL/MOL
REMARK 923 INTER-LIGAND FREE ENERGY PREDICTED BY IDOCK:   -9.30 KCAL/MOL
REMARK 924 INTRA-LIGAND FREE ENERGY PREDICTED BY IDOCK:   -1.26 KCAL/MOL
REMARK 927      BINDING AFFINITY PREDICTED BY RF-SCORE:    0.00 PKD
ROOT
HETATM    1  C   UNL     1     -11.892  12.893  67.526  1.00  0.00    -0.407 C  
HETATM    2  C   UNL     1     -10.464  13.164  68.023  1.00  0.00    -0.239 C  
ENDROOT
BRANCH   2   3
HETATM    3  N   UNL     1      -9.834  11.973  68.614  1.00  0.00    -0.358 NA 
HETATM    4  H   UNL     1      -9.767  12.081  69.626  1.00  0.00     0.000 HD 
BRANCH   3   5
HETATM    5  C   UNL     1     -10.476  10.671  68.284  1.00  0.00    -0.187 C  
HETATM    6  C   UNL     1     -10.002  10.152  66.922  1.00  0.00    -0.259 C  
BRANCH   5   7
HETATM    7  C   UNL     1     -10.155   9.623  69.407  1.00  0.00    -0.203 C  
HETATM    8  H   UNL     1      -8.754   9.395  70.748  1.00  0.00     0.000 HD 
HETATM    9  O   UNL     1      -8.948  10.030  70.068  1.00  0.00    -0.195 OA 
BRANCH   7  10
HETATM   10  C   UNL     1     -11.244   9.402  70.452  1.00  0.00    -0.309 A  
HETATM   11  C   UNL     1     -11.355   8.207  71.186  1.00  0.00    -0.299 A  
HETATM   12  C   UNL     1     -13.257   9.068  72.389  1.00  0.00    -0.447 A  
HETATM   13  C   UNL     1     -13.153  10.269  71.707  1.00  0.00    -0.570 A  
HETATM   14  O   UNL     1     -14.259   8.935  73.305  1.00  0.00    -1.197 OA 
HETATM   15  C   UNL     1     -12.363   8.034  72.142  1.00  0.00    -0.358 A  
HETATM   16  C   UNL     1     -12.148  10.438  70.751  1.00  0.00    -0.463 A  
HETATM   17  H   UNL     1     -14.871   9.642  73.474  1.00  0.00     0.000 HD 
ENDBRANCH   7  10
ENDBRANCH   5   7
ENDBRANCH   3   5
ENDBRANCH   2   3
BRANCH   2  18
HETATM   18  C   UNL     1     -10.551  14.288  69.077  1.00  0.00    -0.243 C  
BRANCH  18  19
HETATM   19  C   UNL     1     -11.896  15.021  69.149  1.00  0.00    -0.338 C  
BRANCH  19  20
HETATM   20  C   UNL     1     -12.346  15.085  70.593  1.00  0.00    -0.404 A  
HETATM   21  C   UNL     1     -11.844  16.075  71.449  1.00  0.00    -0.531 A  
HETATM   22  C   UNL     1     -12.166  16.066  72.807  1.00  0.00    -0.617 A  
HETATM   23  C   UNL     1     -13.507  14.087  72.479  1.00  0.00    -0.661 A  
HETATM   24  C   UNL     1     -13.187  14.094  71.120  1.00  0.00    -0.369 A  
HETATM   25  C   UNL     1     -12.992  15.069  73.323  1.00  0.00    -0.642 A  
ENDBRANCH  19  20
ENDBRANCH  18  19
ENDBRANCH   2  18
TORSDOF 7
ENDMDL
MODEL        3
REMARK 921   NORMALIZED FREE ENERGY PREDICTED BY IDOCK:   -6.28 KCAL/MOL
REMARK 922        TOTAL FREE ENERGY PREDICTED BY IDOCK:  -10.48 KCAL/MOL
REMARK 923 INTER-LIGAND FREE ENERGY PREDICTED BY IDOCK:   -9.23 KCAL/MOL
REMARK 924 INTRA-LIGAND FREE ENERGY PREDICTED BY IDOCK:   -1.24 KCAL/MOL
REMARK 927      BINDING AFFINITY PREDICTED BY RF-SCORE:    0.00 PKD
ROOT
HETATM    1  C   UNL     1     -10.678   9.219  71.420  1.00  0.00    -0.432 C  
HETATM    2  C   UNL     1     -11.155   9.444  69.977  1.00  0.00    -0.221 C  
ENDROOT
BRANCH   2   3
HETATM    3  N   UNL     1     -10.053   9.397  69.003  1.00  0.00    -0.187 NA 
HETATM    4  H   UNL     1     -10.176   8.601  68.377  1.00  0.00     0.000 HD 
BRANCH   3   5
HETATM    5  C   UNL     1      -9.837  10.638  68.209  1.00  0.00    -0.163 C  
HETATM    6  C   UNL     1      -8.515  11.313  68.591  1.00  0.00    -0.143 C  
BRANCH   5   7
HETATM    7  C   UNL     1      -9.852  10.296  66.678  1.00  0.00    -0.204 C  
HETATM    8  H   UNL     1     -10.456   8.794  65.586  1.00  0.00     0.000 HD 
HETATM    9  O   UNL     1     -10.447   9.001  66.513  1.00  0.00    -0.234 OA 
BRANCH   7  10
HETATM   10  C   UNL     1     -10.569  11.293  65.773  1.00  0.00    -0.306 A  
HETATM   11  C   UNL     1     -11.476  12.247  66.269  1.00  0.00    -0.435 A  
HETATM   12  C   UNL     1     -11.834  13.126  64.056  1.00  0.00    -0.453 A  
HETATM   13  C   UNL     1     -10.920  12.222  63.541  1.00  0.00    -0.521 A  
HETATM   14  O   UNL     1     -12.445  13.985  63.189  1.00  0.00    -1.137 OA 
HETATM   15  C   UNL     1     -12.115  13.152  65.415  1.00  0.00    -0.478 A  
HETATM   16  C   UNL     1     -10.285  11.316  64.395  1.00  0.00    -0.377 A  
HETATM   17  H   UNL     1     -12.253  13.967  62.258  1.00  0.00     0.000 HD 
ENDBRANCH   7  10
ENDBRANCH   5   7
ENDBRANCH   3   5
ENDBRANCH   2   3
BRANCH   2  18
HETATM   18  C   UNL     1     -11.837  10.827  69.930  1.00  0.00    -0.413 C  
BRANCH  18  19
HETATM   19  C   UNL     1     -12.676  11.190  71.161  1.00  0.00    -0.510 C  
BRANCH  19  20
HETATM   20  C   UNL     1     -12.800  12.697  71.246  1.00  0.00    -0.344 A  
HETATM   21  C   UNL     1     -13.578  13.287  72.252  1.00  0.00    -0.703 A  
HETATM   22  C   UNL     1     -13.790  14.667  72.264  1.00  0.00    -0.583 A  
HETATM   23  C   UNL     1     -12.442  14.894  70.275  1.00  0.00    -0.386 A  
HETATM   24  C   UNL     1     -12.228  13.514  70.262  1.00  0.00    -0.417 A  
HETATM   25  C   UNL     1     -13.228  15.469  71.272  1.00  0.00    -0.588 A  
ENDBRANCH  19  20
ENDBRANCH  18  19
ENDBRANCH   2  18
TORSDOF 7
ENDMDL
MODEL        4
REMARK 921   NORMALIZED FREE ENERGY PREDICTED BY IDOCK:   -6.27 KCAL/MOL
REMARK 922        TOTAL FREE ENERGY PREDICTED BY IDOCK:  -10.47 KCAL/MOL
REMARK 923 INTER-LIGAND FREE ENERGY PREDICTED BY IDOCK:   -8.85 KCAL/MOL
REMARK 924 INTRA-LIGAND FREE ENERGY PREDICTED BY IDOCK:   -1.62 KCAL/MOL
REMARK 927      BINDING AFFINITY PREDICTED BY RF-SCORE:    0.00 PKD
ROOT
HETATM    1  C   UNL     1     -10.604  12.440  67.070  1.00  0.00    -0.248 C  
HETATM    2  C   UNL     1     -11.734  13.384  67.509  1.00  0.00    -0.366 C  
ENDROOT
BRANCH   2   3
HETATM    3  N   UNL     1     -12.058  14.392  66.487  1.00  0.00    -0.406 NA 
HETATM    4  H   UNL     1     -11.865  15.326  66.847  1.00  0.00     0.000 HD 
BRANCH   3   5
HETATM    5  C   UNL     1     -11.396  14.210  65.166  1.00  0.00    -0.336 C  
HETATM    6  C   UNL     1     -12.401  13.747  64.105  1.00  0.00    -0.382 C  
BRANCH   5   7
HETATM    7  C   UNL     1     -10.718  15.555  64.724  1.00  0.00    -0.304 C  
HETATM    8  H   UNL     1     -11.293  17.170  63.789  1.00  0.00     0.000 HD 
HETATM    9  O   UNL     1     -11.704  16.355  64.057  1.00  0.00    -1.044 OA 
BRANCH   7  10
HETATM   10  C   UNL     1     -10.075  16.380  65.834  1.00  0.00    -0.370 A  
HETATM   11  C   UNL     1     -10.584  17.626  66.241  1.00  0.00    -0.215 A  
HETATM   12  C   UNL     1      -8.860  17.838  67.911  1.00  0.00    -0.251 A  
HETATM   13  C   UNL     1      -8.355  16.598  67.556  1.00  0.00    -0.189 A  
HETATM   14  O   UNL     1      -8.231  18.526  68.907  1.00  0.00    -0.277 OA 
HETATM   15  C   UNL     1      -9.974  18.359  67.265  1.00  0.00    -0.347 A  
HETATM   16  C   UNL     1      -8.963  15.870  66.530  1.00  0.00    -0.331 A  
HETATM   17  H   UNL     1      -7.469  18.170  69.348  1.00  0.00     0.000 HD 
ENDBRANCH   7  10
ENDBRANCH   5   7
ENDBRANCH   3   5
ENDBRANCH   2   3
BRANCH   2  18
HETATM   18  C   UNL     1     -11.271  14.081  68.805  1.00  0.00    -0.298 C  
BRANCH  18  19
HETATM   19  C   UNL     1     -11.898  15.454  69.074  1.00  0.00    -0.357 C  
BRANCH  19  20
HETATM   20  C   UNL     1     -12.406  15.494  70.500  1.00  0.00    -0.461 A  
HETATM   21  C   UNL     1     -13.695  15.036  70.806  1.00  0.00    -0.197 A  
HETATM   22  C   UNL     1     -14.209  15.179  72.096  1.00  0.00    -0.656 A  
HETATM   23  C   UNL     1     -12.152  16.228  72.801  1.00  0.00    -0.637 A  
HETATM   24  C   UNL     1     -11.637  16.084  71.512  1.00  0.00    -0.529 A  
HETATM   25  C   UNL     1     -13.440  15.780  73.091  1.00  0.00    -0.652 A  
ENDBRANCH  19  20
ENDBRANCH  18  19
ENDBRANCH   2  18
TORSDOF 7
ENDMDL
MODEL        5
REMARK 921   NORMALIZED FREE ENERGY PREDICTED BY IDOCK:   -6.22 KCAL/MOL
REMARK 922        TOTAL FREE ENERGY PREDICTED BY IDOCK:  -10.40 KCAL/MOL
REMARK 923 INTER-LIGAND FREE ENERGY PREDICTED BY IDOCK:   -9.00 KCAL/MOL
REMARK 924 INTRA-LIGAND FREE ENERGY PREDICTED BY IDOCK:   -1.40 KCAL/MOL
REMARK 927      BINDING AFFINITY PREDICTED BY RF-SCORE:    0.00 PKD
ROOT
HETATM    1  C   UNL     1     -11.744  14.901  70.908  1.00  0.00    -0.374 C  
HETATM    2  C   UNL     1     -11.659  14.496  69.429  1.00  0.00    -0.303 C  
ENDROOT
BRANCH   2   3
HETATM    3  N   UNL     1     -10.511  13.621  69.146  1.00  0.00    -0.429 NA 
HETATM    4  H   UNL     1      -9.819  13.704  69.891  1.00  0.00     0.000 HD 
BRANCH   3   5
HETATM    5  C   UNL     1     -10.833  12.187  68.912  1.00  0.00    -0.200 C  
HETATM    6  C   UNL     1     -12.259  11.860  69.371  1.00  0.00    -0.185 C  
BRANCH   5   7
HETATM    7  C   UNL     1     -10.660  11.847  67.389  1.00  0.00    -0.225 C  
HETATM    8  H   UNL     1     -11.392  10.517  66.161  1.00  0.00     0.000 HD 
HETATM    9  O   UNL     1     -11.496  10.722  67.083  1.00  0.00    -0.400 OA 
BRANCH   7  10
HETATM   10  C   UNL     1     -10.965  12.976  66.410  1.00  0.00    -0.301 A  
HETATM   11  C   UNL     1      -9.963  13.810  65.883  1.00  0.00    -0.308 A  
HETATM   12  C   UNL     1     -11.588  15.020  64.580  1.00  0.00    -0.386 A  
HETATM   13  C   UNL     1     -12.593  14.193  65.055  1.00  0.00    -0.399 A  
HETATM   14  O   UNL     1     -11.932  16.015  63.712  1.00  0.00    -1.339 OA 
HETATM   15  C   UNL     1     -10.272  14.835  64.982  1.00  0.00    -0.379 A  
HETATM   16  C   UNL     1     -12.283  13.173  65.957  1.00  0.00    -0.478 A  
HETATM   17  H   UNL     1     -12.833  16.141  63.438  1.00  0.00     0.000 HD 
ENDBRANCH   7  10
ENDBRANCH   5   7
ENDBRANCH   3   5
ENDBRANCH   2   3
BRANCH   2  18
HETATM   18  C   UNL     1     -11.543  15.795  68.605  1.00  0.00    -0.392 C  
BRANCH  18  19
HETATM   19  C   UNL     1     -10.582  16.849  69.167  1.00  0.00    -0.330 C  
BRANCH  19  20
HETATM   20  C   UNL     1     -10.510  18.015  68.204  1.00  0.00    -0.373 A  
HETATM   21  C   UNL     1     -10.746  17.820  66.836  1.00  0.00    -0.165 A  
HETATM   22  C   UNL     1     -10.566  18.868  65.931  1.00  0.00    -0.438 A  
HETATM   23  C   UNL     1      -9.924  20.327  67.744  1.00  0.00    -0.529 A  
HETATM   24  C   UNL     1     -10.104  19.280  68.650  1.00  0.00    -0.499 A  
HETATM   25  C   UNL     1     -10.149  20.119  66.384  1.00  0.00    -0.569 A  
ENDBRANCH  19  20
ENDBRANCH  18  19
ENDBRANCH   2  18
TORSDOF 7
ENDMDL
MODEL        6
REMARK 921   NORMALIZED FREE ENERGY PREDICTED BY IDOCK:   -6.19 KCAL/MOL
REMARK 922        TOTAL FREE ENERGY PREDICTED BY IDOCK:  -10.35 KCAL/MOL
REMARK 923 INTER-LIGAND FREE ENERGY PREDICTED BY IDOCK:   -9.61 KCAL/MOL
REMARK 924 INTRA-LIGAND FREE ENERGY PREDICTED BY IDOCK:   -0.74 KCAL/MOL
REMARK 927      BINDING AFFINITY PREDICTED BY RF-SCORE:    0.00 PKD
ROOT
HETATM    1  C   UNL     1     -14.340  15.078  71.518  1.00  0.00    -0.651 C  
HETATM    2  C   UNL     1     -12.965  14.524  71.115  1.00  0.00    -0.346 C  
ENDROOT
BRANCH   2   3
HETATM    3  N   UNL     1     -12.706  14.648  69.672  1.00  0.00    -0.562 NA 
HETATM    4  H   UNL     1     -13.588  14.732  69.166  1.00  0.00     0.000 HD 
BRANCH   3   5
HETATM    5  C   UNL     1     -11.785  15.747  69.271  1.00  0.00    -0.374 C  
HETATM    6  C   UNL     1     -11.110  16.374  70.496  1.00  0.00    -0.214 C  
BRANCH   5   7
HETATM    7  C   UNL     1     -10.705  15.196  68.276  1.00  0.00    -0.251 C  
HETATM    8  H   UNL     1      -9.440  13.708  68.267  1.00  0.00     0.000 HD 
HETATM    9  O   UNL     1     -10.095  14.042  68.870  1.00  0.00    -0.213 OA 
BRANCH   7  10
HETATM   10  C   UNL     1     -11.199  14.836  66.879  1.00  0.00    -0.347 A  
HETATM   11  C   UNL     1     -12.075  13.760  66.641  1.00  0.00    -0.471 A  
HETATM   12  C   UNL     1     -12.101  14.241  64.281  1.00  0.00    -0.441 A  
HETATM   13  C   UNL     1     -11.266  15.327  64.487  1.00  0.00    -0.291 A  
HETATM   14  O   UNL     1     -12.499  13.971  63.005  1.00  0.00    -1.101 OA 
HETATM   15  C   UNL     1     -12.515  13.455  65.349  1.00  0.00    -0.543 A  
HETATM   16  C   UNL     1     -10.825  15.628  65.778  1.00  0.00    -0.312 A  
HETATM   17  H   UNL     1     -12.215  14.508  62.274  1.00  0.00     0.000 HD 
ENDBRANCH   7  10
ENDBRANCH   5   7
ENDBRANCH   3   5
ENDBRANCH   2   3
BRANCH   2  18
HETATM   18  C   UNL     1     -12.930  13.038  71.528  1.00  0.00    -0.398 C  
BRANCH  18  19
HETATM   19  C   UNL     1     -12.283  12.088  70.514  1.00  0.00    -0.414 C  
BRANCH  19  20
HETATM   20  C   UNL     1     -12.248  10.692  71.099  1.00  0.00    -0.479 A  
HETATM   21  C   UNL     1     -13.285  10.245  71.930  1.00  0.00    -0.550 A  
HETATM   22  C   UNL     1     -13.199   9.005  72.564  1.00  0.00    -0.467 A  
HETATM   23  C   UNL     1     -11.045   8.629  71.543  1.00  0.00    -0.358 A  
HETATM   24  C   UNL     1     -11.130   9.869  70.906  1.00  0.00    -0.418 A  
HETATM   25  C   UNL     1     -12.077   8.200  72.376  1.00  0.00    -0.406 A  
ENDBRANCH  19  20
ENDBRANCH  18  19
ENDBRANCH   2  18
TORSDOF 7
ENDMDL
MODEL        7
REMARK 921   NORMALIZED FREE ENERGY PREDICTED BY IDOCK:   -6.06 KCAL/MOL
REMARK 922        TOTAL FREE ENERGY PREDICTED BY IDOCK:  -10.17 KCAL/MOL
REMARK 923 INTER-LIGAND FREE ENERGY PREDICTED BY IDOCK:   -8.67 KCAL/MOL
REMARK 924 INTRA-LIGAND FREE ENERGY PREDICTED BY IDOCK:   -1.51 KCAL/MOL
REMARK 927      BINDING AFFINITY PREDICTED BY RF-SCORE:    0.00 PKD
ROOT
HETATM    1  C   UNL     1     -10.448  18.013  67.523  1.00  0.00    -0.408 C  
HETATM    2  C   UNL     1     -10.269  17.064  68.717  1.00  0.00    -0.317 C  
ENDROOT
BRANCH   2   3
HETATM    3  N   UNL     1      -9.055  16.239  68.608  1.00  0.00    -0.218 NA 
HETATM    4  H   UNL     1      -9.196  15.348  69.084  1.00  0.00     0.000 HD 
BRANCH   3   5
HETATM    5  C   UNL     1      -8.555  16.002  67.226  1.00  0.00    -0.184 C  
HETATM    6  C   UNL     1      -7.130  16.541  67.056  1.00  0.00    -0.247 C  
BRANCH   5   7
HETATM    7  C   UNL     1      -8.599  14.468  66.903  1.00  0.00    -0.179 C  
HETATM    8  H   UNL     1      -8.393  12.817  67.925  1.00  0.00     0.000 HD 
HETATM    9  O   UNL     1      -8.366  13.746  68.121  1.00  0.00    -0.147 OA 
BRANCH   7  10
HETATM   10  C   UNL     1      -9.881  13.953  66.257  1.00  0.00    -0.318 A  
HETATM   11  C   UNL     1     -10.554  14.661  65.244  1.00  0.00    -0.409 A  
HETATM   12  C   UNL     1     -12.224  12.933  65.080  1.00  0.00    -0.470 A  
HETATM   13  C   UNL     1     -11.566  12.196  66.051  1.00  0.00    -0.420 A  
HETATM   14  O   UNL     1     -13.370  12.417  64.549  1.00  0.00    -0.800 OA 
HETATM   15  C   UNL     1     -11.726  14.162  64.666  1.00  0.00    -0.427 A  
HETATM   16  C   UNL     1     -10.398  12.698  66.629  1.00  0.00    -0.249 A  
HETATM   17  H   UNL     1     -13.711  11.577  64.833  1.00  0.00     0.000 HD 
ENDBRANCH   7  10
ENDBRANCH   5   7
ENDBRANCH   3   5
ENDBRANCH   2   3
BRANCH   2  18
HETATM   18  C   UNL     1     -11.515  16.156  68.773  1.00  0.00    -0.340 C  
BRANCH  18  19
HETATM   19  C   UNL     1     -11.321  14.813  69.485  1.00  0.00    -0.312 C  
BRANCH  19  20
HETATM   20  C   UNL     1     -11.939  14.892  70.865  1.00  0.00    -0.374 A  
HETATM   21  C   UNL     1     -11.671  15.986  71.700  1.00  0.00    -0.583 A  
HETATM   22  C   UNL     1     -12.143  16.005  73.013  1.00  0.00    -0.628 A  
HETATM   23  C   UNL     1     -13.171  13.848  72.679  1.00  0.00    -0.592 A  
HETATM   24  C   UNL     1     -12.700  13.826  71.365  1.00  0.00    -0.450 A  
HETATM   25  C   UNL     1     -12.888  14.934  73.504  1.00  0.00    -0.594 A  
ENDBRANCH  19  20
ENDBRANCH  18  19
ENDBRANCH   2  18
TORSDOF 7
ENDMDL
MODEL        8
REMARK 921   NORMALIZED FREE ENERGY PREDICTED BY IDOCK:   -6.06 KCAL/MOL
REMARK 922        TOTAL FREE ENERGY PREDICTED BY IDOCK:  -10.17 KCAL/MOL
REMARK 923 INTER-LIGAND FREE ENERGY PREDICTED BY IDOCK:   -8.44 KCAL/MOL
REMARK 924 INTRA-LIGAND FREE ENERGY PREDICTED BY IDOCK:   -1.73 KCAL/MOL
REMARK 927      BINDING AFFINITY PREDICTED BY RF-SCORE:    0.00 PKD
ROOT
HETATM    1  C   UNL     1      -9.812  11.391  66.780  1.00  0.00    -0.232 C  
HETATM    2  C   UNL     1     -11.250  11.545  67.297  1.00  0.00    -0.301 C  
ENDROOT
BRANCH   2   3
HETATM    3  N   UNL     1     -12.161  12.096  66.281  1.00  0.00    -0.589 NA 
HETATM    4  H   UNL     1     -12.762  12.805  66.701  1.00  0.00     0.000 HD 
BRANCH   3   5
HETATM    5  C   UNL     1     -11.512  12.643  65.058  1.00  0.00    -0.329 C  
HETATM    6  C   UNL     1     -12.068  11.976  63.795  1.00  0.00    -0.599 C  
BRANCH   5   7
HETATM    7  C   UNL     1     -11.726  14.196  64.993  1.00  0.00    -0.376 C  
HETATM    8  H   UNL     1     -13.247  15.406  65.180  1.00  0.00     0.000 HD 
HETATM    9  O   UNL     1     -13.117  14.466  65.219  1.00  0.00    -0.629 OA 
BRANCH   7  10
HETATM   10  C   UNL     1     -10.893  15.030  65.960  1.00  0.00    -0.334 A  
HETATM   11  C   UNL     1     -11.474  15.821  66.970  1.00  0.00     0.125 A  
HETATM   12  C   UNL     1      -9.300  16.522  67.735  1.00  0.00    -0.210 A  
HETATM   13  C   UNL     1      -8.698  15.728  66.774  1.00  0.00    -0.305 A  
HETATM   14  O   UNL     1      -8.495  17.249  68.563  1.00  0.00    -0.252 OA 
HETATM   15  C   UNL     1     -10.684  16.573  67.846  1.00  0.00    -0.337 A  
HETATM   16  C   UNL     1      -9.489  14.980  65.898  1.00  0.00    -0.313 A  
HETATM   17  H   UNL     1      -7.549  17.215  68.487  1.00  0.00     0.000 HD 
ENDBRANCH   7  10
ENDBRANCH   5   7
ENDBRANCH   3   5
ENDBRANCH   2   3
BRANCH   2  18
HETATM   18  C   UNL     1     -11.200  12.483  68.520  1.00  0.00    -0.322 C  
BRANCH  18  19
HETATM   19  C   UNL     1     -11.723  11.885  69.831  1.00  0.00    -0.383 C  
BRANCH  19  20
HETATM   20  C   UNL     1     -12.386  12.978  70.642  1.00  0.00    -0.391 A  
HETATM   21  C   UNL     1     -13.173  12.655  71.757  1.00  0.00    -0.457 A  
HETATM   22  C   UNL     1     -13.880  13.649  72.435  1.00  0.00    -0.691 A  
HETATM   23  C   UNL     1     -13.017  15.308  70.909  1.00  0.00    -0.522 A  
HETATM   24  C   UNL     1     -12.309  14.315  70.229  1.00  0.00    -0.418 A  
HETATM   25  C   UNL     1     -13.807  14.974  72.008  1.00  0.00    -0.578 A  
ENDBRANCH  19  20
ENDBRANCH  18  19
ENDBRANCH   2  18
TORSDOF 7
ENDMDL
MODEL        9
REMARK 921   NORMALIZED FREE ENERGY PREDICTED BY IDOCK:   -6.04 KCAL/MOL
REMARK 922        TOTAL FREE ENERGY PREDICTED BY IDOCK:  -10.15 KCAL/MOL
REMARK 923 INTER-LIGAND FREE ENERGY PREDICTED BY IDOCK:   -8.66 KCAL/MOL
REMARK 924 INTRA-LIGAND FREE ENERGY PREDICTED BY IDOCK:   -1.49 KCAL/MOL
REMARK 927      BINDING AFFINITY PREDICTED BY RF-SCORE:    0.00 PKD
ROOT
HETATM    1  C   UNL     1      -8.608  14.050  67.350  1.00  0.00    -0.211 C  
HETATM    2  C   UNL     1      -9.248  13.694  68.700  1.00  0.00    -0.045 C  
ENDROOT
BRANCH   2   3
HETATM    3  N   UNL     1      -9.547  12.259  68.824  1.00  0.00    -0.406 NA 
HETATM    4  H   UNL     1     -10.554  12.120  68.912  1.00  0.00     0.000 HD 
BRANCH   3   5
HETATM    5  C   UNL     1      -9.009  11.390  67.742  1.00  0.00    -0.147 C  
HETATM    6  C   UNL     1      -8.099  10.298  68.314  1.00  0.00    -0.107 C  
BRANCH   5   7
HETATM    7  C   UNL     1     -10.195  10.747  66.940  1.00  0.00    -0.227 C  
HETATM    8  H   UNL     1     -11.910   9.930  67.395  1.00  0.00     0.000 HD 
HETATM    9  O   UNL     1     -11.192  10.320  67.880  1.00  0.00    -0.301 OA 
BRANCH   7  10
HETATM   10  C   UNL     1     -10.852  11.630  65.885  1.00  0.00    -0.339 A  
HETATM   11  C   UNL     1     -12.029  12.359  66.136  1.00  0.00    -0.397 A  
HETATM   12  C   UNL     1     -11.996  13.270  63.906  1.00  0.00    -0.483 A  
HETATM   13  C   UNL     1     -10.818  12.592  63.639  1.00  0.00    -0.486 A  
HETATM   14  O   UNL     1     -12.533  14.038  62.914  1.00  0.00    -1.028 OA 
HETATM   15  C   UNL     1     -12.606  13.166  65.149  1.00  0.00    -0.525 A  
HETATM   16  C   UNL     1     -10.245  11.784  64.625  1.00  0.00    -0.326 A  
HETATM   17  H   UNL     1     -12.116  14.108  62.063  1.00  0.00     0.000 HD 
ENDBRANCH   7  10
ENDBRANCH   5   7
ENDBRANCH   3   5
ENDBRANCH   2   3
BRANCH   2  18
HETATM   18  C   UNL     1     -10.549  14.514  68.822  1.00  0.00    -0.248 C  
BRANCH  18  19
HETATM   19  C   UNL     1     -11.734  13.778  69.457  1.00  0.00    -0.380 C  
BRANCH  19  20
HETATM   20  C   UNL     1     -12.184  14.536  70.687  1.00  0.00    -0.401 A  
HETATM   21  C   UNL     1     -11.531  15.716  71.071  1.00  0.00    -0.439 A  
HETATM   22  C   UNL     1     -11.866  16.353  72.267  1.00  0.00    -0.531 A  
HETATM   23  C   UNL     1     -13.520  14.653  72.712  1.00  0.00    -0.570 A  
HETATM   24  C   UNL     1     -13.187  14.015  71.516  1.00  0.00    -0.431 A  
HETATM   25  C   UNL     1     -12.855  15.819  73.090  1.00  0.00    -0.631 A  
ENDBRANCH  19  20
ENDBRANCH  18  19
ENDBRANCH   2  18
TORSDOF 7
ENDMDL
MODEL       10
REMARK 921   NORMALIZED FREE ENERGY PREDICTED BY IDOCK:   -6.01 KCAL/MOL
REMARK 922        TOTAL FREE ENERGY PREDICTED BY IDOCK:  -10.10 KCAL/MOL
REMARK 923 INTER-LIGAND FREE ENERGY PREDICTED BY IDOCK:   -8.62 KCAL/MOL
REMARK 924 INTRA-LIGAND FREE ENERGY PREDICTED BY IDOCK:   -1.49 KCAL/MOL
REMARK 927      BINDING AFFINITY PREDICTED BY RF-SCORE:    0.00 PKD
ROOT
HETATM    1  C   UNL     1      -8.596  14.050  67.188  1.00  0.00    -0.220 C  
HETATM    2  C   UNL     1      -9.353  14.181  68.518  1.00  0.00    -0.191 C  
ENDROOT
BRANCH   2   3
HETATM    3  N   UNL     1      -9.973  12.915  68.943  1.00  0.00    -0.427 NA 
HETATM    4  H   UNL     1     -10.985  13.028  69.006  1.00  0.00     0.000 HD 
BRANCH   3   5
HETATM    5  C   UNL     1      -9.645  11.724  68.113  1.00  0.00    -0.193 C  
HETATM    6  C   UNL     1      -9.027  10.611  68.967  1.00  0.00    -0.165 C  
BRANCH   5   7
HETATM    7  C   UNL     1     -10.942  11.204  67.398  1.00  0.00    -0.290 C  
HETATM    8  H   UNL     1     -12.821  10.997  67.887  1.00  0.00     0.000 HD 
HETATM    9  O   UNL     1     -12.036  11.311  68.320  1.00  0.00    -0.582 OA 
BRANCH   7  10
HETATM   10  C   UNL     1     -11.318  11.903  66.096  1.00  0.00    -0.383 A  
HETATM   11  C   UNL     1     -10.839  11.476  64.843  1.00  0.00    -0.345 A  
HETATM   12  C   UNL     1     -12.074  13.216  63.725  1.00  0.00    -0.495 A  
HETATM   13  C   UNL     1     -12.590  13.639  64.939  1.00  0.00    -0.380 A  
HETATM   14  O   UNL     1     -12.447  13.891  62.599  1.00  0.00    -0.711 OA 
HETATM   15  C   UNL     1     -11.204  12.135  63.665  1.00  0.00    -0.540 A  
HETATM   16  C   UNL     1     -12.221  12.982  66.116  1.00  0.00    -0.428 A  
HETATM   17  H   UNL     1     -13.042  14.630  62.641  1.00  0.00     0.000 HD 
ENDBRANCH   7  10
ENDBRANCH   5   7
ENDBRANCH   3   5
ENDBRANCH   2   3
BRANCH   2  18
HETATM   18  C   UNL     1     -10.441  15.257  68.323  1.00  0.00    -0.244 C  
BRANCH  18  19
HETATM   19  C   UNL     1     -10.496  15.893  66.929  1.00  0.00    -0.309 C  
BRANCH  19  20
HETATM   20  C   UNL     1     -10.421  17.399  67.071  1.00  0.00    -0.284 A  
HETATM   21  C   UNL     1     -10.530  18.223  65.941  1.00  0.00    -0.324 A  
HETATM   22  C   UNL     1     -10.344  19.602  66.052  1.00  0.00    -0.620 A  
HETATM   23  C   UNL     1      -9.949  19.362  68.421  1.00  0.00    -0.527 A  
HETATM   24  C   UNL     1     -10.135  17.982  68.313  1.00  0.00    -0.390 A  
HETATM   25  C   UNL     1     -10.048  20.170  67.289  1.00  0.00    -0.572 A  
ENDBRANCH  19  20
ENDBRANCH  18  19
ENDBRANCH   2  18
TORSDOF 7
ENDMDL
MODEL       11
REMARK 921   NORMALIZED FREE ENERGY PREDICTED BY IDOCK:   -6.01 KCAL/MOL
REMARK 922        TOTAL FREE ENERGY PREDICTED BY IDOCK:  -10.10 KCAL/MOL
REMARK 923 INTER-LIGAND FREE ENERGY PREDICTED BY IDOCK:   -9.13 KCAL/MOL
REMARK 924 INTRA-LIGAND FREE ENERGY PREDICTED BY IDOCK:   -0.97 KCAL/MOL
REMARK 927      BINDING AFFINITY PREDICTED BY RF-SCORE:    0.00 PKD
ROOT
HETATM    1  C   UNL     1     -12.410  14.391  64.584  1.00  0.00    -0.435 C  
HETATM    2  C   UNL     1     -11.304  14.575  65.634  1.00  0.00    -0.336 C  
ENDROOT
BRANCH   2   3
HETATM    3  N   UNL     1     -11.838  14.762  66.992  1.00  0.00    -0.330 NA 
HETATM    4  H   UNL     1     -12.708  15.294  66.953  1.00  0.00     0.000 HD 
BRANCH   3   5
HETATM    5  C   UNL     1     -12.039  13.519  67.785  1.00  0.00    -0.280 C  
HETATM    6  C   UNL     1     -11.652  12.278  66.973  1.00  0.00    -0.418 C  
BRANCH   5   7
HETATM    7  C   UNL     1     -11.192  13.591  69.105  1.00  0.00    -0.260 C  
HETATM    8  H   UNL     1      -9.429  14.268  69.600  1.00  0.00     0.000 HD 
HETATM    9  O   UNL     1      -9.942  14.224  68.801  1.00  0.00    -0.231 OA 
BRANCH   7  10
HETATM   10  C   UNL     1     -11.842  14.311  70.282  1.00  0.00    -0.377 A  
HETATM   11  C   UNL     1     -11.292  15.473  70.855  1.00  0.00    -0.406 A  
HETATM   12  C   UNL     1     -13.107  15.613  72.431  1.00  0.00    -0.460 A  
HETATM   13  C   UNL     1     -13.692  14.491  71.867  1.00  0.00    -0.516 A  
HETATM   14  O   UNL     1     -13.738  16.204  73.487  1.00  0.00    -0.875 OA 
HETATM   15  C   UNL     1     -11.913  16.115  71.931  1.00  0.00    -0.583 A  
HETATM   16  C   UNL     1     -13.069  13.850  70.794  1.00  0.00    -0.204 A  
HETATM   17  H   UNL     1     -14.555  15.860  73.829  1.00  0.00     0.000 HD 
ENDBRANCH   7  10
ENDBRANCH   5   7
ENDBRANCH   3   5
ENDBRANCH   2   3
BRANCH   2  18
HETATM   18  C   UNL     1     -10.480  15.812  65.220  1.00  0.00    -0.427 C  
BRANCH  18  19
HETATM   19  C   UNL     1      -9.317  16.171  66.152  1.00  0.00    -0.372 C  
BRANCH  19  20
HETATM   20  C   UNL     1      -9.588  17.521  66.782  1.00  0.00    -0.286 A  
HETATM   21  C   UNL     1      -9.221  17.768  68.113  1.00  0.00    -0.277 A  
HETATM   22  C   UNL     1      -9.574  18.968  68.733  1.00  0.00    -0.451 A  
HETATM   23  C   UNL     1     -10.655  19.701  66.703  1.00  0.00    -0.599 A  
HETATM   24  C   UNL     1     -10.302  18.502  66.081  1.00  0.00    -0.457 A  
HETATM   25  C   UNL     1     -10.295  19.931  68.031  1.00  0.00    -0.547 A  
ENDBRANCH  19  20
ENDBRANCH  18  19
ENDBRANCH   2  18
TORSDOF 7
ENDMDL
MODEL       12
REMARK 921   NORMALIZED FREE ENERGY PREDICTED BY IDOCK:   -5.93 KCAL/MOL
REMARK 922        TOTAL FREE ENERGY PREDICTED BY IDOCK:   -9.99 KCAL/MOL
REMARK 923 INTER-LIGAND FREE ENERGY PREDICTED BY IDOCK:   -8.34 KCAL/MOL
REMARK 924 INTRA-LIGAND FREE ENERGY PREDICTED BY IDOCK:   -1.65 KCAL/MOL
REMARK 927      BINDING AFFINITY PREDICTED BY RF-SCORE:    0.00 PKD
ROOT
HETATM    1  C   UNL     1      -9.329  11.656  65.778  1.00  0.00    -0.220 C  
HETATM    2  C   UNL     1     -10.632  11.177  66.435  1.00  0.00    -0.261 C  
ENDROOT
BRANCH   2   3
HETATM    3  N   UNL     1     -11.826  11.805  65.848  1.00  0.00    -0.369 NA 
HETATM    4  H   UNL     1     -12.298  12.377  66.549  1.00  0.00     0.000 HD 
BRANCH   3   5
HETATM    5  C   UNL     1     -11.596  12.604  64.613  1.00  0.00    -0.342 C  
HETATM    6  C   UNL     1     -12.358  12.010  63.423  1.00  0.00    -0.635 C  
BRANCH   5   7
HETATM    7  C   UNL     1     -12.036  14.091  64.855  1.00  0.00    -0.420 C  
HETATM    8  H   UNL     1     -13.661  14.987  65.462  1.00  0.00     0.000 HD 
HETATM    9  O   UNL     1     -13.395  14.087  65.316  1.00  0.00    -0.741 OA 
BRANCH   7  10
HETATM   10  C   UNL     1     -11.182  14.895  65.828  1.00  0.00    -0.334 A  
HETATM   11  C   UNL     1     -11.546  15.085  67.174  1.00  0.00    -0.271 A  
HETATM   12  C   UNL     1      -9.545  16.363  67.584  1.00  0.00    -0.227 A  
HETATM   13  C   UNL     1      -9.142  16.165  66.273  1.00  0.00    -0.373 A  
HETATM   14  O   UNL     1      -8.736  17.099  68.400  1.00  0.00    -0.230 OA 
HETATM   15  C   UNL     1     -10.739  15.825  68.046  1.00  0.00    -0.296 A  
HETATM   16  C   UNL     1      -9.951  15.429  65.404  1.00  0.00    -0.356 A  
HETATM   17  H   UNL     1      -7.919  17.468  68.083  1.00  0.00     0.000 HD 
ENDBRANCH   7  10
ENDBRANCH   5   7
ENDBRANCH   3   5
ENDBRANCH   2   3
BRANCH   2  18
HETATM   18  C   UNL     1     -10.543  11.522  67.936  1.00  0.00    -0.224 C  
BRANCH  18  19
HETATM   19  C   UNL     1     -11.250  10.543  68.880  1.00  0.00    -0.323 C  
BRANCH  19  20
HETATM   20  C   UNL     1     -11.993  11.328  69.940  1.00  0.00    -0.440 A  
HETATM   21  C   UNL     1     -11.956  12.730  69.939  1.00  0.00    -0.368 A  
HETATM   22  C   UNL     1     -12.541  13.454  70.979  1.00  0.00    -0.425 A  
HETATM   23  C   UNL     1     -13.222  11.392  72.033  1.00  0.00    -0.432 A  
HETATM   24  C   UNL     1     -12.638  10.667  70.993  1.00  0.00    -0.516 A  
HETATM   25  C   UNL     1     -13.168  12.785  72.029  1.00  0.00    -0.538 A  
ENDBRANCH  19  20
ENDBRANCH  18  19
ENDBRANCH   2  18
TORSDOF 7
ENDMDL
MODEL       13
REMARK 921   NORMALIZED FREE ENERGY PREDICTED BY IDOCK:   -5.92 KCAL/MOL
REMARK 922        TOTAL FREE ENERGY PREDICTED BY IDOCK:   -9.97 KCAL/MOL
REMARK 923 INTER-LIGAND FREE ENERGY PREDICTED BY IDOCK:   -9.30 KCAL/MOL
REMARK 924 INTRA-LIGAND FREE ENERGY PREDICTED BY IDOCK:   -0.68 KCAL/MOL
REMARK 927      BINDING AFFINITY PREDICTED BY RF-SCORE:    0.00 PKD
ROOT
HETATM    1  C   UNL     1     -13.195  15.376  71.207  1.00  0.00    -0.585 C  
HETATM    2  C   UNL     1     -12.234  14.385  70.533  1.00  0.00    -0.341 C  
ENDROOT
BRANCH   2   3
HETATM    3  N   UNL     1     -12.272  14.470  69.064  1.00  0.00    -0.553 NA 
HETATM    4  H   UNL     1     -13.102  14.983  68.767  1.00  0.00     0.000 HD 
BRANCH   3   5
HETATM    5  C   UNL     1     -11.061  15.044  68.417  1.00  0.00    -0.278 C  
HETATM    6  C   UNL     1      -9.913  14.028  68.397  1.00  0.00    -0.236 C  
BRANCH   5   7
HETATM    7  C   UNL     1     -11.408  15.503  66.957  1.00  0.00    -0.106 C  
HETATM    8  H   UNL     1     -10.649  16.758  65.669  1.00  0.00     0.000 HD 
HETATM    9  O   UNL     1     -10.439  16.480  66.553  1.00  0.00    -0.301 OA 
BRANCH   7  10
HETATM   10  C   UNL     1     -11.474  14.402  65.904  1.00  0.00    -0.341 A  
HETATM   11  C   UNL     1     -10.344  13.981  65.178  1.00  0.00    -0.422 A  
HETATM   12  C   UNL     1     -11.654  12.341  63.997  1.00  0.00    -0.417 A  
HETATM   13  C   UNL     1     -12.778  12.708  64.720  1.00  0.00    -0.460 A  
HETATM   14  O   UNL     1     -11.786  11.353  63.065  1.00  0.00    -0.887 OA 
HETATM   15  C   UNL     1     -10.434  12.965  64.221  1.00  0.00    -0.430 A  
HETATM   16  C   UNL     1     -12.686  13.726  65.673  1.00  0.00    -0.523 A  
HETATM   17  H   UNL     1     -12.621  10.926  62.912  1.00  0.00     0.000 HD 
ENDBRANCH   7  10
ENDBRANCH   5   7
ENDBRANCH   3   5
ENDBRANCH   2   3
BRANCH   2  18
HETATM   18  C   UNL     1     -12.642  12.969  70.987  1.00  0.00    -0.386 C  
BRANCH  18  19
HETATM   19  C   UNL     1     -12.266  11.835  70.027  1.00  0.00    -0.317 C  
BRANCH  19  20
HETATM   20  C   UNL     1     -12.139  10.546  70.811  1.00  0.00    -0.470 A  
HETATM   21  C   UNL     1     -13.195  10.102  71.621  1.00  0.00    -0.518 A  
HETATM   22  C   UNL     1     -13.038   8.979  72.434  1.00  0.00    -0.487 A  
HETATM   23  C   UNL     1     -10.776   8.714  71.636  1.00  0.00    -0.374 A  
HETATM   24  C   UNL     1     -10.931   9.836  70.821  1.00  0.00    -0.406 A  
HETATM   25  C   UNL     1     -11.827   8.289  72.447  1.00  0.00    -0.461 A  
ENDBRANCH  19  20
ENDBRANCH  18  19
ENDBRANCH   2  18
TORSDOF 7
ENDMDL
MODEL       14
REMARK 921   NORMALIZED FREE ENERGY PREDICTED BY IDOCK:   -5.92 KCAL/MOL
REMARK 922        TOTAL FREE ENERGY PREDICTED BY IDOCK:   -9.97 KCAL/MOL
REMARK 923 INTER-LIGAND FREE ENERGY PREDICTED BY IDOCK:   -9.02 KCAL/MOL
REMARK 924 INTRA-LIGAND FREE ENERGY PREDICTED BY IDOCK:   -0.94 KCAL/MOL
REMARK 927      BINDING AFFINITY PREDICTED BY RF-SCORE:    0.00 PKD
ROOT
HETATM    1  C   UNL     1     -11.485  15.470  70.419  1.00  0.00    -0.364 C  
HETATM    2  C   UNL     1     -11.537  14.299  69.426  1.00  0.00    -0.306 C  
ENDROOT
BRANCH   2   3
HETATM    3  N   UNL     1     -12.404  14.576  68.270  1.00  0.00    -0.595 NA 
HETATM    4  H   UNL     1     -12.859  15.482  68.385  1.00  0.00     0.000 HD 
BRANCH   3   5
HETATM    5  C   UNL     1     -11.748  14.504  66.936  1.00  0.00    -0.382 C  
HETATM    6  C   UNL     1     -10.245  14.236  67.075  1.00  0.00    -0.260 C  
BRANCH   5   7
HETATM    7  C   UNL     1     -12.424  13.380  66.074  1.00  0.00    -0.369 C  
HETATM    8  H   UNL     1     -13.684  13.329  64.583  1.00  0.00     0.000 HD 
HETATM    9  O   UNL     1     -13.275  14.009  65.105  1.00  0.00    -0.768 OA 
BRANCH   7  10
HETATM   10  C   UNL     1     -11.478  12.421  65.358  1.00  0.00    -0.402 A  
HETATM   11  C   UNL     1     -10.994  11.246  65.962  1.00  0.00    -0.237 A  
HETATM   12  C   UNL     1      -9.762  10.676  63.972  1.00  0.00    -0.315 A  
HETATM   13  C   UNL     1     -10.249  11.807  63.338  1.00  0.00    -0.482 A  
HETATM   14  O   UNL     1      -8.914   9.865  63.275  1.00  0.00    -0.223 OA 
HETATM   15  C   UNL     1     -10.131  10.383  65.278  1.00  0.00    -0.370 A  
HETATM   16  C   UNL     1     -11.108  12.670  64.023  1.00  0.00    -0.453 A  
HETATM   17  H   UNL     1      -8.661  10.065  62.382  1.00  0.00     0.000 HD 
ENDBRANCH   7  10
ENDBRANCH   5   7
ENDBRANCH   3   5
ENDBRANCH   2   3
BRANCH   2  18
HETATM   18  C   UNL     1     -12.063  13.069  70.193  1.00  0.00    -0.377 C  
BRANCH  18  19
HETATM   19  C   UNL     1     -11.750  11.711  69.556  1.00  0.00    -0.410 C  
BRANCH  19  20
HETATM   20  C   UNL     1     -11.906  10.627  70.601  1.00  0.00    -0.463 A  
HETATM   21  C   UNL     1     -10.874   9.704  70.824  1.00  0.00    -0.400 A  
HETATM   22  C   UNL     1     -11.060   8.634  71.702  1.00  0.00    -0.375 A  
HETATM   23  C   UNL     1     -13.304   9.396  72.159  1.00  0.00    -0.545 A  
HETATM   24  C   UNL     1     -13.120  10.467  71.283  1.00  0.00    -0.494 A  
HETATM   25  C   UNL     1     -12.276   8.477  72.364  1.00  0.00    -0.432 A  
ENDBRANCH  19  20
ENDBRANCH  18  19
ENDBRANCH   2  18
TORSDOF 7
ENDMDL
MODEL       15
REMARK 921   NORMALIZED FREE ENERGY PREDICTED BY IDOCK:   -5.90 KCAL/MOL
REMARK 922        TOTAL FREE ENERGY PREDICTED BY IDOCK:   -9.95 KCAL/MOL
REMARK 923 INTER-LIGAND FREE ENERGY PREDICTED BY IDOCK:   -8.85 KCAL/MOL
REMARK 924 INTRA-LIGAND FREE ENERGY PREDICTED BY IDOCK:   -1.09 KCAL/MOL
REMARK 927      BINDING AFFINITY PREDICTED BY RF-SCORE:    0.00 PKD
ROOT
HETATM    1  C   UNL     1     -10.685  16.690  67.938  1.00  0.00    -0.344 C  
HETATM    2  C   UNL     1     -10.747  15.180  67.666  1.00  0.00    -0.285 C  
ENDROOT
BRANCH   2   3
HETATM    3  N   UNL     1     -11.908  14.799  66.847  1.00  0.00    -0.319 NA 
HETATM    4  H   UNL     1     -12.658  15.480  66.969  1.00  0.00     0.000 HD 
BRANCH   3   5
HETATM    5  C   UNL     1     -11.638  14.598  65.397  1.00  0.00    -0.345 C  
HETATM    6  C   UNL     1     -10.137  14.677  65.099  1.00  0.00    -0.359 C  
BRANCH   5   7
HETATM    7  C   UNL     1     -12.211  13.210  64.939  1.00  0.00    -0.428 C  
HETATM    8  H   UNL     1     -12.830  12.439  63.256  1.00  0.00     0.000 HD 
HETATM    9  O   UNL     1     -12.483  13.279  63.533  1.00  0.00    -0.728 OA 
BRANCH   7  10
HETATM   10  C   UNL     1     -11.333  11.995  65.218  1.00  0.00    -0.366 A  
HETATM   11  C   UNL     1     -11.196  11.440  66.504  1.00  0.00    -0.276 A  
HETATM   12  C   UNL     1      -9.723   9.731  65.661  1.00  0.00    -0.288 A  
HETATM   13  C   UNL     1      -9.864  10.233  64.378  1.00  0.00    -0.374 A  
HETATM   14  O   UNL     1      -8.915   8.646  65.841  1.00  0.00    -0.177 OA 
HETATM   15  C   UNL     1     -10.386  10.322  66.728  1.00  0.00    -0.288 A  
HETATM   16  C   UNL     1     -10.670  11.352  64.156  1.00  0.00    -0.434 A  
HETATM   17  H   UNL     1      -8.461   8.242  65.110  1.00  0.00     0.000 HD 
ENDBRANCH   7  10
ENDBRANCH   5   7
ENDBRANCH   3   5
ENDBRANCH   2   3
BRANCH   2  18
HETATM   18  C   UNL     1     -10.817  14.471  69.035  1.00  0.00    -0.265 C  
BRANCH  18  19
HETATM   19  C   UNL     1     -12.220  14.059  69.492  1.00  0.00    -0.355 C  
BRANCH  19  20
HETATM   20  C   UNL     1     -12.552  14.783  70.779  1.00  0.00    -0.412 A  
HETATM   21  C   UNL     1     -11.533  15.353  71.555  1.00  0.00    -0.478 A  
HETATM   22  C   UNL     1     -11.822  15.918  72.799  1.00  0.00    -0.583 A  
HETATM   23  C   UNL     1     -14.154  15.368  72.509  1.00  0.00    -0.593 A  
HETATM   24  C   UNL     1     -13.867  14.803  71.265  1.00  0.00    -0.460 A  
HETATM   25  C   UNL     1     -13.131  15.920  73.278  1.00  0.00    -0.694 A  
ENDBRANCH  19  20
ENDBRANCH  18  19
ENDBRANCH   2  18
TORSDOF 7
ENDMDL
MODEL       16
REMARK 921   NORMALIZED FREE ENERGY PREDICTED BY IDOCK:   -5.88 KCAL/MOL
REMARK 922        TOTAL FREE ENERGY PREDICTED BY IDOCK:   -9.92 KCAL/MOL
REMARK 923 INTER-LIGAND FREE ENERGY PREDICTED BY IDOCK:   -8.80 KCAL/MOL
REMARK 924 INTRA-LIGAND FREE ENERGY PREDICTED BY IDOCK:   -1.12 KCAL/MOL
REMARK 927      BINDING AFFINITY PREDICTED BY RF-SCORE:    0.00 PKD
ROOT
HETATM    1  C   UNL     1     -12.232  13.464  70.425  1.00  0.00    -0.415 C  
HETATM    2  C   UNL     1     -11.450  13.531  69.105  1.00  0.00    -0.295 C  
ENDROOT
BRANCH   2   3
HETATM    3  N   UNL     1     -11.871  14.655  68.254  1.00  0.00    -0.455 NA 
HETATM    4  H   UNL     1     -12.639  15.158  68.698  1.00  0.00     0.000 HD 
BRANCH   3   5
HETATM    5  C   UNL     1     -10.797  15.610  67.865  1.00  0.00    -0.306 C  
HETATM    6  C   UNL     1     -10.746  15.793  66.344  1.00  0.00    -0.277 C  
BRANCH   5   7
HETATM    7  C   UNL     1     -11.035  16.991  68.572  1.00  0.00    -0.247 C  
HETATM    8  H   UNL     1     -11.025  17.640  70.414  1.00  0.00     0.000 HD 
HETATM    9  O   UNL     1     -10.881  16.803  69.986  1.00  0.00    -0.282 OA 
BRANCH   7  10
HETATM   10  C   UNL     1     -10.140  18.140  68.121  1.00  0.00    -0.388 A  
HETATM   11  C   UNL     1     -10.634  19.248  67.408  1.00  0.00    -0.594 A  
HETATM   12  C   UNL     1      -8.442  20.246  67.347  1.00  0.00    -0.339 A  
HETATM   13  C   UNL     1      -7.932  19.186  68.078  1.00  0.00    -0.331 A  
HETATM   14  O   UNL     1      -7.584  21.237  66.970  1.00  0.00    -0.741 OA 
HETATM   15  C   UNL     1      -9.789  20.290  67.011  1.00  0.00    -0.607 A  
HETATM   16  C   UNL     1      -8.776  18.144  68.470  1.00  0.00    -0.309 A  
HETATM   17  H   UNL     1      -6.662  21.206  67.198  1.00  0.00     0.000 HD 
ENDBRANCH   7  10
ENDBRANCH   5   7
ENDBRANCH   3   5
ENDBRANCH   2   3
BRANCH   2  18
HETATM   18  C   UNL     1     -11.684  12.198  68.365  1.00  0.00    -0.388 C  
BRANCH  18  19
HETATM   19  C   UNL     1     -10.519  11.714  67.494  1.00  0.00    -0.228 C  
BRANCH  19  20
HETATM   20  C   UNL     1     -10.885  11.893  66.036  1.00  0.00    -0.342 A  
HETATM   21  C   UNL     1      -9.970  11.552  65.029  1.00  0.00    -0.305 A  
HETATM   22  C   UNL     1     -10.257  11.825  63.691  1.00  0.00    -0.461 A  
HETATM   23  C   UNL     1     -12.382  12.771  64.337  1.00  0.00    -0.498 A  
HETATM   24  C   UNL     1     -12.096  12.498  65.677  1.00  0.00    -0.464 A  
HETATM   25  C   UNL     1     -11.460  12.440  63.346  1.00  0.00    -0.526 A  
ENDBRANCH  19  20
ENDBRANCH  18  19
ENDBRANCH   2  18
TORSDOF 7
ENDMDL
MODEL       17
REMARK 921   NORMALIZED FREE ENERGY PREDICTED BY IDOCK:   -5.81 KCAL/MOL
REMARK 922        TOTAL FREE ENERGY PREDICTED BY IDOCK:   -9.82 KCAL/MOL
REMARK 923 INTER-LIGAND FREE ENERGY PREDICTED BY IDOCK:   -8.51 KCAL/MOL
REMARK 924 INTRA-LIGAND FREE ENERGY PREDICTED BY IDOCK:   -1.31 KCAL/MOL
REMARK 927      BINDING AFFINITY PREDICTED BY RF-SCORE:    0.00 PKD
ROOT
HETATM    1  C   UNL     1      -7.281  13.297  68.078  1.00  0.00    -0.121 C  
HETATM    2  C   UNL     1      -8.518  14.077  68.547  1.00  0.00    -0.143 C  
ENDROOT
BRANCH   2   3
HETATM    3  N   UNL     1      -9.779  13.437  68.140  1.00  0.00    -0.222 NA 
HETATM    4  H   UNL     1      -9.902  12.559  68.644  1.00  0.00     0.000 HD 
BRANCH   3   5
HETATM    5  C   UNL     1     -11.003  14.274  68.275  1.00  0.00    -0.247 C  
HETATM    6  C   UNL     1     -11.684  14.478  66.917  1.00  0.00    -0.399 C  
BRANCH   5   7
HETATM    7  C   UNL     1     -11.995  13.602  69.287  1.00  0.00    -0.336 C  
HETATM    8  H   UNL     1     -12.122  11.870  70.180  1.00  0.00     0.000 HD 
HETATM    9  O   UNL     1     -11.521  12.277  69.567  1.00  0.00    -0.272 OA 
BRANCH   7  10
HETATM   10  C   UNL     1     -12.218  14.340  70.603  1.00  0.00    -0.427 A  
HETATM   11  C   UNL     1     -11.570  15.551  70.909  1.00  0.00    -0.410 A  
HETATM   12  C   UNL     1     -12.695  15.671  73.035  1.00  0.00    -0.471 A  
HETATM   13  C   UNL     1     -13.375  14.499  72.749  1.00  0.00    -0.600 A  
HETATM   14  O   UNL     1     -12.936  16.277  74.234  1.00  0.00    -0.919 OA 
HETATM   15  C   UNL     1     -11.797  16.209  72.122  1.00  0.00    -0.626 A  
HETATM   16  C   UNL     1     -13.144  13.842  71.538  1.00  0.00    -0.435 A  
HETATM   17  H   UNL     1     -13.551  15.909  74.858  1.00  0.00     0.000 HD 
ENDBRANCH   7  10
ENDBRANCH   5   7
ENDBRANCH   3   5
ENDBRANCH   2   3
BRANCH   2  18
HETATM   18  C   UNL     1      -8.427  15.491  67.936  1.00  0.00    -0.146 C  
BRANCH  18  19
HETATM   19  C   UNL     1      -8.456  16.647  68.943  1.00  0.00    -0.233 C  
BRANCH  19  20
HETATM   20  C   UNL     1      -8.976  17.890  68.252  1.00  0.00    -0.277 A  
HETATM   21  C   UNL     1     -10.268  17.909  67.707  1.00  0.00    -0.372 A  
HETATM   22  C   UNL     1     -10.707  19.009  66.968  1.00  0.00    -0.516 A  
HETATM   23  C   UNL     1      -8.580  20.096  67.317  1.00  0.00    -0.414 A  
HETATM   24  C   UNL     1      -8.139  18.996  68.056  1.00  0.00    -0.328 A  
HETATM   25  C   UNL     1      -9.862  20.099  66.768  1.00  0.00    -0.591 A  
ENDBRANCH  19  20
ENDBRANCH  18  19
ENDBRANCH   2  18
TORSDOF 7
ENDMDL
MODEL       18
REMARK 921   NORMALIZED FREE ENERGY PREDICTED BY IDOCK:   -5.80 KCAL/MOL
REMARK 922        TOTAL FREE ENERGY PREDICTED BY IDOCK:   -9.80 KCAL/MOL
REMARK 923 INTER-LIGAND FREE ENERGY PREDICTED BY IDOCK:   -8.37 KCAL/MOL
REMARK 924 INTRA-LIGAND FREE ENERGY PREDICTED BY IDOCK:   -1.43 KCAL/MOL
REMARK 927      BINDING AFFINITY PREDICTED BY RF-SCORE:    0.00 PKD
ROOT
HETATM    1  C   UNL     1     -10.593  16.563  67.325  1.00  0.00    -0.285 C  
HETATM    2  C   UNL     1      -9.998  15.179  67.625  1.00  0.00    -0.229 C  
ENDROOT
BRANCH   2   3
HETATM    3  N   UNL     1     -10.347  14.180  66.604  1.00  0.00    -0.273 NA 
HETATM    4  H   UNL     1      -9.605  13.483  66.532  1.00  0.00     0.000 HD 
BRANCH   3   5
HETATM    5  C   UNL     1     -11.662  13.505  66.780  1.00  0.00    -0.391 C  
HETATM    6  C   UNL     1     -12.649  13.928  65.686  1.00  0.00    -0.553 C  
BRANCH   5   7
HETATM    7  C   UNL     1     -11.465  11.948  66.763  1.00  0.00    -0.316 C  
HETATM    8  H   UNL     1     -10.147  10.713  66.020  1.00  0.00     0.000 HD 
HETATM    9  O   UNL     1     -10.267  11.656  66.030  1.00  0.00    -0.218 OA 
BRANCH   7  10
HETATM   10  C   UNL     1     -11.395  11.264  68.125  1.00  0.00    -0.372 A  
HETATM   11  C   UNL     1     -12.001  11.805  69.274  1.00  0.00    -0.354 A  
HETATM   12  C   UNL     1     -11.259   9.937  70.601  1.00  0.00    -0.344 A  
HETATM   13  C   UNL     1     -10.682   9.362  69.481  1.00  0.00    -0.238 A  
HETATM   14  O   UNL     1     -11.153   9.275  71.789  1.00  0.00    -0.364 OA 
HETATM   15  C   UNL     1     -11.924  11.152  70.509  1.00  0.00    -0.475 A  
HETATM   16  C   UNL     1     -10.756  10.017  68.249  1.00  0.00    -0.280 A  
HETATM   17  H   UNL     1     -10.698   8.443  71.853  1.00  0.00     0.000 HD 
ENDBRANCH   7  10
ENDBRANCH   5   7
ENDBRANCH   3   5
ENDBRANCH   2   3
BRANCH   2  18
HETATM   18  C   UNL     1     -10.542  14.735  68.999  1.00  0.00    -0.248 C  
BRANCH  18  19
HETATM   19  C   UNL     1     -10.570  15.823  70.079  1.00  0.00    -0.333 C  
BRANCH  19  20
HETATM   20  C   UNL     1     -11.777  15.605  70.967  1.00  0.00    -0.444 A  
HETATM   21  C   UNL     1     -13.017  15.264  70.407  1.00  0.00    -0.307 A  
HETATM   22  C   UNL     1     -14.155  15.178  71.210  1.00  0.00    -0.537 A  
HETATM   23  C   UNL     1     -12.837  15.757  73.147  1.00  0.00    -0.631 A  
HETATM   24  C   UNL     1     -11.697  15.843  72.346  1.00  0.00    -0.582 A  
HETATM   25  C   UNL     1     -14.067  15.430  72.578  1.00  0.00    -0.593 A  
ENDBRANCH  19  20
ENDBRANCH  18  19
ENDBRANCH   2  18
TORSDOF 7
ENDMDL
MODEL       19
REMARK 921   NORMALIZED FREE ENERGY PREDICTED BY IDOCK:   -5.79 KCAL/MOL
REMARK 922        TOTAL FREE ENERGY PREDICTED BY IDOCK:   -9.79 KCAL/MOL
REMARK 923 INTER-LIGAND FREE ENERGY PREDICTED BY IDOCK:   -8.86 KCAL/MOL
REMARK 924 INTRA-LIGAND FREE ENERGY PREDICTED BY IDOCK:   -0.93 KCAL/MOL
REMARK 927      BINDING AFFINITY PREDICTED BY RF-SCORE:    0.00 PKD
ROOT
HETATM    1  C   UNL     1      -7.664  10.225  69.774  1.00  0.00    -0.159 C  
HETATM    2  C   UNL     1      -9.146   9.825  69.724  1.00  0.00    -0.225 C  
ENDROOT
BRANCH   2   3
HETATM    3  N   UNL     1     -10.032  10.970  69.461  1.00  0.00    -0.435 NA 
HETATM    4  H   UNL     1      -9.641  11.816  69.876  1.00  0.00     0.000 HD 
BRANCH   3   5
HETATM    5  C   UNL     1     -10.365  11.215  68.031  1.00  0.00    -0.185 C  
HETATM    6  C   UNL     1     -10.680   9.902  67.306  1.00  0.00    -0.304 C  
BRANCH   5   7
HETATM    7  C   UNL     1     -11.584  12.198  67.932  1.00  0.00    -0.347 C  
HETATM    8  H   UNL     1     -12.549  13.359  69.171  1.00  0.00     0.000 HD 
HETATM    9  O   UNL     1     -11.810  12.764  69.231  1.00  0.00    -0.299 OA 
BRANCH   7  10
HETATM   10  C   UNL     1     -11.458  13.325  66.913  1.00  0.00    -0.376 A  
HETATM   11  C   UNL     1     -10.467  14.319  67.003  1.00  0.00    -0.271 A  
HETATM   12  C   UNL     1     -11.258  15.361  64.981  1.00  0.00    -0.387 A  
HETATM   13  C   UNL     1     -12.224  14.377  64.844  1.00  0.00    -0.440 A  
HETATM   14  O   UNL     1     -11.206  16.344  64.036  1.00  0.00    -1.333 OA 
HETATM   15  C   UNL     1     -10.373  15.339  66.050  1.00  0.00    -0.327 A  
HETATM   16  C   UNL     1     -12.318  13.361  65.799  1.00  0.00    -0.513 A  
HETATM   17  H   UNL     1     -11.812  16.359  63.305  1.00  0.00     0.000 HD 
ENDBRANCH   7  10
ENDBRANCH   5   7
ENDBRANCH   3   5
ENDBRANCH   2   3
BRANCH   2  18
HETATM   18  C   UNL     1      -9.497   9.194  71.088  1.00  0.00    -0.331 C  
BRANCH  18  19
HETATM   19  C   UNL     1     -10.263   7.868  71.023  1.00  0.00    -0.217 C  
BRANCH  19  20
HETATM   20  C   UNL     1     -11.700   8.108  71.435  1.00  0.00    -0.321 A  
HETATM   21  C   UNL     1     -12.671   7.118  71.226  1.00  0.00    -0.412 A  
HETATM   22  C   UNL     1     -14.015   7.378  71.497  1.00  0.00    -0.517 A  
HETATM   23  C   UNL     1     -13.443   9.615  72.200  1.00  0.00    -0.516 A  
HETATM   24  C   UNL     1     -12.098   9.356  71.931  1.00  0.00    -0.427 A  
HETATM   25  C   UNL     1     -14.402   8.628  71.977  1.00  0.00    -0.512 A  
ENDBRANCH  19  20
ENDBRANCH  18  19
ENDBRANCH   2  18
TORSDOF 7
ENDMDL
MODEL       20
REMARK 921   NORMALIZED FREE ENERGY PREDICTED BY IDOCK:   -5.78 KCAL/MOL
REMARK 922        TOTAL FREE ENERGY PREDICTED BY IDOCK:   -9.78 KCAL/MOL
REMARK 923 INTER-LIGAND FREE ENERGY PREDICTED BY IDOCK:   -8.11 KCAL/MOL
REMARK 924 INTRA-LIGAND FREE ENERGY PREDICTED BY IDOCK:   -1.67 KCAL/MOL
REMARK 927      BINDING AFFINITY PREDICTED BY RF-SCORE:    0.00 PKD
ROOT
HETATM    1  C   UNL     1     -14.164  15.182  71.930  1.00  0.00    -0.676 C  
HETATM    2  C   UNL     1     -12.931  14.550  71.267  1.00  0.00    -0.333 C  
ENDROOT
BRANCH   2   3
HETATM    3  N   UNL     1     -12.902  14.759  69.810  1.00  0.00    -0.572 NA 
HETATM    4  H   UNL     1     -13.845  14.946  69.467  1.00  0.00     0.000 HD 
BRANCH   3   5
HETATM    5  C   UNL     1     -11.967  15.811  69.325  1.00  0.00    -0.289 C  
HETATM    6  C   UNL     1     -10.825  16.034  70.322  1.00  0.00    -0.327 C  
BRANCH   5   7
HETATM    7  C   UNL     1     -11.395  15.404  67.922  1.00  0.00    -0.325 C  
HETATM    8  H   UNL     1      -9.903  15.978  66.801  1.00  0.00     0.000 HD 
HETATM    9  O   UNL     1     -10.250  16.224  67.650  1.00  0.00    -0.259 OA 
BRANCH   7  10
HETATM   10  C   UNL     1     -11.008  13.938  67.753  1.00  0.00    -0.271 A  
HETATM   11  C   UNL     1     -11.787  13.033  67.009  1.00  0.00    -0.437 A  
HETATM   12  C   UNL     1     -10.224  11.253  67.450  1.00  0.00    -0.188 A  
HETATM   13  C   UNL     1      -9.418  12.128  68.160  1.00  0.00    -0.205 A  
HETATM   14  O   UNL     1      -9.822   9.954  67.343  1.00  0.00    -0.166 OA 
HETATM   15  C   UNL     1     -11.405  11.694  66.866  1.00  0.00    -0.364 A  
HETATM   16  C   UNL     1      -9.804  13.464  68.303  1.00  0.00    -0.235 A  
HETATM   17  H   UNL     1      -9.015   9.652  67.742  1.00  0.00     0.000 HD 
ENDBRANCH   7  10
ENDBRANCH   5   7
ENDBRANCH   3   5
ENDBRANCH   2   3
BRANCH   2  18
HETATM   18  C   UNL     1     -12.966  13.040  71.579  1.00  0.00    -0.398 C  
BRANCH  18  19
HETATM   19  C   UNL     1     -12.356  12.131  70.506  1.00  0.00    -0.358 C  
BRANCH  19  20
HETATM   20  C   UNL     1     -12.247  10.724  71.055  1.00  0.00    -0.485 A  
HETATM   21  C   UNL     1     -13.277  10.188  71.840  1.00  0.00    -0.557 A  
HETATM   22  C   UNL     1     -13.128   8.938  72.444  1.00  0.00    -0.476 A  
HETATM   23  C   UNL     1     -10.926   8.731  71.479  1.00  0.00    -0.377 A  
HETATM   24  C   UNL     1     -11.073   9.980  70.874  1.00  0.00    -0.385 A  
HETATM   25  C   UNL     1     -11.951   8.213  72.269  1.00  0.00    -0.434 A  
ENDBRANCH  19  20
ENDBRANCH  18  19
ENDBRANCH   2  18
TORSDOF 7
ENDMDL
MODEL       21
REMARK 921   NORMALIZED FREE ENERGY PREDICTED BY IDOCK:   -5.78 KCAL/MOL
REMARK 922        TOTAL FREE ENERGY PREDICTED BY IDOCK:   -9.78 KCAL/MOL
REMARK 923 INTER-LIGAND FREE ENERGY PREDICTED BY IDOCK:   -8.86 KCAL/MOL
REMARK 924 INTRA-LIGAND FREE ENERGY PREDICTED BY IDOCK:   -0.92 KCAL/MOL
REMARK 927      BINDING AFFINITY PREDICTED BY RF-SCORE:    0.00 PKD
ROOT
HETATM    1  C   UNL     1     -11.646  12.050  66.623  1.00  0.00    -0.389 C  
HETATM    2  C   UNL     1     -11.473  12.187  68.143  1.00  0.00    -0.317 C  
ENDROOT
BRANCH   2   3
HETATM    3  N   UNL     1     -12.201  11.150  68.891  1.00  0.00    -0.638 NA 
HETATM    4  H   UNL     1     -12.234  10.288  68.348  1.00  0.00     0.000 HD 
BRANCH   3   5
HETATM    5  C   UNL     1     -11.694  10.866  70.262  1.00  0.00    -0.347 C  
HETATM    6  C   UNL     1     -12.798  10.274  71.145  1.00  0.00    -0.504 C  
BRANCH   5   7
HETATM    7  C   UNL     1     -10.474   9.883  70.183  1.00  0.00    -0.285 C  
HETATM    8  H   UNL     1      -9.477   8.786  71.454  1.00  0.00     0.000 HD 
HETATM    9  O   UNL     1     -10.216   9.381  71.502  1.00  0.00    -0.308 OA 
BRANCH   7  10
HETATM   10  C   UNL     1     -10.618   8.708  69.222  1.00  0.00    -0.204 A  
HETATM   11  C   UNL     1     -10.329   8.815  67.849  1.00  0.00    -0.281 A  
HETATM   12  C   UNL     1     -10.872   6.494  67.505  1.00  0.00    -0.352 A  
HETATM   13  C   UNL     1     -11.131   6.347  68.858  1.00  0.00    -0.420 A  
HETATM   14  O   UNL     1     -11.028   5.403  66.700  1.00  0.00    -0.498 OA 
HETATM   15  C   UNL     1     -10.466   7.718  66.991  1.00  0.00    -0.419 A  
HETATM   16  C   UNL     1     -10.997   7.445  69.712  1.00  0.00    -0.215 A  
HETATM   17  H   UNL     1     -11.306   4.565  67.052  1.00  0.00     0.000 HD 
ENDBRANCH   7  10
ENDBRANCH   5   7
ENDBRANCH   3   5
ENDBRANCH   2   3
BRANCH   2  18
HETATM   18  C   UNL     1     -11.996  13.583  68.539  1.00  0.00    -0.379 C  
BRANCH  18  19
HETATM   19  C   UNL     1     -11.116  14.363  69.523  1.00  0.00    -0.267 C  
BRANCH  19  20
HETATM   20  C   UNL     1     -11.970  14.846  70.675  1.00  0.00    -0.363 A  
HETATM   21  C   UNL     1     -11.485  15.823  71.556  1.00  0.00    -0.504 A  
HETATM   22  C   UNL     1     -12.221  16.186  72.685  1.00  0.00    -0.625 A  
HETATM   23  C   UNL     1     -13.945  14.613  72.069  1.00  0.00    -0.581 A  
HETATM   24  C   UNL     1     -13.211  14.250  70.939  1.00  0.00    -0.320 A  
HETATM   25  C   UNL     1     -13.448  15.577  72.945  1.00  0.00    -0.641 A  
ENDBRANCH  19  20
ENDBRANCH  18  19
ENDBRANCH   2  18
TORSDOF 7
ENDMDL
MODEL       22
REMARK 921   NORMALIZED FREE ENERGY PREDICTED BY IDOCK:   -5.78 KCAL/MOL
REMARK 922        TOTAL FREE ENERGY PREDICTED BY IDOCK:   -9.77 KCAL/MOL
REMARK 923 INTER-LIGAND FREE ENERGY PREDICTED BY IDOCK:   -8.78 KCAL/MOL
REMARK 924 INTRA-LIGAND FREE ENERGY PREDICTED BY IDOCK:   -0.99 KCAL/MOL
REMARK 927      BINDING AFFINITY PREDICTED BY RF-SCORE:    0.00 PKD
ROOT
HETATM    1  C   UNL     1     -12.135  14.815  64.442  1.00  0.00    -0.457 C  
HETATM    2  C   UNL     1     -11.194  14.418  65.589  1.00  0.00    -0.323 C  
ENDROOT
BRANCH   2   3
HETATM    3  N   UNL     1     -11.902  14.241  66.867  1.00  0.00    -0.418 NA 
HETATM    4  H   UNL     1     -12.873  14.538  66.770  1.00  0.00     0.000 HD 
BRANCH   3   5
HETATM    5  C   UNL     1     -11.847  12.874  67.453  1.00  0.00    -0.360 C  
HETATM    6  C   UNL     1     -11.036  11.925  66.563  1.00  0.00    -0.357 C  
BRANCH   5   7
HETATM    7  C   UNL     1     -11.221  12.940  68.891  1.00  0.00    -0.279 C  
HETATM    8  H   UNL     1     -10.855  14.348  70.194  1.00  0.00     0.000 HD 
HETATM    9  O   UNL     1     -11.234  14.308  69.323  1.00  0.00    -0.255 OA 
BRANCH   7  10
HETATM   10  C   UNL     1     -11.889  12.075  69.955  1.00  0.00    -0.392 A  
HETATM   11  C   UNL     1     -12.763  12.606  70.921  1.00  0.00    -0.274 A  
HETATM   12  C   UNL     1     -13.116  10.422  71.872  1.00  0.00    -0.458 A  
HETATM   13  C   UNL     1     -12.287   9.863  70.913  1.00  0.00    -0.403 A  
HETATM   14  O   UNL     1     -13.675   9.591  72.799  1.00  0.00    -0.716 OA 
HETATM   15  C   UNL     1     -13.365  11.788  71.883  1.00  0.00    -0.401 A  
HETATM   16  C   UNL     1     -11.684  10.683  69.956  1.00  0.00    -0.405 A  
HETATM   17  H   UNL     1     -13.504   8.656  72.792  1.00  0.00     0.000 HD 
ENDBRANCH   7  10
ENDBRANCH   5   7
ENDBRANCH   3   5
ENDBRANCH   2   3
BRANCH   2  18
HETATM   18  C   UNL     1     -10.140  15.536  65.725  1.00  0.00    -0.388 C  
BRANCH  18  19
HETATM   19  C   UNL     1     -10.594  16.928  65.272  1.00  0.00    -0.137 C  
BRANCH  19  20
HETATM   20  C   UNL     1     -10.454  17.894  66.429  1.00  0.00    -0.318 A  
HETATM   21  C   UNL     1     -10.347  19.272  66.193  1.00  0.00    -0.578 A  
HETATM   22  C   UNL     1     -10.101  20.153  67.248  1.00  0.00    -0.572 A  
HETATM   23  C   UNL     1     -10.077  18.300  68.794  1.00  0.00    -0.393 A  
HETATM   24  C   UNL     1     -10.324  17.418  67.741  1.00  0.00    -0.358 A  
HETATM   25  C   UNL     1      -9.960  19.667  68.546  1.00  0.00    -0.542 A  
ENDBRANCH  19  20
ENDBRANCH  18  19
ENDBRANCH   2  18
TORSDOF 7
ENDMDL
MODEL       23
REMARK 921   NORMALIZED FREE ENERGY PREDICTED BY IDOCK:   -5.78 KCAL/MOL
REMARK 922        TOTAL FREE ENERGY PREDICTED BY IDOCK:   -9.77 KCAL/MOL
REMARK 923 INTER-LIGAND FREE ENERGY PREDICTED BY IDOCK:   -8.84 KCAL/MOL
REMARK 924 INTRA-LIGAND FREE ENERGY PREDICTED BY IDOCK:   -0.93 KCAL/MOL
REMARK 927      BINDING AFFINITY PREDICTED BY RF-SCORE:    0.00 PKD
ROOT
HETATM    1  C   UNL     1     -13.136   9.963  71.275  1.00  0.00    -0.487 C  
HETATM    2  C   UNL     1     -11.946  10.367  70.392  1.00  0.00    -0.320 C  
ENDROOT
BRANCH   2   3
HETATM    3  N   UNL     1     -12.354  10.745  69.030  1.00  0.00    -0.768 NA 
HETATM    4  H   UNL     1     -13.336  10.512  68.884  1.00  0.00     0.000 HD 
BRANCH   3   5
HETATM    5  C   UNL     1     -12.107  12.163  68.650  1.00  0.00    -0.092 C  
HETATM    6  C   UNL     1     -11.662  12.989  69.863  1.00  0.00    -0.326 C  
BRANCH   5   7
HETATM    7  C   UNL     1     -11.022  12.228  67.519  1.00  0.00    -0.254 C  
HETATM    8  H   UNL     1     -10.358  11.007  66.147  1.00  0.00     0.000 HD 
HETATM    9  O   UNL     1     -11.015  10.968  66.832  1.00  0.00    -0.276 OA 
BRANCH   7  10
HETATM   10  C   UNL     1     -11.180  13.350  66.499  1.00  0.00    -0.327 A  
HETATM   11  C   UNL     1     -10.240  14.389  66.366  1.00  0.00    -0.294 A  
HETATM   12  C   UNL     1     -11.512  15.375  64.574  1.00  0.00    -0.311 A  
HETATM   13  C   UNL     1     -12.437  14.347  64.656  1.00  0.00    -0.364 A  
HETATM   14  O   UNL     1     -11.718  16.351  63.643  1.00  0.00    -1.520 OA 
HETATM   15  C   UNL     1     -10.409  15.403  65.418  1.00  0.00    -0.422 A  
HETATM   16  C   UNL     1     -12.268  13.337  65.606  1.00  0.00    -0.514 A  
HETATM   17  H   UNL     1     -12.472  16.332  63.066  1.00  0.00     0.000 HD 
ENDBRANCH   7  10
ENDBRANCH   5   7
ENDBRANCH   3   5
ENDBRANCH   2   3
BRANCH   2  18
HETATM   18  C   UNL     1     -10.985   9.161  70.336  1.00  0.00    -0.290 C  
BRANCH  18  19
HETATM   19  C   UNL     1     -10.027   9.026  71.524  1.00  0.00    -0.391 C  
BRANCH  19  20
HETATM   20  C   UNL     1     -10.271   7.697  72.207  1.00  0.00    -0.268 A  
HETATM   21  C   UNL     1     -10.965   6.676  71.542  1.00  0.00    -0.287 A  
HETATM   22  C   UNL     1     -11.294   5.494  72.209  1.00  0.00    -0.257 A  
HETATM   23  C   UNL     1     -10.232   6.324  74.210  1.00  0.00    -0.351 A  
HETATM   24  C   UNL     1      -9.901   7.507  73.545  1.00  0.00    -0.372 A  
HETATM   25  C   UNL     1     -10.933   5.321  73.543  1.00  0.00    -0.353 A  
ENDBRANCH  19  20
ENDBRANCH  18  19
ENDBRANCH   2  18
TORSDOF 7
ENDMDL
MODEL       24
REMARK 921   NORMALIZED FREE ENERGY PREDICTED BY IDOCK:   -5.76 KCAL/MOL
REMARK 922        TOTAL FREE ENERGY PREDICTED BY IDOCK:   -9.75 KCAL/MOL
REMARK 923 INTER-LIGAND FREE ENERGY PREDICTED BY IDOCK:   -8.16 KCAL/MOL
REMARK 924 INTRA-LIGAND FREE ENERGY PREDICTED BY IDOCK:   -1.59 KCAL/MOL
REMARK 927      BINDING AFFINITY PREDICTED BY RF-SCORE:    0.00 PKD
ROOT
HETATM    1  C   UNL     1      -7.772  11.743  68.653  1.00  0.00    -0.126 C  
HETATM    2  C   UNL     1      -9.219  12.117  68.298  1.00  0.00    -0.192 C  
ENDROOT
BRANCH   2   3
HETATM    3  N   UNL     1      -9.714  13.265  69.073  1.00  0.00    -0.383 NA 
HETATM    4  H   UNL     1      -9.089  13.451  69.857  1.00  0.00     0.000 HD 
BRANCH   3   5
HETATM    5  C   UNL     1      -9.943  14.517  68.300  1.00  0.00    -0.229 C  
HETATM    6  C   UNL     1      -9.680  14.298  66.806  1.00  0.00    -0.282 C  
BRANCH   5   7
HETATM    7  C   UNL     1     -11.413  15.016  68.527  1.00  0.00    -0.317 C  
HETATM    8  H   UNL     1     -13.188  14.457  67.934  1.00  0.00     0.000 HD 
HETATM    9  O   UNL     1     -12.297  14.154  67.797  1.00  0.00    -0.256 OA 
BRANCH   7  10
HETATM   10  C   UNL     1     -11.881  15.097  69.976  1.00  0.00    -0.361 A  
HETATM   11  C   UNL     1     -11.417  16.083  70.866  1.00  0.00    -0.451 A  
HETATM   12  C   UNL     1     -12.807  15.212  72.630  1.00  0.00    -0.386 A  
HETATM   13  C   UNL     1     -13.308  14.250  71.769  1.00  0.00    -0.450 A  
HETATM   14  O   UNL     1     -13.263  15.223  73.916  1.00  0.00    -0.623 OA 
HETATM   15  C   UNL     1     -11.867  16.135  72.190  1.00  0.00    -0.626 A  
HETATM   16  C   UNL     1     -12.855  14.198  70.449  1.00  0.00    -0.256 A  
HETATM   17  H   UNL     1     -13.906  14.591  74.218  1.00  0.00     0.000 HD 
ENDBRANCH   7  10
ENDBRANCH   5   7
ENDBRANCH   3   5
ENDBRANCH   2   3
BRANCH   2  18
HETATM   18  C   UNL     1     -10.094  10.878  68.580  1.00  0.00    -0.193 C  
BRANCH  18  19
HETATM   19  C   UNL     1     -11.504  11.173  69.102  1.00  0.00    -0.366 C  
BRANCH  19  20
HETATM   20  C   UNL     1     -11.740  10.373  70.366  1.00  0.00    -0.419 A  
HETATM   21  C   UNL     1     -10.724   9.562  70.891  1.00  0.00    -0.403 A  
HETATM   22  C   UNL     1     -10.974   8.735  71.987  1.00  0.00    -0.438 A  
HETATM   23  C   UNL     1     -13.255   9.521  72.062  1.00  0.00    -0.539 A  
HETATM   24  C   UNL     1     -13.006  10.350  70.967  1.00  0.00    -0.490 A  
HETATM   25  C   UNL     1     -12.241   8.710  72.568  1.00  0.00    -0.374 A  
ENDBRANCH  19  20
ENDBRANCH  18  19
ENDBRANCH   2  18
TORSDOF 7
ENDMDL
MODEL       25
REMARK 921   NORMALIZED FREE ENERGY PREDICTED BY IDOCK:   -5.73 KCAL/MOL
REMARK 922        TOTAL FREE ENERGY PREDICTED BY IDOCK:   -9.71 KCAL/MOL
REMARK 923 INTER-LIGAND FREE ENERGY PREDICTED BY IDOCK:   -8.17 KCAL/MOL
REMARK 924 INTRA-LIGAND FREE ENERGY PREDICTED BY IDOCK:   -1.54 KCAL/MOL
REMARK 927      BINDING AFFINITY PREDICTED BY RF-SCORE:    0.00 PKD
ROOT
HETATM    1  C   UNL     1     -13.489   9.287  72.210  1.00  0.00    -0.548 C  
HETATM    2  C   UNL     1     -12.930   9.795  70.873  1.00  0.00    -0.228 C  
ENDROOT
BRANCH   2   3
HETATM    3  N   UNL     1     -11.781   9.004  70.403  1.00  0.00    -0.459 NA 
HETATM    4  H   UNL     1     -11.994   8.586  69.497  1.00  0.00     0.000 HD 
BRANCH   3   5
HETATM    5  C   UNL     1     -10.482   9.728  70.335  1.00  0.00    -0.297 C  
HETATM    6  C   UNL     1      -9.418   9.030  71.189  1.00  0.00    -0.348 C  
BRANCH   5   7
HETATM    7  C   UNL     1     -10.006   9.822  68.842  1.00  0.00    -0.176 C  
HETATM    8  H   UNL     1     -10.311   8.794  67.210  1.00  0.00     0.000 HD 
HETATM    9  O   UNL     1     -10.599   8.737  68.114  1.00  0.00    -0.212 OA 
BRANCH   7  10
HETATM   10  C   UNL     1     -10.310  11.131  68.121  1.00  0.00    -0.207 A  
HETATM   11  C   UNL     1      -9.621  12.325  68.401  1.00  0.00    -0.183 A  
HETATM   12  C   UNL     1     -10.894  13.506  66.732  1.00  0.00    -0.282 A  
HETATM   13  C   UNL     1     -11.566  12.339  66.409  1.00  0.00    -0.445 A  
HETATM   14  O   UNL     1     -11.220  14.644  66.052  1.00  0.00    -0.334 OA 
HETATM   15  C   UNL     1      -9.918  13.511  67.720  1.00  0.00    -0.232 A  
HETATM   16  C   UNL     1     -11.271  11.157  67.093  1.00  0.00    -0.320 A  
HETATM   17  H   UNL     1     -11.888  14.641  65.376  1.00  0.00     0.000 HD 
ENDBRANCH   7  10
ENDBRANCH   5   7
ENDBRANCH   3   5
ENDBRANCH   2   3
BRANCH   2  18
HETATM   18  C   UNL     1     -12.505  11.263  71.082  1.00  0.00    -0.479 C  
BRANCH  18  19
HETATM   19  C   UNL     1     -13.407  12.085  72.009  1.00  0.00    -0.447 C  
BRANCH  19  20
HETATM   20  C   UNL     1     -12.946  13.527  71.996  1.00  0.00    -0.420 A  
HETATM   21  C   UNL     1     -12.112  13.995  70.971  1.00  0.00    -0.383 A  
HETATM   22  C   UNL     1     -11.590  15.289  71.018  1.00  0.00    -0.399 A  
HETATM   23  C   UNL     1     -12.736  15.676  73.107  1.00  0.00    -0.599 A  
HETATM   24  C   UNL     1     -13.259  14.383  73.060  1.00  0.00    -0.547 A  
HETATM   25  C   UNL     1     -11.898  16.127  72.088  1.00  0.00    -0.626 A  
ENDBRANCH  19  20
ENDBRANCH  18  19
ENDBRANCH   2  18
TORSDOF 7
ENDMDL
MODEL       26
REMARK 921   NORMALIZED FREE ENERGY PREDICTED BY IDOCK:   -5.72 KCAL/MOL
REMARK 922        TOTAL FREE ENERGY PREDICTED BY IDOCK:   -9.70 KCAL/MOL
REMARK 923 INTER-LIGAND FREE ENERGY PREDICTED BY IDOCK:   -8.91 KCAL/MOL
REMARK 924 INTRA-LIGAND FREE ENERGY PREDICTED BY IDOCK:   -0.79 KCAL/MOL
REMARK 927      BINDING AFFINITY PREDICTED BY RF-SCORE:    0.00 PKD
ROOT
HETATM    1  C   UNL     1     -12.336  12.561  65.250  1.00  0.00    -0.469 C  
HETATM    2  C   UNL     1     -12.046  13.245  66.595  1.00  0.00    -0.361 C  
ENDROOT
BRANCH   2   3
HETATM    3  N   UNL     1     -10.870  14.127  66.539  1.00  0.00    -0.295 NA 
HETATM    4  H   UNL     1     -10.360  13.972  65.669  1.00  0.00     0.000 HD 
BRANCH   3   5
HETATM    5  C   UNL     1     -11.142  15.580  66.716  1.00  0.00    -0.206 C  
HETATM    6  C   UNL     1     -10.705  16.057  68.105  1.00  0.00    -0.311 C  
BRANCH   5   7
HETATM    7  C   UNL     1     -10.399  16.397  65.601  1.00  0.00    -0.350 C  
HETATM    8  H   UNL     1     -10.882  17.160  63.870  1.00  0.00     0.000 HD 
HETATM    9  O   UNL     1     -11.332  16.665  64.545  1.00  0.00    -0.877 OA 
BRANCH   7  10
HETATM   10  C   UNL     1      -9.757  17.708  66.043  1.00  0.00    -0.155 A  
HETATM   11  C   UNL     1      -8.396  17.804  66.388  1.00  0.00    -0.281 A  
HETATM   12  C   UNL     1      -8.623  20.163  66.819  1.00  0.00    -0.305 A  
HETATM   13  C   UNL     1      -9.958  20.108  66.452  1.00  0.00    -0.573 A  
HETATM   14  O   UNL     1      -8.115  21.367  67.211  1.00  0.00    -0.641 OA 
HETATM   15  C   UNL     1      -7.833  19.021  66.786  1.00  0.00    -0.263 A  
HETATM   16  C   UNL     1     -10.519  18.890  66.059  1.00  0.00    -0.507 A  
HETATM   17  H   UNL     1      -8.655  22.148  67.234  1.00  0.00     0.000 HD 
ENDBRANCH   7  10
ENDBRANCH   5   7
ENDBRANCH   3   5
ENDBRANCH   2   3
BRANCH   2  18
HETATM   18  C   UNL     1     -11.816  12.130  67.636  1.00  0.00    -0.316 C  
BRANCH  18  19
HETATM   19  C   UNL     1     -10.900  12.502  68.808  1.00  0.00    -0.276 C  
BRANCH  19  20
HETATM   20  C   UNL     1     -11.730  12.602  70.070  1.00  0.00    -0.289 A  
HETATM   21  C   UNL     1     -12.206  11.442  70.699  1.00  0.00    -0.484 A  
HETATM   22  C   UNL     1     -13.068  11.534  71.794  1.00  0.00    -0.503 A  
HETATM   23  C   UNL     1     -12.984  13.943  71.660  1.00  0.00    -0.433 A  
HETATM   24  C   UNL     1     -12.122  13.853  70.565  1.00  0.00    -0.426 A  
HETATM   25  C   UNL     1     -13.461  12.784  72.270  1.00  0.00    -0.591 A  
ENDBRANCH  19  20
ENDBRANCH  18  19
ENDBRANCH   2  18
TORSDOF 7
ENDMDL
MODEL       27
REMARK 921   NORMALIZED FREE ENERGY PREDICTED BY IDOCK:   -5.70 KCAL/MOL
REMARK 922        TOTAL FREE ENERGY PREDICTED BY IDOCK:   -9.67 KCAL/MOL
REMARK 923 INTER-LIGAND FREE ENERGY PREDICTED BY IDOCK:   -8.33 KCAL/MOL
REMARK 924 INTRA-LIGAND FREE ENERGY PREDICTED BY IDOCK:   -1.34 KCAL/MOL
REMARK 927      BINDING AFFINITY PREDICTED BY RF-SCORE:    0.00 PKD
ROOT
HETATM    1  C   UNL     1      -9.705  11.999  67.571  1.00  0.00    -0.188 C  
HETATM    2  C   UNL     1     -10.993  11.252  67.191  1.00  0.00    -0.291 C  
ENDROOT
BRANCH   2   3
HETATM    3  N   UNL     1     -11.587  11.749  65.940  1.00  0.00    -0.371 NA 
HETATM    4  H   UNL     1     -12.525  12.106  66.118  1.00  0.00     0.000 HD 
BRANCH   3   5
HETATM    5  C   UNL     1     -10.788  12.768  65.204  1.00  0.00    -0.291 C  
HETATM    6  C   UNL     1     -10.437  12.280  63.794  1.00  0.00    -0.476 C  
BRANCH   5   7
HETATM    7  C   UNL     1     -11.589  14.116  65.130  1.00  0.00    -0.344 C  
HETATM    8  H   UNL     1     -13.474  14.623  65.113  1.00  0.00     0.000 HD 
HETATM    9  O   UNL     1     -12.990  13.807  65.158  1.00  0.00    -0.738 OA 
BRANCH   7  10
HETATM   10  C   UNL     1     -11.283  15.140  66.218  1.00  0.00    -0.273 A  
HETATM   11  C   UNL     1     -11.774  15.018  67.531  1.00  0.00    -0.270 A  
HETATM   12  C   UNL     1     -10.656  17.047  68.188  1.00  0.00    -0.369 A  
HETATM   13  C   UNL     1     -10.129  17.178  66.914  1.00  0.00    -0.298 A  
HETATM   14  O   UNL     1     -10.347  18.004  69.111  1.00  0.00    -0.439 OA 
HETATM   15  C   UNL     1     -11.473  15.971  68.509  1.00  0.00    -0.357 A  
HETATM   16  C   UNL     1     -10.434  16.226  65.937  1.00  0.00    -0.359 A  
HETATM   17  H   UNL     1      -9.789  18.740  68.892  1.00  0.00     0.000 HD 
ENDBRANCH   7  10
ENDBRANCH   5   7
ENDBRANCH   3   5
ENDBRANCH   2   3
BRANCH   2  18
HETATM   18  C   UNL     1     -11.990  11.436  68.353  1.00  0.00    -0.270 C  
BRANCH  18  19
HETATM   19  C   UNL     1     -11.361  11.711  69.724  1.00  0.00    -0.276 C  
BRANCH  19  20
HETATM   20  C   UNL     1     -11.677  10.558  70.652  1.00  0.00    -0.453 A  
HETATM   21  C   UNL     1     -12.958  10.425  71.206  1.00  0.00    -0.517 A  
HETATM   22  C   UNL     1     -13.219   9.433  72.153  1.00  0.00    -0.541 A  
HETATM   23  C   UNL     1     -10.931   8.682  72.002  1.00  0.00    -0.432 A  
HETATM   24  C   UNL     1     -10.668   9.673  71.054  1.00  0.00    -0.393 A  
HETATM   25  C   UNL     1     -12.205   8.566  72.555  1.00  0.00    -0.383 A  
ENDBRANCH  19  20
ENDBRANCH  18  19
ENDBRANCH   2  18
TORSDOF 7
ENDMDL
MODEL       28
REMARK 921   NORMALIZED FREE ENERGY PREDICTED BY IDOCK:   -5.70 KCAL/MOL
REMARK 922        TOTAL FREE ENERGY PREDICTED BY IDOCK:   -9.67 KCAL/MOL
REMARK 923 INTER-LIGAND FREE ENERGY PREDICTED BY IDOCK:   -6.86 KCAL/MOL
REMARK 924 INTRA-LIGAND FREE ENERGY PREDICTED BY IDOCK:   -2.81 KCAL/MOL
REMARK 927      BINDING AFFINITY PREDICTED BY RF-SCORE:    0.00 PKD
ROOT
HETATM    1  C   UNL     1      -7.492  10.983  67.330  1.00  0.00    -0.106 C  
HETATM    2  C   UNL     1      -7.844  11.653  68.667  1.00  0.00    -0.132 C  
ENDROOT
BRANCH   2   3
HETATM    3  N   UNL     1      -9.147  11.218  69.193  1.00  0.00    -0.402 NA 
HETATM    4  H   UNL     1      -9.596  11.987  69.690  1.00  0.00     0.000 HD 
BRANCH   3   5
HETATM    5  C   UNL     1     -10.089  10.642  68.194  1.00  0.00    -0.158 C  
HETATM    6  C   UNL     1     -10.462   9.200  68.556  1.00  0.00    -0.238 C  
BRANCH   5   7
HETATM    7  C   UNL     1     -11.378  11.532  68.106  1.00  0.00    -0.298 C  
HETATM    8  H   UNL     1     -12.093  13.059  69.091  1.00  0.00     0.000 HD 
HETATM    9  O   UNL     1     -11.312  12.520  69.144  1.00  0.00    -0.257 OA 
BRANCH   7  10
HETATM   10  C   UNL     1     -11.625  12.228  66.771  1.00  0.00    -0.434 A  
HETATM   11  C   UNL     1     -11.095  11.748  65.559  1.00  0.00    -0.336 A  
HETATM   12  C   UNL     1     -12.144  13.538  64.337  1.00  0.00    -0.420 A  
HETATM   13  C   UNL     1     -12.708  14.017  65.508  1.00  0.00    -0.517 A  
HETATM   14  O   UNL     1     -12.401  14.214  63.179  1.00  0.00    -1.125 OA 
HETATM   15  C   UNL     1     -11.343  12.405  64.349  1.00  0.00    -0.396 A  
HETATM   16  C   UNL     1     -12.457  13.361  66.716  1.00  0.00    -0.162 A  
HETATM   17  H   UNL     1     -12.949  14.990  63.171  1.00  0.00     0.000 HD 
ENDBRANCH   7  10
ENDBRANCH   5   7
ENDBRANCH   3   5
ENDBRANCH   2   3
BRANCH   2  18
HETATM   18  C   UNL     1      -7.859  13.177  68.426  1.00  0.00    -0.135 C  
BRANCH  18  19
HETATM   19  C   UNL     1      -8.257  13.617  67.013  1.00  0.00    -0.056 C  
BRANCH  19  20
HETATM   20  C   UNL     1      -9.068  14.892  67.103  1.00  0.00    -0.236 A  
HETATM   21  C   UNL     1      -9.570  15.326  68.338  1.00  0.00    -0.206 A  
HETATM   22  C   UNL     1     -10.415  16.435  68.407  1.00  0.00    -0.298 A  
HETATM   23  C   UNL     1     -10.263  16.704  66.013  1.00  0.00    -0.366 A  
HETATM   24  C   UNL     1      -9.417  15.596  65.942  1.00  0.00    -0.376 A  
HETATM   25  C   UNL     1     -10.766  17.120  67.245  1.00  0.00    -0.208 A  
ENDBRANCH  19  20
ENDBRANCH  18  19
ENDBRANCH   2  18
TORSDOF 7
ENDMDL
MODEL       29
REMARK 921   NORMALIZED FREE ENERGY PREDICTED BY IDOCK:   -5.70 KCAL/MOL
REMARK 922        TOTAL FREE ENERGY PREDICTED BY IDOCK:   -9.66 KCAL/MOL
REMARK 923 INTER-LIGAND FREE ENERGY PREDICTED BY IDOCK:   -7.90 KCAL/MOL
REMARK 924 INTRA-LIGAND FREE ENERGY PREDICTED BY IDOCK:   -1.75 KCAL/MOL
REMARK 927      BINDING AFFINITY PREDICTED BY RF-SCORE:    0.00 PKD
ROOT
HETATM    1  C   UNL     1      -9.074   9.625  65.304  1.00  0.00    -0.269 C  
HETATM    2  C   UNL     1     -10.200  10.667  65.374  1.00  0.00    -0.273 C  
ENDROOT
BRANCH   2   3
HETATM    3  N   UNL     1      -9.739  12.022  65.034  1.00  0.00    -0.405 NA 
HETATM    4  H   UNL     1      -8.760  11.995  64.747  1.00  0.00     0.000 HD 
BRANCH   3   5
HETATM    5  C   UNL     1     -10.547  12.744  64.014  1.00  0.00    -0.416 C  
HETATM    6  C   UNL     1     -11.770  11.921  63.596  1.00  0.00    -0.572 C  
BRANCH   5   7
HETATM    7  C   UNL     1     -10.996  14.136  64.582  1.00  0.00    -0.382 C  
HETATM    8  H   UNL     1     -12.574  15.273  64.412  1.00  0.00     0.000 HD 
HETATM    9  O   UNL     1     -12.302  14.430  64.068  1.00  0.00    -0.667 OA 
BRANCH   7  10
HETATM   10  C   UNL     1     -11.018  14.267  66.101  1.00  0.00    -0.313 A  
HETATM   11  C   UNL     1     -12.157  13.965  66.869  1.00  0.00    -0.467 A  
HETATM   12  C   UNL     1     -10.984  14.497  68.905  1.00  0.00    -0.256 A  
HETATM   13  C   UNL     1      -9.836  14.769  68.180  1.00  0.00    -0.221 A  
HETATM   14  O   UNL     1     -10.936  14.641  70.261  1.00  0.00    -0.446 OA 
HETATM   15  C   UNL     1     -12.147  14.091  68.263  1.00  0.00    -0.312 A  
HETATM   16  C   UNL     1      -9.850  14.646  66.788  1.00  0.00    -0.262 A  
HETATM   17  H   UNL     1     -10.141  14.920  70.700  1.00  0.00     0.000 HD 
ENDBRANCH   7  10
ENDBRANCH   5   7
ENDBRANCH   3   5
ENDBRANCH   2   3
BRANCH   2  18
HETATM   18  C   UNL     1     -10.755  10.647  66.813  1.00  0.00    -0.272 C  
BRANCH  18  19
HETATM   19  C   UNL     1      -9.736  10.956  67.916  1.00  0.00    -0.178 C  
BRANCH  19  20
HETATM   20  C   UNL     1     -10.278  10.462  69.241  1.00  0.00    -0.248 A  
HETATM   21  C   UNL     1      -9.517   9.597  70.040  1.00  0.00    -0.277 A  
HETATM   22  C   UNL     1     -10.059   9.048  71.203  1.00  0.00    -0.365 A  
HETATM   23  C   UNL     1     -12.126  10.227  70.799  1.00  0.00    -0.451 A  
HETATM   24  C   UNL     1     -11.585  10.778  69.636  1.00  0.00    -0.388 A  
HETATM   25  C   UNL     1     -11.365   9.358  71.579  1.00  0.00    -0.464 A  
ENDBRANCH  19  20
ENDBRANCH  18  19
ENDBRANCH   2  18
TORSDOF 7
ENDMDL
MODEL       30
REMARK 921   NORMALIZED FREE ENERGY PREDICTED BY IDOCK:   -5.68 KCAL/MOL
REMARK 922        TOTAL FREE ENERGY PREDICTED BY IDOCK:   -9.64 KCAL/MOL
REMARK 923 INTER-LIGAND FREE ENERGY PREDICTED BY IDOCK:   -8.24 KCAL/MOL
REMARK 924 INTRA-LIGAND FREE ENERGY PREDICTED BY IDOCK:   -1.40 KCAL/MOL
REMARK 927      BINDING AFFINITY PREDICTED BY RF-SCORE:    0.00 PKD
ROOT
HETATM    1  C   UNL     1      -8.014  13.762  67.498  1.00  0.00    -0.190 C  
HETATM    2  C   UNL     1      -9.342  13.819  68.267  1.00  0.00    -0.209 C  
ENDROOT
BRANCH   2   3
HETATM    3  N   UNL     1      -9.787  12.494  68.727  1.00  0.00    -0.421 NA 
HETATM    4  H   UNL     1      -9.635  12.406  69.732  1.00  0.00     0.000 HD 
BRANCH   3   5
HETATM    5  C   UNL     1     -11.191  12.131  68.393  1.00  0.00    -0.265 C  
HETATM    6  C   UNL     1     -11.236  11.041  67.316  1.00  0.00    -0.330 C  
BRANCH   5   7
HETATM    7  C   UNL     1     -11.935  11.648  69.688  1.00  0.00    -0.324 C  
HETATM    8  H   UNL     1     -11.492  10.518  71.217  1.00  0.00     0.000 HD 
HETATM    9  O   UNL     1     -11.041  10.810  70.433  1.00  0.00    -0.266 OA 
BRANCH   7  10
HETATM   10  C   UNL     1     -12.470  12.744  70.604  1.00  0.00    -0.328 A  
HETATM   11  C   UNL     1     -13.041  12.468  71.860  1.00  0.00    -0.473 A  
HETATM   12  C   UNL     1     -13.410  14.814  72.262  1.00  0.00    -0.391 A  
HETATM   13  C   UNL     1     -12.822  15.121  71.046  1.00  0.00    -0.477 A  
HETATM   14  O   UNL     1     -13.874  15.843  73.029  1.00  0.00    -0.628 OA 
HETATM   15  C   UNL     1     -13.519  13.494  72.681  1.00  0.00    -0.572 A  
HETATM   16  C   UNL     1     -12.348  14.094  70.226  1.00  0.00    -0.421 A  
HETATM   17  H   UNL     1     -13.799  16.745  72.742  1.00  0.00     0.000 HD 
ENDBRANCH   7  10
ENDBRANCH   5   7
ENDBRANCH   3   5
ENDBRANCH   2   3
BRANCH   2  18
HETATM   18  C   UNL     1     -10.396  14.425  67.317  1.00  0.00    -0.260 C  
BRANCH  18  19
HETATM   19  C   UNL     1      -9.932  14.646  65.873  1.00  0.00    -0.352 C  
BRANCH  19  20
HETATM   20  C   UNL     1     -10.710  13.724  64.958  1.00  0.00    -0.391 A  
HETATM   21  C   UNL     1     -12.112  13.735  64.967  1.00  0.00    -0.424 A  
HETATM   22  C   UNL     1     -12.831  12.806  64.212  1.00  0.00    -0.245 A  
HETATM   23  C   UNL     1     -10.764  11.848  63.416  1.00  0.00    -0.476 A  
HETATM   24  C   UNL     1     -10.043  12.776  64.170  1.00  0.00    -0.260 A  
HETATM   25  C   UNL     1     -12.158  11.860  63.442  1.00  0.00    -0.539 A  
ENDBRANCH  19  20
ENDBRANCH  18  19
ENDBRANCH   2  18
TORSDOF 7
ENDMDL
MODEL       31
REMARK 921   NORMALIZED FREE ENERGY PREDICTED BY IDOCK:   -5.67 KCAL/MOL
REMARK 922        TOTAL FREE ENERGY PREDICTED BY IDOCK:   -9.62 KCAL/MOL
REMARK 923 INTER-LIGAND FREE ENERGY PREDICTED BY IDOCK:   -8.72 KCAL/MOL
REMARK 924 INTRA-LIGAND FREE ENERGY PREDICTED BY IDOCK:   -0.90 KCAL/MOL
REMARK 927      BINDING AFFINITY PREDICTED BY RF-SCORE:    0.00 PKD
ROOT
HETATM    1  C   UNL     1      -8.375   9.709  70.175  1.00  0.00    -0.221 C  
HETATM    2  C   UNL     1      -9.858   9.905  69.826  1.00  0.00    -0.236 C  
ENDROOT
BRANCH   2   3
HETATM    3  N   UNL     1     -10.156  11.271  69.367  1.00  0.00    -0.434 NA 
HETATM    4  H   UNL     1      -9.374  11.889  69.585  1.00  0.00     0.000 HD 
BRANCH   3   5
HETATM    5  C   UNL     1     -10.524  11.406  67.931  1.00  0.00    -0.184 C  
HETATM    6  C   UNL     1     -10.811  10.036  67.305  1.00  0.00    -0.284 C  
BRANCH   5   7
HETATM    7  C   UNL     1     -11.776  12.341  67.791  1.00  0.00    -0.337 C  
HETATM    8  H   UNL     1     -12.793  13.505  68.984  1.00  0.00     0.000 HD 
HETATM    9  O   UNL     1     -12.035  12.939  69.069  1.00  0.00    -0.295 OA 
BRANCH   7  10
HETATM   10  C   UNL     1     -11.680  13.440  66.738  1.00  0.00    -0.429 A  
HETATM   11  C   UNL     1     -10.820  14.545  66.875  1.00  0.00    -0.305 A  
HETATM   12  C   UNL     1     -11.524  15.418  64.743  1.00  0.00    -0.336 A  
HETATM   13  C   UNL     1     -12.355  14.324  64.562  1.00  0.00    -0.432 A  
HETATM   14  O   UNL     1     -11.492  16.368  63.764  1.00  0.00    -1.590 OA 
HETATM   15  C   UNL     1     -10.750  15.536  65.890  1.00  0.00    -0.346 A  
HETATM   16  C   UNL     1     -12.426  13.338  65.549  1.00  0.00    -0.531 A  
HETATM   17  H   UNL     1     -12.022  16.287  62.980  1.00  0.00     0.000 HD 
ENDBRANCH   7  10
ENDBRANCH   5   7
ENDBRANCH   3   5
ENDBRANCH   2   3
BRANCH   2  18
HETATM   18  C   UNL     1     -10.674   9.590  71.097  1.00  0.00    -0.408 C  
BRANCH  18  19
HETATM   19  C   UNL     1     -11.594   8.367  71.002  1.00  0.00    -0.307 C  
BRANCH  19  20
HETATM   20  C   UNL     1     -11.215   7.379  72.085  1.00  0.00    -0.302 A  
HETATM   21  C   UNL     1     -10.324   7.751  73.103  1.00  0.00    -0.403 A  
HETATM   22  C   UNL     1      -9.882   6.809  74.033  1.00  0.00    -0.334 A  
HETATM   23  C   UNL     1     -11.219   5.113  72.957  1.00  0.00    -0.390 A  
HETATM   24  C   UNL     1     -11.664   6.053  72.026  1.00  0.00    -0.315 A  
HETATM   25  C   UNL     1     -10.324   5.490  73.957  1.00  0.00    -0.297 A  
ENDBRANCH  19  20
ENDBRANCH  18  19
ENDBRANCH   2  18
TORSDOF 7
ENDMDL
MODEL       32
REMARK 921   NORMALIZED FREE ENERGY PREDICTED BY IDOCK:   -5.66 KCAL/MOL
REMARK 922        TOTAL FREE ENERGY PREDICTED BY IDOCK:   -9.60 KCAL/MOL
REMARK 923 INTER-LIGAND FREE ENERGY PREDICTED BY IDOCK:   -7.94 KCAL/MOL
REMARK 924 INTRA-LIGAND FREE ENERGY PREDICTED BY IDOCK:   -1.66 KCAL/MOL
REMARK 927      BINDING AFFINITY PREDICTED BY RF-SCORE:    0.00 PKD
ROOT
HETATM    1  C   UNL     1      -9.015  11.642  67.132  1.00  0.00    -0.173 C  
HETATM    2  C   UNL     1     -10.009  10.590  66.618  1.00  0.00    -0.211 C  
ENDROOT
BRANCH   2   3
HETATM    3  N   UNL     1     -10.908  11.121  65.581  1.00  0.00    -0.189 NA 
HETATM    4  H   UNL     1     -11.860  11.178  65.942  1.00  0.00     0.000 HD 
BRANCH   3   5
HETATM    5  C   UNL     1     -10.512  12.427  64.986  1.00  0.00    -0.294 C  
HETATM    6  C   UNL     1     -10.230  12.286  63.486  1.00  0.00    -0.410 C  
BRANCH   5   7
HETATM    7  C   UNL     1     -11.644  13.485  65.231  1.00  0.00    -0.311 C  
HETATM    8  H   UNL     1     -13.595  13.453  65.313  1.00  0.00     0.000 HD 
HETATM    9  O   UNL     1     -12.909  12.812  65.165  1.00  0.00    -0.726 OA 
BRANCH   7  10
HETATM   10  C   UNL     1     -11.563  14.266  66.539  1.00  0.00    -0.390 A  
HETATM   11  C   UNL     1     -12.126  13.791  67.738  1.00  0.00    -0.325 A  
HETATM   12  C   UNL     1     -11.352  15.738  68.927  1.00  0.00    -0.356 A  
HETATM   13  C   UNL     1     -10.757  16.215  67.771  1.00  0.00    -0.325 A  
HETATM   14  O   UNL     1     -11.247  16.490  70.061  1.00  0.00    -0.412 OA 
HETATM   15  C   UNL     1     -12.033  14.527  68.924  1.00  0.00    -0.326 A  
HETATM   16  C   UNL     1     -10.855  15.480  66.587  1.00  0.00    -0.285 A  
HETATM   17  H   UNL     1     -10.782  17.319  70.062  1.00  0.00     0.000 HD 
ENDBRANCH   7  10
ENDBRANCH   5   7
ENDBRANCH   3   5
ENDBRANCH   2   3
BRANCH   2  18
HETATM   18  C   UNL     1     -10.833  10.107  67.829  1.00  0.00    -0.346 C  
BRANCH  18  19
HETATM   19  C   UNL     1     -10.510  10.792  69.161  1.00  0.00    -0.243 C  
BRANCH  19  20
HETATM   20  C   UNL     1     -11.516  10.347  70.202  1.00  0.00    -0.396 A  
HETATM   21  C   UNL     1     -12.426  11.264  70.745  1.00  0.00    -0.471 A  
HETATM   22  C   UNL     1     -13.275  10.886  71.787  1.00  0.00    -0.513 A  
HETATM   23  C   UNL     1     -12.329   8.666  71.754  1.00  0.00    -0.402 A  
HETATM   24  C   UNL     1     -11.480   9.042  70.712  1.00  0.00    -0.331 A  
HETATM   25  C   UNL     1     -13.222   9.589  72.295  1.00  0.00    -0.507 A  
ENDBRANCH  19  20
ENDBRANCH  18  19
ENDBRANCH   2  18
TORSDOF 7
ENDMDL
MODEL       33
REMARK 921   NORMALIZED FREE ENERGY PREDICTED BY IDOCK:   -5.65 KCAL/MOL
REMARK 922        TOTAL FREE ENERGY PREDICTED BY IDOCK:   -9.60 KCAL/MOL
REMARK 923 INTER-LIGAND FREE ENERGY PREDICTED BY IDOCK:   -8.67 KCAL/MOL
REMARK 924 INTRA-LIGAND FREE ENERGY PREDICTED BY IDOCK:   -0.93 KCAL/MOL
REMARK 927      BINDING AFFINITY PREDICTED BY RF-SCORE:    0.00 PKD
ROOT
HETATM    1  C   UNL     1      -7.490  13.846  67.646  1.00  0.00    -0.187 C  
HETATM    2  C   UNL     1      -8.864  14.530  67.708  1.00  0.00    -0.183 C  
ENDROOT
BRANCH   2   3
HETATM    3  N   UNL     1      -9.968  13.570  67.868  1.00  0.00    -0.238 NA 
HETATM    4  H   UNL     1      -9.751  12.913  68.618  1.00  0.00     0.000 HD 
BRANCH   3   5
HETATM    5  C   UNL     1     -11.315  14.163  68.089  1.00  0.00    -0.290 C  
HETATM    6  C   UNL     1     -12.130  14.176  66.791  1.00  0.00    -0.474 C  
BRANCH   5   7
HETATM    7  C   UNL     1     -12.073  13.356  69.200  1.00  0.00    -0.261 C  
HETATM    8  H   UNL     1     -11.757  11.703  70.190  1.00  0.00     0.000 HD 
HETATM    9  O   UNL     1     -11.298  12.192  69.517  1.00  0.00    -0.257 OA 
BRANCH   7  10
HETATM   10  C   UNL     1     -12.384  14.113  70.488  1.00  0.00    -0.434 A  
HETATM   11  C   UNL     1     -13.231  13.595  71.484  1.00  0.00    -0.409 A  
HETATM   12  C   UNL     1     -12.890  15.545  72.856  1.00  0.00    -0.457 A  
HETATM   13  C   UNL     1     -12.023  16.067  71.910  1.00  0.00    -0.606 A  
HETATM   14  O   UNL     1     -13.128  16.278  73.982  1.00  0.00    -0.898 OA 
HETATM   15  C   UNL     1     -13.494  14.310  72.657  1.00  0.00    -0.623 A  
HETATM   16  C   UNL     1     -11.765  15.352  70.737  1.00  0.00    -0.385 A  
HETATM   17  H   UNL     1     -12.715  17.123  74.118  1.00  0.00     0.000 HD 
ENDBRANCH   7  10
ENDBRANCH   5   7
ENDBRANCH   3   5
ENDBRANCH   2   3
BRANCH   2  18
HETATM   18  C   UNL     1      -9.043  15.318  66.394  1.00  0.00    -0.347 C  
BRANCH  18  19
HETATM   19  C   UNL     1      -8.152  16.556  66.242  1.00  0.00    -0.341 C  
BRANCH  19  20
HETATM   20  C   UNL     1      -8.813  17.729  66.934  1.00  0.00    -0.260 A  
HETATM   21  C   UNL     1      -8.067  18.567  67.775  1.00  0.00    -0.264 A  
HETATM   22  C   UNL     1      -8.696  19.577  68.506  1.00  0.00    -0.388 A  
HETATM   23  C   UNL     1     -10.823  18.938  67.562  1.00  0.00    -0.440 A  
HETATM   24  C   UNL     1     -10.196  17.928  66.830  1.00  0.00    -0.360 A  
HETATM   25  C   UNL     1     -10.074  19.758  68.404  1.00  0.00    -0.568 A  
ENDBRANCH  19  20
ENDBRANCH  18  19
ENDBRANCH   2  18
TORSDOF 7
ENDMDL
MODEL       34
REMARK 921   NORMALIZED FREE ENERGY PREDICTED BY IDOCK:   -5.65 KCAL/MOL
REMARK 922        TOTAL FREE ENERGY PREDICTED BY IDOCK:   -9.60 KCAL/MOL
REMARK 923 INTER-LIGAND FREE ENERGY PREDICTED BY IDOCK:   -8.32 KCAL/MOL
REMARK 924 INTRA-LIGAND FREE ENERGY PREDICTED BY IDOCK:   -1.28 KCAL/MOL
REMARK 927      BINDING AFFINITY PREDICTED BY RF-SCORE:    0.00 PKD
ROOT
HETATM    1  C   UNL     1      -9.433  11.379  68.570  1.00  0.00    -0.183 C  
HETATM    2  C   UNL     1     -10.882  10.873  68.508  1.00  0.00    -0.220 C  
ENDROOT
BRANCH   2   3
HETATM    3  N   UNL     1     -11.483  11.041  67.175  1.00  0.00    -0.442 NA 
HETATM    4  H   UNL     1     -12.207  11.759  67.208  1.00  0.00     0.000 HD 
BRANCH   3   5
HETATM    5  C   UNL     1     -10.532  11.330  66.068  1.00  0.00    -0.257 C  
HETATM    6  C   UNL     1     -10.095  10.039  65.365  1.00  0.00    -0.317 C  
BRANCH   5   7
HETATM    7  C   UNL     1     -11.198  12.311  65.040  1.00  0.00    -0.321 C  
HETATM    8  H   UNL     1     -13.014  12.658  64.414  1.00  0.00     0.000 HD 
HETATM    9  O   UNL     1     -12.611  12.064  65.036  1.00  0.00    -0.415 OA 
BRANCH   7  10
HETATM   10  C   UNL     1     -10.952  13.798  65.273  1.00  0.00    -0.322 A  
HETATM   11  C   UNL     1      -9.978  14.271  66.171  1.00  0.00    -0.330 A  
HETATM   12  C   UNL     1     -10.524  16.555  65.635  1.00  0.00    -0.324 A  
HETATM   13  C   UNL     1     -11.467  16.121  64.718  1.00  0.00    -0.168 A  
HETATM   14  O   UNL     1     -10.361  17.899  65.799  1.00  0.00    -0.577 OA 
HETATM   15  C   UNL     1      -9.771  15.641  66.361  1.00  0.00    -0.302 A  
HETATM   16  C   UNL     1     -11.674  14.751  64.532  1.00  0.00    -0.398 A  
HETATM   17  H   UNL     1     -10.876  18.524  65.302  1.00  0.00     0.000 HD 
ENDBRANCH   7  10
ENDBRANCH   5   7
ENDBRANCH   3   5
ENDBRANCH   2   3
BRANCH   2  18
HETATM   18  C   UNL     1     -11.692  11.671  69.551  1.00  0.00    -0.410 C  
BRANCH  18  19
HETATM   19  C   UNL     1     -11.802  13.177  69.289  1.00  0.00    -0.377 C  
BRANCH  19  20
HETATM   20  C   UNL     1     -12.084  13.887  70.596  1.00  0.00    -0.417 A  
HETATM   21  C   UNL     1     -13.050  13.386  71.480  1.00  0.00    -0.427 A  
HETATM   22  C   UNL     1     -13.395  14.100  72.629  1.00  0.00    -0.638 A  
HETATM   23  C   UNL     1     -11.807  15.820  72.040  1.00  0.00    -0.582 A  
HETATM   24  C   UNL     1     -11.461  15.107  70.891  1.00  0.00    -0.363 A  
HETATM   25  C   UNL     1     -12.779  15.319  72.905  1.00  0.00    -0.524 A  
ENDBRANCH  19  20
ENDBRANCH  18  19
ENDBRANCH   2  18
TORSDOF 7
ENDMDL
MODEL       35
REMARK 921   NORMALIZED FREE ENERGY PREDICTED BY IDOCK:   -5.65 KCAL/MOL
REMARK 922        TOTAL FREE ENERGY PREDICTED BY IDOCK:   -9.59 KCAL/MOL
REMARK 923 INTER-LIGAND FREE ENERGY PREDICTED BY IDOCK:   -8.26 KCAL/MOL
REMARK 924 INTRA-LIGAND FREE ENERGY PREDICTED BY IDOCK:   -1.33 KCAL/MOL
REMARK 927      BINDING AFFINITY PREDICTED BY RF-SCORE:    0.00 PKD
ROOT
HETATM    1  C   UNL     1     -11.768  11.275  68.341  1.00  0.00    -0.365 C  
HETATM    2  C   UNL     1     -11.563  12.728  67.889  1.00  0.00    -0.351 C  
ENDROOT
BRANCH   2   3
HETATM    3  N   UNL     1     -10.443  12.875  66.946  1.00  0.00    -0.245 NA 
HETATM    4  H   UNL     1     -10.798  13.113  66.020  1.00  0.00     0.000 HD 
BRANCH   3   5
HETATM    5  C   UNL     1      -9.382  13.838  67.345  1.00  0.00    -0.226 C  
HETATM    6  C   UNL     1      -8.024  13.139  67.475  1.00  0.00    -0.179 C  
BRANCH   5   7
HETATM    7  C   UNL     1      -9.298  15.000  66.294  1.00  0.00    -0.307 C  
HETATM    8  H   UNL     1     -10.118  15.382  64.563  1.00  0.00     0.000 HD 
HETATM    9  O   UNL     1     -10.168  14.678  65.200  1.00  0.00    -0.383 OA 
BRANCH   7  10
HETATM   10  C   UNL     1      -9.638  16.396  66.806  1.00  0.00    -0.263 A  
HETATM   11  C   UNL     1     -10.243  17.373  65.993  1.00  0.00    -0.308 A  
HETATM   12  C   UNL     1     -10.269  18.943  67.819  1.00  0.00    -0.393 A  
HETATM   13  C   UNL     1      -9.705  17.993  68.654  1.00  0.00    -0.356 A  
HETATM   14  O   UNL     1     -10.541  20.175  68.340  1.00  0.00    -0.340 OA 
HETATM   15  C   UNL     1     -10.547  18.644  66.492  1.00  0.00    -0.409 A  
HETATM   16  C   UNL     1      -9.399  16.725  68.153  1.00  0.00    -0.234 A  
HETATM   17  H   UNL     1     -10.351  20.380  69.248  1.00  0.00     0.000 HD 
ENDBRANCH   7  10
ENDBRANCH   5   7
ENDBRANCH   3   5
ENDBRANCH   2   3
BRANCH   2  18
HETATM   18  C   UNL     1     -11.294  13.568  69.155  1.00  0.00    -0.333 C  
BRANCH  18  19
HETATM   19  C   UNL     1     -12.031  14.910  69.224  1.00  0.00    -0.326 C  
BRANCH  19  20
HETATM   20  C   UNL     1     -12.408  15.193  70.663  1.00  0.00    -0.420 A  
HETATM   21  C   UNL     1     -13.745  15.103  71.075  1.00  0.00    -0.450 A  
HETATM   22  C   UNL     1     -14.112  15.477  72.369  1.00  0.00    -0.627 A  
HETATM   23  C   UNL     1     -11.815  16.024  72.866  1.00  0.00    -0.555 A  
HETATM   24  C   UNL     1     -11.445  15.651  71.573  1.00  0.00    -0.494 A  
HETATM   25  C   UNL     1     -13.149  15.942  73.262  1.00  0.00    -0.694 A  
ENDBRANCH  19  20
ENDBRANCH  18  19
ENDBRANCH   2  18
TORSDOF 7
ENDMDL
MODEL       36
REMARK 921   NORMALIZED FREE ENERGY PREDICTED BY IDOCK:   -5.64 KCAL/MOL
REMARK 922        TOTAL FREE ENERGY PREDICTED BY IDOCK:   -9.58 KCAL/MOL
REMARK 923 INTER-LIGAND FREE ENERGY PREDICTED BY IDOCK:   -8.72 KCAL/MOL
REMARK 924 INTRA-LIGAND FREE ENERGY PREDICTED BY IDOCK:   -0.86 KCAL/MOL
REMARK 927      BINDING AFFINITY PREDICTED BY RF-SCORE:    0.00 PKD
ROOT
HETATM    1  C   UNL     1     -11.006   9.562  71.287  1.00  0.00    -0.440 C  
HETATM    2  C   UNL     1     -11.360  10.478  70.106  1.00  0.00    -0.323 C  
ENDROOT
BRANCH   2   3
HETATM    3  N   UNL     1     -10.180  11.139  69.529  1.00  0.00    -0.438 NA 
HETATM    4  H   UNL     1      -9.348  10.897  70.067  1.00  0.00     0.000 HD 
BRANCH   3   5
HETATM    5  C   UNL     1      -9.939  10.886  68.082  1.00  0.00    -0.174 C  
HETATM    6  C   UNL     1     -11.206  10.360  67.397  1.00  0.00    -0.205 C  
BRANCH   5   7
HETATM    7  C   UNL     1      -9.453  12.206  67.387  1.00  0.00    -0.179 C  
HETATM    8  H   UNL     1      -7.799  12.817  66.546  1.00  0.00     0.000 HD 
HETATM    9  O   UNL     1      -8.094  12.017  66.966  1.00  0.00    -0.164 OA 
BRANCH   7  10
HETATM   10  C   UNL     1     -10.280  12.686  66.199  1.00  0.00    -0.272 A  
HETATM   11  C   UNL     1     -10.013  12.279  64.879  1.00  0.00    -0.219 A  
HETATM   12  C   UNL     1     -11.864  13.580  64.053  1.00  0.00    -0.427 A  
HETATM   13  C   UNL     1     -12.174  13.971  65.345  1.00  0.00    -0.453 A  
HETATM   14  O   UNL     1     -12.642  14.051  63.036  1.00  0.00    -1.027 OA 
HETATM   15  C   UNL     1     -10.792  12.732  63.809  1.00  0.00    -0.416 A  
HETATM   16  C   UNL     1     -11.393  13.520  66.412  1.00  0.00    -0.335 A  
HETATM   17  H   UNL     1     -13.375  14.632  63.203  1.00  0.00     0.000 HD 
ENDBRANCH   7  10
ENDBRANCH   5   7
ENDBRANCH   3   5
ENDBRANCH   2   3
BRANCH   2  18
HETATM   18  C   UNL     1     -12.351  11.539  70.630  1.00  0.00    -0.457 C  
BRANCH  18  19
HETATM   19  C   UNL     1     -12.255  12.916  69.964  1.00  0.00    -0.292 C  
BRANCH  19  20
HETATM   20  C   UNL     1     -12.556  13.984  70.993  1.00  0.00    -0.437 A  
HETATM   21  C   UNL     1     -11.568  14.906  71.368  1.00  0.00    -0.362 A  
HETATM   22  C   UNL     1     -11.804  15.816  72.399  1.00  0.00    -0.606 A  
HETATM   23  C   UNL     1     -14.023  14.912  72.693  1.00  0.00    -0.457 A  
HETATM   24  C   UNL     1     -13.788  14.001  71.661  1.00  0.00    -0.405 A  
HETATM   25  C   UNL     1     -13.029  15.815  73.065  1.00  0.00    -0.628 A  
ENDBRANCH  19  20
ENDBRANCH  18  19
ENDBRANCH   2  18
TORSDOF 7
ENDMDL
MODEL       37
REMARK 921   NORMALIZED FREE ENERGY PREDICTED BY IDOCK:   -5.64 KCAL/MOL
REMARK 922        TOTAL FREE ENERGY PREDICTED BY IDOCK:   -9.58 KCAL/MOL
REMARK 923 INTER-LIGAND FREE ENERGY PREDICTED BY IDOCK:   -7.86 KCAL/MOL
REMARK 924 INTRA-LIGAND FREE ENERGY PREDICTED BY IDOCK:   -1.71 KCAL/MOL
REMARK 927      BINDING AFFINITY PREDICTED BY RF-SCORE:    0.00 PKD
ROOT
HETATM    1  C   UNL     1      -7.467  16.536  69.202  1.00  0.00    -0.218 C  
HETATM    2  C   UNL     1      -8.644  15.858  68.485  1.00  0.00    -0.190 C  
ENDROOT
BRANCH   2   3
HETATM    3  N   UNL     1      -8.928  14.514  69.011  1.00  0.00    -0.360 NA 
HETATM    4  H   UNL     1      -9.893  14.465  69.340  1.00  0.00     0.000 HD 
BRANCH   3   5
HETATM    5  C   UNL     1      -8.652  13.383  68.083  1.00  0.00    -0.174 C  
HETATM    6  C   UNL     1      -7.615  12.424  68.677  1.00  0.00    -0.082 C  
BRANCH   5   7
HETATM    7  C   UNL     1      -9.985  12.618  67.768  1.00  0.00    -0.218 C  
HETATM    8  H   UNL     1     -11.714  12.401  68.649  1.00  0.00     0.000 HD 
HETATM    9  O   UNL     1     -10.907  12.864  68.839  1.00  0.00    -0.242 OA 
BRANCH   7  10
HETATM   10  C   UNL     1     -10.659  12.958  66.443  1.00  0.00    -0.285 A  
HETATM   11  C   UNL     1     -10.197  12.462  65.210  1.00  0.00    -0.306 A  
HETATM   12  C   UNL     1     -11.967  13.596  64.036  1.00  0.00    -0.431 A  
HETATM   13  C   UNL     1     -12.468  14.073  65.236  1.00  0.00    -0.495 A  
HETATM   14  O   UNL     1     -12.616  13.945  62.887  1.00  0.00    -0.966 OA 
HETATM   15  C   UNL     1     -10.839  12.788  64.011  1.00  0.00    -0.458 A  
HETATM   16  C   UNL     1     -11.823  13.749  66.433  1.00  0.00    -0.434 A  
HETATM   17  H   UNL     1     -13.388  14.499  62.904  1.00  0.00     0.000 HD 
ENDBRANCH   7  10
ENDBRANCH   5   7
ENDBRANCH   3   5
ENDBRANCH   2   3
BRANCH   2  18
HETATM   18  C   UNL     1      -8.281  15.769  66.989  1.00  0.00    -0.262 C  
BRANCH  18  19
HETATM   19  C   UNL     1      -9.276  16.429  66.028  1.00  0.00    -0.328 C  
BRANCH  19  20
HETATM   20  C   UNL     1      -9.383  17.902  66.363  1.00  0.00    -0.268 A  
HETATM   21  C   UNL     1      -8.251  18.726  66.305  1.00  0.00    -0.270 A  
HETATM   22  C   UNL     1      -8.321  20.055  66.726  1.00  0.00    -0.372 A  
HETATM   23  C   UNL     1     -10.657  19.766  67.258  1.00  0.00    -0.565 A  
HETATM   24  C   UNL     1     -10.589  18.436  66.837  1.00  0.00    -0.381 A  
HETATM   25  C   UNL     1      -9.522  20.573  67.208  1.00  0.00    -0.559 A  
ENDBRANCH  19  20
ENDBRANCH  18  19
ENDBRANCH   2  18
TORSDOF 7
ENDMDL
MODEL       38
REMARK 921   NORMALIZED FREE ENERGY PREDICTED BY IDOCK:   -5.63 KCAL/MOL
REMARK 922        TOTAL FREE ENERGY PREDICTED BY IDOCK:   -9.57 KCAL/MOL
REMARK 923 INTER-LIGAND FREE ENERGY PREDICTED BY IDOCK:   -8.67 KCAL/MOL
REMARK 924 INTRA-LIGAND FREE ENERGY PREDICTED BY IDOCK:   -0.91 KCAL/MOL
REMARK 927      BINDING AFFINITY PREDICTED BY RF-SCORE:    0.00 PKD
ROOT
HETATM    1  C   UNL     1     -12.157  14.777  64.354  1.00  0.00    -0.457 C  
HETATM    2  C   UNL     1     -12.696  13.926  65.514  1.00  0.00    -0.499 C  
ENDROOT
BRANCH   2   3
HETATM    3  N   UNL     1     -12.293  14.445  66.830  1.00  0.00    -0.547 NA 
HETATM    4  H   UNL     1     -13.111  14.538  67.432  1.00  0.00     0.000 HD 
BRANCH   3   5
HETATM    5  C   UNL     1     -11.232  13.674  67.533  1.00  0.00    -0.294 C  
HETATM    6  C   UNL     1      -9.850  13.974  66.942  1.00  0.00    -0.267 C  
BRANCH   5   7
HETATM    7  C   UNL     1     -11.255  14.015  69.065  1.00  0.00    -0.276 C  
HETATM    8  H   UNL     1     -11.969  15.463  70.164  1.00  0.00     0.000 HD 
HETATM    9  O   UNL     1     -11.955  15.256  69.237  1.00  0.00    -0.320 OA 
BRANCH   7  10
HETATM   10  C   UNL     1     -11.873  12.963  69.979  1.00  0.00    -0.356 A  
HETATM   11  C   UNL     1     -12.493  13.292  71.199  1.00  0.00    -0.397 A  
HETATM   12  C   UNL     1     -13.025  10.979  71.607  1.00  0.00    -0.456 A  
HETATM   13  C   UNL     1     -12.452  10.627  70.396  1.00  0.00    -0.421 A  
HETATM   14  O   UNL     1     -13.554   9.986  72.379  1.00  0.00    -0.620 OA 
HETATM   15  C   UNL     1     -13.056  12.306  72.015  1.00  0.00    -0.461 A  
HETATM   16  C   UNL     1     -11.888  11.613  69.583  1.00  0.00    -0.419 A  
HETATM   17  H   UNL     1     -13.532   9.078  72.100  1.00  0.00     0.000 HD 
ENDBRANCH   7  10
ENDBRANCH   5   7
ENDBRANCH   3   5
ENDBRANCH   2   3
BRANCH   2  18
HETATM   18  C   UNL     1     -12.150  12.496  65.325  1.00  0.00    -0.500 C  
BRANCH  18  19
HETATM   19  C   UNL     1     -11.515  12.207  63.960  1.00  0.00    -0.488 C  
BRANCH  19  20
HETATM   20  C   UNL     1     -10.436  11.159  64.129  1.00  0.00    -0.442 A  
HETATM   21  C   UNL     1      -9.706  10.708  63.020  1.00  0.00    -0.362 A  
HETATM   22  C   UNL     1      -8.794   9.660  63.153  1.00  0.00    -0.254 A  
HETATM   23  C   UNL     1      -9.312   9.502  65.504  1.00  0.00    -0.317 A  
HETATM   24  C   UNL     1     -10.225  10.551  65.374  1.00  0.00    -0.340 A  
HETATM   25  C   UNL     1      -8.601   9.053  64.393  1.00  0.00    -0.174 A  
ENDBRANCH  19  20
ENDBRANCH  18  19
ENDBRANCH   2  18
TORSDOF 7
ENDMDL
MODEL       39
REMARK 921   NORMALIZED FREE ENERGY PREDICTED BY IDOCK:   -5.63 KCAL/MOL
REMARK 922        TOTAL FREE ENERGY PREDICTED BY IDOCK:   -9.57 KCAL/MOL
REMARK 923 INTER-LIGAND FREE ENERGY PREDICTED BY IDOCK:   -8.16 KCAL/MOL
REMARK 924 INTRA-LIGAND FREE ENERGY PREDICTED BY IDOCK:   -1.41 KCAL/MOL
REMARK 927      BINDING AFFINITY PREDICTED BY RF-SCORE:    0.00 PKD
ROOT
HETATM    1  C   UNL     1     -10.268   9.707  67.665  1.00  0.00    -0.267 C  
HETATM    2  C   UNL     1     -11.190  10.657  68.443  1.00  0.00    -0.288 C  
ENDROOT
BRANCH   2   3
HETATM    3  N   UNL     1     -11.222  12.011  67.869  1.00  0.00    -0.245 NA 
HETATM    4  H   UNL     1     -12.187  12.331  67.785  1.00  0.00     0.000 HD 
BRANCH   3   5
HETATM    5  C   UNL     1     -10.408  13.035  68.579  1.00  0.00    -0.239 C  
HETATM    6  C   UNL     1      -9.114  13.337  67.816  1.00  0.00    -0.202 C  
BRANCH   5   7
HETATM    7  C   UNL     1     -11.250  14.347  68.763  1.00  0.00    -0.260 C  
HETATM    8  H   UNL     1     -12.857  15.103  67.951  1.00  0.00     0.000 HD 
HETATM    9  O   UNL     1     -12.347  14.308  67.840  1.00  0.00    -0.229 OA 
BRANCH   7  10
HETATM   10  C   UNL     1     -11.789  14.609  70.166  1.00  0.00    -0.365 A  
HETATM   11  C   UNL     1     -12.618  13.693  70.840  1.00  0.00    -0.421 A  
HETATM   12  C   UNL     1     -12.724  15.136  72.766  1.00  0.00    -0.398 A  
HETATM   13  C   UNL     1     -11.881  16.041  72.143  1.00  0.00    -0.623 A  
HETATM   14  O   UNL     1     -13.175  15.436  74.018  1.00  0.00    -0.617 OA 
HETATM   15  C   UNL     1     -13.094  13.959  72.129  1.00  0.00    -0.497 A  
HETATM   16  C   UNL     1     -11.410  15.776  70.854  1.00  0.00    -0.426 A  
HETATM   17  H   UNL     1     -12.922  16.242  74.454  1.00  0.00     0.000 HD 
ENDBRANCH   7  10
ENDBRANCH   5   7
ENDBRANCH   3   5
ENDBRANCH   2   3
BRANCH   2  18
HETATM   18  C   UNL     1     -10.670  10.716  69.894  1.00  0.00    -0.260 C  
BRANCH  18  19
HETATM   19  C   UNL     1     -10.452   9.358  70.571  1.00  0.00    -0.335 C  
BRANCH  19  20
HETATM   20  C   UNL     1     -11.763   8.884  71.161  1.00  0.00    -0.356 A  
HETATM   21  C   UNL     1     -12.111   7.526  71.115  1.00  0.00    -0.335 A  
HETATM   22  C   UNL     1     -13.368   7.103  71.551  1.00  0.00    -0.413 A  
HETATM   23  C   UNL     1     -13.948   9.381  72.097  1.00  0.00    -0.359 A  
HETATM   24  C   UNL     1     -12.691   9.806  71.662  1.00  0.00    -0.517 A  
HETATM   25  C   UNL     1     -14.288   8.031  72.036  1.00  0.00    -0.511 A  
ENDBRANCH  19  20
ENDBRANCH  18  19
ENDBRANCH   2  18
TORSDOF 7
ENDMDL
MODEL       40
REMARK 921   NORMALIZED FREE ENERGY PREDICTED BY IDOCK:   -5.63 KCAL/MOL
REMARK 922        TOTAL FREE ENERGY PREDICTED BY IDOCK:   -9.56 KCAL/MOL
REMARK 923 INTER-LIGAND FREE ENERGY PREDICTED BY IDOCK:   -8.59 KCAL/MOL
REMARK 924 INTRA-LIGAND FREE ENERGY PREDICTED BY IDOCK:   -0.96 KCAL/MOL
REMARK 927      BINDING AFFINITY PREDICTED BY RF-SCORE:    0.00 PKD
ROOT
HETATM    1  C   UNL     1     -12.156  14.129  69.829  1.00  0.00    -0.409 C  
HETATM    2  C   UNL     1     -11.666  15.131  68.773  1.00  0.00    -0.342 C  
ENDROOT
BRANCH   2   3
HETATM    3  N   UNL     1     -10.819  14.504  67.747  1.00  0.00    -0.259 NA 
HETATM    4  H   UNL     1     -10.679  13.518  67.968  1.00  0.00     0.000 HD 
BRANCH   3   5
HETATM    5  C   UNL     1     -11.291  14.647  66.342  1.00  0.00    -0.348 C  
HETATM    6  C   UNL     1     -10.120  14.928  65.394  1.00  0.00    -0.400 C  
BRANCH   5   7
HETATM    7  C   UNL     1     -12.047  13.344  65.902  1.00  0.00    -0.439 C  
HETATM    8  H   UNL     1     -13.550  12.929  64.727  1.00  0.00     0.000 HD 
HETATM    9  O   UNL     1     -13.092  13.718  64.994  1.00  0.00    -0.751 OA 
BRANCH   7  10
HETATM   10  C   UNL     1     -11.194  12.256  65.259  1.00  0.00    -0.372 A  
HETATM   11  C   UNL     1     -10.479  11.310  66.017  1.00  0.00    -0.310 A  
HETATM   12  C   UNL     1      -9.664  10.251  64.013  1.00  0.00    -0.278 A  
HETATM   13  C   UNL     1     -10.383  11.146  63.239  1.00  0.00    -0.368 A  
HETATM   14  O   UNL     1      -8.915   9.307  63.373  1.00  0.00    -0.395 OA 
HETATM   15  C   UNL     1      -9.708  10.319  65.399  1.00  0.00    -0.340 A  
HETATM   16  C   UNL     1     -11.150  12.137  63.858  1.00  0.00    -0.470 A  
HETATM   17  H   UNL     1      -8.884   9.260  62.424  1.00  0.00     0.000 HD 
ENDBRANCH   7  10
ENDBRANCH   5   7
ENDBRANCH   3   5
ENDBRANCH   2   3
BRANCH   2  18
HETATM   18  C   UNL     1     -10.869  16.224  69.514  1.00  0.00    -0.342 C  
BRANCH  18  19
HETATM   19  C   UNL     1      -9.478  16.525  68.945  1.00  0.00    -0.260 C  
BRANCH  19  20
HETATM   20  C   UNL     1      -9.494  17.894  68.299  1.00  0.00    -0.300 A  
HETATM   21  C   UNL     1     -10.517  18.244  67.407  1.00  0.00    -0.430 A  
HETATM   22  C   UNL     1     -10.472  19.459  66.720  1.00  0.00    -0.569 A  
HETATM   23  C   UNL     1      -8.389  20.002  67.813  1.00  0.00    -0.329 A  
HETATM   24  C   UNL     1      -8.433  18.787  68.501  1.00  0.00    -0.379 A  
HETATM   25  C   UNL     1      -9.406  20.334  66.918  1.00  0.00    -0.505 A  
ENDBRANCH  19  20
ENDBRANCH  18  19
ENDBRANCH   2  18
TORSDOF 7
ENDMDL
MODEL       41
REMARK 921   NORMALIZED FREE ENERGY PREDICTED BY IDOCK:   -5.62 KCAL/MOL
REMARK 922        TOTAL FREE ENERGY PREDICTED BY IDOCK:   -9.56 KCAL/MOL
REMARK 923 INTER-LIGAND FREE ENERGY PREDICTED BY IDOCK:   -7.50 KCAL/MOL
REMARK 924 INTRA-LIGAND FREE ENERGY PREDICTED BY IDOCK:   -2.05 KCAL/MOL
REMARK 927      BINDING AFFINITY PREDICTED BY RF-SCORE:    0.00 PKD
ROOT
HETATM    1  C   UNL     1      -8.406  10.734  66.081  1.00  0.00    -0.166 C  
HETATM    2  C   UNL     1      -9.599   9.803  65.818  1.00  0.00    -0.254 C  
ENDROOT
BRANCH   2   3
HETATM    3  N   UNL     1     -10.204  10.018  64.493  1.00  0.00    -0.364 NA 
HETATM    4  H   UNL     1     -11.217  10.091  64.581  1.00  0.00     0.000 HD 
BRANCH   3   5
HETATM    5  C   UNL     1      -9.677  11.177  63.722  1.00  0.00    -0.301 C  
HETATM    6  C   UNL     1      -9.157  10.734  62.349  1.00  0.00    -0.332 C  
BRANCH   5   7
HETATM    7  C   UNL     1     -10.802  12.257  63.555  1.00  0.00    -0.454 C  
HETATM    8  H   UNL     1     -12.673  12.254  62.995  1.00  0.00     0.000 HD 
HETATM    9  O   UNL     1     -11.991  11.600  63.096  1.00  0.00    -0.300 OA 
BRANCH   7  10
HETATM   10  C   UNL     1     -11.135  13.078  64.797  1.00  0.00    -0.347 A  
HETATM   11  C   UNL     1     -12.354  12.944  65.487  1.00  0.00    -0.517 A  
HETATM   12  C   UNL     1     -11.676  14.598  67.101  1.00  0.00    -0.373 A  
HETATM   13  C   UNL     1     -10.453  14.728  66.465  1.00  0.00    -0.291 A  
HETATM   14  O   UNL     1     -11.911  15.368  68.203  1.00  0.00    -0.471 OA 
HETATM   15  C   UNL     1     -12.630  13.708  66.626  1.00  0.00    -0.156 A  
HETATM   16  C   UNL     1     -10.181  13.967  65.325  1.00  0.00    -0.383 A  
HETATM   17  H   UNL     1     -11.259  15.978  68.528  1.00  0.00     0.000 HD 
ENDBRANCH   7  10
ENDBRANCH   5   7
ENDBRANCH   3   5
ENDBRANCH   2   3
BRANCH   2  18
HETATM   18  C   UNL     1     -10.644  10.074  66.920  1.00  0.00    -0.261 C  
BRANCH  18  19
HETATM   19  C   UNL     1     -10.238  11.114  67.971  1.00  0.00    -0.201 C  
BRANCH  19  20
HETATM   20  C   UNL     1     -10.882  10.755  69.294  1.00  0.00    -0.287 A  
HETATM   21  C   UNL     1     -10.266   9.836  70.155  1.00  0.00    -0.328 A  
HETATM   22  C   UNL     1     -10.913   9.415  71.319  1.00  0.00    -0.440 A  
HETATM   23  C   UNL     1     -12.793  10.833  70.790  1.00  0.00    -0.408 A  
HETATM   24  C   UNL     1     -12.148  11.255  69.626  1.00  0.00    -0.391 A  
HETATM   25  C   UNL     1     -12.178   9.909  71.633  1.00  0.00    -0.482 A  
ENDBRANCH  19  20
ENDBRANCH  18  19
ENDBRANCH   2  18
TORSDOF 7
ENDMDL
MODEL       42
REMARK 921   NORMALIZED FREE ENERGY PREDICTED BY IDOCK:   -5.59 KCAL/MOL
REMARK 922        TOTAL FREE ENERGY PREDICTED BY IDOCK:   -9.51 KCAL/MOL
REMARK 923 INTER-LIGAND FREE ENERGY PREDICTED BY IDOCK:   -8.46 KCAL/MOL
REMARK 924 INTRA-LIGAND FREE ENERGY PREDICTED BY IDOCK:   -1.06 KCAL/MOL
REMARK 927      BINDING AFFINITY PREDICTED BY RF-SCORE:    0.00 PKD
ROOT
HETATM    1  C   UNL     1     -11.719  13.780  66.257  1.00  0.00    -0.400 C  
HETATM    2  C   UNL     1     -11.899  13.402  67.735  1.00  0.00    -0.358 C  
ENDROOT
BRANCH   2   3
HETATM    3  N   UNL     1     -10.988  14.141  68.623  1.00  0.00    -0.249 NA 
HETATM    4  H   UNL     1     -10.130  14.375  68.124  1.00  0.00     0.000 HD 
BRANCH   3   5
HETATM    5  C   UNL     1     -11.554  15.361  69.261  1.00  0.00    -0.339 C  
HETATM    6  C   UNL     1     -12.260  15.017  70.577  1.00  0.00    -0.391 C  
BRANCH   5   7
HETATM    7  C   UNL     1     -10.411  16.406  69.512  1.00  0.00    -0.278 C  
HETATM    8  H   UNL     1      -8.469  16.335  69.700  1.00  0.00     0.000 HD 
HETATM    9  O   UNL     1      -9.161  15.703  69.548  1.00  0.00    -0.272 OA 
BRANCH   7  10
HETATM   10  C   UNL     1     -10.311  17.548  68.507  1.00  0.00    -0.380 A  
HETATM   11  C   UNL     1     -10.066  18.878  68.897  1.00  0.00    -0.372 A  
HETATM   12  C   UNL     1     -10.105  19.608  66.601  1.00  0.00    -0.445 A  
HETATM   13  C   UNL     1     -10.313  18.303  66.183  1.00  0.00    -0.414 A  
HETATM   14  O   UNL     1     -10.033  20.583  65.649  1.00  0.00    -0.573 OA 
HETATM   15  C   UNL     1      -9.975  19.905  67.952  1.00  0.00    -0.552 A  
HETATM   16  C   UNL     1     -10.407  17.279  67.129  1.00  0.00    -0.321 A  
HETATM   17  H   UNL     1     -10.123  20.379  64.726  1.00  0.00     0.000 HD 
ENDBRANCH   7  10
ENDBRANCH   5   7
ENDBRANCH   3   5
ENDBRANCH   2   3
BRANCH   2  18
HETATM   18  C   UNL     1     -11.635  11.887  67.856  1.00  0.00    -0.393 C  
BRANCH  18  19
HETATM   19  C   UNL     1     -10.536  11.487  68.848  1.00  0.00    -0.236 C  
BRANCH  19  20
HETATM   20  C   UNL     1     -11.155  10.685  69.973  1.00  0.00    -0.359 A  
HETATM   21  C   UNL     1     -10.631   9.432  70.322  1.00  0.00    -0.297 A  
HETATM   22  C   UNL     1     -11.270   8.640  71.278  1.00  0.00    -0.338 A  
HETATM   23  C   UNL     1     -12.958  10.341  71.563  1.00  0.00    -0.556 A  
HETATM   24  C   UNL     1     -12.321  11.135  70.608  1.00  0.00    -0.482 A  
HETATM   25  C   UNL     1     -12.436   9.091  71.894  1.00  0.00    -0.454 A  
ENDBRANCH  19  20
ENDBRANCH  18  19
ENDBRANCH   2  18
TORSDOF 7
ENDMDL
MODEL       43
REMARK 921   NORMALIZED FREE ENERGY PREDICTED BY IDOCK:   -5.58 KCAL/MOL
REMARK 922        TOTAL FREE ENERGY PREDICTED BY IDOCK:   -9.49 KCAL/MOL
REMARK 923 INTER-LIGAND FREE ENERGY PREDICTED BY IDOCK:   -8.26 KCAL/MOL
REMARK 924 INTRA-LIGAND FREE ENERGY PREDICTED BY IDOCK:   -1.23 KCAL/MOL
REMARK 927      BINDING AFFINITY PREDICTED BY RF-SCORE:    0.00 PKD
ROOT
HETATM    1  C   UNL     1      -9.846  14.296  68.712  1.00  0.00    -0.189 C  
HETATM    2  C   UNL     1     -11.216  14.901  68.373  1.00  0.00    -0.292 C  
ENDROOT
BRANCH   2   3
HETATM    3  N   UNL     1     -12.333  14.113  68.916  1.00  0.00    -0.546 NA 
HETATM    4  H   UNL     1     -12.824  13.637  68.159  1.00  0.00     0.000 HD 
BRANCH   3   5
HETATM    5  C   UNL     1     -11.978  13.137  69.983  1.00  0.00    -0.321 C  
HETATM    6  C   UNL     1     -12.549  13.569  71.338  1.00  0.00    -0.398 C  
BRANCH   5   7
HETATM    7  C   UNL     1     -12.512  11.713  69.596  1.00  0.00     0.015 C  
HETATM    8  H   UNL     1     -12.345  10.528  68.053  1.00  0.00     0.000 HD 
HETATM    9  O   UNL     1     -12.022  11.390  68.287  1.00  0.00    -0.566 OA 
BRANCH   7  10
HETATM   10  C   UNL     1     -12.159  10.579  70.554  1.00  0.00    -0.437 A  
HETATM   11  C   UNL     1     -10.846  10.096  70.701  1.00  0.00    -0.305 A  
HETATM   12  C   UNL     1     -11.567   8.507  72.362  1.00  0.00    -0.354 A  
HETATM   13  C   UNL     1     -12.864   8.984  72.265  1.00  0.00    -0.474 A  
HETATM   14  O   UNL     1     -11.322   7.486  73.234  1.00  0.00    -0.599 OA 
HETATM   15  C   UNL     1     -10.551   9.057  71.591  1.00  0.00    -0.434 A  
HETATM   16  C   UNL     1     -13.157  10.019  71.373  1.00  0.00    -0.512 A  
HETATM   17  H   UNL     1     -12.018   7.109  73.761  1.00  0.00     0.000 HD 
ENDBRANCH   7  10
ENDBRANCH   5   7
ENDBRANCH   3   5
ENDBRANCH   2   3
BRANCH   2  18
HETATM   18  C   UNL     1     -11.321  14.967  66.835  1.00  0.00    -0.338 C  
BRANCH  18  19
HETATM   19  C   UNL     1     -12.495  14.197  66.221  1.00  0.00    -0.395 C  
BRANCH  19  20
HETATM   20  C   UNL     1     -11.959  13.193  65.223  1.00  0.00    -0.437 A  
HETATM   21  C   UNL     1     -10.593  12.878  65.198  1.00  0.00    -0.321 A  
HETATM   22  C   UNL     1     -10.077  12.044  64.205  1.00  0.00    -0.340 A  
HETATM   23  C   UNL     1     -12.282  11.811  63.252  1.00  0.00    -0.400 A  
HETATM   24  C   UNL     1     -12.800  12.645  64.245  1.00  0.00    -0.306 A  
HETATM   25  C   UNL     1     -10.920  11.515  63.229  1.00  0.00    -0.308 A  
ENDBRANCH  19  20
ENDBRANCH  18  19
ENDBRANCH   2  18
TORSDOF 7
ENDMDL
MODEL       44
REMARK 921   NORMALIZED FREE ENERGY PREDICTED BY IDOCK:   -5.57 KCAL/MOL
REMARK 922        TOTAL FREE ENERGY PREDICTED BY IDOCK:   -9.48 KCAL/MOL
REMARK 923 INTER-LIGAND FREE ENERGY PREDICTED BY IDOCK:   -8.49 KCAL/MOL
REMARK 924 INTRA-LIGAND FREE ENERGY PREDICTED BY IDOCK:   -0.99 KCAL/MOL
REMARK 927      BINDING AFFINITY PREDICTED BY RF-SCORE:    0.00 PKD
ROOT
HETATM    1  C   UNL     1     -12.965  14.478  71.126  1.00  0.00    -0.414 C  
HETATM    2  C   UNL     1     -12.156  14.788  69.858  1.00  0.00    -0.332 C  
ENDROOT
BRANCH   2   3
HETATM    3  N   UNL     1     -11.270  13.681  69.467  1.00  0.00    -0.423 NA 
HETATM    4  H   UNL     1     -10.892  13.227  70.299  1.00  0.00     0.000 HD 
BRANCH   3   5
HETATM    5  C   UNL     1     -11.868  12.662  68.561  1.00  0.00    -0.300 C  
HETATM    6  C   UNL     1     -11.873  13.152  67.109  1.00  0.00    -0.424 C  
BRANCH   5   7
HETATM    7  C   UNL     1     -11.070  11.316  68.678  1.00  0.00    -0.232 C  
HETATM    8  H   UNL     1      -9.186  10.804  68.704  1.00  0.00     0.000 HD 
HETATM    9  O   UNL     1      -9.669  11.619  68.633  1.00  0.00    -0.192 OA 
BRANCH   7  10
HETATM   10  C   UNL     1     -11.357  10.470  69.914  1.00  0.00    -0.380 A  
HETATM   11  C   UNL     1     -12.630  10.409  70.510  1.00  0.00    -0.384 A  
HETATM   12  C   UNL     1     -11.830   8.863  72.175  1.00  0.00    -0.347 A  
HETATM   13  C   UNL     1     -10.573   8.875  71.592  1.00  0.00    -0.422 A  
HETATM   14  O   UNL     1     -12.015   8.089  73.283  1.00  0.00    -0.598 OA 
HETATM   15  C   UNL     1     -12.865   9.620  71.641  1.00  0.00    -0.499 A  
HETATM   16  C   UNL     1     -10.340   9.666  70.464  1.00  0.00    -0.359 A  
HETATM   17  H   UNL     1     -11.307   7.572  73.649  1.00  0.00     0.000 HD 
ENDBRANCH   7  10
ENDBRANCH   5   7
ENDBRANCH   3   5
ENDBRANCH   2   3
BRANCH   2  18
HETATM   18  C   UNL     1     -11.319  16.052  70.145  1.00  0.00    -0.369 C  
BRANCH  18  19
HETATM   19  C   UNL     1     -10.006  16.165  69.362  1.00  0.00    -0.243 C  
BRANCH  19  20
HETATM   20  C   UNL     1     -10.087  17.355  68.431  1.00  0.00    -0.347 A  
HETATM   21  C   UNL     1     -10.052  18.660  68.943  1.00  0.00    -0.357 A  
HETATM   22  C   UNL     1     -10.245  19.756  68.100  1.00  0.00    -0.577 A  
HETATM   23  C   UNL     1     -10.497  18.267  66.217  1.00  0.00    -0.397 A  
HETATM   24  C   UNL     1     -10.304  17.170  67.058  1.00  0.00    -0.308 A  
HETATM   25  C   UNL     1     -10.473  19.560  66.739  1.00  0.00    -0.590 A  
ENDBRANCH  19  20
ENDBRANCH  18  19
ENDBRANCH   2  18
TORSDOF 7
ENDMDL
MODEL       45
REMARK 921   NORMALIZED FREE ENERGY PREDICTED BY IDOCK:   -5.56 KCAL/MOL
REMARK 922        TOTAL FREE ENERGY PREDICTED BY IDOCK:   -9.46 KCAL/MOL
REMARK 923 INTER-LIGAND FREE ENERGY PREDICTED BY IDOCK:   -8.22 KCAL/MOL
REMARK 924 INTRA-LIGAND FREE ENERGY PREDICTED BY IDOCK:   -1.24 KCAL/MOL
REMARK 927      BINDING AFFINITY PREDICTED BY RF-SCORE:    0.00 PKD
ROOT
HETATM    1  C   UNL     1      -7.410  15.043  67.218  1.00  0.00    -0.195 C  
HETATM    2  C   UNL     1      -8.887  14.629  67.131  1.00  0.00    -0.221 C  
ENDROOT
BRANCH   2   3
HETATM    3  N   UNL     1      -9.442  14.795  65.779  1.00  0.00    -0.506 NA 
HETATM    4  H   UNL     1      -9.334  13.929  65.250  1.00  0.00     0.000 HD 
BRANCH   3   5
HETATM    5  C   UNL     1     -10.856  15.256  65.712  1.00  0.00    -0.358 C  
HETATM    6  C   UNL     1     -10.998  16.462  64.777  1.00  0.00    -0.246 C  
BRANCH   5   7
HETATM    7  C   UNL     1     -11.774  14.080  65.228  1.00  0.00    -0.346 C  
HETATM    8  H   UNL     1     -12.985  13.778  63.725  1.00  0.00     0.000 HD 
HETATM    9  O   UNL     1     -12.428  14.490  64.019  1.00  0.00    -0.778 OA 
BRANCH   7  10
HETATM   10  C   UNL     1     -11.084  12.741  64.990  1.00  0.00    -0.317 A  
HETATM   11  C   UNL     1     -10.859  11.813  66.023  1.00  0.00    -0.343 A  
HETATM   12  C   UNL     1      -9.833  10.273  64.481  1.00  0.00    -0.315 A  
HETATM   13  C   UNL     1     -10.070  11.151  63.436  1.00  0.00    -0.439 A  
HETATM   14  O   UNL     1      -9.203   9.095  64.199  1.00  0.00    -0.424 OA 
HETATM   15  C   UNL     1     -10.226  10.590  65.775  1.00  0.00    -0.310 A  
HETATM   16  C   UNL     1     -10.699  12.373  63.687  1.00  0.00    -0.497 A  
HETATM   17  H   UNL     1      -8.934   8.879  63.314  1.00  0.00     0.000 HD 
ENDBRANCH   7  10
ENDBRANCH   5   7
ENDBRANCH   3   5
ENDBRANCH   2   3
BRANCH   2  18
HETATM   18  C   UNL     1      -9.669  15.506  68.131  1.00  0.00    -0.208 C  
BRANCH  18  19
HETATM   19  C   UNL     1      -8.860  16.620  68.803  1.00  0.00    -0.264 C  
BRANCH  19  20
HETATM   20  C   UNL     1      -9.201  17.942  68.149  1.00  0.00    -0.278 A  
HETATM   21  C   UNL     1     -10.534  18.371  68.072  1.00  0.00    -0.390 A  
HETATM   22  C   UNL     1     -10.864  19.530  67.368  1.00  0.00    -0.536 A  
HETATM   23  C   UNL     1      -8.538  19.861  66.816  1.00  0.00    -0.394 A  
HETATM   24  C   UNL     1      -8.206  18.703  67.521  1.00  0.00    -0.266 A  
HETATM   25  C   UNL     1      -9.868  20.271  66.735  1.00  0.00    -0.586 A  
ENDBRANCH  19  20
ENDBRANCH  18  19
ENDBRANCH   2  18
TORSDOF 7
ENDMDL
MODEL       46
REMARK 921   NORMALIZED FREE ENERGY PREDICTED BY IDOCK:   -5.53 KCAL/MOL
REMARK 922        TOTAL FREE ENERGY PREDICTED BY IDOCK:   -9.42 KCAL/MOL
REMARK 923 INTER-LIGAND FREE ENERGY PREDICTED BY IDOCK:   -8.07 KCAL/MOL
REMARK 924 INTRA-LIGAND FREE ENERGY PREDICTED BY IDOCK:   -1.35 KCAL/MOL
REMARK 927      BINDING AFFINITY PREDICTED BY RF-SCORE:    0.00 PKD
ROOT
HETATM    1  C   UNL     1      -7.560   9.895  69.445  1.00  0.00    -0.113 C  
HETATM    2  C   UNL     1      -9.085  10.049  69.348  1.00  0.00    -0.215 C  
ENDROOT
BRANCH   2   3
HETATM    3  N   UNL     1      -9.499  11.438  69.095  1.00  0.00    -0.412 NA 
HETATM    4  H   UNL     1      -8.684  12.051  69.102  1.00  0.00     0.000 HD 
BRANCH   3   5
HETATM    5  C   UNL     1     -10.291  11.661  67.854  1.00  0.00    -0.188 C  
HETATM    6  C   UNL     1     -10.374  10.381  67.015  1.00  0.00    -0.295 C  
BRANCH   5   7
HETATM    7  C   UNL     1     -11.731  12.162  68.228  1.00  0.00    -0.342 C  
HETATM    8  H   UNL     1     -13.345  11.350  68.969  1.00  0.00     0.000 HD 
HETATM    9  O   UNL     1     -12.473  11.047  68.742  1.00  0.00    -0.468 OA 
BRANCH   7  10
HETATM   10  C   UNL     1     -11.805  13.313  69.226  1.00  0.00    -0.383 A  
HETATM   11  C   UNL     1     -12.306  13.151  70.531  1.00  0.00    -0.380 A  
HETATM   12  C   UNL     1     -11.884  15.469  71.031  1.00  0.00    -0.382 A  
HETATM   13  C   UNL     1     -11.353  15.653  69.765  1.00  0.00    -0.327 A  
HETATM   14  O   UNL     1     -11.926  16.543  71.871  1.00  0.00    -0.650 OA 
HETATM   15  C   UNL     1     -12.358  14.224  71.426  1.00  0.00    -0.431 A  
HETATM   16  C   UNL     1     -11.306  14.580  68.871  1.00  0.00    -0.298 A  
HETATM   17  H   UNL     1     -11.603  17.395  71.601  1.00  0.00     0.000 HD 
ENDBRANCH   7  10
ENDBRANCH   5   7
ENDBRANCH   3   5
ENDBRANCH   2   3
BRANCH   2  18
HETATM   18  C   UNL     1      -9.681   9.559  70.684  1.00  0.00    -0.311 C  
BRANCH  18  19
HETATM   19  C   UNL     1     -10.370   8.191  70.636  1.00  0.00    -0.214 C  
BRANCH  19  20
HETATM   20  C   UNL     1     -11.807   8.346  71.086  1.00  0.00    -0.314 A  
HETATM   21  C   UNL     1     -12.257   9.565  71.613  1.00  0.00    -0.477 A  
HETATM   22  C   UNL     1     -13.546   9.677  72.137  1.00  0.00    -0.471 A  
HETATM   23  C   UNL     1     -13.965   7.360  71.606  1.00  0.00    -0.523 A  
HETATM   24  C   UNL     1     -12.677   7.247  71.081  1.00  0.00    -0.349 A  
HETATM   25  C   UNL     1     -14.398   8.574  72.139  1.00  0.00    -0.529 A  
ENDBRANCH  19  20
ENDBRANCH  18  19
ENDBRANCH   2  18
TORSDOF 7
ENDMDL
MODEL       47
REMARK 921   NORMALIZED FREE ENERGY PREDICTED BY IDOCK:   -5.53 KCAL/MOL
REMARK 922        TOTAL FREE ENERGY PREDICTED BY IDOCK:   -9.42 KCAL/MOL
REMARK 923 INTER-LIGAND FREE ENERGY PREDICTED BY IDOCK:   -8.55 KCAL/MOL
REMARK 924 INTRA-LIGAND FREE ENERGY PREDICTED BY IDOCK:   -0.87 KCAL/MOL
REMARK 927      BINDING AFFINITY PREDICTED BY RF-SCORE:    0.00 PKD
ROOT
HETATM    1  C   UNL     1     -10.567  14.611  66.174  1.00  0.00    -0.314 C  
HETATM    2  C   UNL     1     -10.473  14.300  67.675  1.00  0.00    -0.248 C  
ENDROOT
BRANCH   2   3
HETATM    3  N   UNL     1     -11.747  13.821  68.235  1.00  0.00    -0.339 NA 
HETATM    4  H   UNL     1     -12.282  13.335  67.516  1.00  0.00     0.000 HD 
BRANCH   3   5
HETATM    5  C   UNL     1     -11.640  12.969  69.451  1.00  0.00    -0.299 C  
HETATM    6  C   UNL     1     -12.323  13.633  70.651  1.00  0.00    -0.440 C  
BRANCH   5   7
HETATM    7  C   UNL     1     -12.278  11.563  69.170  1.00  0.00    -0.156 C  
HETATM    8  H   UNL     1     -12.134  10.218  67.761  1.00  0.00     0.000 HD 
HETATM    9  O   UNL     1     -11.748  11.070  67.932  1.00  0.00    -0.551 OA 
BRANCH   7  10
HETATM   10  C   UNL     1     -12.081  10.507  70.252  1.00  0.00    -0.402 A  
HETATM   11  C   UNL     1     -10.840   9.886  70.486  1.00  0.00    -0.391 A  
HETATM   12  C   UNL     1     -11.775   8.588  72.287  1.00  0.00    -0.373 A  
HETATM   13  C   UNL     1     -13.002   9.205  72.104  1.00  0.00    -0.498 A  
HETATM   14  O   UNL     1     -11.671   7.646  73.269  1.00  0.00    -0.649 OA 
HETATM   15  C   UNL     1     -10.689   8.923  71.489  1.00  0.00    -0.398 A  
HETATM   16  C   UNL     1     -13.152  10.164  71.099  1.00  0.00    -0.480 A  
HETATM   17  H   UNL     1     -12.415   7.416  73.814  1.00  0.00     0.000 HD 
ENDBRANCH   7  10
ENDBRANCH   5   7
ENDBRANCH   3   5
ENDBRANCH   2   3
BRANCH   2  18
HETATM   18  C   UNL     1     -10.043  15.599  68.387  1.00  0.00    -0.214 C  
BRANCH  18  19
HETATM   19  C   UNL     1     -10.978  16.798  68.190  1.00  0.00    -0.309 C  
BRANCH  19  20
HETATM   20  C   UNL     1     -10.153  18.011  67.816  1.00  0.00    -0.359 A  
HETATM   21  C   UNL     1      -8.758  17.993  67.965  1.00  0.00    -0.264 A  
HETATM   22  C   UNL     1      -8.008  19.147  67.733  1.00  0.00    -0.305 A  
HETATM   23  C   UNL     1     -10.025  20.353  67.186  1.00  0.00    -0.568 A  
HETATM   24  C   UNL     1     -10.778  19.200  67.417  1.00  0.00    -0.578 A  
HETATM   25  C   UNL     1      -8.641  20.328  67.350  1.00  0.00    -0.420 A  
ENDBRANCH  19  20
ENDBRANCH  18  19
ENDBRANCH   2  18
TORSDOF 7
ENDMDL
MODEL       48
REMARK 921   NORMALIZED FREE ENERGY PREDICTED BY IDOCK:   -5.49 KCAL/MOL
REMARK 922        TOTAL FREE ENERGY PREDICTED BY IDOCK:   -9.37 KCAL/MOL
REMARK 923 INTER-LIGAND FREE ENERGY PREDICTED BY IDOCK:   -7.79 KCAL/MOL
REMARK 924 INTRA-LIGAND FREE ENERGY PREDICTED BY IDOCK:   -1.57 KCAL/MOL
REMARK 927      BINDING AFFINITY PREDICTED BY RF-SCORE:    0.00 PKD
ROOT
HETATM    1  C   UNL     1     -11.579  15.550  71.293  1.00  0.00    -0.462 C  
HETATM    2  C   UNL     1     -11.288  14.922  69.922  1.00  0.00    -0.277 C  
ENDROOT
BRANCH   2   3
HETATM    3  N   UNL     1     -11.326  15.907  68.829  1.00  0.00    -0.357 NA 
HETATM    4  H   UNL     1     -11.387  16.850  69.212  1.00  0.00     0.000 HD 
BRANCH   3   5
HETATM    5  C   UNL     1     -10.209  15.829  67.848  1.00  0.00    -0.242 C  
HETATM    6  C   UNL     1      -9.496  14.475  67.931  1.00  0.00    -0.212 C  
BRANCH   5   7
HETATM    7  C   UNL     1     -10.760  16.066  66.398  1.00  0.00    -0.232 C  
HETATM    8  H   UNL     1     -10.103  16.933  64.776  1.00  0.00     0.000 HD 
HETATM    9  O   UNL     1      -9.769  16.789  65.654  1.00  0.00    -0.539 OA 
BRANCH   7  10
HETATM   10  C   UNL     1     -11.157  14.818  65.617  1.00  0.00    -0.342 A  
HETATM   11  C   UNL     1     -10.251  14.120  64.797  1.00  0.00    -0.311 A  
HETATM   12  C   UNL     1     -11.941  12.501  64.227  1.00  0.00    -0.408 A  
HETATM   13  C   UNL     1     -12.846  13.145  65.053  1.00  0.00    -0.370 A  
HETATM   14  O   UNL     1     -12.364  11.393  63.552  1.00  0.00    -0.537 OA 
HETATM   15  C   UNL     1     -10.642  12.974  64.095  1.00  0.00    -0.421 A  
HETATM   16  C   UNL     1     -12.455  14.291  65.750  1.00  0.00    -0.421 A  
HETATM   17  H   UNL     1     -13.253  11.069  63.641  1.00  0.00     0.000 HD 
ENDBRANCH   7  10
ENDBRANCH   5   7
ENDBRANCH   3   5
ENDBRANCH   2   3
BRANCH   2  18
HETATM   18  C   UNL     1     -12.351  13.831  69.681  1.00  0.00    -0.284 C  
BRANCH  18  19
HETATM   19  C   UNL     1     -12.147  12.528  70.462  1.00  0.00    -0.361 C  
BRANCH  19  20
HETATM   20  C   UNL     1     -11.545  11.490  69.540  1.00  0.00    -0.400 A  
HETATM   21  C   UNL     1     -11.602  11.658  68.149  1.00  0.00    -0.389 A  
HETATM   22  C   UNL     1     -11.153  10.649  67.295  1.00  0.00    -0.313 A  
HETATM   23  C   UNL     1     -10.571   9.290  69.203  1.00  0.00    -0.228 A  
HETATM   24  C   UNL     1     -11.018  10.299  70.059  1.00  0.00    -0.371 A  
HETATM   25  C   UNL     1     -10.644   9.464  67.822  1.00  0.00    -0.317 A  
ENDBRANCH  19  20
ENDBRANCH  18  19
ENDBRANCH   2  18
TORSDOF 7
ENDMDL
MODEL       49
REMARK 921   NORMALIZED FREE ENERGY PREDICTED BY IDOCK:   -5.48 KCAL/MOL
REMARK 922        TOTAL FREE ENERGY PREDICTED BY IDOCK:   -9.36 KCAL/MOL
REMARK 923 INTER-LIGAND FREE ENERGY PREDICTED BY IDOCK:   -6.91 KCAL/MOL
REMARK 924 INTRA-LIGAND FREE ENERGY PREDICTED BY IDOCK:   -2.44 KCAL/MOL
REMARK 927      BINDING AFFINITY PREDICTED BY RF-SCORE:    0.00 PKD
ROOT
HETATM    1  C   UNL     1     -12.286  11.814  70.460  1.00  0.00    -0.438 C  
HETATM    2  C   UNL     1     -11.299  12.039  69.305  1.00  0.00    -0.268 C  
ENDROOT
BRANCH   2   3
HETATM    3  N   UNL     1     -11.917  12.720  68.156  1.00  0.00    -0.308 NA 
HETATM    4  H   UNL     1     -12.919  12.533  68.139  1.00  0.00     0.000 HD 
BRANCH   3   5
HETATM    5  C   UNL     1     -11.672  14.185  68.064  1.00  0.00    -0.359 C  
HETATM    6  C   UNL     1     -10.277  14.545  68.587  1.00  0.00    -0.243 C  
BRANCH   5   7
HETATM    7  C   UNL     1     -11.835  14.657  66.577  1.00  0.00    -0.304 C  
HETATM    8  H   UNL     1     -11.083  16.079  65.470  1.00  0.00     0.000 HD 
HETATM    9  O   UNL     1     -10.984  15.793  66.371  1.00  0.00    -0.273 OA 
BRANCH   7  10
HETATM   10  C   UNL     1     -11.541  13.613  65.504  1.00  0.00    -0.337 A  
HETATM   11  C   UNL     1     -12.548  12.817  64.928  1.00  0.00    -0.541 A  
HETATM   12  C   UNL     1     -10.939  11.728  63.505  1.00  0.00    -0.424 A  
HETATM   13  C   UNL     1      -9.930  12.521  64.028  1.00  0.00    -0.225 A  
HETATM   14  O   UNL     1     -10.604  10.809  62.553  1.00  0.00    -0.660 OA 
HETATM   15  C   UNL     1     -12.249  11.870  63.943  1.00  0.00    -0.497 A  
HETATM   16  C   UNL     1     -10.230  13.463  65.015  1.00  0.00    -0.325 A  
HETATM   17  H   UNL     1      -9.708  10.711  62.254  1.00  0.00     0.000 HD 
ENDBRANCH   7  10
ENDBRANCH   5   7
ENDBRANCH   3   5
ENDBRANCH   2   3
BRANCH   2  18
HETATM   18  C   UNL     1     -10.775  10.654  68.873  1.00  0.00    -0.254 C  
BRANCH  18  19
HETATM   19  C   UNL     1     -11.033  10.278  67.409  1.00  0.00    -0.317 C  
BRANCH  19  20
HETATM   20  C   UNL     1      -9.706  10.121  66.699  1.00  0.00    -0.242 A  
HETATM   21  C   UNL     1      -8.618  10.937  67.041  1.00  0.00    -0.136 A  
HETATM   22  C   UNL     1      -7.430  10.875  66.309  1.00  0.00    -0.129 A  
HETATM   23  C   UNL     1      -8.389   9.174  64.891  1.00  0.00    -0.169 A  
HETATM   24  C   UNL     1      -9.577   9.234  65.622  1.00  0.00    -0.324 A  
HETATM   25  C   UNL     1      -7.318   9.998  65.232  1.00  0.00    -0.137 A  
ENDBRANCH  19  20
ENDBRANCH  18  19
ENDBRANCH   2  18
TORSDOF 7
ENDMDL
MODEL       50
REMARK 921   NORMALIZED FREE ENERGY PREDICTED BY IDOCK:   -5.45 KCAL/MOL
REMARK 922        TOTAL FREE ENERGY PREDICTED BY IDOCK:   -9.31 KCAL/MOL
REMARK 923 INTER-LIGAND FREE ENERGY PREDICTED BY IDOCK:   -7.34 KCAL/MOL
REMARK 924 INTRA-LIGAND FREE ENERGY PREDICTED BY IDOCK:   -1.97 KCAL/MOL
REMARK 927      BINDING AFFINITY PREDICTED BY RF-SCORE:    0.00 PKD
ROOT
HETATM    1  C   UNL     1     -11.407  13.860  64.678  1.00  0.00    -0.380 C  
HETATM    2  C   UNL     1     -12.248  13.604  65.938  1.00  0.00    -0.461 C  
ENDROOT
BRANCH   2   3
HETATM    3  N   UNL     1     -11.997  14.593  66.997  1.00  0.00    -0.426 NA 
HETATM    4  H   UNL     1     -12.871  14.831  67.466  1.00  0.00     0.000 HD 
BRANCH   3   5
HETATM    5  C   UNL     1     -10.968  14.216  68.005  1.00  0.00    -0.255 C  
HETATM    6  C   UNL     1      -9.651  14.957  67.751  1.00  0.00    -0.208 C  
BRANCH   5   7
HETATM    7  C   UNL     1     -11.500  14.530  69.448  1.00  0.00    -0.285 C  
HETATM    8  H   UNL     1     -12.835  15.731  70.216  1.00  0.00     0.000 HD 
HETATM    9  O   UNL     1     -12.513  15.541  69.342  1.00  0.00    -0.197 OA 
BRANCH   7  10
HETATM   10  C   UNL     1     -12.058  13.346  70.231  1.00  0.00    -0.419 A  
HETATM   11  C   UNL     1     -11.723  12.014  69.927  1.00  0.00    -0.374 A  
HETATM   12  C   UNL     1     -13.094  11.207  71.736  1.00  0.00    -0.431 A  
HETATM   13  C   UNL     1     -13.416  12.509  72.082  1.00  0.00    -0.523 A  
HETATM   14  O   UNL     1     -13.634  10.195  72.475  1.00  0.00    -0.627 OA 
HETATM   15  C   UNL     1     -12.247  10.948  70.666  1.00  0.00    -0.472 A  
HETATM   16  C   UNL     1     -12.894  13.572  71.340  1.00  0.00    -0.440 A  
HETATM   17  H   UNL     1     -14.214  10.372  73.206  1.00  0.00     0.000 HD 
ENDBRANCH   7  10
ENDBRANCH   5   7
ENDBRANCH   3   5
ENDBRANCH   2   3
BRANCH   2  18
HETATM   18  C   UNL     1     -11.893  12.191  66.446  1.00  0.00    -0.321 C  
BRANCH  18  19
HETATM   19  C   UNL     1     -10.588  11.602  65.898  1.00  0.00    -0.318 C  
BRANCH  19  20
HETATM   20  C   UNL     1     -10.021  10.631  66.911  1.00  0.00    -0.245 A  
HETATM   21  C   UNL     1     -10.660   9.407  67.154  1.00  0.00    -0.294 A  
HETATM   22  C   UNL     1     -10.207   8.562  68.170  1.00  0.00    -0.254 A  
HETATM   23  C   UNL     1      -8.462  10.140  68.708  1.00  0.00    -0.131 A  
HETATM   24  C   UNL     1      -8.913  10.986  67.693  1.00  0.00    -0.142 A  
HETATM   25  C   UNL     1      -9.113   8.931  68.950  1.00  0.00    -0.140 A  
ENDBRANCH  19  20
ENDBRANCH  18  19
ENDBRANCH   2  18
TORSDOF 7
ENDMDL
MODEL       51
REMARK 921   NORMALIZED FREE ENERGY PREDICTED BY IDOCK:   -5.44 KCAL/MOL
REMARK 922        TOTAL FREE ENERGY PREDICTED BY IDOCK:   -9.29 KCAL/MOL
REMARK 923 INTER-LIGAND FREE ENERGY PREDICTED BY IDOCK:   -8.15 KCAL/MOL
REMARK 924 INTRA-LIGAND FREE ENERGY PREDICTED BY IDOCK:   -1.15 KCAL/MOL
REMARK 927      BINDING AFFINITY PREDICTED BY RF-SCORE:    0.00 PKD
ROOT
HETATM    1  C   UNL     1     -12.480  13.921  65.303  1.00  0.00    -0.504 C  
HETATM    2  C   UNL     1     -11.108  14.348  64.759  1.00  0.00    -0.394 C  
ENDROOT
BRANCH   2   3
HETATM    3  N   UNL     1     -10.018  13.478  65.229  1.00  0.00    -0.516 NA 
HETATM    4  H   UNL     1      -9.446  13.976  65.911  1.00  0.00     0.000 HD 
BRANCH   3   5
HETATM    5  C   UNL     1     -10.433  12.159  65.780  1.00  0.00    -0.253 C  
HETATM    6  C   UNL     1     -10.244  11.045  64.744  1.00  0.00    -0.381 C  
BRANCH   5   7
HETATM    7  C   UNL     1      -9.607  11.844  67.076  1.00  0.00    -0.189 C  
HETATM    8  H   UNL     1      -8.233  12.760  68.117  1.00  0.00     0.000 HD 
HETATM    9  O   UNL     1      -8.733  12.952  67.332  1.00  0.00    -0.177 OA 
BRANCH   7  10
HETATM   10  C   UNL     1     -10.417  11.548  68.334  1.00  0.00    -0.226 A  
HETATM   11  C   UNL     1     -10.206  10.397  69.116  1.00  0.00    -0.239 A  
HETATM   12  C   UNL     1     -11.923  11.075  70.663  1.00  0.00    -0.365 A  
HETATM   13  C   UNL     1     -12.131  12.235  69.935  1.00  0.00    -0.319 A  
HETATM   14  O   UNL     1     -12.687  10.870  71.775  1.00  0.00    -0.398 OA 
HETATM   15  C   UNL     1     -10.962  10.154  70.267  1.00  0.00    -0.380 A  
HETATM   16  C   UNL     1     -11.377  12.474  68.782  1.00  0.00    -0.337 A  
HETATM   17  H   UNL     1     -13.345  11.500  72.045  1.00  0.00     0.000 HD 
ENDBRANCH   7  10
ENDBRANCH   5   7
ENDBRANCH   3   5
ENDBRANCH   2   3
BRANCH   2  18
HETATM   18  C   UNL     1     -10.860  15.797  65.226  1.00  0.00    -0.409 C  
BRANCH  18  19
HETATM   19  C   UNL     1     -10.525  15.962  66.713  1.00  0.00    -0.309 C  
BRANCH  19  20
HETATM   20  C   UNL     1     -10.455  17.438  67.042  1.00  0.00    -0.284 A  
HETATM   21  C   UNL     1     -10.509  18.396  66.019  1.00  0.00    -0.400 A  
HETATM   22  C   UNL     1     -10.327  19.750  66.307  1.00  0.00    -0.626 A  
HETATM   23  C   UNL     1     -10.048  19.217  68.644  1.00  0.00    -0.499 A  
HETATM   24  C   UNL     1     -10.230  17.863  68.358  1.00  0.00    -0.398 A  
HETATM   25  C   UNL     1     -10.091  20.160  67.618  1.00  0.00    -0.542 A  
ENDBRANCH  19  20
ENDBRANCH  18  19
ENDBRANCH   2  18
TORSDOF 7
ENDMDL
MODEL       52
REMARK 921   NORMALIZED FREE ENERGY PREDICTED BY IDOCK:   -5.39 KCAL/MOL
REMARK 922        TOTAL FREE ENERGY PREDICTED BY IDOCK:   -9.23 KCAL/MOL
REMARK 923 INTER-LIGAND FREE ENERGY PREDICTED BY IDOCK:   -7.70 KCAL/MOL
REMARK 924 INTRA-LIGAND FREE ENERGY PREDICTED BY IDOCK:   -1.53 KCAL/MOL
REMARK 927      BINDING AFFINITY PREDICTED BY RF-SCORE:    0.00 PKD
ROOT
HETATM    1  C   UNL     1      -8.080  13.233  67.139  1.00  0.00    -0.099 C  
HETATM    2  C   UNL     1      -8.773  14.597  67.013  1.00  0.00    -0.235 C  
ENDROOT
BRANCH   2   3
HETATM    3  N   UNL     1      -9.519  14.740  65.753  1.00  0.00    -0.506 NA 
HETATM    4  H   UNL     1      -9.583  13.837  65.283  1.00  0.00     0.000 HD 
BRANCH   3   5
HETATM    5  C   UNL     1     -10.873  15.348  65.867  1.00  0.00    -0.325 C  
HETATM    6  C   UNL     1     -11.197  16.206  64.639  1.00  0.00    -0.307 C  
BRANCH   5   7
HETATM    7  C   UNL     1     -11.948  14.219  66.042  1.00  0.00    -0.400 C  
HETATM    8  H   UNL     1     -12.519  12.659  65.015  1.00  0.00     0.000 HD 
HETATM    9  O   UNL     1     -11.867  13.343  64.909  1.00  0.00    -0.344 OA 
BRANCH   7  10
HETATM   10  C   UNL     1     -11.852  13.391  67.320  1.00  0.00    -0.422 A  
HETATM   11  C   UNL     1     -12.013  13.954  68.599  1.00  0.00    -0.401 A  
HETATM   12  C   UNL     1     -11.696  11.803  69.637  1.00  0.00    -0.344 A  
HETATM   13  C   UNL     1     -11.566  11.213  68.390  1.00  0.00    -0.376 A  
HETATM   14  O   UNL     1     -11.592  11.005  70.738  1.00  0.00    -0.384 OA 
HETATM   15  C   UNL     1     -11.924  13.168  69.753  1.00  0.00    -0.382 A  
HETATM   16  C   UNL     1     -11.652  12.000  67.239  1.00  0.00    -0.383 A  
HETATM   17  H   UNL     1     -11.435  10.071  70.659  1.00  0.00     0.000 HD 
ENDBRANCH   7  10
ENDBRANCH   5   7
ENDBRANCH   3   5
ENDBRANCH   2   3
BRANCH   2  18
HETATM   18  C   UNL     1      -7.675  15.678  67.097  1.00  0.00    -0.258 C  
BRANCH  18  19
HETATM   19  C   UNL     1      -7.866  16.728  68.198  1.00  0.00    -0.182 C  
BRANCH  19  20
HETATM   20  C   UNL     1      -8.680  17.879  67.646  1.00  0.00    -0.242 A  
HETATM   21  C   UNL     1      -9.962  18.146  68.148  1.00  0.00    -0.368 A  
HETATM   22  C   UNL     1     -10.759  19.131  67.563  1.00  0.00    -0.555 A  
HETATM   23  C   UNL     1      -9.007  19.610  65.974  1.00  0.00    -0.279 A  
HETATM   24  C   UNL     1      -8.207  18.626  66.558  1.00  0.00    -0.301 A  
HETATM   25  C   UNL     1     -10.285  19.858  66.473  1.00  0.00    -0.611 A  
ENDBRANCH  19  20
ENDBRANCH  18  19
ENDBRANCH   2  18
TORSDOF 7
ENDMDL
MODEL       53
REMARK 921   NORMALIZED FREE ENERGY PREDICTED BY IDOCK:   -5.38 KCAL/MOL
REMARK 922        TOTAL FREE ENERGY PREDICTED BY IDOCK:   -9.22 KCAL/MOL
REMARK 923 INTER-LIGAND FREE ENERGY PREDICTED BY IDOCK:   -7.50 KCAL/MOL
REMARK 924 INTRA-LIGAND FREE ENERGY PREDICTED BY IDOCK:   -1.72 KCAL/MOL
REMARK 927      BINDING AFFINITY PREDICTED BY RF-SCORE:    0.00 PKD
ROOT
HETATM    1  C   UNL     1     -10.849  17.649  67.779  1.00  0.00    -0.241 C  
HETATM    2  C   UNL     1      -9.968  17.194  68.952  1.00  0.00    -0.304 C  
ENDROOT
BRANCH   2   3
HETATM    3  N   UNL     1      -8.834  16.361  68.519  1.00  0.00    -0.214 NA 
HETATM    4  H   UNL     1      -8.876  15.451  68.977  1.00  0.00     0.000 HD 
BRANCH   3   5
HETATM    5  C   UNL     1      -8.687  16.183  67.048  1.00  0.00    -0.202 C  
HETATM    6  C   UNL     1      -7.678  17.182  66.470  1.00  0.00    -0.321 C  
BRANCH   5   7
HETATM    7  C   UNL     1      -8.238  14.712  66.736  1.00  0.00     0.038 C  
HETATM    8  H   UNL     1      -6.719  13.582  67.216  1.00  0.00     0.000 HD 
HETATM    9  O   UNL     1      -6.992  14.472  67.405  1.00  0.00    -0.186 OA 
BRANCH   7  10
HETATM   10  C   UNL     1      -9.225  13.613  67.112  1.00  0.00    -0.244 A  
HETATM   11  C   UNL     1      -9.068  12.817  68.262  1.00  0.00    -0.180 A  
HETATM   12  C   UNL     1     -11.100  11.622  67.770  1.00  0.00    -0.249 A  
HETATM   13  C   UNL     1     -11.302  12.411  66.650  1.00  0.00    -0.394 A  
HETATM   14  O   UNL     1     -12.020  10.651  68.045  1.00  0.00    -0.784 OA 
HETATM   15  C   UNL     1      -9.993  11.818  68.585  1.00  0.00    -0.181 A  
HETATM   16  C   UNL     1     -10.375  13.406  66.328  1.00  0.00    -0.291 A  
HETATM   17  H   UNL     1     -12.777  10.516  67.487  1.00  0.00     0.000 HD 
ENDBRANCH   7  10
ENDBRANCH   5   7
ENDBRANCH   3   5
ENDBRANCH   2   3
BRANCH   2  18
HETATM   18  C   UNL     1     -10.866  16.393  69.917  1.00  0.00    -0.333 C  
BRANCH  18  19
HETATM   19  C   UNL     1     -11.686  15.269  69.274  1.00  0.00    -0.359 C  
BRANCH  19  20
HETATM   20  C   UNL     1     -12.557  14.626  70.333  1.00  0.00    -0.399 A  
HETATM   21  C   UNL     1     -13.519  15.383  71.015  1.00  0.00    -0.510 A  
HETATM   22  C   UNL     1     -14.241  14.824  72.072  1.00  0.00    -0.626 A  
HETATM   23  C   UNL     1     -13.063  12.738  71.775  1.00  0.00    -0.455 A  
HETATM   24  C   UNL     1     -12.341  13.295  70.718  1.00  0.00    -0.425 A  
HETATM   25  C   UNL     1     -14.009  13.504  72.455  1.00  0.00    -0.638 A  
ENDBRANCH  19  20
ENDBRANCH  18  19
ENDBRANCH   2  18
TORSDOF 7
ENDMDL
MODEL       54
REMARK 921   NORMALIZED FREE ENERGY PREDICTED BY IDOCK:   -5.38 KCAL/MOL
REMARK 922        TOTAL FREE ENERGY PREDICTED BY IDOCK:   -9.21 KCAL/MOL
REMARK 923 INTER-LIGAND FREE ENERGY PREDICTED BY IDOCK:   -8.54 KCAL/MOL
REMARK 924 INTRA-LIGAND FREE ENERGY PREDICTED BY IDOCK:   -0.67 KCAL/MOL
REMARK 927      BINDING AFFINITY PREDICTED BY RF-SCORE:    0.00 PKD
ROOT
HETATM    1  C   UNL     1     -10.497   8.055  66.847  1.00  0.00    -0.387 C  
HETATM    2  C   UNL     1     -10.061   9.121  67.862  1.00  0.00    -0.199 C  
ENDROOT
BRANCH   2   3
HETATM    3  N   UNL     1     -11.166   9.565  68.727  1.00  0.00    -0.466 NA 
HETATM    4  H   UNL     1     -12.060   9.335  68.294  1.00  0.00     0.000 HD 
BRANCH   3   5
HETATM    5  C   UNL     1     -11.136   9.060  70.127  1.00  0.00    -0.207 C  
HETATM    6  C   UNL     1      -9.836   9.466  70.831  1.00  0.00    -0.338 C  
BRANCH   5   7
HETATM    7  C   UNL     1     -12.376   9.610  70.915  1.00  0.00    -0.263 C  
HETATM    8  H   UNL     1     -13.090   9.403  72.721  1.00  0.00     0.000 HD 
HETATM    9  O   UNL     1     -12.339   9.070  72.243  1.00  0.00    -0.364 OA 
BRANCH   7  10
HETATM   10  C   UNL     1     -12.501  11.128  70.999  1.00  0.00    -0.506 A  
HETATM   11  C   UNL     1     -11.925  11.987  70.044  1.00  0.00    -0.400 A  
HETATM   12  C   UNL     1     -12.795  13.919  71.190  1.00  0.00    -0.351 A  
HETATM   13  C   UNL     1     -13.403  13.099  72.127  1.00  0.00    -0.621 A  
HETATM   14  O   UNL     1     -12.942  15.269  71.329  1.00  0.00    -0.369 OA 
HETATM   15  C   UNL     1     -12.061  13.376  70.144  1.00  0.00    -0.415 A  
HETATM   16  C   UNL     1     -13.263  11.712  72.027  1.00  0.00    -0.443 A  
HETATM   17  H   UNL     1     -13.444  15.641  72.045  1.00  0.00     0.000 HD 
ENDBRANCH   7  10
ENDBRANCH   5   7
ENDBRANCH   3   5
ENDBRANCH   2   3
BRANCH   2  18
HETATM   18  C   UNL     1      -9.509  10.319  67.061  1.00  0.00    -0.191 C  
BRANCH  18  19
HETATM   19  C   UNL     1      -9.822  10.308  65.561  1.00  0.00    -0.347 C  
BRANCH  19  20
HETATM   20  C   UNL     1     -10.781  11.436  65.248  1.00  0.00    -0.326 A  
HETATM   21  C   UNL     1     -11.104  11.743  63.918  1.00  0.00    -0.482 A  
HETATM   22  C   UNL     1     -11.894  12.855  63.621  1.00  0.00    -0.599 A  
HETATM   23  C   UNL     1     -12.065  13.366  65.974  1.00  0.00    -0.487 A  
HETATM   24  C   UNL     1     -11.275  12.254  66.273  1.00  0.00    -0.367 A  
HETATM   25  C   UNL     1     -12.369  13.669  64.648  1.00  0.00    -0.413 A  
ENDBRANCH  19  20
ENDBRANCH  18  19
ENDBRANCH   2  18
TORSDOF 7
ENDMDL
MODEL       55
REMARK 921   NORMALIZED FREE ENERGY PREDICTED BY IDOCK:   -5.38 KCAL/MOL
REMARK 922        TOTAL FREE ENERGY PREDICTED BY IDOCK:   -9.21 KCAL/MOL
REMARK 923 INTER-LIGAND FREE ENERGY PREDICTED BY IDOCK:   -8.29 KCAL/MOL
REMARK 924 INTRA-LIGAND FREE ENERGY PREDICTED BY IDOCK:   -0.92 KCAL/MOL
REMARK 927      BINDING AFFINITY PREDICTED BY RF-SCORE:    0.00 PKD
ROOT
HETATM    1  C   UNL     1     -10.458  10.752  66.570  1.00  0.00    -0.299 C  
HETATM    2  C   UNL     1     -10.877  11.992  67.374  1.00  0.00    -0.242 C  
ENDROOT
BRANCH   2   3
HETATM    3  N   UNL     1     -10.064  13.176  67.053  1.00  0.00    -0.238 NA 
HETATM    4  H   UNL     1      -9.431  12.964  66.282  1.00  0.00     0.000 HD 
BRANCH   3   5
HETATM    5  C   UNL     1     -10.824  14.422  66.759  1.00  0.00    -0.301 C  
HETATM    6  C   UNL     1     -12.286  14.108  66.420  1.00  0.00    -0.473 C  
BRANCH   5   7
HETATM    7  C   UNL     1     -10.747  15.392  67.990  1.00  0.00    -0.279 C  
HETATM    8  H   UNL     1      -9.660  15.515  69.607  1.00  0.00     0.000 HD 
HETATM    9  O   UNL     1      -9.707  14.928  68.862  1.00  0.00    -0.214 OA 
BRANCH   7  10
HETATM   10  C   UNL     1     -10.510  16.864  67.672  1.00  0.00    -0.332 A  
HETATM   11  C   UNL     1     -10.511  17.363  66.356  1.00  0.00    -0.267 A  
HETATM   12  C   UNL     1     -10.099  19.598  67.152  1.00  0.00    -0.411 A  
HETATM   13  C   UNL     1     -10.125  19.145  68.460  1.00  0.00    -0.499 A  
HETATM   14  O   UNL     1      -9.874  20.927  66.938  1.00  0.00    -0.620 OA 
HETATM   15  C   UNL     1     -10.295  18.720  66.094  1.00  0.00    -0.494 A  
HETATM   16  C   UNL     1     -10.338  17.788  68.719  1.00  0.00    -0.332 A  
HETATM   17  H   UNL     1      -9.739  21.528  67.662  1.00  0.00     0.000 HD 
ENDBRANCH   7  10
ENDBRANCH   5   7
ENDBRANCH   3   5
ENDBRANCH   2   3
BRANCH   2  18
HETATM   18  C   UNL     1     -10.724  11.641  68.869  1.00  0.00    -0.244 C  
BRANCH  18  19
HETATM   19  C   UNL     1     -12.035  11.492  69.648  1.00  0.00    -0.407 C  
BRANCH  19  20
HETATM   20  C   UNL     1     -11.909  10.330  70.610  1.00  0.00    -0.439 A  
HETATM   21  C   UNL     1     -13.005   9.931  71.388  1.00  0.00    -0.504 A  
HETATM   22  C   UNL     1     -12.860   8.939  72.359  1.00  0.00    -0.446 A  
HETATM   23  C   UNL     1     -10.526   8.715  71.785  1.00  0.00    -0.394 A  
HETATM   24  C   UNL     1     -10.669   9.707  70.813  1.00  0.00    -0.401 A  
HETATM   25  C   UNL     1     -11.620   8.335  72.561  1.00  0.00    -0.454 A  
ENDBRANCH  19  20
ENDBRANCH  18  19
ENDBRANCH   2  18
TORSDOF 7
ENDMDL
MODEL       56
REMARK 921   NORMALIZED FREE ENERGY PREDICTED BY IDOCK:   -5.38 KCAL/MOL
REMARK 922        TOTAL FREE ENERGY PREDICTED BY IDOCK:   -9.21 KCAL/MOL
REMARK 923 INTER-LIGAND FREE ENERGY PREDICTED BY IDOCK:   -7.71 KCAL/MOL
REMARK 924 INTRA-LIGAND FREE ENERGY PREDICTED BY IDOCK:   -1.50 KCAL/MOL
REMARK 927      BINDING AFFINITY PREDICTED BY RF-SCORE:    0.00 PKD
ROOT
HETATM    1  C   UNL     1      -7.905  11.503  68.556  1.00  0.00    -0.140 C  
HETATM    2  C   UNL     1      -9.049  12.383  68.030  1.00  0.00    -0.195 C  
ENDROOT
BRANCH   2   3
HETATM    3  N   UNL     1      -9.349  13.514  68.923  1.00  0.00    -0.392 NA 
HETATM    4  H   UNL     1      -8.893  13.375  69.825  1.00  0.00     0.000 HD 
BRANCH   3   5
HETATM    5  C   UNL     1      -9.020  14.864  68.390  1.00  0.00    -0.183 C  
HETATM    6  C   UNL     1      -8.732  14.807  66.885  1.00  0.00    -0.264 C  
BRANCH   5   7
HETATM    7  C   UNL     1     -10.204  15.851  68.681  1.00  0.00    -0.223 C  
HETATM    8  H   UNL     1     -11.186  16.429  70.267  1.00  0.00     0.000 HD 
HETATM    9  O   UNL     1     -10.469  15.831  70.090  1.00  0.00    -0.306 OA 
BRANCH   7  10
HETATM   10  C   UNL     1     -10.002  17.295  68.233  1.00  0.00    -0.313 A  
HETATM   11  C   UNL     1     -10.885  17.943  67.349  1.00  0.00    -0.218 A  
HETATM   12  C   UNL     1      -9.592  19.972  67.470  1.00  0.00    -0.393 A  
HETATM   13  C   UNL     1      -8.724  19.373  68.368  1.00  0.00    -0.397 A  
HETATM   14  O   UNL     1      -9.348  21.264  67.107  1.00  0.00    -0.618 OA 
HETATM   15  C   UNL     1     -10.676  19.270  66.959  1.00  0.00    -0.565 A  
HETATM   16  C   UNL     1      -8.932  18.046  68.754  1.00  0.00    -0.221 A  
HETATM   17  H   UNL     1      -8.606  21.744  67.456  1.00  0.00     0.000 HD 
ENDBRANCH   7  10
ENDBRANCH   5   7
ENDBRANCH   3   5
ENDBRANCH   2   3
BRANCH   2  18
HETATM   18  C   UNL     1     -10.293  11.482  67.890  1.00  0.00    -0.203 C  
BRANCH  18  19
HETATM   19  C   UNL     1     -11.623  12.219  67.696  1.00  0.00    -0.421 C  
BRANCH  19  20
HETATM   20  C   UNL     1     -11.703  12.726  66.272  1.00  0.00    -0.460 A  
HETATM   21  C   UNL     1     -12.341  13.942  65.987  1.00  0.00    -0.511 A  
HETATM   22  C   UNL     1     -12.520  14.354  64.666  1.00  0.00    -0.364 A  
HETATM   23  C   UNL     1     -11.417  12.353  63.889  1.00  0.00    -0.509 A  
HETATM   24  C   UNL     1     -11.236  11.939  65.210  1.00  0.00    -0.351 A  
HETATM   25  C   UNL     1     -12.064  13.557  63.617  1.00  0.00    -0.459 A  
ENDBRANCH  19  20
ENDBRANCH  18  19
ENDBRANCH   2  18
TORSDOF 7
ENDMDL
MODEL       57
REMARK 921   NORMALIZED FREE ENERGY PREDICTED BY IDOCK:   -5.36 KCAL/MOL
REMARK 922        TOTAL FREE ENERGY PREDICTED BY IDOCK:   -9.19 KCAL/MOL
REMARK 923 INTER-LIGAND FREE ENERGY PREDICTED BY IDOCK:   -7.76 KCAL/MOL
REMARK 924 INTRA-LIGAND FREE ENERGY PREDICTED BY IDOCK:   -1.43 KCAL/MOL
REMARK 927      BINDING AFFINITY PREDICTED BY RF-SCORE:    0.00 PKD
ROOT
HETATM    1  C   UNL     1     -10.640   7.416  67.547  1.00  0.00    -0.340 C  
HETATM    2  C   UNL     1     -10.272   8.811  67.021  1.00  0.00    -0.281 C  
ENDROOT
BRANCH   2   3
HETATM    3  N   UNL     1      -9.635   8.767  65.696  1.00  0.00    -0.458 NA 
HETATM    4  H   UNL     1     -10.347   8.800  64.966  1.00  0.00     0.000 HD 
BRANCH   3   5
HETATM    5  C   UNL     1      -8.598   9.804  65.441  1.00  0.00    -0.149 C  
HETATM    6  C   UNL     1      -7.263   9.164  65.046  1.00  0.00    -0.096 C  
BRANCH   5   7
HETATM    7  C   UNL     1      -9.090  10.778  64.313  1.00  0.00    -0.195 C  
HETATM    8  H   UNL     1      -9.710  10.585  62.471  1.00  0.00     0.000 HD 
HETATM    9  O   UNL     1      -9.412   9.995  63.154  1.00  0.00    -0.299 OA 
BRANCH   7  10
HETATM   10  C   UNL     1     -10.281  11.664  64.661  1.00  0.00    -0.327 A  
HETATM   11  C   UNL     1     -10.285  12.520  65.778  1.00  0.00    -0.289 A  
HETATM   12  C   UNL     1     -12.498  13.300  65.232  1.00  0.00    -0.489 A  
HETATM   13  C   UNL     1     -12.511  12.494  64.106  1.00  0.00    -0.518 A  
HETATM   14  O   UNL     1     -13.600  14.063  65.489  1.00  0.00    -0.673 OA 
HETATM   15  C   UNL     1     -11.391  13.325  66.071  1.00  0.00    -0.329 A  
HETATM   16  C   UNL     1     -11.407  11.687  63.817  1.00  0.00    -0.482 A  
HETATM   17  H   UNL     1     -14.357  14.045  64.915  1.00  0.00     0.000 HD 
ENDBRANCH   7  10
ENDBRANCH   5   7
ENDBRANCH   3   5
ENDBRANCH   2   3
BRANCH   2  18
HETATM   18  C   UNL     1      -9.308   9.447  68.045  1.00  0.00    -0.140 C  
BRANCH  18  19
HETATM   19  C   UNL     1      -9.792  10.755  68.681  1.00  0.00    -0.187 C  
BRANCH  19  20
HETATM   20  C   UNL     1     -10.710  10.430  69.840  1.00  0.00    -0.331 A  
HETATM   21  C   UNL     1     -10.348   9.453  70.778  1.00  0.00    -0.366 A  
HETATM   22  C   UNL     1     -11.242   9.068  71.779  1.00  0.00    -0.448 A  
HETATM   23  C   UNL     1     -12.870  10.636  70.932  1.00  0.00    -0.473 A  
HETATM   24  C   UNL     1     -11.977  11.023  69.931  1.00  0.00    -0.427 A  
HETATM   25  C   UNL     1     -12.504   9.655  71.852  1.00  0.00    -0.459 A  
ENDBRANCH  19  20
ENDBRANCH  18  19
ENDBRANCH   2  18
TORSDOF 7
ENDMDL
MODEL       58
REMARK 921   NORMALIZED FREE ENERGY PREDICTED BY IDOCK:   -5.36 KCAL/MOL
REMARK 922        TOTAL FREE ENERGY PREDICTED BY IDOCK:   -9.18 KCAL/MOL
REMARK 923 INTER-LIGAND FREE ENERGY PREDICTED BY IDOCK:   -7.58 KCAL/MOL
REMARK 924 INTRA-LIGAND FREE ENERGY PREDICTED BY IDOCK:   -1.60 KCAL/MOL
REMARK 927      BINDING AFFINITY PREDICTED BY RF-SCORE:    0.00 PKD
ROOT
HETATM    1  C   UNL     1     -13.142  10.366  71.051  1.00  0.00    -0.450 C  
HETATM    2  C   UNL     1     -11.895  11.072  70.498  1.00  0.00    -0.367 C  
ENDROOT
BRANCH   2   3
HETATM    3  N   UNL     1     -12.078  11.544  69.116  1.00  0.00    -0.325 NA 
HETATM    4  H   UNL     1     -12.869  11.063  68.686  1.00  0.00     0.000 HD 
BRANCH   3   5
HETATM    5  C   UNL     1     -12.227  13.015  68.948  1.00  0.00    -0.035 C  
HETATM    6  C   UNL     1     -12.056  13.742  70.287  1.00  0.00    -0.425 C  
BRANCH   5   7
HETATM    7  C   UNL     1     -11.176  13.538  67.906  1.00  0.00    -0.274 C  
HETATM    8  H   UNL     1      -9.232  13.710  67.847  1.00  0.00     0.000 HD 
HETATM    9  O   UNL     1      -9.868  13.394  68.478  1.00  0.00    -0.230 OA 
BRANCH   7  10
HETATM   10  C   UNL     1     -11.197  12.870  66.536  1.00  0.00    -0.340 A  
HETATM   11  C   UNL     1     -10.262  11.888  66.159  1.00  0.00    -0.258 A  
HETATM   12  C   UNL     1     -11.310  11.649  64.004  1.00  0.00    -0.345 A  
HETATM   13  C   UNL     1     -12.266  12.588  64.357  1.00  0.00    -0.528 A  
HETATM   14  O   UNL     1     -11.384  11.095  62.759  1.00  0.00    -0.683 OA 
HETATM   15  C   UNL     1     -10.310  11.288  64.896  1.00  0.00    -0.362 A  
HETATM   16  C   UNL     1     -12.215  13.188  65.618  1.00  0.00    -0.521 A  
HETATM   17  H   UNL     1     -12.069  11.343  62.148  1.00  0.00     0.000 HD 
ENDBRANCH   7  10
ENDBRANCH   5   7
ENDBRANCH   3   5
ENDBRANCH   2   3
BRANCH   2  18
HETATM   18  C   UNL     1     -10.731  10.062  70.557  1.00  0.00    -0.352 C  
BRANCH  18  19
HETATM   19  C   UNL     1      -9.937   9.895  69.257  1.00  0.00    -0.217 C  
BRANCH  19  20
HETATM   20  C   UNL     1     -10.240   8.535  68.665  1.00  0.00    -0.217 A  
HETATM   21  C   UNL     1     -10.236   8.350  67.275  1.00  0.00    -0.349 A  
HETATM   22  C   UNL     1     -10.629   7.130  66.723  1.00  0.00    -0.291 A  
HETATM   23  C   UNL     1     -11.024   6.252  68.936  1.00  0.00    -0.435 A  
HETATM   24  C   UNL     1     -10.631   7.471  69.490  1.00  0.00    -0.239 A  
HETATM   25  C   UNL     1     -11.029   6.083  67.552  1.00  0.00    -0.335 A  
ENDBRANCH  19  20
ENDBRANCH  18  19
ENDBRANCH   2  18
TORSDOF 7
ENDMDL
MODEL       59
REMARK 921   NORMALIZED FREE ENERGY PREDICTED BY IDOCK:   -5.36 KCAL/MOL
REMARK 922        TOTAL FREE ENERGY PREDICTED BY IDOCK:   -9.18 KCAL/MOL
REMARK 923 INTER-LIGAND FREE ENERGY PREDICTED BY IDOCK:   -8.22 KCAL/MOL
REMARK 924 INTRA-LIGAND FREE ENERGY PREDICTED BY IDOCK:   -0.96 KCAL/MOL
REMARK 927      BINDING AFFINITY PREDICTED BY RF-SCORE:    0.00 PKD
ROOT
HETATM    1  C   UNL     1     -10.119  10.919  65.831  1.00  0.00    -0.307 C  
HETATM    2  C   UNL     1     -10.677  12.035  66.728  1.00  0.00    -0.243 C  
ENDROOT
BRANCH   2   3
HETATM    3  N   UNL     1      -9.909  13.285  66.620  1.00  0.00    -0.269 NA 
HETATM    4  H   UNL     1      -9.254  13.225  65.840  1.00  0.00     0.000 HD 
BRANCH   3   5
HETATM    5  C   UNL     1     -10.715  14.532  66.509  1.00  0.00    -0.312 C  
HETATM    6  C   UNL     1     -12.185  14.214  66.214  1.00  0.00    -0.474 C  
BRANCH   5   7
HETATM    7  C   UNL     1     -10.593  15.360  67.836  1.00  0.00    -0.267 C  
HETATM    8  H   UNL     1      -9.436  15.321  69.409  1.00  0.00     0.000 HD 
HETATM    9  O   UNL     1      -9.510  14.820  68.605  1.00  0.00    -0.203 OA 
BRANCH   7  10
HETATM   10  C   UNL     1     -10.389  16.863  67.675  1.00  0.00    -0.317 A  
HETATM   11  C   UNL     1     -10.169  17.718  68.771  1.00  0.00    -0.373 A  
HETATM   12  C   UNL     1      -9.984  19.623  67.308  1.00  0.00    -0.395 A  
HETATM   13  C   UNL     1     -10.163  18.803  66.206  1.00  0.00    -0.466 A  
HETATM   14  O   UNL     1      -9.813  20.959  67.092  1.00  0.00    -0.605 OA 
HETATM   15  C   UNL     1      -9.980  19.092  68.592  1.00  0.00    -0.486 A  
HETATM   16  C   UNL     1     -10.355  17.431  66.388  1.00  0.00    -0.317 A  
HETATM   17  H   UNL     1      -9.816  21.322  66.214  1.00  0.00     0.000 HD 
ENDBRANCH   7  10
ENDBRANCH   5   7
ENDBRANCH   3   5
ENDBRANCH   2   3
BRANCH   2  18
HETATM   18  C   UNL     1     -10.636  11.519  68.181  1.00  0.00    -0.226 C  
BRANCH  18  19
HETATM   19  C   UNL     1     -11.977  11.528  68.922  1.00  0.00    -0.364 C  
BRANCH  19  20
HETATM   20  C   UNL     1     -11.885  10.610  70.122  1.00  0.00    -0.421 A  
HETATM   21  C   UNL     1     -10.676   9.971  70.435  1.00  0.00    -0.369 A  
HETATM   22  C   UNL     1     -10.618   9.034  71.468  1.00  0.00    -0.415 A  
HETATM   23  C   UNL     1     -12.968   9.365  71.904  1.00  0.00    -0.502 A  
HETATM   24  C   UNL     1     -13.029  10.303  70.872  1.00  0.00    -0.456 A  
HETATM   25  C   UNL     1     -11.764   8.727  72.198  1.00  0.00    -0.433 A  
ENDBRANCH  19  20
ENDBRANCH  18  19
ENDBRANCH   2  18
TORSDOF 7
ENDMDL
MODEL       60
REMARK 921   NORMALIZED FREE ENERGY PREDICTED BY IDOCK:   -5.35 KCAL/MOL
REMARK 922        TOTAL FREE ENERGY PREDICTED BY IDOCK:   -9.17 KCAL/MOL
REMARK 923 INTER-LIGAND FREE ENERGY PREDICTED BY IDOCK:   -8.19 KCAL/MOL
REMARK 924 INTRA-LIGAND FREE ENERGY PREDICTED BY IDOCK:   -0.98 KCAL/MOL
REMARK 927      BINDING AFFINITY PREDICTED BY RF-SCORE:    0.00 PKD
ROOT
HETATM    1  C   UNL     1     -10.857  10.451  68.459  1.00  0.00    -0.278 C  
HETATM    2  C   UNL     1     -11.827  11.077  69.473  1.00  0.00    -0.333 C  
ENDROOT
BRANCH   2   3
HETATM    3  N   UNL     1     -11.365  12.385  69.964  1.00  0.00    -0.507 NA 
HETATM    4  H   UNL     1     -10.372  12.502  69.763  1.00  0.00     0.000 HD 
BRANCH   3   5
HETATM    5  C   UNL     1     -12.125  13.566  69.472  1.00  0.00    -0.297 C  
HETATM    6  C   UNL     1     -12.620  14.428  70.639  1.00  0.00    -0.424 C  
BRANCH   5   7
HETATM    7  C   UNL     1     -11.220  14.416  68.513  1.00  0.00    -0.265 C  
HETATM    8  H   UNL     1      -9.305  14.563  68.163  1.00  0.00     0.000 HD 
HETATM    9  O   UNL     1      -9.853  14.049  68.744  1.00  0.00    -0.213 OA 
BRANCH   7  10
HETATM   10  C   UNL     1     -11.522  14.297  67.022  1.00  0.00    -0.377 A  
HETATM   11  C   UNL     1     -11.014  15.202  66.073  1.00  0.00    -0.332 A  
HETATM   12  C   UNL     1     -12.089  14.003  64.283  1.00  0.00    -0.445 A  
HETATM   13  C   UNL     1     -12.576  13.075  65.188  1.00  0.00    -0.530 A  
HETATM   14  O   UNL     1     -12.403  13.840  62.965  1.00  0.00    -1.089 OA 
HETATM   15  C   UNL     1     -11.304  15.065  64.712  1.00  0.00    -0.409 A  
HETATM   16  C   UNL     1     -12.288  13.216  66.548  1.00  0.00    -0.252 A  
HETATM   17  H   UNL     1     -12.941  13.114  62.671  1.00  0.00     0.000 HD 
ENDBRANCH   7  10
ENDBRANCH   5   7
ENDBRANCH   3   5
ENDBRANCH   2   3
BRANCH   2  18
HETATM   18  C   UNL     1     -11.958  10.090  70.651  1.00  0.00    -0.401 C  
BRANCH  18  19
HETATM   19  C   UNL     1     -10.642   9.483  71.152  1.00  0.00    -0.388 C  
BRANCH  19  20
HETATM   20  C   UNL     1     -10.804   7.983  71.269  1.00  0.00    -0.267 A  
HETATM   21  C   UNL     1     -11.150   7.401  72.497  1.00  0.00    -0.350 A  
HETATM   22  C   UNL     1     -11.184   6.012  72.636  1.00  0.00    -0.326 A  
HETATM   23  C   UNL     1     -10.542   5.761  70.324  1.00  0.00    -0.369 A  
HETATM   24  C   UNL     1     -10.507   7.149  70.182  1.00  0.00    -0.231 A  
HETATM   25  C   UNL     1     -10.875   5.193  71.552  1.00  0.00    -0.102 A  
ENDBRANCH  19  20
ENDBRANCH  18  19
ENDBRANCH   2  18
TORSDOF 7
ENDMDL
MODEL       61
REMARK 921   NORMALIZED FREE ENERGY PREDICTED BY IDOCK:   -5.32 KCAL/MOL
REMARK 922        TOTAL FREE ENERGY PREDICTED BY IDOCK:   -9.12 KCAL/MOL
REMARK 923 INTER-LIGAND FREE ENERGY PREDICTED BY IDOCK:   -8.22 KCAL/MOL
REMARK 924 INTRA-LIGAND FREE ENERGY PREDICTED BY IDOCK:   -0.90 KCAL/MOL
REMARK 927      BINDING AFFINITY PREDICTED BY RF-SCORE:    0.00 PKD
ROOT
HETATM    1  C   UNL     1      -9.777  15.731  68.889  1.00  0.00    -0.225 C  
HETATM    2  C   UNL     1     -11.101  14.960  69.003  1.00  0.00    -0.250 C  
ENDROOT
BRANCH   2   3
HETATM    3  N   UNL     1     -10.915  13.586  69.494  1.00  0.00    -0.452 NA 
HETATM    4  H   UNL     1      -9.981  13.481  69.890  1.00  0.00     0.000 HD 
BRANCH   3   5
HETATM    5  C   UNL     1     -11.934  13.103  70.466  1.00  0.00    -0.222 C  
HETATM    6  C   UNL     1     -13.028  14.154  70.685  1.00  0.00    -0.290 C  
BRANCH   5   7
HETATM    7  C   UNL     1     -12.563  11.761  69.951  1.00  0.00     0.104 C  
HETATM    8  H   UNL     1     -12.421  10.682  68.329  1.00  0.00     0.000 HD 
HETATM    9  O   UNL     1     -12.041  11.495  68.641  1.00  0.00    -0.483 OA 
BRANCH   7  10
HETATM   10  C   UNL     1     -12.346  10.535  70.831  1.00  0.00    -0.490 A  
HETATM   11  C   UNL     1     -13.374   9.974  71.612  1.00  0.00    -0.468 A  
HETATM   12  C   UNL     1     -11.891   8.251  72.411  1.00  0.00    -0.396 A  
HETATM   13  C   UNL     1     -10.868   8.759  71.627  1.00  0.00    -0.399 A  
HETATM   14  O   UNL     1     -11.627   7.156  73.180  1.00  0.00    -0.549 OA 
HETATM   15  C   UNL     1     -13.146   8.845  72.407  1.00  0.00    -0.476 A  
HETATM   16  C   UNL     1     -11.096   9.888  70.836  1.00  0.00    -0.418 A  
HETATM   17  H   UNL     1     -10.768   6.750  73.183  1.00  0.00     0.000 HD 
ENDBRANCH   7  10
ENDBRANCH   5   7
ENDBRANCH   3   5
ENDBRANCH   2   3
BRANCH   2  18
HETATM   18  C   UNL     1     -11.737  14.932  67.597  1.00  0.00    -0.329 C  
BRANCH  18  19
HETATM   19  C   UNL     1     -10.760  15.101  66.428  1.00  0.00    -0.317 C  
BRANCH  19  20
HETATM   20  C   UNL     1     -11.037  14.030  65.395  1.00  0.00    -0.318 A  
HETATM   21  C   UNL     1     -11.933  14.273  64.344  1.00  0.00    -0.476 A  
HETATM   22  C   UNL     1     -12.279  13.250  63.459  1.00  0.00    -0.513 A  
HETATM   23  C   UNL     1     -10.833  11.727  64.649  1.00  0.00    -0.363 A  
HETATM   24  C   UNL     1     -10.485  12.749  65.534  1.00  0.00    -0.306 A  
HETATM   25  C   UNL     1     -11.735  11.977  63.615  1.00  0.00    -0.587 A  
ENDBRANCH  19  20
ENDBRANCH  18  19
ENDBRANCH   2  18
TORSDOF 7
ENDMDL
MODEL       62
REMARK 921   NORMALIZED FREE ENERGY PREDICTED BY IDOCK:   -5.31 KCAL/MOL
REMARK 922        TOTAL FREE ENERGY PREDICTED BY IDOCK:   -9.12 KCAL/MOL
REMARK 923 INTER-LIGAND FREE ENERGY PREDICTED BY IDOCK:   -8.27 KCAL/MOL
REMARK 924 INTRA-LIGAND FREE ENERGY PREDICTED BY IDOCK:   -0.85 KCAL/MOL
REMARK 927      BINDING AFFINITY PREDICTED BY RF-SCORE:    0.00 PKD
ROOT
HETATM    1  C   UNL     1      -7.186  12.989  67.453  1.00  0.00    -0.123 C  
HETATM    2  C   UNL     1      -8.696  12.815  67.674  1.00  0.00    -0.180 C  
ENDROOT
BRANCH   2   3
HETATM    3  N   UNL     1      -9.167  13.473  68.903  1.00  0.00    -0.388 NA 
HETATM    4  H   UNL     1      -8.378  13.881  69.403  1.00  0.00     0.000 HD 
BRANCH   3   5
HETATM    5  C   UNL     1     -10.236  14.494  68.721  1.00  0.00    -0.244 C  
HETATM    6  C   UNL     1     -10.372  14.893  67.248  1.00  0.00    -0.251 C  
BRANCH   5   7
HETATM    7  C   UNL     1     -11.599  13.935  69.262  1.00  0.00    -0.309 C  
HETATM    8  H   UNL     1     -12.306  12.173  69.718  1.00  0.00     0.000 HD 
HETATM    9  O   UNL     1     -11.480  12.511  69.391  1.00  0.00    -0.270 OA 
BRANCH   7  10
HETATM   10  C   UNL     1     -12.086  14.516  70.585  1.00  0.00    -0.392 A  
HETATM   11  C   UNL     1     -13.036  13.864  71.393  1.00  0.00    -0.430 A  
HETATM   12  C   UNL     1     -12.921  15.625  73.032  1.00  0.00    -0.510 A  
HETATM   13  C   UNL     1     -11.959  16.275  72.276  1.00  0.00    -0.605 A  
HETATM   14  O   UNL     1     -13.316  16.205  74.202  1.00  0.00    -0.908 OA 
HETATM   15  C   UNL     1     -13.461  14.420  72.604  1.00  0.00    -0.605 A  
HETATM   16  C   UNL     1     -11.538  15.720  71.065  1.00  0.00    -0.453 A  
HETATM   17  H   UNL     1     -12.947  17.030  74.495  1.00  0.00     0.000 HD 
ENDBRANCH   7  10
ENDBRANCH   5   7
ENDBRANCH   3   5
ENDBRANCH   2   3
BRANCH   2  18
HETATM   18  C   UNL     1      -8.977  11.300  67.750  1.00  0.00    -0.141 C  
BRANCH  18  19
HETATM   19  C   UNL     1      -9.063  10.577  66.401  1.00  0.00    -0.181 C  
BRANCH  19  20
HETATM   20  C   UNL     1     -10.002  11.340  65.491  1.00  0.00    -0.293 A  
HETATM   21  C   UNL     1     -11.248  11.777  65.964  1.00  0.00    -0.352 A  
HETATM   22  C   UNL     1     -12.163  12.376  65.096  1.00  0.00    -0.449 A  
HETATM   23  C   UNL     1     -10.602  12.126  63.273  1.00  0.00    -0.367 A  
HETATM   24  C   UNL     1      -9.685  11.527  64.139  1.00  0.00    -0.238 A  
HETATM   25  C   UNL     1     -11.842  12.545  63.751  1.00  0.00    -0.577 A  
ENDBRANCH  19  20
ENDBRANCH  18  19
ENDBRANCH   2  18
TORSDOF 7
ENDMDL
MODEL       63
REMARK 921   NORMALIZED FREE ENERGY PREDICTED BY IDOCK:   -5.31 KCAL/MOL
REMARK 922        TOTAL FREE ENERGY PREDICTED BY IDOCK:   -9.11 KCAL/MOL
REMARK 923 INTER-LIGAND FREE ENERGY PREDICTED BY IDOCK:   -7.78 KCAL/MOL
REMARK 924 INTRA-LIGAND FREE ENERGY PREDICTED BY IDOCK:   -1.33 KCAL/MOL
REMARK 927      BINDING AFFINITY PREDICTED BY RF-SCORE:    0.00 PKD
ROOT
HETATM    1  C   UNL     1     -10.100  10.504  66.497  1.00  0.00    -0.280 C  
HETATM    2  C   UNL     1     -10.875  11.569  67.287  1.00  0.00    -0.256 C  
ENDROOT
BRANCH   2   3
HETATM    3  N   UNL     1     -10.405  12.935  67.007  1.00  0.00    -0.241 NA 
HETATM    4  H   UNL     1     -11.117  13.447  66.486  1.00  0.00     0.000 HD 
BRANCH   3   5
HETATM    5  C   UNL     1      -9.974  13.727  68.191  1.00  0.00    -0.242 C  
HETATM    6  C   UNL     1      -8.551  14.265  68.006  1.00  0.00    -0.169 C  
BRANCH   5   7
HETATM    7  C   UNL     1     -10.977  14.909  68.431  1.00  0.00    -0.261 C  
HETATM    8  H   UNL     1     -12.618  15.546  67.583  1.00  0.00     0.000 HD 
HETATM    9  O   UNL     1     -12.010  14.829  67.438  1.00  0.00    -0.357 OA 
BRANCH   7  10
HETATM   10  C   UNL     1     -11.619  14.978  69.813  1.00  0.00    -0.336 A  
HETATM   11  C   UNL     1     -12.521  14.003  70.276  1.00  0.00    -0.403 A  
HETATM   12  C   UNL     1     -12.743  15.143  72.386  1.00  0.00    -0.348 A  
HETATM   13  C   UNL     1     -11.831  16.100  71.972  1.00  0.00    -0.615 A  
HETATM   14  O   UNL     1     -13.284  15.269  73.633  1.00  0.00    -0.573 OA 
HETATM   15  C   UNL     1     -13.091  14.089  71.551  1.00  0.00    -0.436 A  
HETATM   16  C   UNL     1     -11.267  16.014  70.697  1.00  0.00    -0.395 A  
HETATM   17  H   UNL     1     -13.047  15.990  74.204  1.00  0.00     0.000 HD 
ENDBRANCH   7  10
ENDBRANCH   5   7
ENDBRANCH   3   5
ENDBRANCH   2   3
BRANCH   2  18
HETATM   18  C   UNL     1     -10.695  11.250  68.785  1.00  0.00    -0.240 C  
BRANCH  18  19
HETATM   19  C   UNL     1     -11.913  10.628  69.478  1.00  0.00    -0.319 C  
BRANCH  19  20
HETATM   20  C   UNL     1     -11.439   9.755  70.620  1.00  0.00    -0.397 A  
HETATM   21  C   UNL     1     -10.070   9.520  70.811  1.00  0.00    -0.352 A  
HETATM   22  C   UNL     1      -9.636   8.623  71.789  1.00  0.00    -0.360 A  
HETATM   23  C   UNL     1     -11.927   8.189  72.412  1.00  0.00    -0.431 A  
HETATM   24  C   UNL     1     -12.363   9.087  71.435  1.00  0.00    -0.380 A  
HETATM   25  C   UNL     1     -10.564   7.954  72.585  1.00  0.00    -0.394 A  
ENDBRANCH  19  20
ENDBRANCH  18  19
ENDBRANCH   2  18
TORSDOF 7
ENDMDL
MODEL       64
REMARK 921   NORMALIZED FREE ENERGY PREDICTED BY IDOCK:   -5.31 KCAL/MOL
REMARK 922        TOTAL FREE ENERGY PREDICTED BY IDOCK:   -9.11 KCAL/MOL
REMARK 923 INTER-LIGAND FREE ENERGY PREDICTED BY IDOCK:   -8.24 KCAL/MOL
REMARK 924 INTRA-LIGAND FREE ENERGY PREDICTED BY IDOCK:   -0.87 KCAL/MOL
REMARK 927      BINDING AFFINITY PREDICTED BY RF-SCORE:    0.00 PKD
ROOT
HETATM    1  C   UNL     1      -9.704   7.560  67.190  1.00  0.00    -0.228 C  
HETATM    2  C   UNL     1      -9.978   8.735  68.139  1.00  0.00    -0.173 C  
ENDROOT
BRANCH   2   3
HETATM    3  N   UNL     1      -9.411  10.002  67.651  1.00  0.00    -0.143 NA 
HETATM    4  H   UNL     1      -8.789   9.823  66.863  1.00  0.00     0.000 HD 
BRANCH   3   5
HETATM    5  C   UNL     1     -10.397  11.057  67.290  1.00  0.00    -0.211 C  
HETATM    6  C   UNL     1     -11.605  11.028  68.233  1.00  0.00    -0.354 C  
BRANCH   5   7
HETATM    7  C   UNL     1      -9.706  12.465  67.333  1.00  0.00    -0.193 C  
HETATM    8  H   UNL     1      -7.888  13.138  67.097  1.00  0.00     0.000 HD 
HETATM    9  O   UNL     1      -8.307  12.286  67.071  1.00  0.00    -0.177 OA 
BRANCH   7  10
HETATM   10  C   UNL     1     -10.260  13.516  66.377  1.00  0.00    -0.291 A  
HETATM   11  C   UNL     1     -11.388  13.282  65.568  1.00  0.00    -0.315 A  
HETATM   12  C   UNL     1     -11.256  15.508  64.659  1.00  0.00    -0.371 A  
HETATM   13  C   UNL     1     -10.165  15.782  65.467  1.00  0.00    -0.407 A  
HETATM   14  O   UNL     1     -11.696  16.492  63.822  1.00  0.00    -1.548 OA 
HETATM   15  C   UNL     1     -11.877  14.267  64.704  1.00  0.00    -0.459 A  
HETATM   16  C   UNL     1      -9.675  14.795  66.327  1.00  0.00    -0.326 A  
HETATM   17  H   UNL     1     -11.271  17.341  63.790  1.00  0.00     0.000 HD 
ENDBRANCH   7  10
ENDBRANCH   5   7
ENDBRANCH   3   5
ENDBRANCH   2   3
BRANCH   2  18
HETATM   18  C   UNL     1      -9.359   8.376  69.505  1.00  0.00    -0.158 C  
BRANCH  18  19
HETATM   19  C   UNL     1      -9.764   9.283  70.672  1.00  0.00    -0.334 C  
BRANCH  19  20
HETATM   20  C   UNL     1     -11.153   8.900  71.136  1.00  0.00    -0.354 A  
HETATM   21  C   UNL     1     -11.577   7.565  71.076  1.00  0.00    -0.305 A  
HETATM   22  C   UNL     1     -12.894   7.227  71.392  1.00  0.00    -0.425 A  
HETATM   23  C   UNL     1     -13.385   9.546  71.846  1.00  0.00    -0.518 A  
HETATM   24  C   UNL     1     -12.068   9.886  71.531  1.00  0.00    -0.496 A  
HETATM   25  C   UNL     1     -13.799   8.217  71.771  1.00  0.00    -0.452 A  
ENDBRANCH  19  20
ENDBRANCH  18  19
ENDBRANCH   2  18
TORSDOF 7
ENDMDL
MODEL       65
REMARK 921   NORMALIZED FREE ENERGY PREDICTED BY IDOCK:   -5.30 KCAL/MOL
REMARK 922        TOTAL FREE ENERGY PREDICTED BY IDOCK:   -9.10 KCAL/MOL
REMARK 923 INTER-LIGAND FREE ENERGY PREDICTED BY IDOCK:   -8.22 KCAL/MOL
REMARK 924 INTRA-LIGAND FREE ENERGY PREDICTED BY IDOCK:   -0.87 KCAL/MOL
REMARK 927      BINDING AFFINITY PREDICTED BY RF-SCORE:    0.00 PKD
ROOT
HETATM    1  C   UNL     1      -8.617  15.206  69.312  1.00  0.00    -0.211 C  
HETATM    2  C   UNL     1      -9.476  14.528  68.234  1.00  0.00    -0.207 C  
ENDROOT
BRANCH   2   3
HETATM    3  N   UNL     1      -9.483  13.062  68.355  1.00  0.00    -0.323 NA 
HETATM    4  H   UNL     1      -8.777  12.765  69.029  1.00  0.00     0.000 HD 
BRANCH   3   5
HETATM    5  C   UNL     1     -10.796  12.447  68.693  1.00  0.00    -0.240 C  
HETATM    6  C   UNL     1     -11.801  12.633  67.551  1.00  0.00    -0.396 C  
BRANCH   5   7
HETATM    7  C   UNL     1     -10.601  10.921  69.004  1.00  0.00    -0.216 C  
HETATM    8  H   UNL     1      -9.092   9.767  69.456  1.00  0.00     0.000 HD 
HETATM    9  O   UNL     1      -9.210  10.691  69.268  1.00  0.00    -0.178 OA 
BRANCH   7  10
HETATM   10  C   UNL     1     -11.426  10.359  70.156  1.00  0.00    -0.396 A  
HETATM   11  C   UNL     1     -11.160   9.104  70.734  1.00  0.00    -0.336 A  
HETATM   12  C   UNL     1     -12.965   9.391  72.304  1.00  0.00    -0.400 A  
HETATM   13  C   UNL     1     -13.230  10.646  71.779  1.00  0.00    -0.526 A  
HETATM   14  O   UNL     1     -13.747   8.947  73.330  1.00  0.00    -1.085 OA 
HETATM   15  C   UNL     1     -11.932   8.615  71.794  1.00  0.00    -0.402 A  
HETATM   16  C   UNL     1     -12.461  11.130  70.718  1.00  0.00    -0.479 A  
HETATM   17  H   UNL     1     -14.454   9.477  73.678  1.00  0.00     0.000 HD 
ENDBRANCH   7  10
ENDBRANCH   5   7
ENDBRANCH   3   5
ENDBRANCH   2   3
BRANCH   2  18
HETATM   18  C   UNL     1      -8.898  14.937  66.863  1.00  0.00    -0.284 C  
BRANCH  18  19
HETATM   19  C   UNL     1      -9.860  15.698  65.943  1.00  0.00    -0.382 C  
BRANCH  19  20
HETATM   20  C   UNL     1      -9.610  17.184  66.088  1.00  0.00    -0.242 A  
HETATM   21  C   UNL     1      -8.361  17.654  66.521  1.00  0.00    -0.300 A  
HETATM   22  C   UNL     1      -8.164  19.013  66.768  1.00  0.00    -0.288 A  
HETATM   23  C   UNL     1     -10.451  19.462  66.144  1.00  0.00    -0.600 A  
HETATM   24  C   UNL     1     -10.651  18.103  65.895  1.00  0.00    -0.247 A  
HETATM   25  C   UNL     1      -9.210  19.916  66.585  1.00  0.00    -0.483 A  
ENDBRANCH  19  20
ENDBRANCH  18  19
ENDBRANCH   2  18
TORSDOF 7
ENDMDL
MODEL       66
REMARK 921   NORMALIZED FREE ENERGY PREDICTED BY IDOCK:   -5.30 KCAL/MOL
REMARK 922        TOTAL FREE ENERGY PREDICTED BY IDOCK:   -9.10 KCAL/MOL
REMARK 923 INTER-LIGAND FREE ENERGY PREDICTED BY IDOCK:   -6.40 KCAL/MOL
REMARK 924 INTRA-LIGAND FREE ENERGY PREDICTED BY IDOCK:   -2.70 KCAL/MOL
REMARK 927      BINDING AFFINITY PREDICTED BY RF-SCORE:    0.00 PKD
ROOT
HETATM    1  C   UNL     1      -6.338  15.378  68.392  1.00  0.00    -0.110 C  
HETATM    2  C   UNL     1      -7.469  14.938  67.451  1.00  0.00    -0.199 C  
ENDROOT
BRANCH   2   3
HETATM    3  N   UNL     1      -8.548  15.934  67.358  1.00  0.00    -0.167 NA 
HETATM    4  H   UNL     1      -8.534  16.376  66.439  1.00  0.00     0.000 HD 
BRANCH   3   5
HETATM    5  C   UNL     1      -9.917  15.435  67.660  1.00  0.00    -0.225 C  
HETATM    6  C   UNL     1     -10.478  16.096  68.925  1.00  0.00    -0.258 C  
BRANCH   5   7
HETATM    7  C   UNL     1     -10.863  15.709  66.438  1.00  0.00    -0.252 C  
HETATM    8  H   UNL     1     -10.835  16.896  64.887  1.00  0.00     0.000 HD 
HETATM    9  O   UNL     1     -10.263  16.730  65.627  1.00  0.00    -0.523 OA 
BRANCH   7  10
HETATM   10  C   UNL     1     -11.194  14.507  65.560  1.00  0.00    -0.335 A  
HETATM   11  C   UNL     1     -12.476  13.928  65.525  1.00  0.00    -0.541 A  
HETATM   12  C   UNL     1     -11.750  12.309  63.895  1.00  0.00    -0.451 A  
HETATM   13  C   UNL     1     -10.488  12.878  63.882  1.00  0.00    -0.333 A  
HETATM   14  O   UNL     1     -11.976  11.230  63.090  1.00  0.00    -0.830 OA 
HETATM   15  C   UNL     1     -12.751  12.827  64.706  1.00  0.00    -0.469 A  
HETATM   16  C   UNL     1     -10.213  13.975  64.703  1.00  0.00    -0.242 A  
HETATM   17  H   UNL     1     -11.291  10.875  62.536  1.00  0.00     0.000 HD 
ENDBRANCH   7  10
ENDBRANCH   5   7
ENDBRANCH   3   5
ENDBRANCH   2   3
BRANCH   2  18
HETATM   18  C   UNL     1      -8.029  13.608  67.998  1.00  0.00    -0.154 C  
BRANCH  18  19
HETATM   19  C   UNL     1      -7.539  12.343  67.285  1.00  0.00    -0.141 C  
BRANCH  19  20
HETATM   20  C   UNL     1      -8.729  11.469  66.956  1.00  0.00    -0.169 A  
HETATM   21  C   UNL     1      -9.953  11.660  67.614  1.00  0.00    -0.201 A  
HETATM   22  C   UNL     1     -11.017  10.782  67.399  1.00  0.00    -0.361 A  
HETATM   23  C   UNL     1      -9.661   9.514  65.856  1.00  0.00    -0.352 A  
HETATM   24  C   UNL     1      -8.597  10.391  66.069  1.00  0.00    -0.158 A  
HETATM   25  C   UNL     1     -10.869   9.706  66.526  1.00  0.00     0.074 A  
ENDBRANCH  19  20
ENDBRANCH  18  19
ENDBRANCH   2  18
TORSDOF 7
ENDMDL
MODEL       67
REMARK 921   NORMALIZED FREE ENERGY PREDICTED BY IDOCK:   -5.29 KCAL/MOL
REMARK 922        TOTAL FREE ENERGY PREDICTED BY IDOCK:   -9.08 KCAL/MOL
REMARK 923 INTER-LIGAND FREE ENERGY PREDICTED BY IDOCK:   -8.25 KCAL/MOL
REMARK 924 INTRA-LIGAND FREE ENERGY PREDICTED BY IDOCK:   -0.84 KCAL/MOL
REMARK 927      BINDING AFFINITY PREDICTED BY RF-SCORE:    0.00 PKD
ROOT
HETATM    1  C   UNL     1     -12.366  15.549  70.418  1.00  0.00    -0.451 C  
HETATM    2  C   UNL     1     -11.743  14.438  69.560  1.00  0.00    -0.313 C  
ENDROOT
BRANCH   2   3
HETATM    3  N   UNL     1     -12.094  14.558  68.136  1.00  0.00    -0.573 NA 
HETATM    4  H   UNL     1     -12.603  15.427  67.976  1.00  0.00     0.000 HD 
BRANCH   3   5
HETATM    5  C   UNL     1     -10.959  14.452  67.179  1.00  0.00    -0.303 C  
HETATM    6  C   UNL     1     -11.360  14.960  65.790  1.00  0.00    -0.314 C  
BRANCH   5   7
HETATM    7  C   UNL     1      -9.731  15.264  67.721  1.00  0.00    -0.215 C  
HETATM    8  H   UNL     1      -7.788  15.126  67.576  1.00  0.00     0.000 HD 
HETATM    9  O   UNL     1      -8.532  14.634  67.248  1.00  0.00    -0.189 OA 
BRANCH   7  10
HETATM   10  C   UNL     1      -9.691  16.745  67.360  1.00  0.00    -0.245 A  
HETATM   11  C   UNL     1     -10.681  17.652  67.781  1.00  0.00    -0.336 A  
HETATM   12  C   UNL     1      -9.544  19.473  66.688  1.00  0.00    -0.363 A  
HETATM   13  C   UNL     1      -8.535  18.612  66.288  1.00  0.00    -0.241 A  
HETATM   14  O   UNL     1      -9.449  20.785  66.325  1.00  0.00    -0.593 OA 
HETATM   15  C   UNL     1     -10.616  19.007  67.438  1.00  0.00    -0.559 A  
HETATM   16  C   UNL     1      -8.604  17.258  66.629  1.00  0.00    -0.286 A  
HETATM   17  H   UNL     1      -8.716  21.104  65.811  1.00  0.00     0.000 HD 
ENDBRANCH   7  10
ENDBRANCH   5   7
ENDBRANCH   3   5
ENDBRANCH   2   3
BRANCH   2  18
HETATM   18  C   UNL     1     -12.253  13.091  70.113  1.00  0.00    -0.342 C  
BRANCH  18  19
HETATM   19  C   UNL     1     -11.444  11.858  69.696  1.00  0.00    -0.337 C  
BRANCH  19  20
HETATM   20  C   UNL     1     -11.876  10.676  70.537  1.00  0.00    -0.453 A  
HETATM   21  C   UNL     1     -12.920  10.809  71.463  1.00  0.00    -0.562 A  
HETATM   22  C   UNL     1     -13.243   9.757  72.322  1.00  0.00    -0.468 A  
HETATM   23  C   UNL     1     -11.494   8.416  71.339  1.00  0.00    -0.328 A  
HETATM   24  C   UNL     1     -11.170   9.467  70.479  1.00  0.00    -0.329 A  
HETATM   25  C   UNL     1     -12.526   8.563  72.264  1.00  0.00    -0.448 A  
ENDBRANCH  19  20
ENDBRANCH  18  19
ENDBRANCH   2  18
TORSDOF 7
ENDMDL
MODEL       68
REMARK 921   NORMALIZED FREE ENERGY PREDICTED BY IDOCK:   -5.29 KCAL/MOL
REMARK 922        TOTAL FREE ENERGY PREDICTED BY IDOCK:   -9.08 KCAL/MOL
REMARK 923 INTER-LIGAND FREE ENERGY PREDICTED BY IDOCK:   -7.93 KCAL/MOL
REMARK 924 INTRA-LIGAND FREE ENERGY PREDICTED BY IDOCK:   -1.15 KCAL/MOL
REMARK 927      BINDING AFFINITY PREDICTED BY RF-SCORE:    0.00 PKD
ROOT
HETATM    1  C   UNL     1     -12.299  13.751  70.840  1.00  0.00    -0.456 C  
HETATM    2  C   UNL     1     -12.188  12.646  69.779  1.00  0.00    -0.143 C  
ENDROOT
BRANCH   2   3
HETATM    3  N   UNL     1     -11.200  11.615  70.136  1.00  0.00    -0.472 NA 
HETATM    4  H   UNL     1     -10.357  12.055  70.504  1.00  0.00     0.000 HD 
BRANCH   3   5
HETATM    5  C   UNL     1     -11.674  10.561  71.075  1.00  0.00    -0.289 C  
HETATM    6  C   UNL     1     -13.080  10.080  70.699  1.00  0.00    -0.220 C  
BRANCH   5   7
HETATM    7  C   UNL     1     -10.667   9.358  71.072  1.00  0.00    -0.337 C  
HETATM    8  H   UNL     1     -10.264   7.868  72.268  1.00  0.00     0.000 HD 
HETATM    9  O   UNL     1     -10.874   8.597  72.270  1.00  0.00    -0.354 OA 
BRANCH   7  10
HETATM   10  C   UNL     1     -10.740   8.423  69.869  1.00  0.00    -0.227 A  
HETATM   11  C   UNL     1     -11.070   7.060  69.990  1.00  0.00    -0.316 A  
HETATM   12  C   UNL     1     -10.892   6.756  67.608  1.00  0.00    -0.289 A  
HETATM   13  C   UNL     1     -10.599   8.101  67.451  1.00  0.00    -0.325 A  
HETATM   14  O   UNL     1     -10.934   5.975  66.490  1.00  0.00    -0.631 OA 
HETATM   15  C   UNL     1     -11.134   6.227  68.868  1.00  0.00    -0.434 A  
HETATM   16  C   UNL     1     -10.532   8.931  68.573  1.00  0.00    -0.218 A  
HETATM   17  H   UNL     1     -10.768   6.337  65.627  1.00  0.00     0.000 HD 
ENDBRANCH   7  10
ENDBRANCH   5   7
ENDBRANCH   3   5
ENDBRANCH   2   3
BRANCH   2  18
HETATM   18  C   UNL     1     -11.785  13.322  68.453  1.00  0.00    -0.389 C  
BRANCH  18  19
HETATM   19  C   UNL     1     -10.612  12.671  67.712  1.00  0.00    -0.233 C  
BRANCH  19  20
HETATM   20  C   UNL     1     -11.030  12.379  66.286  1.00  0.00    -0.323 A  
HETATM   21  C   UNL     1     -10.307  11.462  65.509  1.00  0.00    -0.317 A  
HETATM   22  C   UNL     1     -10.618  11.279  64.160  1.00  0.00    -0.437 A  
HETATM   23  C   UNL     1     -12.384  12.914  64.342  1.00  0.00    -0.468 A  
HETATM   24  C   UNL     1     -12.075  13.098  65.691  1.00  0.00    -0.501 A  
HETATM   25  C   UNL     1     -11.651  12.009  63.576  1.00  0.00    -0.553 A  
ENDBRANCH  19  20
ENDBRANCH  18  19
ENDBRANCH   2  18
TORSDOF 7
ENDMDL
MODEL       69
REMARK 921   NORMALIZED FREE ENERGY PREDICTED BY IDOCK:   -5.27 KCAL/MOL
REMARK 922        TOTAL FREE ENERGY PREDICTED BY IDOCK:   -9.06 KCAL/MOL
REMARK 923 INTER-LIGAND FREE ENERGY PREDICTED BY IDOCK:   -8.72 KCAL/MOL
REMARK 924 INTRA-LIGAND FREE ENERGY PREDICTED BY IDOCK:   -0.34 KCAL/MOL
REMARK 927      BINDING AFFINITY PREDICTED BY RF-SCORE:    0.00 PKD
ROOT
HETATM    1  C   UNL     1     -11.995  15.977  71.688  1.00  0.00    -0.569 C  
HETATM    2  C   UNL     1     -12.068  15.559  70.212  1.00  0.00    -0.386 C  
ENDROOT
BRANCH   2   3
HETATM    3  N   UNL     1     -12.841  14.323  70.011  1.00  0.00    -0.447 NA 
HETATM    4  H   UNL     1     -12.788  14.035  69.034  1.00  0.00     0.000 HD 
BRANCH   3   5
HETATM    5  C   UNL     1     -12.480  13.183  70.897  1.00  0.00    -0.323 C  
HETATM    6  C   UNL     1     -13.495  13.027  72.036  1.00  0.00    -0.584 C  
BRANCH   5   7
HETATM    7  C   UNL     1     -12.401  11.862  70.054  1.00  0.00    -0.130 C  
HETATM    8  H   UNL     1     -11.275  11.192  68.606  1.00  0.00     0.000 HD 
HETATM    9  O   UNL     1     -11.323  11.992  69.117  1.00  0.00    -0.246 OA 
BRANCH   7  10
HETATM   10  C   UNL     1     -12.222  10.569  70.844  1.00  0.00    -0.490 A  
HETATM   11  C   UNL     1     -13.301   9.893  71.443  1.00  0.00    -0.447 A  
HETATM   12  C   UNL     1     -11.829   8.171  72.260  1.00  0.00    -0.382 A  
HETATM   13  C   UNL     1     -10.751   8.794  71.653  1.00  0.00    -0.397 A  
HETATM   14  O   UNL     1     -11.596   7.021  72.957  1.00  0.00    -0.527 OA 
HETATM   15  C   UNL     1     -13.106   8.707  72.158  1.00  0.00    -0.423 A  
HETATM   16  C   UNL     1     -10.947   9.981  70.942  1.00  0.00    -0.337 A  
HETATM   17  H   UNL     1     -10.723   6.654  73.028  1.00  0.00     0.000 HD 
ENDBRANCH   7  10
ENDBRANCH   5   7
ENDBRANCH   3   5
ENDBRANCH   2   3
BRANCH   2  18
HETATM   18  C   UNL     1     -10.620  15.356  69.721  1.00  0.00    -0.304 C  
BRANCH  18  19
HETATM   19  C   UNL     1     -10.389  15.608  68.227  1.00  0.00    -0.244 C  
BRANCH  19  20
HETATM   20  C   UNL     1     -10.371  17.100  67.974  1.00  0.00    -0.353 A  
HETATM   21  C   UNL     1     -10.580  17.603  66.682  1.00  0.00    -0.211 A  
HETATM   22  C   UNL     1     -10.447  18.969  66.424  1.00  0.00    -0.524 A  
HETATM   23  C   UNL     1      -9.907  19.356  68.745  1.00  0.00    -0.530 A  
HETATM   24  C   UNL     1     -10.040  17.991  69.004  1.00  0.00    -0.301 A  
HETATM   25  C   UNL     1     -10.105  19.844  67.454  1.00  0.00    -0.567 A  
ENDBRANCH  19  20
ENDBRANCH  18  19
ENDBRANCH   2  18
TORSDOF 7
ENDMDL
MODEL       70
REMARK 921   NORMALIZED FREE ENERGY PREDICTED BY IDOCK:   -5.26 KCAL/MOL
REMARK 922        TOTAL FREE ENERGY PREDICTED BY IDOCK:   -9.04 KCAL/MOL
REMARK 923 INTER-LIGAND FREE ENERGY PREDICTED BY IDOCK:   -7.87 KCAL/MOL
REMARK 924 INTRA-LIGAND FREE ENERGY PREDICTED BY IDOCK:   -1.17 KCAL/MOL
REMARK 927      BINDING AFFINITY PREDICTED BY RF-SCORE:    0.00 PKD
ROOT
HETATM    1  C   UNL     1      -9.819  11.466  65.542  1.00  0.00    -0.271 C  
HETATM    2  C   UNL     1      -9.663  11.699  67.052  1.00  0.00    -0.186 C  
ENDROOT
BRANCH   2   3
HETATM    3  N   UNL     1      -9.167  10.508  67.760  1.00  0.00    -0.145 NA 
HETATM    4  H   UNL     1      -8.589  10.790  68.552  1.00  0.00     0.000 HD 
BRANCH   3   5
HETATM    5  C   UNL     1     -10.207   9.542  68.209  1.00  0.00    -0.193 C  
HETATM    6  C   UNL     1     -10.280   8.335  67.268  1.00  0.00    -0.344 C  
BRANCH   5   7
HETATM    7  C   UNL     1      -9.896   9.073  69.674  1.00  0.00    -0.178 C  
HETATM    8  H   UNL     1      -8.655   9.613  71.082  1.00  0.00     0.000 HD 
HETATM    9  O   UNL     1      -8.844   9.897  70.194  1.00  0.00    -0.206 OA 
BRANCH   7  10
HETATM   10  C   UNL     1     -11.070   9.090  70.648  1.00  0.00    -0.314 A  
HETATM   11  C   UNL     1     -11.947  10.184  70.755  1.00  0.00    -0.442 A  
HETATM   12  C   UNL     1     -13.236   9.045  72.442  1.00  0.00    -0.447 A  
HETATM   13  C   UNL     1     -12.410   7.938  72.335  1.00  0.00    -0.253 A  
HETATM   14  O   UNL     1     -14.263   8.995  73.339  1.00  0.00    -1.202 OA 
HETATM   15  C   UNL     1     -13.018  10.169  71.655  1.00  0.00    -0.561 A  
HETATM   16  C   UNL     1     -11.339   7.957  71.438  1.00  0.00    -0.285 A  
HETATM   17  H   UNL     1     -14.412   8.227  73.877  1.00  0.00     0.000 HD 
ENDBRANCH   7  10
ENDBRANCH   5   7
ENDBRANCH   3   5
ENDBRANCH   2   3
BRANCH   2  18
HETATM   18  C   UNL     1     -11.049  12.095  67.601  1.00  0.00    -0.320 C  
BRANCH  18  19
HETATM   19  C   UNL     1     -11.895  12.980  66.678  1.00  0.00    -0.455 C  
BRANCH  19  20
HETATM   20  C   UNL     1     -11.460  14.421  66.841  1.00  0.00    -0.379 A  
HETATM   21  C   UNL     1     -10.924  15.126  65.754  1.00  0.00    -0.350 A  
HETATM   22  C   UNL     1     -10.415  16.414  65.928  1.00  0.00    -0.350 A  
HETATM   23  C   UNL     1     -10.978  16.322  68.273  1.00  0.00    -0.348 A  
HETATM   24  C   UNL     1     -11.489  15.034  68.101  1.00  0.00    -0.355 A  
HETATM   25  C   UNL     1     -10.436  17.009  67.188  1.00  0.00    -0.291 A  
ENDBRANCH  19  20
ENDBRANCH  18  19
ENDBRANCH   2  18
TORSDOF 7
ENDMDL
MODEL       71
REMARK 921   NORMALIZED FREE ENERGY PREDICTED BY IDOCK:   -5.23 KCAL/MOL
REMARK 922        TOTAL FREE ENERGY PREDICTED BY IDOCK:   -9.01 KCAL/MOL
REMARK 923 INTER-LIGAND FREE ENERGY PREDICTED BY IDOCK:   -8.08 KCAL/MOL
REMARK 924 INTRA-LIGAND FREE ENERGY PREDICTED BY IDOCK:   -0.92 KCAL/MOL
REMARK 927      BINDING AFFINITY PREDICTED BY RF-SCORE:    0.00 PKD
ROOT
HETATM    1  C   UNL     1      -8.356   7.832  65.315  1.00  0.00    -0.128 C  
HETATM    2  C   UNL     1      -8.533   8.963  66.340  1.00  0.00    -0.117 C  
ENDROOT
BRANCH   2   3
HETATM    3  N   UNL     1      -8.509   8.477  67.728  1.00  0.00    -0.129 NA 
HETATM    4  H   UNL     1      -7.812   8.993  68.265  1.00  0.00     0.000 HD 
BRANCH   3   5
HETATM    5  C   UNL     1      -9.815   8.495  68.443  1.00  0.00    -0.173 C  
HETATM    6  C   UNL     1     -10.309   7.072  68.724  1.00  0.00    -0.196 C  
BRANCH   5   7
HETATM    7  C   UNL     1      -9.673   9.297  69.785  1.00  0.00    -0.189 C  
HETATM    8  H   UNL     1      -9.282  11.147  70.274  1.00  0.00     0.000 HD 
HETATM    9  O   UNL     1      -9.368  10.661  69.461  1.00  0.00    -0.125 OA 
BRANCH   7  10
HETATM   10  C   UNL     1     -10.877   9.264  70.719  1.00  0.00    -0.349 A  
HETATM   11  C   UNL     1     -12.015  10.066  70.515  1.00  0.00    -0.357 A  
HETATM   12  C   UNL     1     -13.082   9.131  72.461  1.00  0.00    -0.377 A  
HETATM   13  C   UNL     1     -11.991   8.303  72.670  1.00  0.00    -0.360 A  
HETATM   14  O   UNL     1     -14.123   9.055  73.340  1.00  0.00    -1.231 OA 
HETATM   15  C   UNL     1     -13.107  10.010  71.387  1.00  0.00    -0.512 A  
HETATM   16  C   UNL     1     -10.899   8.363  71.800  1.00  0.00    -0.353 A  
HETATM   17  H   UNL     1     -14.105   8.453  74.076  1.00  0.00     0.000 HD 
ENDBRANCH   7  10
ENDBRANCH   5   7
ENDBRANCH   3   5
ENDBRANCH   2   3
BRANCH   2  18
HETATM   18  C   UNL     1      -9.887   9.641  66.045  1.00  0.00    -0.345 C  
BRANCH  18  19
HETATM   19  C   UNL     1      -9.955  10.438  64.738  1.00  0.00    -0.409 C  
BRANCH  19  20
HETATM   20  C   UNL     1     -10.901  11.606  64.920  1.00  0.00    -0.359 A  
HETATM   21  C   UNL     1     -11.335  12.345  63.810  1.00  0.00    -0.536 A  
HETATM   22  C   UNL     1     -12.111  13.492  63.985  1.00  0.00    -0.494 A  
HETATM   23  C   UNL     1     -12.046  13.175  66.377  1.00  0.00    -0.447 A  
HETATM   24  C   UNL     1     -11.270  12.027  66.204  1.00  0.00    -0.394 A  
HETATM   25  C   UNL     1     -12.462  13.910  65.268  1.00  0.00    -0.504 A  
ENDBRANCH  19  20
ENDBRANCH  18  19
ENDBRANCH   2  18
TORSDOF 7
ENDMDL
MODEL       72
REMARK 921   NORMALIZED FREE ENERGY PREDICTED BY IDOCK:   -5.21 KCAL/MOL
REMARK 922        TOTAL FREE ENERGY PREDICTED BY IDOCK:   -8.97 KCAL/MOL
REMARK 923 INTER-LIGAND FREE ENERGY PREDICTED BY IDOCK:   -7.81 KCAL/MOL
REMARK 924 INTRA-LIGAND FREE ENERGY PREDICTED BY IDOCK:   -1.16 KCAL/MOL
REMARK 927      BINDING AFFINITY PREDICTED BY RF-SCORE:    0.00 PKD
ROOT
HETATM    1  C   UNL     1     -12.042  14.303  70.349  1.00  0.00    -0.409 C  
HETATM    2  C   UNL     1     -11.256  14.411  69.034  1.00  0.00    -0.264 C  
ENDROOT
BRANCH   2   3
HETATM    3  N   UNL     1      -9.837  14.053  69.191  1.00  0.00    -0.426 NA 
HETATM    4  H   UNL     1      -9.757  13.103  69.552  1.00  0.00     0.000 HD 
BRANCH   3   5
HETATM    5  C   UNL     1      -8.992  14.207  67.975  1.00  0.00    -0.183 C  
HETATM    6  C   UNL     1      -7.615  14.778  68.331  1.00  0.00    -0.116 C  
BRANCH   5   7
HETATM    7  C   UNL     1      -8.838  12.820  67.259  1.00  0.00    -0.198 C  
HETATM    8  H   UNL     1      -8.867  10.948  67.814  1.00  0.00     0.000 HD 
HETATM    9  O   UNL     1      -8.960  11.788  68.248  1.00  0.00    -0.171 OA 
BRANCH   7  10
HETATM   10  C   UNL     1      -9.815  12.538  66.122  1.00  0.00    -0.266 A  
HETATM   11  C   UNL     1     -10.698  13.514  65.625  1.00  0.00    -0.284 A  
HETATM   12  C   UNL     1     -11.570  11.965  63.999  1.00  0.00    -0.389 A  
HETATM   13  C   UNL     1     -10.689  10.993  64.443  1.00  0.00    -0.340 A  
HETATM   14  O   UNL     1     -12.422  11.643  62.983  1.00  0.00    -0.972 OA 
HETATM   15  C   UNL     1     -11.580  13.228  64.577  1.00  0.00    -0.407 A  
HETATM   16  C   UNL     1      -9.811  11.280  65.492  1.00  0.00    -0.274 A  
HETATM   17  H   UNL     1     -12.415  10.779  62.588  1.00  0.00     0.000 HD 
ENDBRANCH   7  10
ENDBRANCH   5   7
ENDBRANCH   3   5
ENDBRANCH   2   3
BRANCH   2  18
HETATM   18  C   UNL     1     -11.377  15.870  68.546  1.00  0.00    -0.374 C  
BRANCH  18  19
HETATM   19  C   UNL     1     -10.633  16.911  69.390  1.00  0.00    -0.292 C  
BRANCH  19  20
HETATM   20  C   UNL     1     -10.095  17.993  68.478  1.00  0.00    -0.399 A  
HETATM   21  C   UNL     1      -8.838  18.566  68.722  1.00  0.00    -0.268 A  
HETATM   22  C   UNL     1      -8.391  19.642  67.955  1.00  0.00    -0.341 A  
HETATM   23  C   UNL     1     -10.438  19.586  66.678  1.00  0.00    -0.593 A  
HETATM   24  C   UNL     1     -10.887  18.509  67.444  1.00  0.00    -0.342 A  
HETATM   25  C   UNL     1      -9.193  20.156  66.938  1.00  0.00    -0.499 A  
ENDBRANCH  19  20
ENDBRANCH  18  19
ENDBRANCH   2  18
TORSDOF 7
ENDMDL
MODEL       73
REMARK 921   NORMALIZED FREE ENERGY PREDICTED BY IDOCK:   -5.20 KCAL/MOL
REMARK 922        TOTAL FREE ENERGY PREDICTED BY IDOCK:   -8.96 KCAL/MOL
REMARK 923 INTER-LIGAND FREE ENERGY PREDICTED BY IDOCK:   -8.27 KCAL/MOL
REMARK 924 INTRA-LIGAND FREE ENERGY PREDICTED BY IDOCK:   -0.69 KCAL/MOL
REMARK 927      BINDING AFFINITY PREDICTED BY RF-SCORE:    0.00 PKD
ROOT
HETATM    1  C   UNL     1     -11.590  12.134  66.835  1.00  0.00    -0.408 C  
HETATM    2  C   UNL     1     -10.911  12.787  68.047  1.00  0.00    -0.233 C  
ENDROOT
BRANCH   2   3
HETATM    3  N   UNL     1     -10.298  11.801  68.951  1.00  0.00    -0.357 NA 
HETATM    4  H   UNL     1     -10.111  12.230  69.858  1.00  0.00     0.000 HD 
BRANCH   3   5
HETATM    5  C   UNL     1     -11.055  10.533  69.136  1.00  0.00    -0.250 C  
HETATM    6  C   UNL     1     -10.224   9.325  68.691  1.00  0.00    -0.220 C  
BRANCH   5   7
HETATM    7  C   UNL     1     -11.475  10.381  70.641  1.00  0.00    -0.349 C  
HETATM    8  H   UNL     1     -13.077  10.758  71.691  1.00  0.00     0.000 HD 
HETATM    9  O   UNL     1     -12.823  10.849  70.780  1.00  0.00    -0.331 OA 
BRANCH   7  10
HETATM   10  C   UNL     1     -11.371   8.978  71.230  1.00  0.00    -0.389 A  
HETATM   11  C   UNL     1     -10.254   8.550  71.969  1.00  0.00    -0.391 A  
HETATM   12  C   UNL     1     -11.255   6.387  72.318  1.00  0.00    -0.276 A  
HETATM   13  C   UNL     1     -12.384   6.790  71.624  1.00  0.00    -0.409 A  
HETATM   14  O   UNL     1     -11.226   5.115  72.813  1.00  0.00    -0.263 OA 
HETATM   15  C   UNL     1     -10.189   7.258  72.501  1.00  0.00    -0.236 A  
HETATM   16  C   UNL     1     -12.445   8.080  71.091  1.00  0.00    -0.206 A  
HETATM   17  H   UNL     1     -11.956   4.520  72.687  1.00  0.00     0.000 HD 
ENDBRANCH   7  10
ENDBRANCH   5   7
ENDBRANCH   3   5
ENDBRANCH   2   3
BRANCH   2  18
HETATM   18  C   UNL     1     -11.991  13.589  68.802  1.00  0.00    -0.374 C  
BRANCH  18  19
HETATM   19  C   UNL     1     -11.529  14.927  69.389  1.00  0.00    -0.324 C  
BRANCH  19  20
HETATM   20  C   UNL     1     -11.973  15.012  70.833  1.00  0.00    -0.374 A  
HETATM   21  C   UNL     1     -12.761  13.997  71.394  1.00  0.00    -0.442 A  
HETATM   22  C   UNL     1     -13.269  14.128  72.687  1.00  0.00    -0.612 A  
HETATM   23  C   UNL     1     -12.203  16.283  72.890  1.00  0.00    -0.610 A  
HETATM   24  C   UNL     1     -11.693  16.154  71.597  1.00  0.00    -0.558 A  
HETATM   25  C   UNL     1     -12.995  15.273  73.433  1.00  0.00    -0.656 A  
ENDBRANCH  19  20
ENDBRANCH  18  19
ENDBRANCH   2  18
TORSDOF 7
ENDMDL
MODEL       74
REMARK 921   NORMALIZED FREE ENERGY PREDICTED BY IDOCK:   -5.20 KCAL/MOL
REMARK 922        TOTAL FREE ENERGY PREDICTED BY IDOCK:   -8.96 KCAL/MOL
REMARK 923 INTER-LIGAND FREE ENERGY PREDICTED BY IDOCK:   -7.74 KCAL/MOL
REMARK 924 INTRA-LIGAND FREE ENERGY PREDICTED BY IDOCK:   -1.22 KCAL/MOL
REMARK 927      BINDING AFFINITY PREDICTED BY RF-SCORE:    0.00 PKD
ROOT
HETATM    1  C   UNL     1      -9.546  10.892  66.672  1.00  0.00    -0.213 C  
HETATM    2  C   UNL     1     -10.866  10.890  67.458  1.00  0.00    -0.272 C  
ENDROOT
BRANCH   2   3
HETATM    3  N   UNL     1     -11.887  11.758  66.850  1.00  0.00    -0.585 NA 
HETATM    4  H   UNL     1     -12.364  12.294  67.575  1.00  0.00     0.000 HD 
BRANCH   3   5
HETATM    5  C   UNL     1     -11.406  12.670  65.776  1.00  0.00    -0.333 C  
HETATM    6  C   UNL     1     -12.121  12.386  64.451  1.00  0.00    -0.505 C  
BRANCH   5   7
HETATM    7  C   UNL     1     -11.633  14.162  66.209  1.00  0.00    -0.370 C  
HETATM    8  H   UNL     1     -12.470  15.067  67.722  1.00  0.00     0.000 HD 
HETATM    9  O   UNL     1     -12.333  14.164  67.461  1.00  0.00    -0.296 OA 
BRANCH   7  10
HETATM   10  C   UNL     1     -10.380  15.022  66.337  1.00  0.00    -0.293 A  
HETATM   11  C   UNL     1     -10.351  16.375  65.953  1.00  0.00    -0.378 A  
HETATM   12  C   UNL     1      -8.047  16.566  66.630  1.00  0.00    -0.278 A  
HETATM   13  C   UNL     1      -8.054  15.246  67.049  1.00  0.00    -0.253 A  
HETATM   14  O   UNL     1      -6.890  17.276  66.767  1.00  0.00    -0.172 OA 
HETATM   15  C   UNL     1      -9.188  17.142  66.087  1.00  0.00    -0.216 A  
HETATM   16  C   UNL     1      -9.215  14.481  66.911  1.00  0.00    -0.267 A  
HETATM   17  H   UNL     1      -6.109  16.882  67.138  1.00  0.00     0.000 HD 
ENDBRANCH   7  10
ENDBRANCH   5   7
ENDBRANCH   3   5
ENDBRANCH   2   3
BRANCH   2  18
HETATM   18  C   UNL     1     -10.549  11.376  68.887  1.00  0.00    -0.234 C  
BRANCH  18  19
HETATM   19  C   UNL     1     -11.761  11.537  69.812  1.00  0.00    -0.426 C  
BRANCH  19  20
HETATM   20  C   UNL     1     -11.871  10.315  70.699  1.00  0.00    -0.439 A  
HETATM   21  C   UNL     1     -13.069  10.031  71.369  1.00  0.00    -0.512 A  
HETATM   22  C   UNL     1     -13.138   8.974  72.277  1.00  0.00    -0.508 A  
HETATM   23  C   UNL     1     -10.819   8.456  71.856  1.00  0.00    -0.372 A  
HETATM   24  C   UNL     1     -10.748   9.513  70.946  1.00  0.00    -0.403 A  
HETATM   25  C   UNL     1     -12.012   8.191  72.525  1.00  0.00    -0.410 A  
ENDBRANCH  19  20
ENDBRANCH  18  19
ENDBRANCH   2  18
TORSDOF 7
ENDMDL
MODEL       75
REMARK 921   NORMALIZED FREE ENERGY PREDICTED BY IDOCK:   -5.19 KCAL/MOL
REMARK 922        TOTAL FREE ENERGY PREDICTED BY IDOCK:   -8.95 KCAL/MOL
REMARK 923 INTER-LIGAND FREE ENERGY PREDICTED BY IDOCK:   -7.20 KCAL/MOL
REMARK 924 INTRA-LIGAND FREE ENERGY PREDICTED BY IDOCK:   -1.75 KCAL/MOL
REMARK 927      BINDING AFFINITY PREDICTED BY RF-SCORE:    0.00 PKD
ROOT
HETATM    1  C   UNL     1      -7.581  10.213  67.860  1.00  0.00    -0.089 C  
HETATM    2  C   UNL     1      -8.158  11.115  68.962  1.00  0.00    -0.076 C  
ENDROOT
BRANCH   2   3
HETATM    3  N   UNL     1      -9.253  10.472  69.705  1.00  0.00    -0.411 NA 
HETATM    4  H   UNL     1      -9.347  10.900  70.626  1.00  0.00     0.000 HD 
BRANCH   3   5
HETATM    5  C   UNL     1     -10.574  10.450  69.019  1.00  0.00    -0.221 C  
HETATM    6  C   UNL     1     -10.758   9.155  68.219  1.00  0.00    -0.173 C  
BRANCH   5   7
HETATM    7  C   UNL     1     -11.723  10.603  70.077  1.00  0.00    -0.324 C  
HETATM    8  H   UNL     1     -12.000  10.054  71.930  1.00  0.00     0.000 HD 
HETATM    9  O   UNL     1     -11.305   9.961  71.289  1.00  0.00    -0.368 OA 
BRANCH   7  10
HETATM   10  C   UNL     1     -12.158  12.030  70.394  1.00  0.00    -0.407 A  
HETATM   11  C   UNL     1     -12.922  12.352  71.531  1.00  0.00    -0.385 A  
HETATM   12  C   UNL     1     -12.903  14.687  70.941  1.00  0.00    -0.365 A  
HETATM   13  C   UNL     1     -12.121  14.408  69.832  1.00  0.00    -0.398 A  
HETATM   14  O   UNL     1     -13.262  15.985  71.162  1.00  0.00    -0.556 OA 
HETATM   15  C   UNL     1     -13.303  13.671  71.799  1.00  0.00    -0.469 A  
HETATM   16  C   UNL     1     -11.745  13.089  69.564  1.00  0.00    -0.381 A  
HETATM   17  H   UNL     1     -12.989  16.680  70.575  1.00  0.00     0.000 HD 
ENDBRANCH   7  10
ENDBRANCH   5   7
ENDBRANCH   3   5
ENDBRANCH   2   3
BRANCH   2  18
HETATM   18  C   UNL     1      -8.670  12.401  68.281  1.00  0.00    -0.175 C  
BRANCH  18  19
HETATM   19  C   UNL     1      -8.693  12.370  66.748  1.00  0.00    -0.160 C  
BRANCH  19  20
HETATM   20  C   UNL     1      -9.990  12.981  66.262  1.00  0.00    -0.283 A  
HETATM   21  C   UNL     1     -10.286  14.325  66.534  1.00  0.00    -0.277 A  
HETATM   22  C   UNL     1     -11.529  14.859  66.190  1.00  0.00    -0.272 A  
HETATM   23  C   UNL     1     -12.199  12.723  65.286  1.00  0.00    -0.535 A  
HETATM   24  C   UNL     1     -10.956  12.188  65.629  1.00  0.00    -0.337 A  
HETATM   25  C   UNL     1     -12.487  14.057  65.572  1.00  0.00    -0.533 A  
ENDBRANCH  19  20
ENDBRANCH  18  19
ENDBRANCH   2  18
TORSDOF 7
ENDMDL
MODEL       76
REMARK 921   NORMALIZED FREE ENERGY PREDICTED BY IDOCK:   -5.19 KCAL/MOL
REMARK 922        TOTAL FREE ENERGY PREDICTED BY IDOCK:   -8.95 KCAL/MOL
REMARK 923 INTER-LIGAND FREE ENERGY PREDICTED BY IDOCK:   -7.37 KCAL/MOL
REMARK 924 INTRA-LIGAND FREE ENERGY PREDICTED BY IDOCK:   -1.57 KCAL/MOL
REMARK 927      BINDING AFFINITY PREDICTED BY RF-SCORE:    0.00 PKD
ROOT
HETATM    1  C   UNL     1     -11.574  12.053  65.827  1.00  0.00    -0.353 C  
HETATM    2  C   UNL     1     -12.226  13.004  66.842  1.00  0.00    -0.168 C  
ENDROOT
BRANCH   2   3
HETATM    3  N   UNL     1     -11.889  14.414  66.593  1.00  0.00    -0.402 NA 
HETATM    4  H   UNL     1     -11.244  14.750  67.309  1.00  0.00     0.000 HD 
BRANCH   3   5
HETATM    5  C   UNL     1     -11.349  14.722  65.240  1.00  0.00    -0.363 C  
HETATM    6  C   UNL     1     -12.394  15.442  64.380  1.00  0.00    -0.089 C  
BRANCH   5   7
HETATM    7  C   UNL     1     -10.055  15.600  65.374  1.00  0.00    -0.335 C  
HETATM    8  H   UNL     1      -9.640  17.505  65.268  1.00  0.00     0.000 HD 
HETATM    9  O   UNL     1     -10.424  16.973  65.187  1.00  0.00    -0.667 OA 
BRANCH   7  10
HETATM   10  C   UNL     1      -9.283  15.465  66.682  1.00  0.00    -0.303 A  
HETATM   11  C   UNL     1      -9.392  16.403  67.725  1.00  0.00    -0.213 A  
HETATM   12  C   UNL     1      -7.856  15.141  69.085  1.00  0.00    -0.199 A  
HETATM   13  C   UNL     1      -7.754  14.182  68.092  1.00  0.00    -0.140 A  
HETATM   14  O   UNL     1      -7.132  14.962  70.228  1.00  0.00    -0.260 OA 
HETATM   15  C   UNL     1      -8.674  16.251  68.916  1.00  0.00    -0.253 A  
HETATM   16  C   UNL     1      -8.469  14.338  66.901  1.00  0.00    -0.133 A  
HETATM   17  H   UNL     1      -6.572  14.203  70.344  1.00  0.00     0.000 HD 
ENDBRANCH   7  10
ENDBRANCH   5   7
ENDBRANCH   3   5
ENDBRANCH   2   3
BRANCH   2  18
HETATM   18  C   UNL     1     -11.733  12.587  68.243  1.00  0.00    -0.390 C  
BRANCH  18  19
HETATM   19  C   UNL     1     -11.291  13.737  69.155  1.00  0.00    -0.329 C  
BRANCH  19  20
HETATM   20  C   UNL     1     -12.273  13.864  70.300  1.00  0.00    -0.428 A  
HETATM   21  C   UNL     1     -12.483  12.789  71.176  1.00  0.00    -0.335 A  
HETATM   22  C   UNL     1     -13.472  12.861  72.159  1.00  0.00    -0.619 A  
HETATM   23  C   UNL     1     -14.048  15.086  71.421  1.00  0.00    -0.576 A  
HETATM   24  C   UNL     1     -13.060  15.016  70.437  1.00  0.00    -0.222 A  
HETATM   25  C   UNL     1     -14.257  14.006  72.278  1.00  0.00    -0.599 A  
ENDBRANCH  19  20
ENDBRANCH  18  19
ENDBRANCH   2  18
TORSDOF 7
ENDMDL
MODEL       77
REMARK 921   NORMALIZED FREE ENERGY PREDICTED BY IDOCK:   -5.16 KCAL/MOL
REMARK 922        TOTAL FREE ENERGY PREDICTED BY IDOCK:   -8.90 KCAL/MOL
REMARK 923 INTER-LIGAND FREE ENERGY PREDICTED BY IDOCK:   -8.45 KCAL/MOL
REMARK 924 INTRA-LIGAND FREE ENERGY PREDICTED BY IDOCK:   -0.45 KCAL/MOL
REMARK 927      BINDING AFFINITY PREDICTED BY RF-SCORE:    0.00 PKD
ROOT
HETATM    1  C   UNL     1     -12.392  15.247  70.157  1.00  0.00    -0.392 C  
HETATM    2  C   UNL     1     -11.636  14.519  69.035  1.00  0.00    -0.298 C  
ENDROOT
BRANCH   2   3
HETATM    3  N   UNL     1     -11.097  13.220  69.466  1.00  0.00    -0.464 NA 
HETATM    4  H   UNL     1     -10.564  13.334  70.328  1.00  0.00     0.000 HD 
BRANCH   3   5
HETATM    5  C   UNL     1     -12.094  12.127  69.627  1.00  0.00    -0.218 C  
HETATM    6  C   UNL     1     -11.741  10.925  68.744  1.00  0.00    -0.355 C  
BRANCH   5   7
HETATM    7  C   UNL     1     -12.166  11.693  71.133  1.00  0.00    -0.144 C  
HETATM    8  H   UNL     1     -13.287  12.145  72.667  1.00  0.00     0.000 HD 
HETATM    9  O   UNL     1     -13.243  12.408  71.755  1.00  0.00    -0.440 OA 
BRANCH   7  10
HETATM   10  C   UNL     1     -12.341  10.201  71.396  1.00  0.00    -0.515 A  
HETATM   11  C   UNL     1     -13.607   9.597  71.509  1.00  0.00    -0.376 A  
HETATM   12  C   UNL     1     -12.598   7.436  71.849  1.00  0.00    -0.291 A  
HETATM   13  C   UNL     1     -11.338   7.995  71.708  1.00  0.00    -0.318 A  
HETATM   14  O   UNL     1     -12.682   6.096  72.090  1.00  0.00    -0.407 OA 
HETATM   15  C   UNL     1     -13.736   8.224  71.746  1.00  0.00    -0.420 A  
HETATM   16  C   UNL     1     -11.210   9.367  71.475  1.00  0.00    -0.457 A  
HETATM   17  H   UNL     1     -11.902   5.557  72.160  1.00  0.00     0.000 HD 
ENDBRANCH   7  10
ENDBRANCH   5   7
ENDBRANCH   3   5
ENDBRANCH   2   3
BRANCH   2  18
HETATM   18  C   UNL     1     -10.484  15.441  68.585  1.00  0.00    -0.237 C  
BRANCH  18  19
HETATM   19  C   UNL     1     -10.691  16.144  67.238  1.00  0.00    -0.277 C  
BRANCH  19  20
HETATM   20  C   UNL     1     -10.316  17.604  67.380  1.00  0.00    -0.360 A  
HETATM   21  C   UNL     1     -10.137  18.169  68.651  1.00  0.00    -0.406 A  
HETATM   22  C   UNL     1      -9.908  19.539  68.790  1.00  0.00    -0.532 A  
HETATM   23  C   UNL     1     -10.019  19.803  66.394  1.00  0.00    -0.578 A  
HETATM   24  C   UNL     1     -10.248  18.433  66.253  1.00  0.00    -0.427 A  
HETATM   25  C   UNL     1      -9.855  20.356  67.663  1.00  0.00    -0.538 A  
ENDBRANCH  19  20
ENDBRANCH  18  19
ENDBRANCH   2  18
TORSDOF 7
ENDMDL
MODEL       78
REMARK 921   NORMALIZED FREE ENERGY PREDICTED BY IDOCK:   -5.15 KCAL/MOL
REMARK 922        TOTAL FREE ENERGY PREDICTED BY IDOCK:   -8.89 KCAL/MOL
REMARK 923 INTER-LIGAND FREE ENERGY PREDICTED BY IDOCK:   -7.90 KCAL/MOL
REMARK 924 INTRA-LIGAND FREE ENERGY PREDICTED BY IDOCK:   -0.98 KCAL/MOL
REMARK 927      BINDING AFFINITY PREDICTED BY RF-SCORE:    0.00 PKD
ROOT
HETATM    1  C   UNL     1     -10.442   9.153  68.897  1.00  0.00    -0.239 C  
HETATM    2  C   UNL     1     -11.019  10.450  69.484  1.00  0.00    -0.262 C  
ENDROOT
BRANCH   2   3
HETATM    3  N   UNL     1     -12.361  10.263  70.056  1.00  0.00    -0.517 NA 
HETATM    4  H   UNL     1     -12.763   9.387  69.723  1.00  0.00     0.000 HD 
BRANCH   3   5
HETATM    5  C   UNL     1     -12.447  10.328  71.541  1.00  0.00    -0.422 C  
HETATM    6  C   UNL     1     -13.397  11.444  71.989  1.00  0.00    -0.388 C  
BRANCH   5   7
HETATM    7  C   UNL     1     -12.928   8.945  72.104  1.00  0.00    -0.416 C  
HETATM    8  H   UNL     1     -14.373   7.696  71.701  1.00  0.00     0.000 HD 
HETATM    9  O   UNL     1     -14.082   8.534  71.359  1.00  0.00    -0.369 OA 
BRANCH   7  10
HETATM   10  C   UNL     1     -11.899   7.819  72.090  1.00  0.00    -0.370 A  
HETATM   11  C   UNL     1     -11.927   6.781  71.141  1.00  0.00    -0.421 A  
HETATM   12  C   UNL     1      -9.952   5.788  72.097  1.00  0.00    -0.176 A  
HETATM   13  C   UNL     1      -9.877   6.815  73.024  1.00  0.00    -0.191 A  
HETATM   14  O   UNL     1      -9.003   4.809  72.146  1.00  0.00    -0.125 OA 
HETATM   15  C   UNL     1     -10.967   5.764  71.149  1.00  0.00    -0.295 A  
HETATM   16  C   UNL     1     -10.839   7.828  73.016  1.00  0.00    -0.451 A  
HETATM   17  H   UNL     1      -8.309   4.826  72.794  1.00  0.00     0.000 HD 
ENDBRANCH   7  10
ENDBRANCH   5   7
ENDBRANCH   3   5
ENDBRANCH   2   3
BRANCH   2  18
HETATM   18  C   UNL     1     -11.075  11.485  68.342  1.00  0.00    -0.288 C  
BRANCH  18  19
HETATM   19  C   UNL     1     -10.732  10.948  66.948  1.00  0.00    -0.318 C  
BRANCH  19  20
HETATM   20  C   UNL     1     -11.186  11.950  65.907  1.00  0.00    -0.373 A  
HETATM   21  C   UNL     1     -11.736  13.179  66.300  1.00  0.00    -0.424 A  
HETATM   22  C   UNL     1     -12.262  14.054  65.348  1.00  0.00    -0.453 A  
HETATM   23  C   UNL     1     -11.688  12.497  63.595  1.00  0.00    -0.594 A  
HETATM   24  C   UNL     1     -11.160  11.621  64.545  1.00  0.00    -0.365 A  
HETATM   25  C   UNL     1     -12.244  13.711  63.997  1.00  0.00    -0.443 A  
ENDBRANCH  19  20
ENDBRANCH  18  19
ENDBRANCH   2  18
TORSDOF 7
ENDMDL
MODEL       79
REMARK 921   NORMALIZED FREE ENERGY PREDICTED BY IDOCK:   -5.15 KCAL/MOL
REMARK 922        TOTAL FREE ENERGY PREDICTED BY IDOCK:   -8.88 KCAL/MOL
REMARK 923 INTER-LIGAND FREE ENERGY PREDICTED BY IDOCK:   -7.82 KCAL/MOL
REMARK 924 INTRA-LIGAND FREE ENERGY PREDICTED BY IDOCK:   -1.07 KCAL/MOL
REMARK 927      BINDING AFFINITY PREDICTED BY RF-SCORE:    0.00 PKD
ROOT
HETATM    1  C   UNL     1     -10.595   9.561  68.503  1.00  0.00    -0.247 C  
HETATM    2  C   UNL     1     -11.167  10.877  69.052  1.00  0.00    -0.266 C  
ENDROOT
BRANCH   2   3
HETATM    3  N   UNL     1     -12.424  10.682  69.790  1.00  0.00    -0.517 NA 
HETATM    4  H   UNL     1     -12.835   9.781  69.546  1.00  0.00     0.000 HD 
BRANCH   3   5
HETATM    5  C   UNL     1     -12.334  10.814  71.270  1.00  0.00    -0.365 C  
HETATM    6  C   UNL     1     -13.260  11.922  71.782  1.00  0.00    -0.426 C  
BRANCH   5   7
HETATM    7  C   UNL     1     -12.696   9.445  71.947  1.00  0.00    -0.401 C  
HETATM    8  H   UNL     1     -14.206   8.209  71.881  1.00  0.00     0.000 HD 
HETATM    9  O   UNL     1     -13.986   9.037  71.471  1.00  0.00    -0.373 OA 
BRANCH   7  10
HETATM   10  C   UNL     1     -11.704   8.306  71.734  1.00  0.00    -0.357 A  
HETATM   11  C   UNL     1     -10.413   8.314  72.293  1.00  0.00    -0.392 A  
HETATM   12  C   UNL     1      -9.932   6.159  71.331  1.00  0.00    -0.187 A  
HETATM   13  C   UNL     1     -11.208   6.105  70.796  1.00  0.00    -0.373 A  
HETATM   14  O   UNL     1      -9.093   5.109  71.096  1.00  0.00    -0.138 OA 
HETATM   15  C   UNL     1      -9.526   7.253  72.084  1.00  0.00    -0.157 A  
HETATM   16  C   UNL     1     -12.091   7.168  71.003  1.00  0.00    -0.391 A  
HETATM   17  H   UNL     1      -9.371   4.360  70.580  1.00  0.00     0.000 HD 
ENDBRANCH   7  10
ENDBRANCH   5   7
ENDBRANCH   3   5
ENDBRANCH   2   3
BRANCH   2  18
HETATM   18  C   UNL     1     -11.405  11.811  67.848  1.00  0.00    -0.362 C  
BRANCH  18  19
HETATM   19  C   UNL     1     -11.850  13.236  68.198  1.00  0.00    -0.388 C  
BRANCH  19  20
HETATM   20  C   UNL     1     -11.720  14.110  66.969  1.00  0.00    -0.430 A  
HETATM   21  C   UNL     1     -12.453  13.816  65.810  1.00  0.00    -0.527 A  
HETATM   22  C   UNL     1     -12.248  14.548  64.639  1.00  0.00    -0.474 A  
HETATM   23  C   UNL     1     -10.584  15.887  65.764  1.00  0.00    -0.368 A  
HETATM   24  C   UNL     1     -10.788  15.157  66.936  1.00  0.00    -0.317 A  
HETATM   25  C   UNL     1     -11.310  15.579  64.614  1.00  0.00    -0.363 A  
ENDBRANCH  19  20
ENDBRANCH  18  19
ENDBRANCH   2  18
TORSDOF 7
ENDMDL
MODEL       80
REMARK 921   NORMALIZED FREE ENERGY PREDICTED BY IDOCK:   -5.14 KCAL/MOL
REMARK 922        TOTAL FREE ENERGY PREDICTED BY IDOCK:   -8.88 KCAL/MOL
REMARK 923 INTER-LIGAND FREE ENERGY PREDICTED BY IDOCK:   -7.42 KCAL/MOL
REMARK 924 INTRA-LIGAND FREE ENERGY PREDICTED BY IDOCK:   -1.45 KCAL/MOL
REMARK 927      BINDING AFFINITY PREDICTED BY RF-SCORE:    0.00 PKD
ROOT
HETATM    1  C   UNL     1      -9.100  11.613  66.826  1.00  0.00    -0.186 C  
HETATM    2  C   UNL     1     -10.259  10.666  66.481  1.00  0.00    -0.233 C  
ENDROOT
BRANCH   2   3
HETATM    3  N   UNL     1     -11.015  11.104  65.298  1.00  0.00    -0.147 NA 
HETATM    4  H   UNL     1     -11.994  11.251  65.545  1.00  0.00     0.000 HD 
BRANCH   3   5
HETATM    5  C   UNL     1     -10.483  12.305  64.597  1.00  0.00    -0.303 C  
HETATM    6  C   UNL     1     -10.189  11.999  63.125  1.00  0.00    -0.275 C  
BRANCH   5   7
HETATM    7  C   UNL     1     -11.512  13.485  64.714  1.00  0.00    -0.346 C  
HETATM    8  H   UNL     1     -13.420  13.644  65.095  1.00  0.00     0.000 HD 
HETATM    9  O   UNL     1     -12.797  12.929  65.024  1.00  0.00    -0.699 OA 
BRANCH   7  10
HETATM   10  C   UNL     1     -11.179  14.570  65.733  1.00  0.00    -0.334 A  
HETATM   11  C   UNL     1     -10.403  15.698  65.409  1.00  0.00    -0.421 A  
HETATM   12  C   UNL     1     -10.627  16.553  67.649  1.00  0.00    -0.321 A  
HETATM   13  C   UNL     1     -11.422  15.472  67.990  1.00  0.00    -0.313 A  
HETATM   14  O   UNL     1     -10.362  17.484  68.612  1.00  0.00    -0.349 OA 
HETATM   15  C   UNL     1     -10.118  16.680  66.364  1.00  0.00    -0.325 A  
HETATM   16  C   UNL     1     -11.703  14.490  67.036  1.00  0.00    -0.412 A  
HETATM   17  H   UNL     1     -10.710  17.397  69.492  1.00  0.00     0.000 HD 
ENDBRANCH   7  10
ENDBRANCH   5   7
ENDBRANCH   3   5
ENDBRANCH   2   3
BRANCH   2  18
HETATM   18  C   UNL     1     -11.191  10.616  67.709  1.00  0.00    -0.383 C  
BRANCH  18  19
HETATM   19  C   UNL     1     -10.671  11.331  68.961  1.00  0.00    -0.257 C  
BRANCH  19  20
HETATM   20  C   UNL     1     -10.572  10.333  70.095  1.00  0.00    -0.303 A  
HETATM   21  C   UNL     1      -9.422   9.547  70.249  1.00  0.00    -0.307 A  
HETATM   22  C   UNL     1      -9.374   8.545  71.220  1.00  0.00    -0.261 A  
HETATM   23  C   UNL     1     -11.618   9.104  71.910  1.00  0.00    -0.430 A  
HETATM   24  C   UNL     1     -11.667  10.107  70.940  1.00  0.00    -0.468 A  
HETATM   25  C   UNL     1     -10.474   8.320  72.046  1.00  0.00    -0.350 A  
ENDBRANCH  19  20
ENDBRANCH  18  19
ENDBRANCH   2  18
TORSDOF 7
ENDMDL
MODEL       81
REMARK 921   NORMALIZED FREE ENERGY PREDICTED BY IDOCK:   -5.12 KCAL/MOL
REMARK 922        TOTAL FREE ENERGY PREDICTED BY IDOCK:   -8.85 KCAL/MOL
REMARK 923 INTER-LIGAND FREE ENERGY PREDICTED BY IDOCK:   -8.09 KCAL/MOL
REMARK 924 INTRA-LIGAND FREE ENERGY PREDICTED BY IDOCK:   -0.77 KCAL/MOL
REMARK 927      BINDING AFFINITY PREDICTED BY RF-SCORE:    0.00 PKD
ROOT
HETATM    1  C   UNL     1     -12.594  13.241  65.246  1.00  0.00    -0.528 C  
HETATM    2  C   UNL     1     -12.362  14.101  66.496  1.00  0.00    -0.372 C  
ENDROOT
BRANCH   2   3
HETATM    3  N   UNL     1     -11.336  15.136  66.290  1.00  0.00    -0.276 NA 
HETATM    4  H   UNL     1     -11.770  15.990  65.940  1.00  0.00     0.000 HD 
BRANCH   3   5
HETATM    5  C   UNL     1     -10.483  15.446  67.469  1.00  0.00    -0.275 C  
HETATM    6  C   UNL     1      -8.999  15.464  67.086  1.00  0.00    -0.236 C  
BRANCH   5   7
HETATM    7  C   UNL     1     -10.905  16.829  68.079  1.00  0.00    -0.341 C  
HETATM    8  H   UNL     1     -11.199  17.533  69.877  1.00  0.00     0.000 HD 
HETATM    9  O   UNL     1     -10.943  16.696  69.507  1.00  0.00    -0.307 OA 
BRANCH   7  10
HETATM   10  C   UNL     1     -10.027  18.021  67.713  1.00  0.00    -0.329 A  
HETATM   11  C   UNL     1     -10.226  18.774  66.542  1.00  0.00    -0.458 A  
HETATM   12  C   UNL     1      -8.394  20.231  67.111  1.00  0.00    -0.336 A  
HETATM   13  C   UNL     1      -8.195  19.531  68.290  1.00  0.00    -0.373 A  
HETATM   14  O   UNL     1      -7.568  21.284  66.842  1.00  0.00    -0.717 OA 
HETATM   15  C   UNL     1      -9.408  19.866  66.234  1.00  0.00    -0.474 A  
HETATM   16  C   UNL     1      -9.011  18.439  68.593  1.00  0.00    -0.308 A  
HETATM   17  H   UNL     1      -6.875  21.533  67.442  1.00  0.00     0.000 HD 
ENDBRANCH   7  10
ENDBRANCH   5   7
ENDBRANCH   3   5
ENDBRANCH   2   3
BRANCH   2  18
HETATM   18  C   UNL     1     -11.927  13.152  67.632  1.00  0.00    -0.363 C  
BRANCH  18  19
HETATM   19  C   UNL     1     -11.318  11.820  67.180  1.00  0.00    -0.387 C  
BRANCH  19  20
HETATM   20  C   UNL     1     -11.284  10.869  68.358  1.00  0.00    -0.347 A  
HETATM   21  C   UNL     1     -12.021  11.149  69.517  1.00  0.00    -0.425 A  
HETATM   22  C   UNL     1     -11.900  10.336  70.646  1.00  0.00    -0.439 A  
HETATM   23  C   UNL     1     -10.315   8.943  69.476  1.00  0.00    -0.213 A  
HETATM   24  C   UNL     1     -10.435   9.753  68.345  1.00  0.00    -0.250 A  
HETATM   25  C   UNL     1     -11.043   9.238  70.627  1.00  0.00    -0.335 A  
ENDBRANCH  19  20
ENDBRANCH  18  19
ENDBRANCH   2  18
TORSDOF 7
ENDMDL
MODEL       82
REMARK 921   NORMALIZED FREE ENERGY PREDICTED BY IDOCK:   -5.11 KCAL/MOL
REMARK 922        TOTAL FREE ENERGY PREDICTED BY IDOCK:   -8.83 KCAL/MOL
REMARK 923 INTER-LIGAND FREE ENERGY PREDICTED BY IDOCK:   -7.91 KCAL/MOL
REMARK 924 INTRA-LIGAND FREE ENERGY PREDICTED BY IDOCK:   -0.92 KCAL/MOL
REMARK 927      BINDING AFFINITY PREDICTED BY RF-SCORE:    0.00 PKD
ROOT
HETATM    1  C   UNL     1     -13.574  10.139  71.220  1.00  0.00    -0.192 C  
HETATM    2  C   UNL     1     -12.208  10.565  70.660  1.00  0.00    -0.352 C  
ENDROOT
BRANCH   2   3
HETATM    3  N   UNL     1     -12.199  10.644  69.191  1.00  0.00    -0.731 NA 
HETATM    4  H   UNL     1     -13.020  10.172  68.812  1.00  0.00     0.000 HD 
BRANCH   3   5
HETATM    5  C   UNL     1     -12.090  12.013  68.616  1.00  0.00    -0.088 C  
HETATM    6  C   UNL     1     -11.601  13.014  69.668  1.00  0.00    -0.322 C  
BRANCH   5   7
HETATM    7  C   UNL     1     -11.117  11.995  67.386  1.00  0.00    -0.281 C  
HETATM    8  H   UNL     1     -10.741  10.764  65.918  1.00  0.00     0.000 HD 
HETATM    9  O   UNL     1     -11.331  10.775  66.663  1.00  0.00    -0.192 OA 
BRANCH   7  10
HETATM   10  C   UNL     1     -11.229  13.171  66.422  1.00  0.00    -0.328 A  
HETATM   11  C   UNL     1     -10.225  14.150  66.304  1.00  0.00    -0.301 A  
HETATM   12  C   UNL     1     -11.481  15.300  64.601  1.00  0.00    -0.354 A  
HETATM   13  C   UNL     1     -12.472  14.334  64.669  1.00  0.00    -0.371 A  
HETATM   14  O   UNL     1     -11.649  16.330  63.721  1.00  0.00    -1.539 OA 
HETATM   15  C   UNL     1     -10.354  15.216  65.407  1.00  0.00    -0.415 A  
HETATM   16  C   UNL     1     -12.343  13.272  65.568  1.00  0.00    -0.533 A  
HETATM   17  H   UNL     1     -12.421  16.388  63.170  1.00  0.00     0.000 HD 
ENDBRANCH   7  10
ENDBRANCH   5   7
ENDBRANCH   3   5
ENDBRANCH   2   3
BRANCH   2  18
HETATM   18  C   UNL     1     -11.173   9.526  71.136  1.00  0.00    -0.446 C  
BRANCH  18  19
HETATM   19  C   UNL     1      -9.845   9.520  70.370  1.00  0.00    -0.329 C  
BRANCH  19  20
HETATM   20  C   UNL     1      -8.768   8.927  71.253  1.00  0.00    -0.279 A  
HETATM   21  C   UNL     1      -9.106   8.314  72.468  1.00  0.00    -0.323 A  
HETATM   22  C   UNL     1      -8.108   7.871  73.338  1.00  0.00    -0.228 A  
HETATM   23  C   UNL     1      -6.418   8.633  71.793  1.00  0.00    -0.073 A  
HETATM   24  C   UNL     1      -7.415   9.076  70.921  1.00  0.00    -0.128 A  
HETATM   25  C   UNL     1      -6.765   8.036  73.004  1.00  0.00    -0.101 A  
ENDBRANCH  19  20
ENDBRANCH  18  19
ENDBRANCH   2  18
TORSDOF 7
ENDMDL
MODEL       83
REMARK 921   NORMALIZED FREE ENERGY PREDICTED BY IDOCK:   -5.07 KCAL/MOL
REMARK 922        TOTAL FREE ENERGY PREDICTED BY IDOCK:   -8.78 KCAL/MOL
REMARK 923 INTER-LIGAND FREE ENERGY PREDICTED BY IDOCK:   -7.64 KCAL/MOL
REMARK 924 INTRA-LIGAND FREE ENERGY PREDICTED BY IDOCK:   -1.15 KCAL/MOL
REMARK 927      BINDING AFFINITY PREDICTED BY RF-SCORE:    0.00 PKD
ROOT
HETATM    1  C   UNL     1     -10.698   9.960  67.783  1.00  0.00    -0.332 C  
HETATM    2  C   UNL     1     -10.811  10.204  69.295  1.00  0.00    -0.235 C  
ENDROOT
BRANCH   2   3
HETATM    3  N   UNL     1     -11.304   9.024  70.023  1.00  0.00    -0.422 NA 
HETATM    4  H   UNL     1     -11.725   8.363  69.370  1.00  0.00     0.000 HD 
BRANCH   3   5
HETATM    5  C   UNL     1     -10.304   8.326  70.877  1.00  0.00    -0.192 C  
HETATM    6  C   UNL     1     -10.689   8.410  72.358  1.00  0.00    -0.405 C  
BRANCH   5   7
HETATM    7  C   UNL     1     -10.181   6.827  70.431  1.00  0.00    -0.192 C  
HETATM    8  H   UNL     1     -11.319   5.242  70.523  1.00  0.00     0.000 HD 
HETATM    9  O   UNL     1     -11.393   6.150  70.793  1.00  0.00    -0.321 OA 
BRANCH   7  10
HETATM   10  C   UNL     1      -9.899   6.586  68.951  1.00  0.00    -0.142 A  
HETATM   11  C   UNL     1     -10.876   6.096  68.066  1.00  0.00    -0.398 A  
HETATM   12  C   UNL     1      -9.326   6.195  66.225  1.00  0.00    -0.134 A  
HETATM   13  C   UNL     1      -8.353   6.711  67.064  1.00  0.00    -0.113 A  
HETATM   14  O   UNL     1      -9.004   5.998  64.914  1.00  0.00    -0.367 OA 
HETATM   15  C   UNL     1     -10.590   5.889  66.712  1.00  0.00    -0.368 A  
HETATM   16  C   UNL     1      -8.639   6.914  68.417  1.00  0.00    -0.125 A  
HETATM   17  H   UNL     1      -8.139   6.207  64.581  1.00  0.00     0.000 HD 
ENDBRANCH   7  10
ENDBRANCH   5   7
ENDBRANCH   3   5
ENDBRANCH   2   3
BRANCH   2  18
HETATM   18  C   UNL     1     -11.780  11.387  69.498  1.00  0.00    -0.417 C  
BRANCH  18  19
HETATM   19  C   UNL     1     -12.439  11.470  70.879  1.00  0.00    -0.464 C  
BRANCH  19  20
HETATM   20  C   UNL     1     -12.836  12.905  71.151  1.00  0.00    -0.326 A  
HETATM   21  C   UNL     1     -12.277  13.949  70.400  1.00  0.00    -0.438 A  
HETATM   22  C   UNL     1     -12.550  15.279  70.726  1.00  0.00    -0.474 A  
HETATM   23  C   UNL     1     -13.955  14.548  72.547  1.00  0.00    -0.510 A  
HETATM   24  C   UNL     1     -13.683  13.217  72.223  1.00  0.00    -0.686 A  
HETATM   25  C   UNL     1     -13.384  15.578  71.802  1.00  0.00    -0.577 A  
ENDBRANCH  19  20
ENDBRANCH  18  19
ENDBRANCH   2  18
TORSDOF 7
ENDMDL
MODEL       84
REMARK 921   NORMALIZED FREE ENERGY PREDICTED BY IDOCK:   -5.06 KCAL/MOL
REMARK 922        TOTAL FREE ENERGY PREDICTED BY IDOCK:   -8.77 KCAL/MOL
REMARK 923 INTER-LIGAND FREE ENERGY PREDICTED BY IDOCK:   -7.55 KCAL/MOL
REMARK 924 INTRA-LIGAND FREE ENERGY PREDICTED BY IDOCK:   -1.22 KCAL/MOL
REMARK 927      BINDING AFFINITY PREDICTED BY RF-SCORE:    0.00 PKD
ROOT
HETATM    1  C   UNL     1     -10.678   9.467  67.358  1.00  0.00    -0.297 C  
HETATM    2  C   UNL     1     -10.870  10.970  67.613  1.00  0.00    -0.256 C  
ENDROOT
BRANCH   2   3
HETATM    3  N   UNL     1      -9.930  11.798  66.842  1.00  0.00    -0.197 NA 
HETATM    4  H   UNL     1      -9.645  11.306  65.995  1.00  0.00     0.000 HD 
BRANCH   3   5
HETATM    5  C   UNL     1     -10.406  13.166  66.497  1.00  0.00    -0.283 C  
HETATM    6  C   UNL     1     -11.937  13.222  66.455  1.00  0.00    -0.465 C  
BRANCH   5   7
HETATM    7  C   UNL     1      -9.851  14.199  67.541  1.00  0.00    -0.235 C  
HETATM    8  H   UNL     1      -8.102  14.614  68.303  1.00  0.00     0.000 HD 
HETATM    9  O   UNL     1      -8.438  13.989  67.671  1.00  0.00    -0.165 OA 
BRANCH   7  10
HETATM   10  C   UNL     1     -10.110  15.670  67.234  1.00  0.00    -0.255 A  
HETATM   11  C   UNL     1     -10.393  16.613  68.239  1.00  0.00    -0.304 A  
HETATM   12  C   UNL     1     -10.546  18.377  66.606  1.00  0.00    -0.325 A  
HETATM   13  C   UNL     1     -10.237  17.480  65.598  1.00  0.00    -0.093 A  
HETATM   14  O   UNL     1     -10.773  19.678  66.261  1.00  0.00    -0.460 OA 
HETATM   15  C   UNL     1     -10.622  17.958  67.928  1.00  0.00    -0.387 A  
HETATM   16  C   UNL     1     -10.012  16.137  65.910  1.00  0.00    -0.384 A  
HETATM   17  H   UNL     1     -10.722  19.965  65.357  1.00  0.00     0.000 HD 
ENDBRANCH   7  10
ENDBRANCH   5   7
ENDBRANCH   3   5
ENDBRANCH   2   3
BRANCH   2  18
HETATM   18  C   UNL     1     -10.662  11.209  69.123  1.00  0.00    -0.262 C  
BRANCH  18  19
HETATM   19  C   UNL     1     -11.862  10.872  70.015  1.00  0.00    -0.428 C  
BRANCH  19  20
HETATM   20  C   UNL     1     -12.303  12.124  70.743  1.00  0.00    -0.391 A  
HETATM   21  C   UNL     1     -13.170  12.036  71.842  1.00  0.00    -0.469 A  
HETATM   22  C   UNL     1     -13.671  13.193  72.441  1.00  0.00    -0.640 A  
HETATM   23  C   UNL     1     -12.442  14.545  70.864  1.00  0.00    -0.415 A  
HETATM   24  C   UNL     1     -11.939  13.390  70.264  1.00  0.00    -0.378 A  
HETATM   25  C   UNL     1     -13.312  14.447  71.949  1.00  0.00    -0.456 A  
ENDBRANCH  19  20
ENDBRANCH  18  19
ENDBRANCH   2  18
TORSDOF 7
ENDMDL
MODEL       85
REMARK 921   NORMALIZED FREE ENERGY PREDICTED BY IDOCK:   -5.06 KCAL/MOL
REMARK 922        TOTAL FREE ENERGY PREDICTED BY IDOCK:   -8.77 KCAL/MOL
REMARK 923 INTER-LIGAND FREE ENERGY PREDICTED BY IDOCK:   -7.65 KCAL/MOL
REMARK 924 INTRA-LIGAND FREE ENERGY PREDICTED BY IDOCK:   -1.11 KCAL/MOL
REMARK 927      BINDING AFFINITY PREDICTED BY RF-SCORE:    0.00 PKD
ROOT
HETATM    1  C   UNL     1      -9.952   9.066  66.405  1.00  0.00    -0.370 C  
HETATM    2  C   UNL     1     -10.616   8.920  67.782  1.00  0.00    -0.202 C  
ENDROOT
BRANCH   2   3
HETATM    3  N   UNL     1     -10.337  10.060  68.669  1.00  0.00    -0.181 NA 
HETATM    4  H   UNL     1      -9.437  10.475  68.429  1.00  0.00     0.000 HD 
BRANCH   3   5
HETATM    5  C   UNL     1     -11.386  11.115  68.717  1.00  0.00    -0.277 C  
HETATM    6  C   UNL     1     -11.928  11.290  70.139  1.00  0.00    -0.452 C  
BRANCH   5   7
HETATM    7  C   UNL     1     -10.798  12.471  68.188  1.00  0.00    -0.222 C  
HETATM    8  H   UNL     1      -9.010  13.205  67.910  1.00  0.00     0.000 HD 
HETATM    9  O   UNL     1      -9.366  12.385  68.230  1.00  0.00    -0.207 OA 
BRANCH   7  10
HETATM   10  C   UNL     1     -11.230  12.891  66.787  1.00  0.00    -0.337 A  
HETATM   11  C   UNL     1     -11.852  12.003  65.890  1.00  0.00    -0.232 A  
HETATM   12  C   UNL     1     -12.035  13.736  64.227  1.00  0.00    -0.443 A  
HETATM   13  C   UNL     1     -11.457  14.643  65.100  1.00  0.00    -0.375 A  
HETATM   14  O   UNL     1     -12.392  14.177  62.986  1.00  0.00    -1.070 OA 
HETATM   15  C   UNL     1     -12.242  12.418  64.612  1.00  0.00    -0.499 A  
HETATM   16  C   UNL     1     -11.065  14.226  66.374  1.00  0.00    -0.325 A  
HETATM   17  H   UNL     1     -12.250  15.079  62.723  1.00  0.00     0.000 HD 
ENDBRANCH   7  10
ENDBRANCH   5   7
ENDBRANCH   3   5
ENDBRANCH   2   3
BRANCH   2  18
HETATM   18  C   UNL     1     -10.079   7.620  68.415  1.00  0.00    -0.208 C  
BRANCH  18  19
HETATM   19  C   UNL     1     -11.143   6.678  68.990  1.00  0.00    -0.318 C  
BRANCH  19  20
HETATM   20  C   UNL     1     -11.143   6.795  70.499  1.00  0.00    -0.346 A  
HETATM   21  C   UNL     1     -11.778   7.878  71.125  1.00  0.00    -0.306 A  
HETATM   22  C   UNL     1     -11.680   8.052  72.507  1.00  0.00    -0.446 A  
HETATM   23  C   UNL     1     -10.324   6.062  72.665  1.00  0.00    -0.222 A  
HETATM   24  C   UNL     1     -10.421   5.885  71.283  1.00  0.00    -0.289 A  
HETATM   25  C   UNL     1     -10.949   7.148  73.275  1.00  0.00    -0.325 A  
ENDBRANCH  19  20
ENDBRANCH  18  19
ENDBRANCH   2  18
TORSDOF 7
ENDMDL
MODEL       86
REMARK 921   NORMALIZED FREE ENERGY PREDICTED BY IDOCK:   -5.06 KCAL/MOL
REMARK 922        TOTAL FREE ENERGY PREDICTED BY IDOCK:   -8.76 KCAL/MOL
REMARK 923 INTER-LIGAND FREE ENERGY PREDICTED BY IDOCK:   -7.57 KCAL/MOL
REMARK 924 INTRA-LIGAND FREE ENERGY PREDICTED BY IDOCK:   -1.19 KCAL/MOL
REMARK 927      BINDING AFFINITY PREDICTED BY RF-SCORE:    0.00 PKD
ROOT
HETATM    1  C   UNL     1     -11.968  11.642  70.306  1.00  0.00    -0.445 C  
HETATM    2  C   UNL     1     -11.277  12.143  69.029  1.00  0.00    -0.260 C  
ENDROOT
BRANCH   2   3
HETATM    3  N   UNL     1     -11.577  13.554  68.739  1.00  0.00    -0.300 NA 
HETATM    4  H   UNL     1     -12.083  13.970  69.522  1.00  0.00     0.000 HD 
BRANCH   3   5
HETATM    5  C   UNL     1     -10.409  14.405  68.381  1.00  0.00    -0.244 C  
HETATM    6  C   UNL     1      -9.149  13.555  68.182  1.00  0.00    -0.199 C  
BRANCH   5   7
HETATM    7  C   UNL     1     -10.728  15.221  67.079  1.00  0.00    -0.313 C  
HETATM    8  H   UNL     1     -12.284  15.460  65.924  1.00  0.00     0.000 HD 
HETATM    9  O   UNL     1     -12.091  14.966  66.712  1.00  0.00    -0.210 OA 
BRANCH   7  10
HETATM   10  C   UNL     1     -10.507  16.727  67.159  1.00  0.00    -0.299 A  
HETATM   11  C   UNL     1     -10.362  17.407  68.383  1.00  0.00    -0.379 A  
HETATM   12  C   UNL     1     -10.068  19.505  67.237  1.00  0.00    -0.405 A  
HETATM   13  C   UNL     1     -10.172  18.861  66.016  1.00  0.00    -0.437 A  
HETATM   14  O   UNL     1      -9.878  20.856  67.236  1.00  0.00    -0.565 OA 
HETATM   15  C   UNL     1     -10.156  18.790  68.424  1.00  0.00    -0.443 A  
HETATM   16  C   UNL     1     -10.381  17.480  65.976  1.00  0.00    -0.309 A  
HETATM   17  H   UNL     1      -9.818  21.346  66.424  1.00  0.00     0.000 HD 
ENDBRANCH   7  10
ENDBRANCH   5   7
ENDBRANCH   3   5
ENDBRANCH   2   3
BRANCH   2  18
HETATM   18  C   UNL     1     -11.763  11.255  67.865  1.00  0.00    -0.289 C  
BRANCH  18  19
HETATM   19  C   UNL     1     -10.700  10.339  67.247  1.00  0.00    -0.323 C  
BRANCH  19  20
HETATM   20  C   UNL     1     -10.491  10.733  65.800  1.00  0.00    -0.256 A  
HETATM   21  C   UNL     1      -9.751   9.908  64.941  1.00  0.00    -0.332 A  
HETATM   22  C   UNL     1      -9.456  10.324  63.641  1.00  0.00    -0.348 A  
HETATM   23  C   UNL     1     -10.645  12.388  64.029  1.00  0.00    -0.444 A  
HETATM   24  C   UNL     1     -10.941  11.974  65.329  1.00  0.00    -0.356 A  
HETATM   25  C   UNL     1      -9.898  11.565  63.188  1.00  0.00    -0.413 A  
ENDBRANCH  19  20
ENDBRANCH  18  19
ENDBRANCH   2  18
TORSDOF 7
ENDMDL
MODEL       87
REMARK 921   NORMALIZED FREE ENERGY PREDICTED BY IDOCK:   -5.06 KCAL/MOL
REMARK 922        TOTAL FREE ENERGY PREDICTED BY IDOCK:   -8.76 KCAL/MOL
REMARK 923 INTER-LIGAND FREE ENERGY PREDICTED BY IDOCK:   -6.98 KCAL/MOL
REMARK 924 INTRA-LIGAND FREE ENERGY PREDICTED BY IDOCK:   -1.78 KCAL/MOL
REMARK 927      BINDING AFFINITY PREDICTED BY RF-SCORE:    0.00 PKD
ROOT
HETATM    1  C   UNL     1      -8.751   7.701  73.115  1.00  0.00    -0.222 C  
HETATM    2  C   UNL     1      -9.645   8.638  72.289  1.00  0.00    -0.278 C  
ENDROOT
BRANCH   2   3
HETATM    3  N   UNL     1     -11.079   8.397  72.515  1.00  0.00    -0.361 NA 
HETATM    4  H   UNL     1     -11.458   9.111  73.136  1.00  0.00     0.000 HD 
BRANCH   3   5
HETATM    5  C   UNL     1     -11.918   8.293  71.290  1.00  0.00    -0.287 C  
HETATM    6  C   UNL     1     -12.413   6.857  71.081  1.00  0.00    -0.398 C  
BRANCH   5   7
HETATM    7  C   UNL     1     -13.135   9.278  71.397  1.00  0.00    -0.322 C  
HETATM    8  H   UNL     1     -14.434   9.752  72.776  1.00  0.00     0.000 HD 
HETATM    9  O   UNL     1     -13.697   9.156  72.711  1.00  0.00    -0.434 OA 
BRANCH   7  10
HETATM   10  C   UNL     1     -12.838  10.747  71.117  1.00  0.00    -0.513 A  
HETATM   11  C   UNL     1     -12.106  11.169  69.992  1.00  0.00    -0.437 A  
HETATM   12  C   UNL     1     -12.351  13.476  70.639  1.00  0.00    -0.358 A  
HETATM   13  C   UNL     1     -13.104  13.096  71.737  1.00  0.00    -0.478 A  
HETATM   14  O   UNL     1     -12.117  14.808  70.452  1.00  0.00    -0.280 OA 
HETATM   15  C   UNL     1     -11.852  12.525  69.758  1.00  0.00    -0.380 A  
HETATM   16  C   UNL     1     -13.353  11.741  71.970  1.00  0.00    -0.417 A  
HETATM   17  H   UNL     1     -12.457  15.459  71.054  1.00  0.00     0.000 HD 
ENDBRANCH   7  10
ENDBRANCH   5   7
ENDBRANCH   3   5
ENDBRANCH   2   3
BRANCH   2  18
HETATM   18  C   UNL     1      -9.302   8.407  70.803  1.00  0.00    -0.191 C  
BRANCH  18  19
HETATM   19  C   UNL     1      -8.661   9.598  70.081  1.00  0.00    -0.263 C  
BRANCH  19  20
HETATM   20  C   UNL     1      -9.223   9.685  68.678  1.00  0.00    -0.136 A  
HETATM   21  C   UNL     1      -9.864   8.579  68.101  1.00  0.00    -0.192 A  
HETATM   22  C   UNL     1     -10.278   8.618  66.769  1.00  0.00    -0.361 A  
HETATM   23  C   UNL     1      -9.431  10.869  66.568  1.00  0.00    -0.210 A  
HETATM   24  C   UNL     1      -9.017  10.833  67.900  1.00  0.00    -0.139 A  
HETATM   25  C   UNL     1     -10.056   9.759  66.001  1.00  0.00    -0.322 A  
ENDBRANCH  19  20
ENDBRANCH  18  19
ENDBRANCH   2  18
TORSDOF 7
ENDMDL
MODEL       88
REMARK 921   NORMALIZED FREE ENERGY PREDICTED BY IDOCK:   -5.04 KCAL/MOL
REMARK 922        TOTAL FREE ENERGY PREDICTED BY IDOCK:   -8.74 KCAL/MOL
REMARK 923 INTER-LIGAND FREE ENERGY PREDICTED BY IDOCK:   -6.98 KCAL/MOL
REMARK 924 INTRA-LIGAND FREE ENERGY PREDICTED BY IDOCK:   -1.76 KCAL/MOL
REMARK 927      BINDING AFFINITY PREDICTED BY RF-SCORE:    0.00 PKD
ROOT
HETATM    1  C   UNL     1      -8.177  10.585  68.132  1.00  0.00    -0.114 C  
HETATM    2  C   UNL     1      -9.493  11.375  68.178  1.00  0.00    -0.181 C  
ENDROOT
BRANCH   2   3
HETATM    3  N   UNL     1     -10.056  11.461  69.535  1.00  0.00    -0.393 NA 
HETATM    4  H   UNL     1     -10.050  12.430  69.853  1.00  0.00     0.000 HD 
BRANCH   3   5
HETATM    5  C   UNL     1     -11.414  10.878  69.711  1.00  0.00    -0.313 C  
HETATM    6  C   UNL     1     -11.408   9.780  70.780  1.00  0.00    -0.416 C  
BRANCH   5   7
HETATM    7  C   UNL     1     -12.430  12.009  70.097  1.00  0.00    -0.048 C  
HETATM    8  H   UNL     1     -13.400  12.527  71.711  1.00  0.00     0.000 HD 
HETATM    9  O   UNL     1     -12.784  11.841  71.477  1.00  0.00    -0.358 OA 
BRANCH   7  10
HETATM   10  C   UNL     1     -11.957  13.442  69.875  1.00  0.00    -0.408 A  
HETATM   11  C   UNL     1     -11.887  14.025  68.597  1.00  0.00    -0.396 A  
HETATM   12  C   UNL     1     -11.108  16.102  69.535  1.00  0.00    -0.344 A  
HETATM   13  C   UNL     1     -11.198  15.568  70.810  1.00  0.00    -0.384 A  
HETATM   14  O   UNL     1     -10.670  17.389  69.408  1.00  0.00    -0.384 OA 
HETATM   15  C   UNL     1     -11.453  15.344  68.424  1.00  0.00    -0.365 A  
HETATM   16  C   UNL     1     -11.628  14.250  70.980  1.00  0.00    -0.094 A  
HETATM   17  H   UNL     1     -10.433  17.907  70.168  1.00  0.00     0.000 HD 
ENDBRANCH   7  10
ENDBRANCH   5   7
ENDBRANCH   3   5
ENDBRANCH   2   3
BRANCH   2  18
HETATM   18  C   UNL     1     -10.490  10.660  67.242  1.00  0.00    -0.293 C  
BRANCH  18  19
HETATM   19  C   UNL     1     -10.327  10.965  65.749  1.00  0.00    -0.303 C  
BRANCH  19  20
HETATM   20  C   UNL     1     -10.834  12.365  65.473  1.00  0.00    -0.316 A  
HETATM   21  C   UNL     1     -12.209  12.611  65.360  1.00  0.00    -0.517 A  
HETATM   22  C   UNL     1     -12.674  13.875  64.989  1.00  0.00    -0.372 A  
HETATM   23  C   UNL     1     -10.400  14.673  64.852  1.00  0.00    -0.382 A  
HETATM   24  C   UNL     1      -9.934  13.410  65.222  1.00  0.00    -0.195 A  
HETATM   25  C   UNL     1     -11.770  14.903  64.730  1.00  0.00    -0.402 A  
ENDBRANCH  19  20
ENDBRANCH  18  19
ENDBRANCH   2  18
TORSDOF 7
ENDMDL
MODEL       89
REMARK 921   NORMALIZED FREE ENERGY PREDICTED BY IDOCK:   -5.04 KCAL/MOL
REMARK 922        TOTAL FREE ENERGY PREDICTED BY IDOCK:   -8.73 KCAL/MOL
REMARK 923 INTER-LIGAND FREE ENERGY PREDICTED BY IDOCK:   -7.89 KCAL/MOL
REMARK 924 INTRA-LIGAND FREE ENERGY PREDICTED BY IDOCK:   -0.84 KCAL/MOL
REMARK 927      BINDING AFFINITY PREDICTED BY RF-SCORE:    0.00 PKD
ROOT
HETATM    1  C   UNL     1     -13.226  10.316  70.999  1.00  0.00    -0.399 C  
HETATM    2  C   UNL     1     -11.804  10.730  70.593  1.00  0.00    -0.360 C  
ENDROOT
BRANCH   2   3
HETATM    3  N   UNL     1     -11.773  11.491  69.335  1.00  0.00    -0.315 NA 
HETATM    4  H   UNL     1     -12.669  11.957  69.188  1.00  0.00     0.000 HD 
BRANCH   3   5
HETATM    5  C   UNL     1     -10.662  12.472  69.198  1.00  0.00    -0.023 C  
HETATM    6  C   UNL     1      -9.773  12.134  67.997  1.00  0.00    -0.203 C  
BRANCH   5   7
HETATM    7  C   UNL     1     -11.250  13.920  69.051  1.00  0.00    -0.274 C  
HETATM    8  H   UNL     1     -12.600  14.774  67.927  1.00  0.00     0.000 HD 
HETATM    9  O   UNL     1     -12.244  13.897  68.017  1.00  0.00    -0.326 OA 
BRANCH   7  10
HETATM   10  C   UNL     1     -11.855  14.532  70.310  1.00  0.00    -0.373 A  
HETATM   11  C   UNL     1     -11.197  15.525  71.058  1.00  0.00    -0.419 A  
HETATM   12  C   UNL     1     -13.039  15.645  72.606  1.00  0.00    -0.480 A  
HETATM   13  C   UNL     1     -13.727  14.694  71.871  1.00  0.00    -0.510 A  
HETATM   14  O   UNL     1     -13.636  16.146  73.726  1.00  0.00    -0.902 OA 
HETATM   15  C   UNL     1     -11.779  16.072  72.207  1.00  0.00    -0.581 A  
HETATM   16  C   UNL     1     -13.143  14.147  70.726  1.00  0.00    -0.289 A  
HETATM   17  H   UNL     1     -14.498  15.854  73.999  1.00  0.00     0.000 HD 
ENDBRANCH   7  10
ENDBRANCH   5   7
ENDBRANCH   3   5
ENDBRANCH   2   3
BRANCH   2  18
HETATM   18  C   UNL     1     -10.975   9.437  70.444  1.00  0.00    -0.317 C  
BRANCH  18  19
HETATM   19  C   UNL     1     -11.571   8.191  71.108  1.00  0.00    -0.306 C  
BRANCH  19  20
HETATM   20  C   UNL     1     -10.733   7.825  72.314  1.00  0.00    -0.325 A  
HETATM   21  C   UNL     1      -9.502   8.457  72.540  1.00  0.00    -0.360 A  
HETATM   22  C   UNL     1      -8.674   8.040  73.583  1.00  0.00    -0.332 A  
HETATM   23  C   UNL     1     -10.294   6.361  74.202  1.00  0.00    -0.335 A  
HETATM   24  C   UNL     1     -11.124   6.777  73.159  1.00  0.00    -0.220 A  
HETATM   25  C   UNL     1      -9.067   6.989  74.410  1.00  0.00    -0.239 A  
ENDBRANCH  19  20
ENDBRANCH  18  19
ENDBRANCH   2  18
TORSDOF 7
ENDMDL
MODEL       90
REMARK 921   NORMALIZED FREE ENERGY PREDICTED BY IDOCK:   -5.02 KCAL/MOL
REMARK 922        TOTAL FREE ENERGY PREDICTED BY IDOCK:   -8.70 KCAL/MOL
REMARK 923 INTER-LIGAND FREE ENERGY PREDICTED BY IDOCK:   -7.70 KCAL/MOL
REMARK 924 INTRA-LIGAND FREE ENERGY PREDICTED BY IDOCK:   -1.00 KCAL/MOL
REMARK 927      BINDING AFFINITY PREDICTED BY RF-SCORE:    0.00 PKD
ROOT
HETATM    1  C   UNL     1      -9.509  10.012  69.310  1.00  0.00    -0.227 C  
HETATM    2  C   UNL     1     -10.724   9.703  68.422  1.00  0.00    -0.209 C  
ENDROOT
BRANCH   2   3
HETATM    3  N   UNL     1     -10.369   9.588  66.999  1.00  0.00    -0.250 NA 
HETATM    4  H   UNL     1     -11.108   9.991  66.423  1.00  0.00     0.000 HD 
BRANCH   3   5
HETATM    5  C   UNL     1      -9.053  10.164  66.611  1.00  0.00    -0.144 C  
HETATM    6  C   UNL     1      -7.931   9.131  66.768  1.00  0.00    -0.104 C  
BRANCH   5   7
HETATM    7  C   UNL     1      -9.116  10.678  65.130  1.00  0.00    -0.201 C  
HETATM    8  H   UNL     1      -9.457   9.874  63.383  1.00  0.00     0.000 HD 
HETATM    9  O   UNL     1      -9.419   9.562  64.281  1.00  0.00    -0.143 OA 
BRANCH   7  10
HETATM   10  C   UNL     1     -10.108  11.802  64.849  1.00  0.00    -0.298 A  
HETATM   11  C   UNL     1     -11.224  11.633  64.010  1.00  0.00    -0.448 A  
HETATM   12  C   UNL     1     -11.920  13.906  64.398  1.00  0.00    -0.450 A  
HETATM   13  C   UNL     1     -10.849  14.094  65.257  1.00  0.00    -0.356 A  
HETATM   14  O   UNL     1     -12.765  14.956  64.186  1.00  0.00    -0.750 OA 
HETATM   15  C   UNL     1     -12.120  12.681  63.775  1.00  0.00    -0.604 A  
HETATM   16  C   UNL     1      -9.954  13.047  65.487  1.00  0.00    -0.226 A  
HETATM   17  H   UNL     1     -12.628  15.794  64.612  1.00  0.00     0.000 HD 
ENDBRANCH   7  10
ENDBRANCH   5   7
ENDBRANCH   3   5
ENDBRANCH   2   3
BRANCH   2  18
HETATM   18  C   UNL     1     -11.739  10.848  68.618  1.00  0.00    -0.334 C  
BRANCH  18  19
HETATM   19  C   UNL     1     -11.132  12.219  68.937  1.00  0.00    -0.291 C  
BRANCH  19  20
HETATM   20  C   UNL     1     -12.008  12.923  69.951  1.00  0.00    -0.377 A  
HETATM   21  C   UNL     1     -12.159  14.317  69.910  1.00  0.00    -0.404 A  
HETATM   22  C   UNL     1     -12.870  14.980  70.912  1.00  0.00    -0.451 A  
HETATM   23  C   UNL     1     -13.302  12.872  72.005  1.00  0.00    -0.579 A  
HETATM   24  C   UNL     1     -12.593  12.207  71.004  1.00  0.00    -0.359 A  
HETATM   25  C   UNL     1     -13.436  14.259  71.962  1.00  0.00    -0.499 A  
ENDBRANCH  19  20
ENDBRANCH  18  19
ENDBRANCH   2  18
TORSDOF 7
ENDMDL
MODEL       91
REMARK 921   NORMALIZED FREE ENERGY PREDICTED BY IDOCK:   -5.00 KCAL/MOL
REMARK 922        TOTAL FREE ENERGY PREDICTED BY IDOCK:   -8.68 KCAL/MOL
REMARK 923 INTER-LIGAND FREE ENERGY PREDICTED BY IDOCK:   -6.03 KCAL/MOL
REMARK 924 INTRA-LIGAND FREE ENERGY PREDICTED BY IDOCK:   -2.65 KCAL/MOL
REMARK 927      BINDING AFFINITY PREDICTED BY RF-SCORE:    0.00 PKD
ROOT
HETATM    1  C   UNL     1     -11.563   4.818  73.204  1.00  0.00    -0.288 C  
HETATM    2  C   UNL     1     -11.160   6.114  72.485  1.00  0.00    -0.274 C  
ENDROOT
BRANCH   2   3
HETATM    3  N   UNL     1     -12.130   7.202  72.691  1.00  0.00    -0.507 NA 
HETATM    4  H   UNL     1     -11.668   8.001  73.125  1.00  0.00     0.000 HD 
BRANCH   3   5
HETATM    5  C   UNL     1     -12.876   7.642  71.481  1.00  0.00    -0.344 C  
HETATM    6  C   UNL     1     -14.373   7.339  71.617  1.00  0.00    -0.583 C  
BRANCH   5   7
HETATM    7  C   UNL     1     -12.651   9.177  71.249  1.00  0.00    -0.288 C  
HETATM    8  H   UNL     1     -12.558  10.764  72.383  1.00  0.00     0.000 HD 
HETATM    9  O   UNL     1     -12.695   9.834  72.524  1.00  0.00    -0.226 OA 
BRANCH   7  10
HETATM   10  C   UNL     1     -11.362   9.567  70.533  1.00  0.00    -0.343 A  
HETATM   11  C   UNL     1     -10.089   9.246  71.039  1.00  0.00    -0.373 A  
HETATM   12  C   UNL     1      -9.022  10.285  69.145  1.00  0.00    -0.180 A  
HETATM   13  C   UNL     1     -10.261  10.585  68.603  1.00  0.00    -0.197 A  
HETATM   14  O   UNL     1      -7.910  10.669  68.455  1.00  0.00    -0.103 OA 
HETATM   15  C   UNL     1      -8.924   9.613  70.357  1.00  0.00    -0.239 A  
HETATM   16  C   UNL     1     -11.424  10.221  69.288  1.00  0.00    -0.223 A  
HETATM   17  H   UNL     1      -7.977  11.129  67.626  1.00  0.00     0.000 HD 
ENDBRANCH   7  10
ENDBRANCH   5   7
ENDBRANCH   3   5
ENDBRANCH   2   3
BRANCH   2  18
HETATM   18  C   UNL     1     -11.051   5.789  70.981  1.00  0.00    -0.264 C  
BRANCH  18  19
HETATM   19  C   UNL     1      -9.624   5.657  70.437  1.00  0.00    -0.217 C  
BRANCH  19  20
HETATM   20  C   UNL     1      -9.574   6.228  69.036  1.00  0.00    -0.138 A  
HETATM   21  C   UNL     1      -8.353   6.631  68.478  1.00  0.00    -0.122 A  
HETATM   22  C   UNL     1      -8.319   7.266  67.235  1.00  0.00    -0.119 A  
HETATM   23  C   UNL     1     -10.721   7.095  67.078  1.00  0.00    -0.420 A  
HETATM   24  C   UNL     1     -10.757   6.460  68.321  1.00  0.00    -0.351 A  
HETATM   25  C   UNL     1      -9.502   7.503  66.538  1.00  0.00    -0.237 A  
ENDBRANCH  19  20
ENDBRANCH  18  19
ENDBRANCH   2  18
TORSDOF 7
ENDMDL
MODEL       92
REMARK 921   NORMALIZED FREE ENERGY PREDICTED BY IDOCK:   -5.00 KCAL/MOL
REMARK 922        TOTAL FREE ENERGY PREDICTED BY IDOCK:   -8.68 KCAL/MOL
REMARK 923 INTER-LIGAND FREE ENERGY PREDICTED BY IDOCK:   -7.56 KCAL/MOL
REMARK 924 INTRA-LIGAND FREE ENERGY PREDICTED BY IDOCK:   -1.12 KCAL/MOL
REMARK 927      BINDING AFFINITY PREDICTED BY RF-SCORE:    0.00 PKD
ROOT
HETATM    1  C   UNL     1      -8.403   8.986  65.275  1.00  0.00    -0.157 C  
HETATM    2  C   UNL     1      -8.823   9.247  66.729  1.00  0.00    -0.127 C  
ENDROOT
BRANCH   2   3
HETATM    3  N   UNL     1      -8.868   8.016  67.534  1.00  0.00    -0.127 NA 
HETATM    4  H   UNL     1      -8.205   8.081  68.306  1.00  0.00     0.000 HD 
BRANCH   3   5
HETATM    5  C   UNL     1     -10.210   7.630  68.050  1.00  0.00    -0.202 C  
HETATM    6  C   UNL     1     -10.779   6.440  67.269  1.00  0.00    -0.426 C  
BRANCH   5   7
HETATM    7  C   UNL     1     -10.110   7.282  69.577  1.00  0.00    -0.182 C  
HETATM    8  H   UNL     1      -8.823   7.617  71.007  1.00  0.00     0.000 HD 
HETATM    9  O   UNL     1      -8.884   7.828  70.082  1.00  0.00    -0.143 OA 
BRANCH   7  10
HETATM   10  C   UNL     1     -11.265   7.757  70.452  1.00  0.00    -0.246 A  
HETATM   11  C   UNL     1     -12.136   6.865  71.105  1.00  0.00    -0.428 A  
HETATM   12  C   UNL     1     -13.357   8.698  72.081  1.00  0.00    -0.396 A  
HETATM   13  C   UNL     1     -12.496   9.601  71.480  1.00  0.00    -0.476 A  
HETATM   14  O   UNL     1     -14.374   9.192  72.845  1.00  0.00    -1.006 OA 
HETATM   15  C   UNL     1     -13.184   7.331  71.906  1.00  0.00    -0.289 A  
HETATM   16  C   UNL     1     -11.452   9.134  70.677  1.00  0.00    -0.310 A  
HETATM   17  H   UNL     1     -14.492  10.127  72.965  1.00  0.00     0.000 HD 
ENDBRANCH   7  10
ENDBRANCH   5   7
ENDBRANCH   3   5
ENDBRANCH   2   3
BRANCH   2  18
HETATM   18  C   UNL     1     -10.219   9.902  66.693  1.00  0.00    -0.293 C  
BRANCH  18  19
HETATM   19  C   UNL     1     -10.289  11.333  67.238  1.00  0.00    -0.236 C  
BRANCH  19  20
HETATM   20  C   UNL     1     -10.960  12.220  66.210  1.00  0.00    -0.327 A  
HETATM   21  C   UNL     1     -10.460  12.291  64.902  1.00  0.00    -0.321 A  
HETATM   22  C   UNL     1     -11.002  13.194  63.986  1.00  0.00    -0.377 A  
HETATM   23  C   UNL     1     -12.560  13.962  65.661  1.00  0.00    -0.553 A  
HETATM   24  C   UNL     1     -12.020  13.059  66.578  1.00  0.00    -0.457 A  
HETATM   25  C   UNL     1     -12.047  14.033  64.367  1.00  0.00    -0.486 A  
ENDBRANCH  19  20
ENDBRANCH  18  19
ENDBRANCH   2  18
TORSDOF 7
ENDMDL
MODEL       93
REMARK 921   NORMALIZED FREE ENERGY PREDICTED BY IDOCK:   -4.99 KCAL/MOL
REMARK 922        TOTAL FREE ENERGY PREDICTED BY IDOCK:   -8.67 KCAL/MOL
REMARK 923 INTER-LIGAND FREE ENERGY PREDICTED BY IDOCK:   -7.57 KCAL/MOL
REMARK 924 INTRA-LIGAND FREE ENERGY PREDICTED BY IDOCK:   -1.10 KCAL/MOL
REMARK 927      BINDING AFFINITY PREDICTED BY RF-SCORE:    0.00 PKD
ROOT
HETATM    1  C   UNL     1     -10.276  13.021  65.914  1.00  0.00    -0.298 C  
HETATM    2  C   UNL     1     -11.564  12.720  66.696  1.00  0.00    -0.370 C  
ENDROOT
BRANCH   2   3
HETATM    3  N   UNL     1     -11.950  13.819  67.594  1.00  0.00    -0.368 NA 
HETATM    4  H   UNL     1     -12.353  13.442  68.452  1.00  0.00     0.000 HD 
BRANCH   3   5
HETATM    5  C   UNL     1     -10.874  14.793  67.926  1.00  0.00    -0.269 C  
HETATM    6  C   UNL     1     -11.356  16.235  67.727  1.00  0.00    -0.081 C  
BRANCH   5   7
HETATM    7  C   UNL     1     -10.401  14.576  69.406  1.00  0.00    -0.080 C  
HETATM    8  H   UNL     1      -8.874  15.143  70.484  1.00  0.00     0.000 HD 
HETATM    9  O   UNL     1      -9.161  15.274  69.587  1.00  0.00    -0.230 OA 
BRANCH   7  10
HETATM   10  C   UNL     1     -11.378  15.005  70.495  1.00  0.00    -0.316 A  
HETATM   11  C   UNL     1     -11.048  15.961  71.473  1.00  0.00    -0.099 A  
HETATM   12  C   UNL     1     -13.239  15.780  72.458  1.00  0.00    -0.487 A  
HETATM   13  C   UNL     1     -13.606  14.863  71.487  1.00  0.00    -0.511 A  
HETATM   14  O   UNL     1     -14.160  16.115  73.407  1.00  0.00    -0.761 OA 
HETATM   15  C   UNL     1     -11.967  16.339  72.458  1.00  0.00    -0.648 A  
HETATM   16  C   UNL     1     -12.685  14.484  70.507  1.00  0.00    -0.404 A  
HETATM   17  H   UNL     1     -15.030  15.732  73.407  1.00  0.00     0.000 HD 
ENDBRANCH   7  10
ENDBRANCH   5   7
ENDBRANCH   3   5
ENDBRANCH   2   3
BRANCH   2  18
HETATM   18  C   UNL     1     -11.314  11.437  67.514  1.00  0.00    -0.362 C  
BRANCH  18  19
HETATM   19  C   UNL     1     -12.029  11.370  68.869  1.00  0.00    -0.371 C  
BRANCH  19  20
HETATM   20  C   UNL     1     -11.154  10.622  69.852  1.00  0.00    -0.364 A  
HETATM   21  C   UNL     1      -9.796  10.409  69.573  1.00  0.00    -0.211 A  
HETATM   22  C   UNL     1      -9.015   9.621  70.420  1.00  0.00    -0.239 A  
HETATM   23  C   UNL     1     -10.927   9.255  71.847  1.00  0.00    -0.284 A  
HETATM   24  C   UNL     1     -11.710  10.044  71.001  1.00  0.00    -0.479 A  
HETATM   25  C   UNL     1      -9.582   9.039  71.553  1.00  0.00    -0.340 A  
ENDBRANCH  19  20
ENDBRANCH  18  19
ENDBRANCH   2  18
TORSDOF 7
ENDMDL
MODEL       94
REMARK 921   NORMALIZED FREE ENERGY PREDICTED BY IDOCK:   -4.99 KCAL/MOL
REMARK 922        TOTAL FREE ENERGY PREDICTED BY IDOCK:   -8.66 KCAL/MOL
REMARK 923 INTER-LIGAND FREE ENERGY PREDICTED BY IDOCK:   -7.40 KCAL/MOL
REMARK 924 INTRA-LIGAND FREE ENERGY PREDICTED BY IDOCK:   -1.26 KCAL/MOL
REMARK 927      BINDING AFFINITY PREDICTED BY RF-SCORE:    0.00 PKD
ROOT
HETATM    1  C   UNL     1      -6.896  14.123  69.214  1.00  0.00    -0.118 C  
HETATM    2  C   UNL     1      -8.270  14.611  68.732  1.00  0.00    -0.156 C  
ENDROOT
BRANCH   2   3
HETATM    3  N   UNL     1      -8.607  14.116  67.387  1.00  0.00    -0.198 NA 
HETATM    4  H   UNL     1      -8.278  13.156  67.278  1.00  0.00     0.000 HD 
BRANCH   3   5
HETATM    5  C   UNL     1     -10.042  14.207  67.005  1.00  0.00    -0.261 C  
HETATM    6  C   UNL     1     -10.197  14.438  65.497  1.00  0.00    -0.386 C  
BRANCH   5   7
HETATM    7  C   UNL     1     -10.789  12.894  67.433  1.00  0.00    -0.251 C  
HETATM    8  H   UNL     1     -10.299  11.018  67.663  1.00  0.00     0.000 HD 
HETATM    9  O   UNL     1      -9.847  11.813  67.404  1.00  0.00    -0.177 OA 
BRANCH   7  10
HETATM   10  C   UNL     1     -11.471  12.924  68.797  1.00  0.00    -0.345 A  
HETATM   11  C   UNL     1     -11.690  11.760  69.557  1.00  0.00    -0.408 A  
HETATM   12  C   UNL     1     -12.705  13.048  71.322  1.00  0.00    -0.293 A  
HETATM   13  C   UNL     1     -12.473  14.215  70.613  1.00  0.00    -0.432 A  
HETATM   14  O   UNL     1     -13.327  13.146  72.533  1.00  0.00    -0.534 OA 
HETATM   15  C   UNL     1     -12.314  11.818  70.808  1.00  0.00    -0.433 A  
HETATM   16  C   UNL     1     -11.852  14.154  69.363  1.00  0.00    -0.378 A  
HETATM   17  H   UNL     1     -13.595  13.987  72.884  1.00  0.00     0.000 HD 
ENDBRANCH   7  10
ENDBRANCH   5   7
ENDBRANCH   3   5
ENDBRANCH   2   3
BRANCH   2  18
HETATM   18  C   UNL     1      -8.234  16.153  68.728  1.00  0.00    -0.216 C  
BRANCH  18  19
HETATM   19  C   UNL     1      -9.524  16.844  69.183  1.00  0.00    -0.135 C  
BRANCH  19  20
HETATM   20  C   UNL     1      -9.807  18.016  68.267  1.00  0.00    -0.357 A  
HETATM   21  C   UNL     1     -10.499  17.824  67.064  1.00  0.00    -0.324 A  
HETATM   22  C   UNL     1     -10.658  18.879  66.163  1.00  0.00    -0.476 A  
HETATM   23  C   UNL     1      -9.449  20.339  67.656  1.00  0.00    -0.507 A  
HETATM   24  C   UNL     1      -9.289  19.285  68.558  1.00  0.00    -0.443 A  
HETATM   25  C   UNL     1     -10.128  20.134  66.456  1.00  0.00    -0.577 A  
ENDBRANCH  19  20
ENDBRANCH  18  19
ENDBRANCH   2  18
TORSDOF 7
ENDMDL
MODEL       95
REMARK 921   NORMALIZED FREE ENERGY PREDICTED BY IDOCK:   -4.99 KCAL/MOL
REMARK 922        TOTAL FREE ENERGY PREDICTED BY IDOCK:   -8.66 KCAL/MOL
REMARK 923 INTER-LIGAND FREE ENERGY PREDICTED BY IDOCK:   -7.75 KCAL/MOL
REMARK 924 INTRA-LIGAND FREE ENERGY PREDICTED BY IDOCK:   -0.91 KCAL/MOL
REMARK 927      BINDING AFFINITY PREDICTED BY RF-SCORE:    0.00 PKD
ROOT
HETATM    1  C   UNL     1     -10.725   9.811  69.835  1.00  0.00    -0.303 C  
HETATM    2  C   UNL     1     -11.437  10.139  71.156  1.00  0.00    -0.307 C  
ENDROOT
BRANCH   2   3
HETATM    3  N   UNL     1     -11.957   8.940  71.831  1.00  0.00    -0.348 NA 
HETATM    4  H   UNL     1     -12.850   8.668  71.420  1.00  0.00     0.000 HD 
BRANCH   3   5
HETATM    5  C   UNL     1     -11.039   7.768  71.868  1.00  0.00    -0.257 C  
HETATM    6  C   UNL     1     -10.631   7.434  73.307  1.00  0.00    -0.442 C  
BRANCH   5   7
HETATM    7  C   UNL     1     -11.732   6.531  71.197  1.00  0.00    -0.335 C  
HETATM    8  H   UNL     1     -13.502   6.144  70.469  1.00  0.00     0.000 HD 
HETATM    9  O   UNL     1     -13.083   6.893  70.875  1.00  0.00    -0.215 OA 
BRANCH   7  10
HETATM   10  C   UNL     1     -11.055   5.977  69.948  1.00  0.00    -0.469 A  
HETATM   11  C   UNL     1     -10.166   4.886  69.991  1.00  0.00    -0.313 A  
HETATM   12  C   UNL     1      -9.863   4.979  67.603  1.00  0.00    -0.161 A  
HETATM   13  C   UNL     1     -10.760   6.031  67.523  1.00  0.00    -0.383 A  
HETATM   14  O   UNL     1      -9.287   4.537  66.447  1.00  0.00    -0.131 OA 
HETATM   15  C   UNL     1      -9.563   4.396  68.828  1.00  0.00    -0.224 A  
HETATM   16  C   UNL     1     -11.358   6.522  68.686  1.00  0.00    -0.203 A  
HETATM   17  H   UNL     1      -9.492   4.936  65.610  1.00  0.00     0.000 HD 
ENDBRANCH   7  10
ENDBRANCH   5   7
ENDBRANCH   3   5
ENDBRANCH   2   3
BRANCH   2  18
HETATM   18  C   UNL     1     -12.599  11.098  70.824  1.00  0.00    -0.445 C  
BRANCH  18  19
HETATM   19  C   UNL     1     -12.206  12.373  70.070  1.00  0.00    -0.264 C  
BRANCH  19  20
HETATM   20  C   UNL     1     -12.346  13.560  70.999  1.00  0.00    -0.422 A  
HETATM   21  C   UNL     1     -13.206  13.497  72.104  1.00  0.00    -0.551 A  
HETATM   22  C   UNL     1     -13.427  14.626  72.895  1.00  0.00    -0.528 A  
HETATM   23  C   UNL     1     -11.924  15.899  71.500  1.00  0.00    -0.537 A  
HETATM   24  C   UNL     1     -11.701  14.770  70.709  1.00  0.00    -0.355 A  
HETATM   25  C   UNL     1     -12.791  15.828  72.589  1.00  0.00    -0.554 A  
ENDBRANCH  19  20
ENDBRANCH  18  19
ENDBRANCH   2  18
TORSDOF 7
ENDMDL
MODEL       96
REMARK 921   NORMALIZED FREE ENERGY PREDICTED BY IDOCK:   -4.98 KCAL/MOL
REMARK 922        TOTAL FREE ENERGY PREDICTED BY IDOCK:   -8.65 KCAL/MOL
REMARK 923 INTER-LIGAND FREE ENERGY PREDICTED BY IDOCK:   -7.92 KCAL/MOL
REMARK 924 INTRA-LIGAND FREE ENERGY PREDICTED BY IDOCK:   -0.73 KCAL/MOL
REMARK 927      BINDING AFFINITY PREDICTED BY RF-SCORE:    0.00 PKD
ROOT
HETATM    1  C   UNL     1      -7.809  14.706  67.312  1.00  0.00    -0.213 C  
HETATM    2  C   UNL     1      -9.225  14.779  66.721  1.00  0.00    -0.260 C  
ENDROOT
BRANCH   2   3
HETATM    3  N   UNL     1      -9.519  13.655  65.817  1.00  0.00    -0.506 NA 
HETATM    4  H   UNL     1      -9.566  12.785  66.348  1.00  0.00     0.000 HD 
BRANCH   3   5
HETATM    5  C   UNL     1     -10.739  13.803  64.977  1.00  0.00    -0.382 C  
HETATM    6  C   UNL     1     -10.754  12.772  63.842  1.00  0.00    -0.443 C  
BRANCH   5   7
HETATM    7  C   UNL     1     -12.019  13.647  65.870  1.00  0.00    -0.405 C  
HETATM    8  H   UNL     1     -13.800  12.878  65.641  1.00  0.00     0.000 HD 
HETATM    9  O   UNL     1     -13.024  12.972  65.101  1.00  0.00    -0.729 OA 
BRANCH   7  10
HETATM   10  C   UNL     1     -11.831  12.915  67.195  1.00  0.00    -0.424 A  
HETATM   11  C   UNL     1     -11.965  13.557  68.439  1.00  0.00    -0.378 A  
HETATM   12  C   UNL     1     -11.503  11.500  69.604  1.00  0.00    -0.301 A  
HETATM   13  C   UNL     1     -11.398  10.831  68.395  1.00  0.00    -0.367 A  
HETATM   14  O   UNL     1     -11.315  10.785  70.751  1.00  0.00    -0.396 OA 
HETATM   15  C   UNL     1     -11.791  12.858  69.638  1.00  0.00    -0.387 A  
HETATM   16  C   UNL     1     -11.569  11.532  67.199  1.00  0.00    -0.249 A  
HETATM   17  H   UNL     1     -11.118   9.856  70.727  1.00  0.00     0.000 HD 
ENDBRANCH   7  10
ENDBRANCH   5   7
ENDBRANCH   3   5
ENDBRANCH   2   3
BRANCH   2  18
HETATM   18  C   UNL     1      -9.332  16.111  65.951  1.00  0.00    -0.316 C  
BRANCH  18  19
HETATM   19  C   UNL     1     -10.084  17.233  66.677  1.00  0.00    -0.302 C  
BRANCH  19  20
HETATM   20  C   UNL     1      -9.098  18.307  67.083  1.00  0.00    -0.264 A  
HETATM   21  C   UNL     1      -8.452  19.081  66.108  1.00  0.00    -0.216 A  
HETATM   22  C   UNL     1      -7.457  19.990  66.472  1.00  0.00    -0.304 A  
HETATM   23  C   UNL     1      -7.742  19.378  68.789  1.00  0.00    -0.397 A  
HETATM   24  C   UNL     1      -8.738  18.469  68.428  1.00  0.00    -0.351 A  
HETATM   25  C   UNL     1      -7.098  20.134  67.810  1.00  0.00    -0.330 A  
ENDBRANCH  19  20
ENDBRANCH  18  19
ENDBRANCH   2  18
TORSDOF 7
ENDMDL
MODEL       97
REMARK 921   NORMALIZED FREE ENERGY PREDICTED BY IDOCK:   -4.98 KCAL/MOL
REMARK 922        TOTAL FREE ENERGY PREDICTED BY IDOCK:   -8.65 KCAL/MOL
REMARK 923 INTER-LIGAND FREE ENERGY PREDICTED BY IDOCK:   -7.40 KCAL/MOL
REMARK 924 INTRA-LIGAND FREE ENERGY PREDICTED BY IDOCK:   -1.25 KCAL/MOL
REMARK 927      BINDING AFFINITY PREDICTED BY RF-SCORE:    0.00 PKD
ROOT
HETATM    1  C   UNL     1     -12.987  10.751  71.754  1.00  0.00    -0.568 C  
HETATM    2  C   UNL     1     -12.055   9.722  71.097  1.00  0.00    -0.370 C  
ENDROOT
BRANCH   2   3
HETATM    3  N   UNL     1     -11.299   8.933  72.083  1.00  0.00    -0.346 NA 
HETATM    4  H   UNL     1     -11.395   9.350  73.009  1.00  0.00     0.000 HD 
BRANCH   3   5
HETATM    5  C   UNL     1     -11.632   7.483  72.143  1.00  0.00    -0.298 C  
HETATM    6  C   UNL     1     -12.937   7.185  71.397  1.00  0.00    -0.419 C  
BRANCH   5   7
HETATM    7  C   UNL     1     -10.453   6.644  71.536  1.00  0.00    -0.215 C  
HETATM    8  H   UNL     1      -9.971   4.753  71.471  1.00  0.00     0.000 HD 
HETATM    9  O   UNL     1     -10.685   5.261  71.839  1.00  0.00    -0.225 OA 
BRANCH   7  10
HETATM   10  C   UNL     1     -10.225   6.793  70.035  1.00  0.00    -0.211 A  
HETATM   11  C   UNL     1     -11.121   6.278  69.080  1.00  0.00    -0.446 A  
HETATM   12  C   UNL     1      -9.765   7.131  67.280  1.00  0.00    -0.155 A  
HETATM   13  C   UNL     1      -8.883   7.680  68.196  1.00  0.00    -0.125 A  
HETATM   14  O   UNL     1      -9.497   7.296  65.953  1.00  0.00    -0.396 OA 
HETATM   15  C   UNL     1     -10.888   6.434  67.709  1.00  0.00    -0.418 A  
HETATM   16  C   UNL     1      -9.116   7.519  69.564  1.00  0.00    -0.143 A  
HETATM   17  H   UNL     1      -8.729   7.772  65.659  1.00  0.00     0.000 HD 
ENDBRANCH   7  10
ENDBRANCH   5   7
ENDBRANCH   3   5
ENDBRANCH   2   3
BRANCH   2  18
HETATM   18  C   UNL     1     -11.079  10.499  70.190  1.00  0.00    -0.369 C  
BRANCH  18  19
HETATM   19  C   UNL     1     -11.406  10.470  68.693  1.00  0.00    -0.315 C  
BRANCH  19  20
HETATM   20  C   UNL     1     -11.473  11.891  68.175  1.00  0.00    -0.384 A  
HETATM   21  C   UNL     1     -11.590  12.966  69.068  1.00  0.00    -0.372 A  
HETATM   22  C   UNL     1     -11.771  14.266  68.590  1.00  0.00    -0.380 A  
HETATM   23  C   UNL     1     -11.708  13.444  66.322  1.00  0.00    -0.405 A  
HETATM   24  C   UNL     1     -11.527  12.144  66.797  1.00  0.00    -0.418 A  
HETATM   25  C   UNL     1     -11.836  14.503  67.218  1.00  0.00    -0.419 A  
ENDBRANCH  19  20
ENDBRANCH  18  19
ENDBRANCH   2  18
TORSDOF 7
ENDMDL
MODEL       98
REMARK 921   NORMALIZED FREE ENERGY PREDICTED BY IDOCK:   -4.98 KCAL/MOL
REMARK 922        TOTAL FREE ENERGY PREDICTED BY IDOCK:   -8.65 KCAL/MOL
REMARK 923 INTER-LIGAND FREE ENERGY PREDICTED BY IDOCK:   -6.58 KCAL/MOL
REMARK 924 INTRA-LIGAND FREE ENERGY PREDICTED BY IDOCK:   -2.07 KCAL/MOL
REMARK 927      BINDING AFFINITY PREDICTED BY RF-SCORE:    0.00 PKD
ROOT
HETATM    1  C   UNL     1      -9.639   8.346  72.605  1.00  0.00    -0.337 C  
HETATM    2  C   UNL     1     -10.965   7.571  72.593  1.00  0.00    -0.336 C  
ENDROOT
BRANCH   2   3
HETATM    3  N   UNL     1     -11.021   6.562  71.524  1.00  0.00    -0.246 NA 
HETATM    4  H   UNL     1     -11.800   6.763  70.896  1.00  0.00     0.000 HD 
BRANCH   3   5
HETATM    5  C   UNL     1      -9.770   6.382  70.738  1.00  0.00    -0.180 C  
HETATM    6  C   UNL     1      -9.132   5.018  71.024  1.00  0.00    -0.178 C  
BRANCH   5   7
HETATM    7  C   UNL     1     -10.082   6.527  69.206  1.00  0.00    -0.168 C  
HETATM    8  H   UNL     1     -11.644   6.260  68.065  1.00  0.00     0.000 HD 
HETATM    9  O   UNL     1     -11.455   6.173  68.993  1.00  0.00    -0.340 OA 
BRANCH   7  10
HETATM   10  C   UNL     1      -9.820   7.899  68.594  1.00  0.00    -0.177 A  
HETATM   11  C   UNL     1     -10.509   8.364  67.459  1.00  0.00    -0.328 A  
HETATM   12  C   UNL     1      -9.315  10.454  67.531  1.00  0.00    -0.149 A  
HETATM   13  C   UNL     1      -8.645  10.039  68.670  1.00  0.00    -0.123 A  
HETATM   14  O   UNL     1      -9.028  11.691  67.032  1.00  0.00    -0.170 OA 
HETATM   15  C   UNL     1     -10.251   9.629  66.922  1.00  0.00    -0.304 A  
HETATM   16  C   UNL     1      -8.901   8.773  69.203  1.00  0.00    -0.137 A  
HETATM   17  H   UNL     1      -8.387  12.255  67.449  1.00  0.00     0.000 HD 
ENDBRANCH   7  10
ENDBRANCH   5   7
ENDBRANCH   3   5
ENDBRANCH   2   3
BRANCH   2  18
HETATM   18  C   UNL     1     -12.097   8.602  72.401  1.00  0.00    -0.415 C  
BRANCH  18  19
HETATM   19  C   UNL     1     -12.346   9.045  70.955  1.00  0.00    -0.244 C  
BRANCH  19  20
HETATM   20  C   UNL     1     -12.510  10.550  70.921  1.00  0.00    -0.488 A  
HETATM   21  C   UNL     1     -11.852  11.312  69.946  1.00  0.00    -0.436 A  
HETATM   22  C   UNL     1     -11.906  12.707  69.983  1.00  0.00    -0.358 A  
HETATM   23  C   UNL     1     -13.287  12.603  71.960  1.00  0.00    -0.555 A  
HETATM   24  C   UNL     1     -13.234  11.208  71.924  1.00  0.00    -0.488 A  
HETATM   25  C   UNL     1     -12.618  13.352  70.993  1.00  0.00    -0.425 A  
ENDBRANCH  19  20
ENDBRANCH  18  19
ENDBRANCH   2  18
TORSDOF 7
ENDMDL
MODEL       99
REMARK 921   NORMALIZED FREE ENERGY PREDICTED BY IDOCK:   -4.97 KCAL/MOL
REMARK 922        TOTAL FREE ENERGY PREDICTED BY IDOCK:   -8.63 KCAL/MOL
REMARK 923 INTER-LIGAND FREE ENERGY PREDICTED BY IDOCK:   -7.75 KCAL/MOL
REMARK 924 INTRA-LIGAND FREE ENERGY PREDICTED BY IDOCK:   -0.88 KCAL/MOL
REMARK 927      BINDING AFFINITY PREDICTED BY RF-SCORE:    0.00 PKD
ROOT
HETATM    1  C   UNL     1      -7.889  13.884  67.313  1.00  0.00    -0.134 C  
HETATM    2  C   UNL     1      -8.844  14.177  68.480  1.00  0.00    -0.173 C  
ENDROOT
BRANCH   2   3
HETATM    3  N   UNL     1     -10.250  13.909  68.140  1.00  0.00    -0.242 NA 
HETATM    4  H   UNL     1     -10.314  13.533  67.194  1.00  0.00     0.000 HD 
BRANCH   3   5
HETATM    5  C   UNL     1     -10.988  13.029  69.087  1.00  0.00    -0.140 C  
HETATM    6  C   UNL     1     -12.329  13.652  69.488  1.00  0.00    -0.232 C  
BRANCH   5   7
HETATM    7  C   UNL     1     -11.216  11.621  68.432  1.00  0.00    -0.249 C  
HETATM    8  H   UNL     1     -12.658  10.304  68.414  1.00  0.00     0.000 HD 
HETATM    9  O   UNL     1     -12.520  11.157  68.810  1.00  0.00    -0.468 OA 
BRANCH   7  10
HETATM   10  C   UNL     1     -11.085  11.556  66.914  1.00  0.00    -0.366 A  
HETATM   11  C   UNL     1     -11.837  12.379  66.055  1.00  0.00    -0.459 A  
HETATM   12  C   UNL     1     -10.773  11.412  64.122  1.00  0.00    -0.371 A  
HETATM   13  C   UNL     1      -9.994  10.613  64.942  1.00  0.00    -0.382 A  
HETATM   14  O   UNL     1     -10.610  11.298  62.772  1.00  0.00    -0.703 OA 
HETATM   15  C   UNL     1     -11.692  12.300  64.666  1.00  0.00    -0.420 A  
HETATM   16  C   UNL     1     -10.143  10.690  66.329  1.00  0.00    -0.291 A  
HETATM   17  H   UNL     1      -9.982  10.690  62.400  1.00  0.00     0.000 HD 
ENDBRANCH   7  10
ENDBRANCH   5   7
ENDBRANCH   3   5
ENDBRANCH   2   3
BRANCH   2  18
HETATM   18  C   UNL     1      -8.669  15.664  68.853  1.00  0.00    -0.215 C  
BRANCH  18  19
HETATM   19  C   UNL     1      -9.965  16.425  69.151  1.00  0.00    -0.273 C  
BRANCH  19  20
HETATM   20  C   UNL     1     -10.081  17.596  68.198  1.00  0.00    -0.347 A  
HETATM   21  C   UNL     1     -10.147  18.907  68.690  1.00  0.00    -0.447 A  
HETATM   22  C   UNL     1     -10.372  19.977  67.823  1.00  0.00    -0.506 A  
HETATM   23  C   UNL     1     -10.455  18.451  65.956  1.00  0.00    -0.400 A  
HETATM   24  C   UNL     1     -10.230  17.379  66.821  1.00  0.00    -0.318 A  
HETATM   25  C   UNL     1     -10.532  19.749  66.458  1.00  0.00    -0.615 A  
ENDBRANCH  19  20
ENDBRANCH  18  19
ENDBRANCH   2  18
TORSDOF 7
ENDMDL
MODEL      100
REMARK 921   NORMALIZED FREE ENERGY PREDICTED BY IDOCK:   -4.92 KCAL/MOL
REMARK 922        TOTAL FREE ENERGY PREDICTED BY IDOCK:   -8.57 KCAL/MOL
REMARK 923 INTER-LIGAND FREE ENERGY PREDICTED BY IDOCK:   -7.57 KCAL/MOL
REMARK 924 INTRA-LIGAND FREE ENERGY PREDICTED BY IDOCK:   -1.00 KCAL/MOL
REMARK 927      BINDING AFFINITY PREDICTED BY RF-SCORE:    0.00 PKD
ROOT
HETATM    1  C   UNL     1     -13.269   9.263  71.231  1.00  0.00    -0.325 C  
HETATM    2  C   UNL     1     -12.004  10.118  71.064  1.00  0.00    -0.378 C  
ENDROOT
BRANCH   2   3
HETATM    3  N   UNL     1     -11.806  10.569  69.677  1.00  0.00    -0.411 NA 
HETATM    4  H   UNL     1     -12.358   9.993  69.042  1.00  0.00     0.000 HD 
BRANCH   3   5
HETATM    5  C   UNL     1     -12.077  12.010  69.421  1.00  0.00    -0.202 C  
HETATM    6  C   UNL     1     -12.203  12.790  70.734  1.00  0.00    -0.338 C  
BRANCH   5   7
HETATM    7  C   UNL     1     -10.930  12.615  68.536  1.00  0.00    -0.261 C  
HETATM    8  H   UNL     1      -9.204  11.994  67.868  1.00  0.00     0.000 HD 
HETATM    9  O   UNL     1      -9.898  11.628  68.404  1.00  0.00    -0.193 OA 
BRANCH   7  10
HETATM   10  C   UNL     1     -11.336  13.101  67.149  1.00  0.00    -0.354 A  
HETATM   11  C   UNL     1     -11.796  12.226  66.147  1.00  0.00    -0.398 A  
HETATM   12  C   UNL     1     -12.102  14.063  64.619  1.00  0.00    -0.440 A  
HETATM   13  C   UNL     1     -11.686  14.953  65.595  1.00  0.00    -0.194 A  
HETATM   14  O   UNL     1     -12.444  14.565  63.397  1.00  0.00    -1.080 OA 
HETATM   15  C   UNL     1     -12.166  12.702  64.884  1.00  0.00    -0.531 A  
HETATM   16  C   UNL     1     -11.314  14.477  66.854  1.00  0.00    -0.355 A  
HETATM   17  H   UNL     1     -12.400  15.496  63.215  1.00  0.00     0.000 HD 
ENDBRANCH   7  10
ENDBRANCH   5   7
ENDBRANCH   3   5
ENDBRANCH   2   3
BRANCH   2  18
HETATM   18  C   UNL     1     -10.806   9.256  71.511  1.00  0.00    -0.442 C  
BRANCH  18  19
HETATM   19  C   UNL     1     -11.070   7.748  71.585  1.00  0.00    -0.275 C  
BRANCH  19  20
HETATM   20  C   UNL     1     -10.449   7.078  70.378  1.00  0.00    -0.225 A  
HETATM   21  C   UNL     1      -9.061   7.124  70.178  1.00  0.00    -0.152 A  
HETATM   22  C   UNL     1      -8.498   6.610  69.009  1.00  0.00    -0.130 A  
HETATM   23  C   UNL     1     -10.693   5.983  68.224  1.00  0.00    -0.352 A  
HETATM   24  C   UNL     1     -11.258   6.496  69.393  1.00  0.00    -0.418 A  
HETATM   25  C   UNL     1      -9.314   6.045  68.030  1.00  0.00    -0.114 A  
ENDBRANCH  19  20
ENDBRANCH  18  19
ENDBRANCH   2  18
TORSDOF 7
ENDMDL
MODEL      101
REMARK 921   NORMALIZED FREE ENERGY PREDICTED BY IDOCK:   -4.92 KCAL/MOL
REMARK 922        TOTAL FREE ENERGY PREDICTED BY IDOCK:   -8.57 KCAL/MOL
REMARK 923 INTER-LIGAND FREE ENERGY PREDICTED BY IDOCK:   -6.94 KCAL/MOL
REMARK 924 INTRA-LIGAND FREE ENERGY PREDICTED BY IDOCK:   -1.63 KCAL/MOL
REMARK 927      BINDING AFFINITY PREDICTED BY RF-SCORE:    0.00 PKD
ROOT
HETATM    1  C   UNL     1      -9.735   8.407  68.567  1.00  0.00    -0.169 C  
HETATM    2  C   UNL     1     -10.830   9.468  68.380  1.00  0.00    -0.137 C  
ENDROOT
BRANCH   2   3
HETATM    3  N   UNL     1     -10.674  10.228  67.129  1.00  0.00    -0.257 NA 
HETATM    4  H   UNL     1     -11.591  10.459  66.746  1.00  0.00     0.000 HD 
BRANCH   3   5
HETATM    5  C   UNL     1      -9.837  11.456  67.218  1.00  0.00    -0.189 C  
HETATM    6  C   UNL     1      -8.441  11.215  66.633  1.00  0.00    -0.164 C  
BRANCH   5   7
HETATM    7  C   UNL     1     -10.547  12.636  66.465  1.00  0.00    -0.253 C  
HETATM    8  H   UNL     1     -12.376  13.046  65.917  1.00  0.00     0.000 HD 
HETATM    9  O   UNL     1     -11.946  12.332  66.373  1.00  0.00    -0.589 OA 
BRANCH   7  10
HETATM   10  C   UNL     1     -10.378  14.023  67.076  1.00  0.00    -0.267 A  
HETATM   11  C   UNL     1     -11.408  14.981  67.073  1.00  0.00    -0.319 A  
HETATM   12  C   UNL     1     -10.013  16.553  68.249  1.00  0.00    -0.250 A  
HETATM   13  C   UNL     1      -8.991  15.620  68.299  1.00  0.00    -0.181 A  
HETATM   14  O   UNL     1      -9.791  17.777  68.810  1.00  0.00    -0.332 OA 
HETATM   15  C   UNL     1     -11.225  16.244  67.646  1.00  0.00    -0.111 A  
HETATM   16  C   UNL     1      -9.175  14.360  67.723  1.00  0.00    -0.192 A  
HETATM   17  H   UNL     1      -8.962  17.989  69.222  1.00  0.00     0.000 HD 
ENDBRANCH   7  10
ENDBRANCH   5   7
ENDBRANCH   3   5
ENDBRANCH   2   3
BRANCH   2  18
HETATM   18  C   UNL     1     -10.752  10.425  69.587  1.00  0.00    -0.304 C  
BRANCH  18  19
HETATM   19  C   UNL     1     -11.936  10.358  70.559  1.00  0.00    -0.427 C  
BRANCH  19  20
HETATM   20  C   UNL     1     -12.415  11.764  70.852  1.00  0.00    -0.416 A  
HETATM   21  C   UNL     1     -11.924  12.848  70.111  1.00  0.00    -0.373 A  
HETATM   22  C   UNL     1     -12.273  14.155  70.454  1.00  0.00    -0.427 A  
HETATM   23  C   UNL     1     -13.619  13.320  72.276  1.00  0.00    -0.703 A  
HETATM   24  C   UNL     1     -13.271  12.012  71.933  1.00  0.00    -0.469 A  
HETATM   25  C   UNL     1     -13.115  14.391  71.540  1.00  0.00    -0.411 A  
ENDBRANCH  19  20
ENDBRANCH  18  19
ENDBRANCH   2  18
TORSDOF 7
ENDMDL
MODEL      102
REMARK 921   NORMALIZED FREE ENERGY PREDICTED BY IDOCK:   -4.92 KCAL/MOL
REMARK 922        TOTAL FREE ENERGY PREDICTED BY IDOCK:   -8.57 KCAL/MOL
REMARK 923 INTER-LIGAND FREE ENERGY PREDICTED BY IDOCK:   -7.47 KCAL/MOL
REMARK 924 INTRA-LIGAND FREE ENERGY PREDICTED BY IDOCK:   -1.10 KCAL/MOL
REMARK 927      BINDING AFFINITY PREDICTED BY RF-SCORE:    0.00 PKD
ROOT
HETATM    1  C   UNL     1      -8.857  13.825  67.407  1.00  0.00    -0.211 C  
HETATM    2  C   UNL     1      -9.976  14.002  66.370  1.00  0.00    -0.294 C  
ENDROOT
BRANCH   2   3
HETATM    3  N   UNL     1      -9.860  13.059  65.246  1.00  0.00    -0.493 NA 
HETATM    4  H   UNL     1      -8.944  12.611  65.260  1.00  0.00     0.000 HD 
BRANCH   3   5
HETATM    5  C   UNL     1     -10.928  12.026  65.156  1.00  0.00    -0.310 C  
HETATM    6  C   UNL     1     -11.414  11.861  63.711  1.00  0.00    -0.542 C  
BRANCH   5   7
HETATM    7  C   UNL     1     -10.391  10.659  65.709  1.00  0.00    -0.219 C  
HETATM    8  H   UNL     1      -8.667   9.742  65.736  1.00  0.00     0.000 HD 
HETATM    9  O   UNL     1      -8.993  10.569  65.401  1.00  0.00    -0.171 OA 
BRANCH   7  10
HETATM   10  C   UNL     1     -10.588  10.414  67.201  1.00  0.00    -0.319 A  
HETATM   11  C   UNL     1      -9.699   9.633  67.963  1.00  0.00    -0.167 A  
HETATM   12  C   UNL     1     -10.990  10.025  69.958  1.00  0.00    -0.300 A  
HETATM   13  C   UNL     1     -11.864  10.827  69.244  1.00  0.00    -0.359 A  
HETATM   14  O   UNL     1     -11.230   9.842  71.289  1.00  0.00    -0.361 OA 
HETATM   15  C   UNL     1      -9.903   9.429  69.332  1.00  0.00    -0.183 A  
HETATM   16  C   UNL     1     -11.660  11.027  67.876  1.00  0.00    -0.306 A  
HETATM   17  H   UNL     1     -11.973  10.249  71.718  1.00  0.00     0.000 HD 
ENDBRANCH   7  10
ENDBRANCH   5   7
ENDBRANCH   3   5
ENDBRANCH   2   3
BRANCH   2  18
HETATM   18  C   UNL     1      -9.892  15.451  65.848  1.00  0.00    -0.387 C  
BRANCH  18  19
HETATM   19  C   UNL     1      -8.624  16.220  66.238  1.00  0.00    -0.374 C  
BRANCH  19  20
HETATM   20  C   UNL     1      -8.999  17.643  66.591  1.00  0.00    -0.283 A  
HETATM   21  C   UNL     1     -10.339  17.988  66.818  1.00  0.00    -0.373 A  
HETATM   22  C   UNL     1     -10.701  19.320  67.027  1.00  0.00    -0.565 A  
HETATM   23  C   UNL     1      -8.392  19.986  66.799  1.00  0.00    -0.372 A  
HETATM   24  C   UNL     1      -8.028  18.654  66.590  1.00  0.00    -0.280 A  
HETATM   25  C   UNL     1      -9.729  20.319  67.012  1.00  0.00    -0.598 A  
ENDBRANCH  19  20
ENDBRANCH  18  19
ENDBRANCH   2  18
TORSDOF 7
ENDMDL
MODEL      103
REMARK 921   NORMALIZED FREE ENERGY PREDICTED BY IDOCK:   -4.92 KCAL/MOL
REMARK 922        TOTAL FREE ENERGY PREDICTED BY IDOCK:   -8.57 KCAL/MOL
REMARK 923 INTER-LIGAND FREE ENERGY PREDICTED BY IDOCK:   -7.68 KCAL/MOL
REMARK 924 INTRA-LIGAND FREE ENERGY PREDICTED BY IDOCK:   -0.88 KCAL/MOL
REMARK 927      BINDING AFFINITY PREDICTED BY RF-SCORE:    0.00 PKD
ROOT
HETATM    1  C   UNL     1      -9.138  13.801  66.890  1.00  0.00    -0.253 C  
HETATM    2  C   UNL     1     -10.178  14.203  65.833  1.00  0.00    -0.319 C  
ENDROOT
BRANCH   2   3
HETATM    3  N   UNL     1      -9.996  13.490  64.559  1.00  0.00    -0.635 NA 
HETATM    4  H   UNL     1      -9.052  13.107  64.507  1.00  0.00     0.000 HD 
BRANCH   3   5
HETATM    5  C   UNL     1     -10.992  12.424  64.266  1.00  0.00    -0.351 C  
HETATM    6  C   UNL     1     -12.102  12.945  63.347  1.00  0.00    -0.610 C  
BRANCH   5   7
HETATM    7  C   UNL     1     -10.273  11.194  63.608  1.00  0.00    -0.387 C  
HETATM    8  H   UNL     1      -8.742  10.938  62.423  1.00  0.00     0.000 HD 
HETATM    9  O   UNL     1      -9.178  11.683  62.821  1.00  0.00    -0.346 OA 
BRANCH   7  10
HETATM   10  C   UNL     1      -9.760  10.124  64.565  1.00  0.00    -0.361 A  
HETATM   11  C   UNL     1     -10.268   9.968  65.868  1.00  0.00    -0.275 A  
HETATM   12  C   UNL     1      -8.794   8.107  66.272  1.00  0.00    -0.164 A  
HETATM   13  C   UNL     1      -8.297   8.212  64.984  1.00  0.00    -0.146 A  
HETATM   14  O   UNL     1      -8.285   7.131  67.079  1.00  0.00    -0.115 OA 
HETATM   15  C   UNL     1      -9.781   8.974  66.723  1.00  0.00    -0.279 A  
HETATM   16  C   UNL     1      -8.783   9.208  64.133  1.00  0.00    -0.170 A  
HETATM   17  H   UNL     1      -7.609   6.538  66.771  1.00  0.00     0.000 HD 
ENDBRANCH   7  10
ENDBRANCH   5   7
ENDBRANCH   3   5
ENDBRANCH   2   3
BRANCH   2  18
HETATM   18  C   UNL     1     -10.038  15.723  65.608  1.00  0.00    -0.401 C  
BRANCH  18  19
HETATM   19  C   UNL     1      -8.818  16.377  66.265  1.00  0.00    -0.367 C  
BRANCH  19  20
HETATM   20  C   UNL     1      -9.232  17.704  66.864  1.00  0.00    -0.270 A  
HETATM   21  C   UNL     1      -8.666  18.145  68.069  1.00  0.00    -0.276 A  
HETATM   22  C   UNL     1      -9.130  19.309  68.685  1.00  0.00    -0.428 A  
HETATM   23  C   UNL     1     -10.724  19.621  66.899  1.00  0.00    -0.570 A  
HETATM   24  C   UNL     1     -10.261  18.457  66.282  1.00  0.00    -0.427 A  
HETATM   25  C   UNL     1     -10.162  20.043  68.103  1.00  0.00    -0.535 A  
ENDBRANCH  19  20
ENDBRANCH  18  19
ENDBRANCH   2  18
TORSDOF 7
ENDMDL
MODEL      104
REMARK 921   NORMALIZED FREE ENERGY PREDICTED BY IDOCK:   -4.91 KCAL/MOL
REMARK 922        TOTAL FREE ENERGY PREDICTED BY IDOCK:   -8.55 KCAL/MOL
REMARK 923 INTER-LIGAND FREE ENERGY PREDICTED BY IDOCK:   -6.10 KCAL/MOL
REMARK 924 INTRA-LIGAND FREE ENERGY PREDICTED BY IDOCK:   -2.45 KCAL/MOL
REMARK 927      BINDING AFFINITY PREDICTED BY RF-SCORE:    0.00 PKD
ROOT
HETATM    1  C   UNL     1      -7.791   7.429  74.211  1.00  0.00    -0.174 C  
HETATM    2  C   UNL     1      -9.075   6.596  74.338  1.00  0.00    -0.194 C  
ENDROOT
BRANCH   2   3
HETATM    3  N   UNL     1      -8.900   5.213  73.868  1.00  0.00    -0.118 NA 
HETATM    4  H   UNL     1      -9.811   4.780  73.716  1.00  0.00     0.000 HD 
BRANCH   3   5
HETATM    5  C   UNL     1      -8.049   5.042  72.659  1.00  0.00    -0.108 C  
HETATM    6  C   UNL     1      -6.834   4.158  72.961  1.00  0.00    -0.056 C  
BRANCH   5   7
HETATM    7  C   UNL     1      -8.899   4.420  71.496  1.00  0.00    -0.118 C  
HETATM    8  H   UNL     1     -10.512   3.326  71.374  1.00  0.00     0.000 HD 
HETATM    9  O   UNL     1      -9.997   3.703  72.078  1.00  0.00    -0.166 OA 
BRANCH   7  10
HETATM   10  C   UNL     1      -9.438   5.399  70.459  1.00  0.00    -0.215 A  
HETATM   11  C   UNL     1      -8.595   6.180  69.647  1.00  0.00    -0.128 A  
HETATM   12  C   UNL     1     -10.494   7.164  68.539  1.00  0.00    -0.204 A  
HETATM   13  C   UNL     1     -11.350   6.383  69.298  1.00  0.00    -0.405 A  
HETATM   14  O   UNL     1     -11.043   8.024  67.634  1.00  0.00    -0.495 OA 
HETATM   15  C   UNL     1      -9.118   7.067  68.700  1.00  0.00    -0.132 A  
HETATM   16  C   UNL     1     -10.826   5.501  70.246  1.00  0.00    -0.285 A  
HETATM   17  H   UNL     1     -11.985   8.091  67.524  1.00  0.00     0.000 HD 
ENDBRANCH   7  10
ENDBRANCH   5   7
ENDBRANCH   3   5
ENDBRANCH   2   3
BRANCH   2  18
HETATM   18  C   UNL     1     -10.163   7.300  73.502  1.00  0.00    -0.404 C  
BRANCH  18  19
HETATM   19  C   UNL     1      -9.650   8.302  72.462  1.00  0.00    -0.365 C  
BRANCH  19  20
HETATM   20  C   UNL     1     -10.832   8.976  71.800  1.00  0.00    -0.437 A  
HETATM   21  C   UNL     1     -10.631   9.950  70.811  1.00  0.00    -0.309 A  
HETATM   22  C   UNL     1     -11.713  10.656  70.283  1.00  0.00    -0.433 A  
HETATM   23  C   UNL     1     -13.218   9.423  71.711  1.00  0.00    -0.487 A  
HETATM   24  C   UNL     1     -12.137   8.715  72.240  1.00  0.00    -0.443 A  
HETATM   25  C   UNL     1     -13.005  10.397  70.737  1.00  0.00    -0.422 A  
ENDBRANCH  19  20
ENDBRANCH  18  19
ENDBRANCH   2  18
TORSDOF 7
ENDMDL
MODEL      105
REMARK 921   NORMALIZED FREE ENERGY PREDICTED BY IDOCK:   -4.89 KCAL/MOL
REMARK 922        TOTAL FREE ENERGY PREDICTED BY IDOCK:   -8.52 KCAL/MOL
REMARK 923 INTER-LIGAND FREE ENERGY PREDICTED BY IDOCK:   -6.88 KCAL/MOL
REMARK 924 INTRA-LIGAND FREE ENERGY PREDICTED BY IDOCK:   -1.64 KCAL/MOL
REMARK 927      BINDING AFFINITY PREDICTED BY RF-SCORE:    0.00 PKD
ROOT
HETATM    1  C   UNL     1      -6.354  14.822  67.694  1.00  0.00    -0.139 C  
HETATM    2  C   UNL     1      -7.831  14.477  67.455  1.00  0.00    -0.199 C  
ENDROOT
BRANCH   2   3
HETATM    3  N   UNL     1      -8.738  15.564  67.857  1.00  0.00    -0.162 NA 
HETATM    4  H   UNL     1      -8.712  16.313  67.165  1.00  0.00     0.000 HD 
BRANCH   3   5
HETATM    5  C   UNL     1     -10.148  15.166  68.119  1.00  0.00    -0.222 C  
HETATM    6  C   UNL     1     -10.670  15.807  69.410  1.00  0.00    -0.266 C  
BRANCH   5   7
HETATM    7  C   UNL     1     -11.050  15.577  66.903  1.00  0.00    -0.221 C  
HETATM    8  H   UNL     1     -10.978  16.939  65.506  1.00  0.00     0.000 HD 
HETATM    9  O   UNL     1     -10.432  16.690  66.243  1.00  0.00    -0.306 OA 
BRANCH   7  10
HETATM   10  C   UNL     1     -11.335  14.485  65.877  1.00  0.00    -0.341 A  
HETATM   11  C   UNL     1     -10.353  14.006  64.991  1.00  0.00    -0.432 A  
HETATM   12  C   UNL     1     -11.915  12.444  64.030  1.00  0.00    -0.460 A  
HETATM   13  C   UNL     1     -12.894  12.870  64.912  1.00  0.00    -0.370 A  
HETATM   14  O   UNL     1     -12.240  11.468  63.133  1.00  0.00    -0.932 OA 
HETATM   15  C   UNL     1     -10.642  13.000  64.063  1.00  0.00    -0.371 A  
HETATM   16  C   UNL     1     -12.604  13.878  65.836  1.00  0.00    -0.498 A  
HETATM   17  H   UNL     1     -13.110  11.089  63.110  1.00  0.00     0.000 HD 
ENDBRANCH   7  10
ENDBRANCH   5   7
ENDBRANCH   3   5
ENDBRANCH   2   3
BRANCH   2  18
HETATM   18  C   UNL     1      -8.143  13.206  68.270  1.00  0.00    -0.152 C  
BRANCH  18  19
HETATM   19  C   UNL     1      -8.759  12.048  67.477  1.00  0.00    -0.166 C  
BRANCH  19  20
HETATM   20  C   UNL     1      -9.864  11.419  68.299  1.00  0.00    -0.202 A  
HETATM   21  C   UNL     1     -11.181  11.886  68.192  1.00  0.00    -0.316 A  
HETATM   22  C   UNL     1     -12.179  11.388  69.032  1.00  0.00    -0.200 A  
HETATM   23  C   UNL     1     -10.566   9.939  70.093  1.00  0.00    -0.350 A  
HETATM   24  C   UNL     1      -9.567  10.435  69.253  1.00  0.00    -0.226 A  
HETATM   25  C   UNL     1     -11.870  10.420  69.986  1.00  0.00    -0.351 A  
ENDBRANCH  19  20
ENDBRANCH  18  19
ENDBRANCH   2  18
TORSDOF 7
ENDMDL
MODEL      106
REMARK 921   NORMALIZED FREE ENERGY PREDICTED BY IDOCK:   -4.86 KCAL/MOL
REMARK 922        TOTAL FREE ENERGY PREDICTED BY IDOCK:   -8.49 KCAL/MOL
REMARK 923 INTER-LIGAND FREE ENERGY PREDICTED BY IDOCK:   -7.06 KCAL/MOL
REMARK 924 INTRA-LIGAND FREE ENERGY PREDICTED BY IDOCK:   -1.42 KCAL/MOL
REMARK 927      BINDING AFFINITY PREDICTED BY RF-SCORE:    0.00 PKD
ROOT
HETATM    1  C   UNL     1      -9.663   7.890  70.629  1.00  0.00    -0.175 C  
HETATM    2  C   UNL     1     -10.680   8.828  69.962  1.00  0.00    -0.228 C  
ENDROOT
BRANCH   2   3
HETATM    3  N   UNL     1     -10.081   9.649  68.898  1.00  0.00    -0.180 NA 
HETATM    4  H   UNL     1      -9.305  10.193  69.275  1.00  0.00     0.000 HD 
BRANCH   3   5
HETATM    5  C   UNL     1      -9.640   8.912  67.683  1.00  0.00    -0.148 C  
HETATM    6  C   UNL     1     -10.734   7.959  67.189  1.00  0.00    -0.306 C  
BRANCH   5   7
HETATM    7  C   UNL     1      -9.257   9.933  66.554  1.00  0.00    -0.155 C  
HETATM    8  H   UNL     1      -9.434  10.001  64.611  1.00  0.00     0.000 HD 
HETATM    9  O   UNL     1      -9.666   9.383  65.294  1.00  0.00    -0.263 OA 
BRANCH   7  10
HETATM   10  C   UNL     1      -9.833  11.338  66.695  1.00  0.00    -0.235 A  
HETATM   11  C   UNL     1      -9.068  12.425  67.157  1.00  0.00    -0.199 A  
HETATM   12  C   UNL     1     -10.944  13.914  66.901  1.00  0.00    -0.295 A  
HETATM   13  C   UNL     1     -11.713  12.871  66.410  1.00  0.00    -0.454 A  
HETATM   14  O   UNL     1     -11.525  15.144  67.007  1.00  0.00    -0.319 OA 
HETATM   15  C   UNL     1      -9.623  13.704  67.271  1.00  0.00    -0.238 A  
HETATM   16  C   UNL     1     -11.159  11.593  66.300  1.00  0.00    -0.345 A  
HETATM   17  H   UNL     1     -12.429  15.287  66.754  1.00  0.00     0.000 HD 
ENDBRANCH   7  10
ENDBRANCH   5   7
ENDBRANCH   3   5
ENDBRANCH   2   3
BRANCH   2  18
HETATM   18  C   UNL     1     -11.257   9.739  71.065  1.00  0.00    -0.451 C  
BRANCH  18  19
HETATM   19  C   UNL     1     -12.709  10.185  70.860  1.00  0.00    -0.448 C  
BRANCH  19  20
HETATM   20  C   UNL     1     -12.799  11.683  71.061  1.00  0.00    -0.339 A  
HETATM   21  C   UNL     1     -12.100  12.554  70.214  1.00  0.00    -0.373 A  
HETATM   22  C   UNL     1     -12.086  13.927  70.467  1.00  0.00    -0.426 A  
HETATM   23  C   UNL     1     -13.477  13.586  72.409  1.00  0.00    -0.685 A  
HETATM   24  C   UNL     1     -13.493  12.212  72.157  1.00  0.00    -0.383 A  
HETATM   25  C   UNL     1     -12.769  14.442  71.567  1.00  0.00    -0.417 A  
ENDBRANCH  19  20
ENDBRANCH  18  19
ENDBRANCH   2  18
TORSDOF 7
ENDMDL
MODEL      107
REMARK 921   NORMALIZED FREE ENERGY PREDICTED BY IDOCK:   -4.86 KCAL/MOL
REMARK 922        TOTAL FREE ENERGY PREDICTED BY IDOCK:   -8.49 KCAL/MOL
REMARK 923 INTER-LIGAND FREE ENERGY PREDICTED BY IDOCK:   -7.34 KCAL/MOL
REMARK 924 INTRA-LIGAND FREE ENERGY PREDICTED BY IDOCK:   -1.15 KCAL/MOL
REMARK 927      BINDING AFFINITY PREDICTED BY RF-SCORE:    0.00 PKD
ROOT
HETATM    1  C   UNL     1      -8.468  14.507  68.931  1.00  0.00    -0.110 C  
HETATM    2  C   UNL     1      -9.419  13.301  68.895  1.00  0.00     0.223 C  
ENDROOT
BRANCH   2   3
HETATM    3  N   UNL     1      -8.711  12.028  68.692  1.00  0.00    -0.350 NA 
HETATM    4  H   UNL     1      -8.058  11.867  69.458  1.00  0.00     0.000 HD 
BRANCH   3   5
HETATM    5  C   UNL     1      -9.575  10.830  68.503  1.00  0.00    -0.183 C  
HETATM    6  C   UNL     1      -9.298  10.159  67.153  1.00  0.00    -0.176 C  
BRANCH   5   7
HETATM    7  C   UNL     1      -9.336   9.814  69.675  1.00  0.00    -0.219 C  
HETATM    8  H   UNL     1      -8.081   9.666  71.163  1.00  0.00     0.000 HD 
HETATM    9  O   UNL     1      -8.225  10.281  70.453  1.00  0.00    -0.017 OA 
BRANCH   7  10
HETATM   10  C   UNL     1     -10.522   9.564  70.600  1.00  0.00    -0.374 A  
HETATM   11  C   UNL     1     -10.555   8.496  71.515  1.00  0.00    -0.333 A  
HETATM   12  C   UNL     1     -12.727   9.176  72.304  1.00  0.00    -0.377 A  
HETATM   13  C   UNL     1     -12.711  10.257  71.438  1.00  0.00    -0.547 A  
HETATM   14  O   UNL     1     -13.823   9.007  73.099  1.00  0.00    -1.096 OA 
HETATM   15  C   UNL     1     -11.655   8.294  72.355  1.00  0.00    -0.464 A  
HETATM   16  C   UNL     1     -11.612  10.455  70.597  1.00  0.00    -0.440 A  
HETATM   17  H   UNL     1     -14.557   9.610  73.064  1.00  0.00     0.000 HD 
ENDBRANCH   7  10
ENDBRANCH   5   7
ENDBRANCH   3   5
ENDBRANCH   2   3
BRANCH   2  18
HETATM   18  C   UNL     1     -10.415  13.537  67.741  1.00  0.00    -0.242 C  
BRANCH  18  19
HETATM   19  C   UNL     1      -9.789  13.687  66.350  1.00  0.00    -0.302 C  
BRANCH  19  20
HETATM   20  C   UNL     1     -10.681  13.010  65.331  1.00  0.00    -0.309 A  
HETATM   21  C   UNL     1     -10.136  12.480  64.153  1.00  0.00    -0.311 A  
HETATM   22  C   UNL     1     -10.969  11.961  63.160  1.00  0.00    -0.281 A  
HETATM   23  C   UNL     1     -12.903  12.480  64.507  1.00  0.00    -0.352 A  
HETATM   24  C   UNL     1     -12.072  12.998  65.502  1.00  0.00    -0.501 A  
HETATM   25  C   UNL     1     -12.351  11.967  63.334  1.00  0.00    -0.577 A  
ENDBRANCH  19  20
ENDBRANCH  18  19
ENDBRANCH   2  18
TORSDOF 7
ENDMDL
MODEL      108
REMARK 921   NORMALIZED FREE ENERGY PREDICTED BY IDOCK:   -4.86 KCAL/MOL
REMARK 922        TOTAL FREE ENERGY PREDICTED BY IDOCK:   -8.48 KCAL/MOL
REMARK 923 INTER-LIGAND FREE ENERGY PREDICTED BY IDOCK:   -7.49 KCAL/MOL
REMARK 924 INTRA-LIGAND FREE ENERGY PREDICTED BY IDOCK:   -1.00 KCAL/MOL
REMARK 927      BINDING AFFINITY PREDICTED BY RF-SCORE:    0.00 PKD
ROOT
HETATM    1  C   UNL     1     -10.541   5.353  66.563  1.00  0.00    -0.353 C  
HETATM    2  C   UNL     1     -11.021   6.611  67.302  1.00  0.00    -0.385 C  
ENDROOT
BRANCH   2   3
HETATM    3  N   UNL     1     -10.005   7.676  67.325  1.00  0.00    -0.186 NA 
HETATM    4  H   UNL     1      -9.331   7.529  66.574  1.00  0.00     0.000 HD 
BRANCH   3   5
HETATM    5  C   UNL     1     -10.527   9.069  67.272  1.00  0.00    -0.273 C  
HETATM    6  C   UNL     1     -10.487   9.725  68.657  1.00  0.00    -0.233 C  
BRANCH   5   7
HETATM    7  C   UNL     1      -9.688   9.910  66.246  1.00  0.00    -0.222 C  
HETATM    8  H   UNL     1      -8.587   9.514  64.683  1.00  0.00     0.000 HD 
HETATM    9  O   UNL     1      -9.095   9.005  65.304  1.00  0.00    -0.209 OA 
BRANCH   7  10
HETATM   10  C   UNL     1     -10.445  10.994  65.487  1.00  0.00    -0.302 A  
HETATM   11  C   UNL     1     -11.244  11.954  66.137  1.00  0.00    -0.387 A  
HETATM   12  C   UNL     1     -11.791  12.991  64.033  1.00  0.00    -0.445 A  
HETATM   13  C   UNL     1     -10.986  12.082  63.367  1.00  0.00    -0.475 A  
HETATM   14  O   UNL     1     -12.446  13.931  63.291  1.00  0.00    -1.113 OA 
HETATM   15  C   UNL     1     -11.923  12.941  65.414  1.00  0.00    -0.470 A  
HETATM   16  C   UNL     1     -10.311  11.095  64.090  1.00  0.00    -0.423 A  
HETATM   17  H   UNL     1     -12.356  13.965  62.346  1.00  0.00     0.000 HD 
ENDBRANCH   7  10
ENDBRANCH   5   7
ENDBRANCH   3   5
ENDBRANCH   2   3
BRANCH   2  18
HETATM   18  C   UNL     1     -11.371   6.190  68.744  1.00  0.00    -0.152 C  
BRANCH  18  19
HETATM   19  C   UNL     1     -10.211   5.613  69.563  1.00  0.00    -0.320 C  
BRANCH  19  20
HETATM   20  C   UNL     1     -10.061   6.413  70.839  1.00  0.00    -0.218 A  
HETATM   21  C   UNL     1     -11.167   7.068  71.399  1.00  0.00    -0.283 A  
HETATM   22  C   UNL     1     -11.009   7.901  72.508  1.00  0.00    -0.412 A  
HETATM   23  C   UNL     1      -8.641   7.432  72.526  1.00  0.00    -0.138 A  
HETATM   24  C   UNL     1      -8.798   6.598  71.417  1.00  0.00    -0.139 A  
HETATM   25  C   UNL     1      -9.746   8.088  73.067  1.00  0.00    -0.348 A  
ENDBRANCH  19  20
ENDBRANCH  18  19
ENDBRANCH   2  18
TORSDOF 7
ENDMDL
MODEL      109
REMARK 921   NORMALIZED FREE ENERGY PREDICTED BY IDOCK:   -4.84 KCAL/MOL
REMARK 922        TOTAL FREE ENERGY PREDICTED BY IDOCK:   -8.45 KCAL/MOL
REMARK 923 INTER-LIGAND FREE ENERGY PREDICTED BY IDOCK:   -6.39 KCAL/MOL
REMARK 924 INTRA-LIGAND FREE ENERGY PREDICTED BY IDOCK:   -2.06 KCAL/MOL
REMARK 927      BINDING AFFINITY PREDICTED BY RF-SCORE:    0.00 PKD
ROOT
HETATM    1  C   UNL     1     -12.239  12.556  63.252  1.00  0.00    -0.512 C  
HETATM    2  C   UNL     1     -11.204  13.074  64.262  1.00  0.00    -0.373 C  
ENDROOT
BRANCH   2   3
HETATM    3  N   UNL     1      -9.906  12.391  64.142  1.00  0.00    -0.570 NA 
HETATM    4  H   UNL     1      -9.313  12.631  64.936  1.00  0.00     0.000 HD 
BRANCH   3   5
HETATM    5  C   UNL     1      -9.965  10.912  63.981  1.00  0.00    -0.344 C  
HETATM    6  C   UNL     1      -9.519  10.493  62.576  1.00  0.00    -0.288 C  
BRANCH   5   7
HETATM    7  C   UNL     1      -9.063  10.226  65.067  1.00  0.00    -0.207 C  
HETATM    8  H   UNL     1      -7.167  10.255  65.531  1.00  0.00     0.000 HD 
HETATM    9  O   UNL     1      -7.713  10.670  64.874  1.00  0.00    -0.069 OA 
BRANCH   7  10
HETATM   10  C   UNL     1      -9.462  10.461  66.520  1.00  0.00    -0.204 A  
HETATM   11  C   UNL     1      -8.792  11.378  67.349  1.00  0.00    -0.150 A  
HETATM   12  C   UNL     1     -10.269  10.873  69.183  1.00  0.00    -0.195 A  
HETATM   13  C   UNL     1     -10.972   9.988  68.382  1.00  0.00    -0.266 A  
HETATM   14  O   UNL     1     -10.676  11.030  70.476  1.00  0.00    -0.244 OA 
HETATM   15  C   UNL     1      -9.183  11.576  68.677  1.00  0.00    -0.136 A  
HETATM   16  C   UNL     1     -10.576   9.789  67.057  1.00  0.00    -0.269 A  
HETATM   17  H   UNL     1     -11.418  10.548  70.822  1.00  0.00     0.000 HD 
ENDBRANCH   7  10
ENDBRANCH   5   7
ENDBRANCH   3   5
ENDBRANCH   2   3
BRANCH   2  18
HETATM   18  C   UNL     1     -11.787  12.848  65.672  1.00  0.00    -0.464 C  
BRANCH  18  19
HETATM   19  C   UNL     1     -12.290  14.108  66.386  1.00  0.00    -0.431 C  
BRANCH  19  20
HETATM   20  C   UNL     1     -11.303  14.488  67.470  1.00  0.00    -0.355 A  
HETATM   21  C   UNL     1     -11.662  14.385  68.822  1.00  0.00    -0.372 A  
HETATM   22  C   UNL     1     -10.800  14.844  69.819  1.00  0.00    -0.255 A  
HETATM   23  C   UNL     1      -9.201  15.505  68.136  1.00  0.00    -0.189 A  
HETATM   24  C   UNL     1     -10.062  15.046  67.138  1.00  0.00    -0.239 A  
HETATM   25  C   UNL     1      -9.573  15.409  69.476  1.00  0.00    -0.259 A  
ENDBRANCH  19  20
ENDBRANCH  18  19
ENDBRANCH   2  18
TORSDOF 7
ENDMDL
MODEL      110
REMARK 921   NORMALIZED FREE ENERGY PREDICTED BY IDOCK:   -4.83 KCAL/MOL
REMARK 922        TOTAL FREE ENERGY PREDICTED BY IDOCK:   -8.43 KCAL/MOL
REMARK 923 INTER-LIGAND FREE ENERGY PREDICTED BY IDOCK:   -6.80 KCAL/MOL
REMARK 924 INTRA-LIGAND FREE ENERGY PREDICTED BY IDOCK:   -1.63 KCAL/MOL
REMARK 927      BINDING AFFINITY PREDICTED BY RF-SCORE:    0.00 PKD
ROOT
HETATM    1  C   UNL     1     -10.990   7.328  67.189  1.00  0.00    -0.285 C  
HETATM    2  C   UNL     1      -9.666   8.022  66.837  1.00  0.00    -0.225 C  
ENDROOT
BRANCH   2   3
HETATM    3  N   UNL     1      -8.625   7.807  67.855  1.00  0.00    -0.122 NA 
HETATM    4  H   UNL     1      -8.312   8.704  68.227  1.00  0.00     0.000 HD 
BRANCH   3   5
HETATM    5  C   UNL     1      -8.992   6.894  68.972  1.00  0.00    -0.132 C  
HETATM    6  C   UNL     1      -7.972   5.758  69.111  1.00  0.00    -0.097 C  
BRANCH   5   7
HETATM    7  C   UNL     1      -9.087   7.707  70.311  1.00  0.00    -0.149 C  
HETATM    8  H   UNL     1      -8.429   9.431  70.950  1.00  0.00     0.000 HD 
HETATM    9  O   UNL     1      -8.371   8.938  70.140  1.00  0.00    -0.117 OA 
BRANCH   7  10
HETATM   10  C   UNL     1     -10.494   8.015  70.812  1.00  0.00    -0.221 A  
HETATM   11  C   UNL     1     -10.889   9.305  71.210  1.00  0.00    -0.417 A  
HETATM   12  C   UNL     1     -13.116   8.525  71.696  1.00  0.00    -0.341 A  
HETATM   13  C   UNL     1     -12.768   7.251  71.278  1.00  0.00    -0.400 A  
HETATM   14  O   UNL     1     -14.390   8.729  72.139  1.00  0.00    -0.440 OA 
HETATM   15  C   UNL     1     -12.189   9.559  71.661  1.00  0.00    -0.477 A  
HETATM   16  C   UNL     1     -11.468   6.999  70.831  1.00  0.00    -0.349 A  
HETATM   17  H   UNL     1     -15.024   8.022  72.163  1.00  0.00     0.000 HD 
ENDBRANCH   7  10
ENDBRANCH   5   7
ENDBRANCH   3   5
ENDBRANCH   2   3
BRANCH   2  18
HETATM   18  C   UNL     1      -9.961   9.530  66.700  1.00  0.00    -0.314 C  
BRANCH  18  19
HETATM   19  C   UNL     1     -10.809  10.140  67.822  1.00  0.00    -0.346 C  
BRANCH  19  20
HETATM   20  C   UNL     1     -11.215  11.544  67.427  1.00  0.00    -0.367 A  
HETATM   21  C   UNL     1     -11.510  12.499  68.410  1.00  0.00    -0.355 A  
HETATM   22  C   UNL     1     -11.997  13.757  68.049  1.00  0.00    -0.390 A  
HETATM   23  C   UNL     1     -11.890  13.134  65.720  1.00  0.00    -0.442 A  
HETATM   24  C   UNL     1     -11.403  11.876  66.078  1.00  0.00    -0.375 A  
HETATM   25  C   UNL     1     -12.193  14.072  66.706  1.00  0.00    -0.439 A  
ENDBRANCH  19  20
ENDBRANCH  18  19
ENDBRANCH   2  18
TORSDOF 7
ENDMDL
MODEL      111
REMARK 921   NORMALIZED FREE ENERGY PREDICTED BY IDOCK:   -4.81 KCAL/MOL
REMARK 922        TOTAL FREE ENERGY PREDICTED BY IDOCK:   -8.42 KCAL/MOL
REMARK 923 INTER-LIGAND FREE ENERGY PREDICTED BY IDOCK:   -7.39 KCAL/MOL
REMARK 924 INTRA-LIGAND FREE ENERGY PREDICTED BY IDOCK:   -1.03 KCAL/MOL
REMARK 927      BINDING AFFINITY PREDICTED BY RF-SCORE:    0.00 PKD
ROOT
HETATM    1  C   UNL     1      -9.565  15.220  67.849  1.00  0.00    -0.199 C  
HETATM    2  C   UNL     1     -10.806  14.521  68.425  1.00  0.00    -0.243 C  
ENDROOT
BRANCH   2   3
HETATM    3  N   UNL     1     -10.493  13.212  69.020  1.00  0.00    -0.432 NA 
HETATM    4  H   UNL     1     -11.280  12.888  69.582  1.00  0.00     0.000 HD 
BRANCH   3   5
HETATM    5  C   UNL     1     -10.082  12.148  68.063  1.00  0.00    -0.204 C  
HETATM    6  C   UNL     1      -8.722  11.556  68.449  1.00  0.00    -0.160 C  
BRANCH   5   7
HETATM    7  C   UNL     1     -11.174  11.022  68.022  1.00  0.00    -0.309 C  
HETATM    8  H   UNL     1     -11.439   9.366  67.022  1.00  0.00     0.000 HD 
HETATM    9  O   UNL     1     -10.777  10.047  67.048  1.00  0.00    -0.234 OA 
BRANCH   7  10
HETATM   10  C   UNL     1     -11.463  10.316  69.343  1.00  0.00    -0.248 A  
HETATM   11  C   UNL     1     -12.469  10.749  70.227  1.00  0.00    -0.395 A  
HETATM   12  C   UNL     1     -11.969   8.952  71.750  1.00  0.00    -0.359 A  
HETATM   13  C   UNL     1     -10.995   8.481  70.886  1.00  0.00    -0.292 A  
HETATM   14  O   UNL     1     -12.170   8.276  72.919  1.00  0.00    -0.584 OA 
HETATM   15  C   UNL     1     -12.714  10.079  71.430  1.00  0.00    -0.518 A  
HETATM   16  C   UNL     1     -10.749   9.154  69.686  1.00  0.00    -0.236 A  
HETATM   17  H   UNL     1     -11.660   7.505  73.138  1.00  0.00     0.000 HD 
ENDBRANCH   7  10
ENDBRANCH   5   7
ENDBRANCH   3   5
ENDBRANCH   2   3
BRANCH   2  18
HETATM   18  C   UNL     1     -11.811  14.344  67.268  1.00  0.00    -0.434 C  
BRANCH  18  19
HETATM   19  C   UNL     1     -11.330  14.832  65.897  1.00  0.00    -0.331 C  
BRANCH  19  20
HETATM   20  C   UNL     1     -11.325  13.665  64.932  1.00  0.00    -0.353 A  
HETATM   21  C   UNL     1     -12.532  13.102  64.495  1.00  0.00    -0.406 A  
HETATM   22  C   UNL     1     -12.530  11.954  63.700  1.00  0.00    -0.583 A  
HETATM   23  C   UNL     1     -10.118  11.918  63.754  1.00  0.00    -0.423 A  
HETATM   24  C   UNL     1     -10.118  13.066  64.548  1.00  0.00    -0.254 A  
HETATM   25  C   UNL     1     -11.324  11.359  63.335  1.00  0.00    -0.190 A  
ENDBRANCH  19  20
ENDBRANCH  18  19
ENDBRANCH   2  18
TORSDOF 7
ENDMDL
MODEL      112
REMARK 921   NORMALIZED FREE ENERGY PREDICTED BY IDOCK:   -4.81 KCAL/MOL
REMARK 922        TOTAL FREE ENERGY PREDICTED BY IDOCK:   -8.42 KCAL/MOL
REMARK 923 INTER-LIGAND FREE ENERGY PREDICTED BY IDOCK:   -7.37 KCAL/MOL
REMARK 924 INTRA-LIGAND FREE ENERGY PREDICTED BY IDOCK:   -1.04 KCAL/MOL
REMARK 927      BINDING AFFINITY PREDICTED BY RF-SCORE:    0.00 PKD
ROOT
HETATM    1  C   UNL     1      -8.325   8.214  66.963  1.00  0.00    -0.116 C  
HETATM    2  C   UNL     1      -9.648   8.991  67.040  1.00  0.00    -0.176 C  
ENDROOT
BRANCH   2   3
HETATM    3  N   UNL     1      -9.702   9.905  68.192  1.00  0.00    -0.143 NA 
HETATM    4  H   UNL     1      -8.952  10.592  68.126  1.00  0.00     0.000 HD 
BRANCH   3   5
HETATM    5  C   UNL     1     -11.003  10.594  68.411  1.00  0.00    -0.251 C  
HETATM    6  C   UNL     1     -11.516  10.362  69.836  1.00  0.00    -0.368 C  
BRANCH   5   7
HETATM    7  C   UNL     1     -10.842  12.130  68.133  1.00  0.00    -0.222 C  
HETATM    8  H   UNL     1      -9.384  13.425  68.238  1.00  0.00     0.000 HD 
HETATM    9  O   UNL     1      -9.482  12.495  68.406  1.00  0.00    -0.214 OA 
BRANCH   7  10
HETATM   10  C   UNL     1     -11.212  12.602  66.731  1.00  0.00    -0.347 A  
HETATM   11  C   UNL     1     -11.009  11.807  65.587  1.00  0.00    -0.348 A  
HETATM   12  C   UNL     1     -11.947  13.518  64.174  1.00  0.00    -0.448 A  
HETATM   13  C   UNL     1     -12.191  14.310  65.284  1.00  0.00    -0.414 A  
HETATM   14  O   UNL     1     -12.296  14.005  62.948  1.00  0.00    -1.011 OA 
HETATM   15  C   UNL     1     -11.363  12.265  64.314  1.00  0.00    -0.415 A  
HETATM   16  C   UNL     1     -11.834  13.852  66.554  1.00  0.00    -0.440 A  
HETATM   17  H   UNL     1     -12.695  14.862  62.853  1.00  0.00     0.000 HD 
ENDBRANCH   7  10
ENDBRANCH   5   7
ENDBRANCH   3   5
ENDBRANCH   2   3
BRANCH   2  18
HETATM   18  C   UNL     1     -10.784   7.953  67.141  1.00  0.00    -0.306 C  
BRANCH  18  19
HETATM   19  C   UNL     1     -10.337   6.487  67.174  1.00  0.00    -0.311 C  
BRANCH  19  20
HETATM   20  C   UNL     1     -10.461   5.965  68.590  1.00  0.00    -0.302 A  
HETATM   21  C   UNL     1     -11.201   6.677  69.545  1.00  0.00    -0.383 A  
HETATM   22  C   UNL     1     -11.221   6.262  70.878  1.00  0.00    -0.386 A  
HETATM   23  C   UNL     1      -9.775   4.410  70.324  1.00  0.00    -0.281 A  
HETATM   24  C   UNL     1      -9.754   4.824  68.991  1.00  0.00    -0.248 A  
HETATM   25  C   UNL     1     -10.503   5.132  71.268  1.00  0.00    -0.245 A  
ENDBRANCH  19  20
ENDBRANCH  18  19
ENDBRANCH   2  18
TORSDOF 7
ENDMDL
MODEL      113
REMARK 921   NORMALIZED FREE ENERGY PREDICTED BY IDOCK:   -4.81 KCAL/MOL
REMARK 922        TOTAL FREE ENERGY PREDICTED BY IDOCK:   -8.41 KCAL/MOL
REMARK 923 INTER-LIGAND FREE ENERGY PREDICTED BY IDOCK:   -7.32 KCAL/MOL
REMARK 924 INTRA-LIGAND FREE ENERGY PREDICTED BY IDOCK:   -1.09 KCAL/MOL
REMARK 927      BINDING AFFINITY PREDICTED BY RF-SCORE:    0.00 PKD
ROOT
HETATM    1  C   UNL     1      -8.652  14.033  67.891  1.00  0.00    -0.181 C  
HETATM    2  C   UNL     1      -9.476  12.797  68.280  1.00  0.00    -0.203 C  
ENDROOT
BRANCH   2   3
HETATM    3  N   UNL     1      -9.478  11.765  67.232  1.00  0.00    -0.169 NA 
HETATM    4  H   UNL     1      -8.809  12.010  66.501  1.00  0.00     0.000 HD 
BRANCH   3   5
HETATM    5  C   UNL     1      -9.235  10.371  67.694  1.00  0.00    -0.148 C  
HETATM    6  C   UNL     1      -8.457  10.357  69.015  1.00  0.00    -0.155 C  
BRANCH   5   7
HETATM    7  C   UNL     1     -10.604   9.623  67.861  1.00  0.00    -0.255 C  
HETATM    8  H   UNL     1     -11.458   8.069  67.041  1.00  0.00     0.000 HD 
HETATM    9  O   UNL     1     -10.629   8.523  66.940  1.00  0.00    -0.298 OA 
BRANCH   7  10
HETATM   10  C   UNL     1     -10.924   9.108  69.261  1.00  0.00    -0.081 A  
HETATM   11  C   UNL     1     -10.740   7.763  69.632  1.00  0.00    -0.223 A  
HETATM   12  C   UNL     1     -11.501   8.228  71.869  1.00  0.00    -0.310 A  
HETATM   13  C   UNL     1     -11.660   9.565  71.545  1.00  0.00    -0.465 A  
HETATM   14  O   UNL     1     -11.812   7.834  73.138  1.00  0.00    -0.645 OA 
HETATM   15  C   UNL     1     -11.038   7.321  70.925  1.00  0.00    -0.284 A  
HETATM   16  C   UNL     1     -11.365  10.004  70.252  1.00  0.00    -0.376 A  
HETATM   17  H   UNL     1     -12.129   8.454  73.784  1.00  0.00     0.000 HD 
ENDBRANCH   7  10
ENDBRANCH   5   7
ENDBRANCH   3   5
ENDBRANCH   2   3
BRANCH   2  18
HETATM   18  C   UNL     1     -10.919  13.273  68.549  1.00  0.00    -0.291 C  
BRANCH  18  19
HETATM   19  C   UNL     1     -11.044  14.601  69.304  1.00  0.00    -0.290 C  
BRANCH  19  20
HETATM   20  C   UNL     1     -12.083  14.452  70.395  1.00  0.00    -0.399 A  
HETATM   21  C   UNL     1     -12.438  13.180  70.867  1.00  0.00    -0.407 A  
HETATM   22  C   UNL     1     -13.477  13.032  71.788  1.00  0.00    -0.401 A  
HETATM   23  C   UNL     1     -13.816  15.421  71.793  1.00  0.00    -0.620 A  
HETATM   24  C   UNL     1     -12.777  15.572  70.873  1.00  0.00    -0.525 A  
HETATM   25  C   UNL     1     -14.169  14.151  72.246  1.00  0.00    -0.598 A  
ENDBRANCH  19  20
ENDBRANCH  18  19
ENDBRANCH   2  18
TORSDOF 7
ENDMDL
MODEL      114
REMARK 921   NORMALIZED FREE ENERGY PREDICTED BY IDOCK:   -4.81 KCAL/MOL
REMARK 922        TOTAL FREE ENERGY PREDICTED BY IDOCK:   -8.41 KCAL/MOL
REMARK 923 INTER-LIGAND FREE ENERGY PREDICTED BY IDOCK:   -7.74 KCAL/MOL
REMARK 924 INTRA-LIGAND FREE ENERGY PREDICTED BY IDOCK:   -0.67 KCAL/MOL
REMARK 927      BINDING AFFINITY PREDICTED BY RF-SCORE:    0.00 PKD
ROOT
HETATM    1  C   UNL     1     -12.648  10.597  70.654  1.00  0.00    -0.454 C  
HETATM    2  C   UNL     1     -11.287  10.553  69.944  1.00  0.00    -0.309 C  
ENDROOT
BRANCH   2   3
HETATM    3  N   UNL     1     -11.414  10.415  68.484  1.00  0.00    -0.488 NA 
HETATM    4  H   UNL     1     -11.699  11.304  68.074  1.00  0.00     0.000 HD 
BRANCH   3   5
HETATM    5  C   UNL     1     -10.213   9.892  67.777  1.00  0.00    -0.197 C  
HETATM    6  C   UNL     1     -10.594   8.778  66.795  1.00  0.00    -0.220 C  
BRANCH   5   7
HETATM    7  C   UNL     1      -9.493  11.062  67.020  1.00  0.00    -0.173 C  
HETATM    8  H   UNL     1      -7.860  11.251  65.967  1.00  0.00     0.000 HD 
HETATM    9  O   UNL     1      -8.296  10.542  66.425  1.00  0.00    -0.135 OA 
BRANCH   7  10
HETATM   10  C   UNL     1     -10.312  11.775  65.948  1.00  0.00    -0.280 A  
HETATM   11  C   UNL     1     -10.255  11.415  64.589  1.00  0.00    -0.347 A  
HETATM   12  C   UNL     1     -11.874  13.106  64.024  1.00  0.00    -0.453 A  
HETATM   13  C   UNL     1     -11.979  13.461  65.359  1.00  0.00    -0.419 A  
HETATM   14  O   UNL     1     -12.630  13.790  63.117  1.00  0.00    -1.024 OA 
HETATM   15  C   UNL     1     -11.022  12.084  63.629  1.00  0.00    -0.517 A  
HETATM   16  C   UNL     1     -11.210  12.795  66.316  1.00  0.00    -0.339 A  
HETATM   17  H   UNL     1     -13.213  14.490  63.387  1.00  0.00     0.000 HD 
ENDBRANCH   7  10
ENDBRANCH   5   7
ENDBRANCH   3   5
ENDBRANCH   2   3
BRANCH   2  18
HETATM   18  C   UNL     1     -10.508   9.352  70.518  1.00  0.00    -0.335 C  
BRANCH  18  19
HETATM   19  C   UNL     1     -10.731   9.074  72.009  1.00  0.00    -0.333 C  
BRANCH  19  20
HETATM   20  C   UNL     1     -10.776   7.577  72.231  1.00  0.00    -0.294 A  
HETATM   21  C   UNL     1     -10.524   7.042  73.502  1.00  0.00    -0.413 A  
HETATM   22  C   UNL     1     -10.448   5.660  73.685  1.00  0.00    -0.289 A  
HETATM   23  C   UNL     1     -10.886   5.322  71.336  1.00  0.00    -0.152 A  
HETATM   24  C   UNL     1     -10.963   6.704  71.151  1.00  0.00    -0.302 A  
HETATM   25  C   UNL     1     -10.623   4.801  72.602  1.00  0.00    -0.271 A  
ENDBRANCH  19  20
ENDBRANCH  18  19
ENDBRANCH   2  18
TORSDOF 7
ENDMDL
MODEL      115
REMARK 921   NORMALIZED FREE ENERGY PREDICTED BY IDOCK:   -4.78 KCAL/MOL
REMARK 922        TOTAL FREE ENERGY PREDICTED BY IDOCK:   -8.37 KCAL/MOL
REMARK 923 INTER-LIGAND FREE ENERGY PREDICTED BY IDOCK:   -7.26 KCAL/MOL
REMARK 924 INTRA-LIGAND FREE ENERGY PREDICTED BY IDOCK:   -1.10 KCAL/MOL
REMARK 927      BINDING AFFINITY PREDICTED BY RF-SCORE:    0.00 PKD
ROOT
HETATM    1  C   UNL     1      -9.878  15.987  69.238  1.00  0.00    -0.255 C  
HETATM    2  C   UNL     1     -10.943  16.134  68.141  1.00  0.00    -0.341 C  
ENDROOT
BRANCH   2   3
HETATM    3  N   UNL     1     -10.747  15.187  67.032  1.00  0.00    -0.302 NA 
HETATM    4  H   UNL     1      -9.828  14.751  67.105  1.00  0.00     0.000 HD 
BRANCH   3   5
HETATM    5  C   UNL     1     -11.795  14.141  66.881  1.00  0.00    -0.431 C  
HETATM    6  C   UNL     1     -12.248  14.021  65.421  1.00  0.00    -0.453 C  
BRANCH   5   7
HETATM    7  C   UNL     1     -11.246  12.763  67.395  1.00  0.00    -0.294 C  
HETATM    8  H   UNL     1      -9.483  12.016  67.779  1.00  0.00     0.000 HD 
HETATM    9  O   UNL     1      -9.816  12.850  67.468  1.00  0.00    -0.202 OA 
BRANCH   7  10
HETATM   10  C   UNL     1     -11.785  12.284  68.738  1.00  0.00    -0.390 A  
HETATM   11  C   UNL     1     -12.140  13.171  69.771  1.00  0.00    -0.336 A  
HETATM   12  C   UNL     1     -12.806  11.337  71.183  1.00  0.00    -0.352 A  
HETATM   13  C   UNL     1     -12.498  10.439  70.173  1.00  0.00    -0.247 A  
HETATM   14  O   UNL     1     -13.277  10.839  72.362  1.00  0.00    -0.576 OA 
HETATM   15  C   UNL     1     -12.636  12.702  70.991  1.00  0.00    -0.354 A  
HETATM   16  C   UNL     1     -11.999  10.910  68.956  1.00  0.00    -0.322 A  
HETATM   17  H   UNL     1     -13.393   9.905  72.493  1.00  0.00     0.000 HD 
ENDBRANCH   7  10
ENDBRANCH   5   7
ENDBRANCH   3   5
ENDBRANCH   2   3
BRANCH   2  18
HETATM   18  C   UNL     1     -10.863  17.581  67.615  1.00  0.00    -0.229 C  
BRANCH  18  19
HETATM   19  C   UNL     1     -10.168  17.753  66.259  1.00  0.00    -0.364 C  
BRANCH  19  20
HETATM   20  C   UNL     1      -8.924  18.595  66.445  1.00  0.00    -0.285 A  
HETATM   21  C   UNL     1      -7.655  18.043  66.224  1.00  0.00    -0.306 A  
HETATM   22  C   UNL     1      -6.504  18.781  66.507  1.00  0.00    -0.215 A  
HETATM   23  C   UNL     1      -7.867  20.638  67.225  1.00  0.00    -0.341 A  
HETATM   24  C   UNL     1      -9.020  19.903  66.942  1.00  0.00    -0.434 A  
HETATM   25  C   UNL     1      -6.610  20.075  67.013  1.00  0.00    -0.237 A  
ENDBRANCH  19  20
ENDBRANCH  18  19
ENDBRANCH   2  18
TORSDOF 7
ENDMDL
MODEL      116
REMARK 921   NORMALIZED FREE ENERGY PREDICTED BY IDOCK:   -4.77 KCAL/MOL
REMARK 922        TOTAL FREE ENERGY PREDICTED BY IDOCK:   -8.35 KCAL/MOL
REMARK 923 INTER-LIGAND FREE ENERGY PREDICTED BY IDOCK:   -6.37 KCAL/MOL
REMARK 924 INTRA-LIGAND FREE ENERGY PREDICTED BY IDOCK:   -1.98 KCAL/MOL
REMARK 927      BINDING AFFINITY PREDICTED BY RF-SCORE:    0.00 PKD
ROOT
HETATM    1  C   UNL     1      -9.153  16.618  68.234  1.00  0.00    -0.218 C  
HETATM    2  C   UNL     1      -9.974  15.502  68.897  1.00  0.00    -0.218 C  
ENDROOT
BRANCH   2   3
HETATM    3  N   UNL     1      -9.200  14.266  69.088  1.00  0.00    -0.401 NA 
HETATM    4  H   UNL     1      -9.800  13.454  68.943  1.00  0.00     0.000 HD 
BRANCH   3   5
HETATM    5  C   UNL     1      -7.968  14.140  68.261  1.00  0.00    -0.140 C  
HETATM    6  C   UNL     1      -6.715  14.091  69.143  1.00  0.00    -0.112 C  
BRANCH   5   7
HETATM    7  C   UNL     1      -8.058  12.851  67.371  1.00  0.00    -0.181 C  
HETATM    8  H   UNL     1      -6.784  11.559  66.647  1.00  0.00     0.000 HD 
HETATM    9  O   UNL     1      -6.730  12.340  67.186  1.00  0.00    -0.149 OA 
BRANCH   7  10
HETATM   10  C   UNL     1      -8.953  11.732  67.894  1.00  0.00    -0.180 A  
HETATM   11  C   UNL     1     -10.283  11.566  67.466  1.00  0.00    -0.207 A  
HETATM   12  C   UNL     1     -10.543   9.628  68.874  1.00  0.00    -0.217 A  
HETATM   13  C   UNL     1      -9.227   9.745  69.289  1.00  0.00    -0.197 A  
HETATM   14  O   UNL     1     -11.290   8.609  69.388  1.00  0.00    -0.428 OA 
HETATM   15  C   UNL     1     -11.079  10.527  67.961  1.00  0.00    -0.361 A  
HETATM   16  C   UNL     1      -8.434  10.785  68.797  1.00  0.00    -0.148 A  
HETATM   17  H   UNL     1     -10.923   7.994  70.013  1.00  0.00     0.000 HD 
ENDBRANCH   7  10
ENDBRANCH   5   7
ENDBRANCH   3   5
ENDBRANCH   2   3
BRANCH   2  18
HETATM   18  C   UNL     1     -11.189  15.225  67.988  1.00  0.00    -0.330 C  
BRANCH  18  19
HETATM   19  C   UNL     1     -11.034  15.664  66.528  1.00  0.00    -0.206 C  
BRANCH  19  20
HETATM   20  C   UNL     1     -11.318  14.483  65.624  1.00  0.00    -0.336 A  
HETATM   21  C   UNL     1     -12.561  13.836  65.674  1.00  0.00    -0.551 A  
HETATM   22  C   UNL     1     -12.785  12.677  64.928  1.00  0.00    -0.450 A  
HETATM   23  C   UNL     1     -10.537  12.797  64.060  1.00  0.00    -0.446 A  
HETATM   24  C   UNL     1     -10.311  13.957  64.804  1.00  0.00    -0.419 A  
HETATM   25  C   UNL     1     -11.772  12.155  64.127  1.00  0.00    -0.478 A  
ENDBRANCH  19  20
ENDBRANCH  18  19
ENDBRANCH   2  18
TORSDOF 7
ENDMDL
MODEL      117
REMARK 921   NORMALIZED FREE ENERGY PREDICTED BY IDOCK:   -4.77 KCAL/MOL
REMARK 922        TOTAL FREE ENERGY PREDICTED BY IDOCK:   -8.35 KCAL/MOL
REMARK 923 INTER-LIGAND FREE ENERGY PREDICTED BY IDOCK:   -6.50 KCAL/MOL
REMARK 924 INTRA-LIGAND FREE ENERGY PREDICTED BY IDOCK:   -1.85 KCAL/MOL
REMARK 927      BINDING AFFINITY PREDICTED BY RF-SCORE:    0.00 PKD
ROOT
HETATM    1  C   UNL     1     -11.022   7.798  72.817  1.00  0.00    -0.447 C  
HETATM    2  C   UNL     1     -11.238   7.552  71.316  1.00  0.00    -0.251 C  
ENDROOT
BRANCH   2   3
HETATM    3  N   UNL     1      -9.974   7.497  70.564  1.00  0.00    -0.184 NA 
HETATM    4  H   UNL     1     -10.079   6.887  69.753  1.00  0.00     0.000 HD 
BRANCH   3   5
HETATM    5  C   UNL     1      -9.414   8.810  70.142  1.00  0.00    -0.169 C  
HETATM    6  C   UNL     1      -8.176   9.172  70.970  1.00  0.00    -0.186 C  
BRANCH   5   7
HETATM    7  C   UNL     1      -9.054   8.765  68.615  1.00  0.00    -0.141 C  
HETATM    8  H   UNL     1      -9.628   7.715  67.073  1.00  0.00     0.000 HD 
HETATM    9  O   UNL     1      -9.847   7.742  67.997  1.00  0.00    -0.153 OA 
BRANCH   7  10
HETATM   10  C   UNL     1      -9.233  10.069  67.844  1.00  0.00    -0.145 A  
HETATM   11  C   UNL     1      -8.326  11.139  67.948  1.00  0.00    -0.129 A  
HETATM   12  C   UNL     1      -9.602  12.436  66.369  1.00  0.00    -0.246 A  
HETATM   13  C   UNL     1     -10.494  11.387  66.218  1.00  0.00    -0.301 A  
HETATM   14  O   UNL     1      -9.826  13.576  65.654  1.00  0.00    -0.412 OA 
HETATM   15  C   UNL     1      -8.514  12.322  67.224  1.00  0.00    -0.181 A  
HETATM   16  C   UNL     1     -10.307  10.208  66.945  1.00  0.00    -0.298 A  
HETATM   17  H   UNL     1     -10.571  13.654  65.069  1.00  0.00     0.000 HD 
ENDBRANCH   7  10
ENDBRANCH   5   7
ENDBRANCH   3   5
ENDBRANCH   2   3
BRANCH   2  18
HETATM   18  C   UNL     1     -12.114   8.705  70.784  1.00  0.00    -0.087 C  
BRANCH  18  19
HETATM   19  C   UNL     1     -12.674   9.654  71.850  1.00  0.00    -0.499 C  
BRANCH  19  20
HETATM   20  C   UNL     1     -12.683  11.064  71.300  1.00  0.00    -0.537 A  
HETATM   21  C   UNL     1     -12.035  11.358  70.092  1.00  0.00    -0.460 A  
HETATM   22  C   UNL     1     -11.940  12.676  69.642  1.00  0.00    -0.352 A  
HETATM   23  C   UNL     1     -13.149  13.430  71.591  1.00  0.00    -0.463 A  
HETATM   24  C   UNL     1     -13.245  12.112  72.042  1.00  0.00    -0.496 A  
HETATM   25  C   UNL     1     -12.492  13.712  70.394  1.00  0.00    -0.364 A  
ENDBRANCH  19  20
ENDBRANCH  18  19
ENDBRANCH   2  18
TORSDOF 7
ENDMDL
MODEL      118
REMARK 921   NORMALIZED FREE ENERGY PREDICTED BY IDOCK:   -4.77 KCAL/MOL
REMARK 922        TOTAL FREE ENERGY PREDICTED BY IDOCK:   -8.35 KCAL/MOL
REMARK 923 INTER-LIGAND FREE ENERGY PREDICTED BY IDOCK:   -6.64 KCAL/MOL
REMARK 924 INTRA-LIGAND FREE ENERGY PREDICTED BY IDOCK:   -1.72 KCAL/MOL
REMARK 927      BINDING AFFINITY PREDICTED BY RF-SCORE:    0.00 PKD
ROOT
HETATM    1  C   UNL     1     -11.471   5.037  73.006  1.00  0.00    -0.344 C  
HETATM    2  C   UNL     1     -11.024   6.276  72.217  1.00  0.00    -0.259 C  
ENDROOT
BRANCH   2   3
HETATM    3  N   UNL     1     -11.666   7.512  72.693  1.00  0.00    -0.529 NA 
HETATM    4  H   UNL     1     -11.026   8.025  73.298  1.00  0.00     0.000 HD 
BRANCH   3   5
HETATM    5  C   UNL     1     -12.197   8.414  71.634  1.00  0.00    -0.315 C  
HETATM    6  C   UNL     1     -13.596   8.925  71.997  1.00  0.00    -0.489 C  
BRANCH   5   7
HETATM    7  C   UNL     1     -11.214   9.619  71.424  1.00  0.00    -0.356 C  
HETATM    8  H   UNL     1      -9.278   9.841  71.305  1.00  0.00     0.000 HD 
HETATM    9  O   UNL     1      -9.873   9.111  71.432  1.00  0.00    -0.298 OA 
BRANCH   7  10
HETATM   10  C   UNL     1     -11.426  10.447  70.161  1.00  0.00    -0.396 A  
HETATM   11  C   UNL     1     -11.966  11.747  70.191  1.00  0.00    -0.421 A  
HETATM   12  C   UNL     1     -11.760  11.937  67.798  1.00  0.00    -0.292 A  
HETATM   13  C   UNL     1     -11.194  10.674  67.740  1.00  0.00    -0.383 A  
HETATM   14  O   UNL     1     -11.927  12.620  66.629  1.00  0.00    -0.470 OA 
HETATM   15  C   UNL     1     -12.144  12.484  69.016  1.00  0.00    -0.181 A  
HETATM   16  C   UNL     1     -11.021   9.937  68.914  1.00  0.00    -0.214 A  
HETATM   17  H   UNL     1     -11.666  12.245  65.796  1.00  0.00     0.000 HD 
ENDBRANCH   7  10
ENDBRANCH   5   7
ENDBRANCH   3   5
ENDBRANCH   2   3
BRANCH   2  18
HETATM   18  C   UNL     1     -11.386   6.033  70.737  1.00  0.00    -0.295 C  
BRANCH  18  19
HETATM   19  C   UNL     1     -10.312   5.327  69.903  1.00  0.00    -0.374 C  
BRANCH  19  20
HETATM   20  C   UNL     1      -9.755   6.303  68.888  1.00  0.00    -0.144 A  
HETATM   21  C   UNL     1     -10.390   6.477  67.650  1.00  0.00    -0.239 A  
HETATM   22  C   UNL     1      -9.815   7.286  66.668  1.00  0.00    -0.257 A  
HETATM   23  C   UNL     1      -7.969   7.771  68.144  1.00  0.00    -0.122 A  
HETATM   24  C   UNL     1      -8.542   6.963  69.128  1.00  0.00    -0.128 A  
HETATM   25  C   UNL     1      -8.603   7.927  66.913  1.00  0.00    -0.130 A  
ENDBRANCH  19  20
ENDBRANCH  18  19
ENDBRANCH   2  18
TORSDOF 7
ENDMDL
MODEL      119
REMARK 921   NORMALIZED FREE ENERGY PREDICTED BY IDOCK:   -4.76 KCAL/MOL
REMARK 922        TOTAL FREE ENERGY PREDICTED BY IDOCK:   -8.34 KCAL/MOL
REMARK 923 INTER-LIGAND FREE ENERGY PREDICTED BY IDOCK:   -7.83 KCAL/MOL
REMARK 924 INTRA-LIGAND FREE ENERGY PREDICTED BY IDOCK:   -0.51 KCAL/MOL
REMARK 927      BINDING AFFINITY PREDICTED BY RF-SCORE:    0.00 PKD
ROOT
HETATM    1  C   UNL     1     -14.111  13.886  72.144  1.00  0.00    -0.630 C  
HETATM    2  C   UNL     1     -12.792  13.121  71.954  1.00  0.00    -0.225 C  
ENDROOT
BRANCH   2   3
HETATM    3  N   UNL     1     -12.000  13.631  70.824  1.00  0.00    -0.508 NA 
HETATM    4  H   UNL     1     -12.227  13.110  69.977  1.00  0.00     0.000 HD 
BRANCH   3   5
HETATM    5  C   UNL     1     -12.109  15.093  70.565  1.00  0.00    -0.343 C  
HETATM    6  C   UNL     1     -11.751  15.903  71.816  1.00  0.00    -0.575 C  
BRANCH   5   7
HETATM    7  C   UNL     1     -11.170  15.490  69.372  1.00  0.00    -0.300 C  
HETATM    8  H   UNL     1      -9.333  16.127  69.190  1.00  0.00     0.000 HD 
HETATM    9  O   UNL     1      -9.901  15.886  69.912  1.00  0.00    -0.239 OA 
BRANCH   7  10
HETATM   10  C   UNL     1     -10.946  14.421  68.307  1.00  0.00    -0.259 A  
HETATM   11  C   UNL     1      -9.662  14.026  67.891  1.00  0.00    -0.229 A  
HETATM   12  C   UNL     1     -10.599  12.419  66.361  1.00  0.00    -0.244 A  
HETATM   13  C   UNL     1     -11.877  12.762  66.774  1.00  0.00    -0.452 A  
HETATM   14  O   UNL     1     -10.472  11.460  65.400  1.00  0.00    -0.264 OA 
HETATM   15  C   UNL     1      -9.487  13.039  66.915  1.00  0.00    -0.242 A  
HETATM   16  C   UNL     1     -12.049  13.750  67.747  1.00  0.00    -0.325 A  
HETATM   17  H   UNL     1     -11.233  11.036  65.020  1.00  0.00     0.000 HD 
ENDBRANCH   7  10
ENDBRANCH   5   7
ENDBRANCH   3   5
ENDBRANCH   2   3
BRANCH   2  18
HETATM   18  C   UNL     1     -13.151  11.640  71.717  1.00  0.00    -0.487 C  
BRANCH  18  19
HETATM   19  C   UNL     1     -12.479  10.986  70.504  1.00  0.00    -0.432 C  
BRANCH  19  20
HETATM   20  C   UNL     1     -11.522   9.917  70.987  1.00  0.00    -0.466 A  
HETATM   21  C   UNL     1     -10.233   9.822  70.444  1.00  0.00    -0.343 A  
HETATM   22  C   UNL     1      -9.390   8.768  70.802  1.00  0.00    -0.253 A  
HETATM   23  C   UNL     1     -11.102   7.891  72.260  1.00  0.00    -0.376 A  
HETATM   24  C   UNL     1     -11.946   8.945  71.904  1.00  0.00    -0.441 A  
HETATM   25  C   UNL     1      -9.827   7.799  71.704  1.00  0.00    -0.201 A  
ENDBRANCH  19  20
ENDBRANCH  18  19
ENDBRANCH   2  18
TORSDOF 7
ENDMDL
MODEL      120
REMARK 921   NORMALIZED FREE ENERGY PREDICTED BY IDOCK:   -4.75 KCAL/MOL
REMARK 922        TOTAL FREE ENERGY PREDICTED BY IDOCK:   -8.33 KCAL/MOL
REMARK 923 INTER-LIGAND FREE ENERGY PREDICTED BY IDOCK:   -7.06 KCAL/MOL
REMARK 924 INTRA-LIGAND FREE ENERGY PREDICTED BY IDOCK:   -1.27 KCAL/MOL
REMARK 927      BINDING AFFINITY PREDICTED BY RF-SCORE:    0.00 PKD
ROOT
HETATM    1  C   UNL     1     -12.025  12.245  63.338  1.00  0.00    -0.588 C  
HETATM    2  C   UNL     1     -10.812  12.081  64.266  1.00  0.00    -0.339 C  
ENDROOT
BRANCH   2   3
HETATM    3  N   UNL     1     -10.387  13.353  64.871  1.00  0.00    -0.447 NA 
HETATM    4  H   UNL     1     -10.936  14.122  64.487  1.00  0.00     0.000 HD 
BRANCH   3   5
HETATM    5  C   UNL     1     -10.416  13.404  66.359  1.00  0.00    -0.286 C  
HETATM    6  C   UNL     1      -9.038  13.761  66.925  1.00  0.00    -0.253 C  
BRANCH   5   7
HETATM    7  C   UNL     1     -11.487  14.448  66.832  1.00  0.00    -0.366 C  
HETATM    8  H   UNL     1     -13.402  14.713  66.553  1.00  0.00     0.000 HD 
HETATM    9  O   UNL     1     -12.753  14.080  66.266  1.00  0.00    -0.414 OA 
BRANCH   7  10
HETATM   10  C   UNL     1     -11.645  14.614  68.340  1.00  0.00    -0.351 A  
HETATM   11  C   UNL     1     -11.499  15.857  68.983  1.00  0.00    -0.380 A  
HETATM   12  C   UNL     1     -11.981  14.860  71.122  1.00  0.00    -0.335 A  
HETATM   13  C   UNL     1     -12.165  13.629  70.514  1.00  0.00    -0.438 A  
HETATM   14  O   UNL     1     -12.130  14.936  72.476  1.00  0.00    -0.336 OA 
HETATM   15  C   UNL     1     -11.653  15.979  70.368  1.00  0.00    -0.364 A  
HETATM   16  C   UNL     1     -12.007  13.508  69.131  1.00  0.00    -0.378 A  
HETATM   17  H   UNL     1     -12.354  14.170  72.992  1.00  0.00     0.000 HD 
ENDBRANCH   7  10
ENDBRANCH   5   7
ENDBRANCH   3   5
ENDBRANCH   2   3
BRANCH   2  18
HETATM   18  C   UNL     1      -9.663  11.494  63.420  1.00  0.00    -0.379 C  
BRANCH  18  19
HETATM   19  C   UNL     1      -9.301  10.036  63.723  1.00  0.00    -0.307 C  
BRANCH  19  20
HETATM   20  C   UNL     1      -8.988   9.901  65.198  1.00  0.00    -0.235 A  
HETATM   21  C   UNL     1      -7.885  10.566  65.752  1.00  0.00    -0.154 A  
HETATM   22  C   UNL     1      -7.525  10.351  67.083  1.00  0.00    -0.092 A  
HETATM   23  C   UNL     1      -9.368   8.814  67.336  1.00  0.00    -0.166 A  
HETATM   24  C   UNL     1      -9.730   9.028  66.005  1.00  0.00    -0.339 A  
HETATM   25  C   UNL     1      -8.262   9.471  67.873  1.00  0.00    -0.114 A  
ENDBRANCH  19  20
ENDBRANCH  18  19
ENDBRANCH   2  18
TORSDOF 7
ENDMDL
MODEL      121
REMARK 921   NORMALIZED FREE ENERGY PREDICTED BY IDOCK:   -4.74 KCAL/MOL
REMARK 922        TOTAL FREE ENERGY PREDICTED BY IDOCK:   -8.31 KCAL/MOL
REMARK 923 INTER-LIGAND FREE ENERGY PREDICTED BY IDOCK:   -7.61 KCAL/MOL
REMARK 924 INTRA-LIGAND FREE ENERGY PREDICTED BY IDOCK:   -0.70 KCAL/MOL
REMARK 927      BINDING AFFINITY PREDICTED BY RF-SCORE:    0.00 PKD
ROOT
HETATM    1  C   UNL     1     -11.641   8.623  72.152  1.00  0.00    -0.440 C  
HETATM    2  C   UNL     1     -11.372   9.060  70.704  1.00  0.00    -0.265 C  
ENDROOT
BRANCH   2   3
HETATM    3  N   UNL     1      -9.942   9.277  70.435  1.00  0.00    -0.219 NA 
HETATM    4  H   UNL     1      -9.380   8.656  71.018  1.00  0.00     0.000 HD 
BRANCH   3   5
HETATM    5  C   UNL     1      -9.525   9.152  69.012  1.00  0.00    -0.152 C  
HETATM    6  C   UNL     1     -10.506   8.275  68.225  1.00  0.00    -0.211 C  
BRANCH   5   7
HETATM    7  C   UNL     1      -9.425  10.576  68.362  1.00  0.00    -0.157 C  
HETATM    8  H   UNL     1      -8.102  12.013  68.336  1.00  0.00     0.000 HD 
HETATM    9  O   UNL     1      -8.163  11.150  68.729  1.00  0.00    -0.142 OA 
BRANCH   7  10
HETATM   10  C   UNL     1      -9.577  10.636  66.845  1.00  0.00    -0.200 A  
HETATM   11  C   UNL     1      -8.619  10.094  65.968  1.00  0.00    -0.150 A  
HETATM   12  C   UNL     1      -9.930  10.749  64.057  1.00  0.00    -0.342 A  
HETATM   13  C   UNL     1     -10.908  11.261  64.894  1.00  0.00    -0.299 A  
HETATM   14  O   UNL     1     -10.126  10.841  62.710  1.00  0.00    -0.673 OA 
HETATM   15  C   UNL     1      -8.787  10.160  64.581  1.00  0.00    -0.220 A  
HETATM   16  C   UNL     1     -10.736  11.197  66.279  1.00  0.00    -0.298 A  
HETATM   17  H   UNL     1     -10.908  11.245  62.351  1.00  0.00     0.000 HD 
ENDBRANCH   7  10
ENDBRANCH   5   7
ENDBRANCH   3   5
ENDBRANCH   2   3
BRANCH   2  18
HETATM   18  C   UNL     1     -12.154  10.369  70.468  1.00  0.00    -0.423 C  
BRANCH  18  19
HETATM   19  C   UNL     1     -12.950  10.887  71.671  1.00  0.00    -0.569 C  
BRANCH  19  20
HETATM   20  C   UNL     1     -13.005  12.399  71.612  1.00  0.00    -0.409 A  
HETATM   21  C   UNL     1     -13.809  13.114  72.511  1.00  0.00    -0.495 A  
HETATM   22  C   UNL     1     -13.953  14.497  72.385  1.00  0.00    -0.580 A  
HETATM   23  C   UNL     1     -12.483  14.478  70.471  1.00  0.00    -0.408 A  
HETATM   24  C   UNL     1     -12.337  13.095  70.595  1.00  0.00    -0.405 A  
HETATM   25  C   UNL     1     -13.295  15.178  71.362  1.00  0.00    -0.547 A  
ENDBRANCH  19  20
ENDBRANCH  18  19
ENDBRANCH   2  18
TORSDOF 7
ENDMDL
MODEL      122
REMARK 921   NORMALIZED FREE ENERGY PREDICTED BY IDOCK:   -4.72 KCAL/MOL
REMARK 922        TOTAL FREE ENERGY PREDICTED BY IDOCK:   -8.29 KCAL/MOL
REMARK 923 INTER-LIGAND FREE ENERGY PREDICTED BY IDOCK:   -7.55 KCAL/MOL
REMARK 924 INTRA-LIGAND FREE ENERGY PREDICTED BY IDOCK:   -0.74 KCAL/MOL
REMARK 927      BINDING AFFINITY PREDICTED BY RF-SCORE:    0.00 PKD
ROOT
HETATM    1  C   UNL     1      -8.066  14.094  68.573  1.00  0.00    -0.143 C  
HETATM    2  C   UNL     1      -9.394  13.797  67.860  1.00  0.00    -0.211 C  
ENDROOT
BRANCH   2   3
HETATM    3  N   UNL     1     -10.528  14.527  68.447  1.00  0.00    -0.240 NA 
HETATM    4  H   UNL     1     -10.350  14.710  69.435  1.00  0.00     0.000 HD 
BRANCH   3   5
HETATM    5  C   UNL     1     -10.912  15.789  67.758  1.00  0.00    -0.314 C  
HETATM    6  C   UNL     1     -10.770  16.994  68.696  1.00  0.00    -0.333 C  
BRANCH   5   7
HETATM    7  C   UNL     1     -10.023  15.986  66.480  1.00  0.00    -0.279 C  
HETATM    8  H   UNL     1     -10.327  15.984  64.551  1.00  0.00     0.000 HD 
HETATM    9  O   UNL     1     -10.866  15.865  65.325  1.00  0.00    -0.388 OA 
BRANCH   7  10
HETATM   10  C   UNL     1      -9.248  17.297  66.395  1.00  0.00    -0.278 A  
HETATM   11  C   UNL     1      -7.842  17.346  66.413  1.00  0.00    -0.337 A  
HETATM   12  C   UNL     1      -7.877  19.746  66.202  1.00  0.00    -0.335 A  
HETATM   13  C   UNL     1      -9.261  19.728  66.147  1.00  0.00    -0.418 A  
HETATM   14  O   UNL     1      -7.247  20.954  66.128  1.00  0.00    -0.497 OA 
HETATM   15  C   UNL     1      -7.158  18.564  66.329  1.00  0.00    -0.284 A  
HETATM   16  C   UNL     1      -9.942  18.511  66.235  1.00  0.00    -0.384 A  
HETATM   17  H   UNL     1      -7.739  21.763  66.041  1.00  0.00     0.000 HD 
ENDBRANCH   7  10
ENDBRANCH   5   7
ENDBRANCH   3   5
ENDBRANCH   2   3
BRANCH   2  18
HETATM   18  C   UNL     1      -9.639  12.277  67.963  1.00  0.00    -0.206 C  
BRANCH  18  19
HETATM   19  C   UNL     1     -11.066  11.817  67.644  1.00  0.00    -0.312 C  
BRANCH  19  20
HETATM   20  C   UNL     1     -11.246  11.769  66.142  1.00  0.00    -0.363 A  
HETATM   21  C   UNL     1     -10.413  10.963  65.354  1.00  0.00    -0.291 A  
HETATM   22  C   UNL     1     -10.498  11.006  63.961  1.00  0.00    -0.433 A  
HETATM   23  C   UNL     1     -12.258  12.651  64.118  1.00  0.00    -0.532 A  
HETATM   24  C   UNL     1     -12.174  12.608  65.511  1.00  0.00    -0.501 A  
HETATM   25  C   UNL     1     -11.416  11.854  63.343  1.00  0.00    -0.470 A  
ENDBRANCH  19  20
ENDBRANCH  18  19
ENDBRANCH   2  18
TORSDOF 7
ENDMDL
MODEL      123
REMARK 921   NORMALIZED FREE ENERGY PREDICTED BY IDOCK:   -4.70 KCAL/MOL
REMARK 922        TOTAL FREE ENERGY PREDICTED BY IDOCK:   -8.25 KCAL/MOL
REMARK 923 INTER-LIGAND FREE ENERGY PREDICTED BY IDOCK:   -6.47 KCAL/MOL
REMARK 924 INTRA-LIGAND FREE ENERGY PREDICTED BY IDOCK:   -1.78 KCAL/MOL
REMARK 927      BINDING AFFINITY PREDICTED BY RF-SCORE:    0.00 PKD
ROOT
HETATM    1  C   UNL     1      -8.495   8.412  65.138  1.00  0.00    -0.179 C  
HETATM    2  C   UNL     1      -8.967   9.508  66.105  1.00  0.00    -0.158 C  
ENDROOT
BRANCH   2   3
HETATM    3  N   UNL     1      -9.068   9.032  67.494  1.00  0.00    -0.132 NA 
HETATM    4  H   UNL     1      -8.493   9.613  68.103  1.00  0.00     0.000 HD 
BRANCH   3   5
HETATM    5  C   UNL     1     -10.447   8.929  68.044  1.00  0.00    -0.208 C  
HETATM    6  C   UNL     1     -10.885   7.466  68.164  1.00  0.00    -0.100 C  
BRANCH   5   7
HETATM    7  C   UNL     1     -10.512   9.634  69.445  1.00  0.00    -0.220 C  
HETATM    8  H   UNL     1      -9.229  10.075  70.849  1.00  0.00     0.000 HD 
HETATM    9  O   UNL     1      -9.190   9.648  70.001  1.00  0.00    -0.212 OA 
BRANCH   7  10
HETATM   10  C   UNL     1     -11.073  11.052  69.459  1.00  0.00    -0.322 A  
HETATM   11  C   UNL     1     -10.756  12.000  68.469  1.00  0.00    -0.261 A  
HETATM   12  C   UNL     1     -12.168  13.642  69.523  1.00  0.00    -0.264 A  
HETATM   13  C   UNL     1     -12.527  12.721  70.493  1.00  0.00    -0.280 A  
HETATM   14  O   UNL     1     -12.703  14.896  69.600  1.00  0.00    -0.584 OA 
HETATM   15  C   UNL     1     -11.290  13.293  68.506  1.00  0.00    -0.319 A  
HETATM   16  C   UNL     1     -11.990  11.432  70.457  1.00  0.00    -0.451 A  
HETATM   17  H   UNL     1     -13.303  15.135  70.297  1.00  0.00     0.000 HD 
ENDBRANCH   7  10
ENDBRANCH   5   7
ENDBRANCH   3   5
ENDBRANCH   2   3
BRANCH   2  18
HETATM   18  C   UNL     1     -10.348   9.989  65.614  1.00  0.00    -0.171 C  
BRANCH  18  19
HETATM   19  C   UNL     1     -10.347  10.746  64.282  1.00  0.00    -0.401 C  
BRANCH  19  20
HETATM   20  C   UNL     1     -10.973  12.109  64.489  1.00  0.00    -0.361 A  
HETATM   21  C   UNL     1     -10.174  13.262  64.498  1.00  0.00    -0.332 A  
HETATM   22  C   UNL     1     -10.730  14.505  64.805  1.00  0.00    -0.414 A  
HETATM   23  C   UNL     1     -12.893  13.471  65.085  1.00  0.00    -0.381 A  
HETATM   24  C   UNL     1     -12.339  12.227  64.778  1.00  0.00    -0.416 A  
HETATM   25  C   UNL     1     -12.088  14.609  65.104  1.00  0.00    -0.308 A  
ENDBRANCH  19  20
ENDBRANCH  18  19
ENDBRANCH   2  18
TORSDOF 7
ENDMDL
MODEL      124
REMARK 921   NORMALIZED FREE ENERGY PREDICTED BY IDOCK:   -4.69 KCAL/MOL
REMARK 922        TOTAL FREE ENERGY PREDICTED BY IDOCK:   -8.24 KCAL/MOL
REMARK 923 INTER-LIGAND FREE ENERGY PREDICTED BY IDOCK:   -7.29 KCAL/MOL
REMARK 924 INTRA-LIGAND FREE ENERGY PREDICTED BY IDOCK:   -0.95 KCAL/MOL
REMARK 927      BINDING AFFINITY PREDICTED BY RF-SCORE:    0.00 PKD
ROOT
HETATM    1  C   UNL     1     -11.329  15.940  68.248  1.00  0.00    -0.342 C  
HETATM    2  C   UNL     1     -10.285  14.902  68.686  1.00  0.00    -0.236 C  
ENDROOT
BRANCH   2   3
HETATM    3  N   UNL     1      -8.925  15.246  68.243  1.00  0.00    -0.172 NA 
HETATM    4  H   UNL     1      -8.952  16.070  67.643  1.00  0.00     0.000 HD 
BRANCH   3   5
HETATM    5  C   UNL     1      -7.921  15.441  69.325  1.00  0.00    -0.229 C  
HETATM    6  C   UNL     1      -6.894  14.303  69.335  1.00  0.00    -0.122 C  
BRANCH   5   7
HETATM    7  C   UNL     1      -7.201  16.822  69.138  1.00  0.00    -0.214 C  
HETATM    8  H   UNL     1      -5.439  17.411  68.537  1.00  0.00     0.000 HD 
HETATM    9  O   UNL     1      -5.875  16.574  68.650  1.00  0.00    -0.121 OA 
BRANCH   7  10
HETATM   10  C   UNL     1      -7.892  17.821  68.215  1.00  0.00    -0.279 A  
HETATM   11  C   UNL     1      -7.544  17.964  66.860  1.00  0.00    -0.236 A  
HETATM   12  C   UNL     1      -9.228  19.659  66.557  1.00  0.00    -0.378 A  
HETATM   13  C   UNL     1      -9.618  19.518  67.879  1.00  0.00    -0.445 A  
HETATM   14  O   UNL     1      -9.885  20.577  65.790  1.00  0.00    -0.624 OA 
HETATM   15  C   UNL     1      -8.199  18.886  66.036  1.00  0.00    -0.126 A  
HETATM   16  C   UNL     1      -8.960  18.599  68.701  1.00  0.00    -0.337 A  
HETATM   17  H   UNL     1     -10.589  21.107  66.146  1.00  0.00     0.000 HD 
ENDBRANCH   7  10
ENDBRANCH   5   7
ENDBRANCH   3   5
ENDBRANCH   2   3
BRANCH   2  18
HETATM   18  C   UNL     1     -10.706  13.546  68.082  1.00  0.00    -0.265 C  
BRANCH  18  19
HETATM   19  C   UNL     1     -11.982  13.570  67.233  1.00  0.00    -0.408 C  
BRANCH  19  20
HETATM   20  C   UNL     1     -11.745  12.782  65.963  1.00  0.00    -0.470 A  
HETATM   21  C   UNL     1     -10.733  11.813  65.909  1.00  0.00    -0.328 A  
HETATM   22  C   UNL     1     -10.435  11.168  64.707  1.00  0.00    -0.388 A  
HETATM   23  C   UNL     1     -12.161  12.436  63.595  1.00  0.00    -0.653 A  
HETATM   24  C   UNL     1     -12.461  13.082  64.796  1.00  0.00    -0.485 A  
HETATM   25  C   UNL     1     -11.145  11.484  63.550  1.00  0.00    -0.434 A  
ENDBRANCH  19  20
ENDBRANCH  18  19
ENDBRANCH   2  18
TORSDOF 7
ENDMDL
MODEL      125
REMARK 921   NORMALIZED FREE ENERGY PREDICTED BY IDOCK:   -4.68 KCAL/MOL
REMARK 922        TOTAL FREE ENERGY PREDICTED BY IDOCK:   -8.23 KCAL/MOL
REMARK 923 INTER-LIGAND FREE ENERGY PREDICTED BY IDOCK:   -7.30 KCAL/MOL
REMARK 924 INTRA-LIGAND FREE ENERGY PREDICTED BY IDOCK:   -0.94 KCAL/MOL
REMARK 927      BINDING AFFINITY PREDICTED BY RF-SCORE:    0.00 PKD
ROOT
HETATM    1  C   UNL     1      -7.845  10.169  69.433  1.00  0.00    -0.150 C  
HETATM    2  C   UNL     1      -8.468  11.098  68.380  1.00  0.00    -0.151 C  
ENDROOT
BRANCH   2   3
HETATM    3  N   UNL     1      -9.513  11.968  68.940  1.00  0.00    -0.407 NA 
HETATM    4  H   UNL     1      -9.291  12.946  68.749  1.00  0.00     0.000 HD 
BRANCH   3   5
HETATM    5  C   UNL     1     -10.905  11.670  68.506  1.00  0.00    -0.219 C  
HETATM    6  C   UNL     1     -11.546  10.605  69.403  1.00  0.00    -0.352 C  
BRANCH   5   7
HETATM    7  C   UNL     1     -11.760  12.986  68.527  1.00  0.00    -0.342 C  
HETATM    8  H   UNL     1     -11.900  14.544  69.695  1.00  0.00     0.000 HD 
HETATM    9  O   UNL     1     -11.382  13.748  69.682  1.00  0.00    -0.243 OA 
BRANCH   7  10
HETATM   10  C   UNL     1     -11.660  13.873  67.291  1.00  0.00    -0.393 A  
HETATM   11  C   UNL     1     -10.807  14.990  67.230  1.00  0.00    -0.310 A  
HETATM   12  C   UNL     1     -11.495  15.451  64.968  1.00  0.00    -0.263 A  
HETATM   13  C   UNL     1     -12.318  14.338  64.984  1.00  0.00    -0.434 A  
HETATM   14  O   UNL     1     -11.458  16.205  63.831  1.00  0.00    -1.351 OA 
HETATM   15  C   UNL     1     -10.732  15.784  66.080  1.00  0.00    -0.311 A  
HETATM   16  C   UNL     1     -12.394  13.549  66.135  1.00  0.00    -0.463 A  
HETATM   17  H   UNL     1     -11.980  15.978  63.070  1.00  0.00     0.000 HD 
ENDBRANCH   7  10
ENDBRANCH   5   7
ENDBRANCH   3   5
ENDBRANCH   2   3
BRANCH   2  18
HETATM   18  C   UNL     1      -9.067  10.202  67.276  1.00  0.00    -0.151 C  
BRANCH  18  19
HETATM   19  C   UNL     1      -8.208   9.002  66.862  1.00  0.00    -0.116 C  
BRANCH  19  20
HETATM   20  C   UNL     1      -9.095   7.782  66.731  1.00  0.00    -0.185 A  
HETATM   21  C   UNL     1     -10.358   7.755  67.341  1.00  0.00    -0.354 A  
HETATM   22  C   UNL     1     -11.128   6.591  67.321  1.00  0.00    -0.429 A  
HETATM   23  C   UNL     1      -9.397   5.465  66.071  1.00  0.00    -0.167 A  
HETATM   24  C   UNL     1      -8.626   6.628  66.089  1.00  0.00    -0.148 A  
HETATM   25  C   UNL     1     -10.645   5.445  66.691  1.00  0.00    -0.359 A  
ENDBRANCH  19  20
ENDBRANCH  18  19
ENDBRANCH   2  18
TORSDOF 7
ENDMDL
MODEL      126
REMARK 921   NORMALIZED FREE ENERGY PREDICTED BY IDOCK:   -4.67 KCAL/MOL
REMARK 922        TOTAL FREE ENERGY PREDICTED BY IDOCK:   -8.21 KCAL/MOL
REMARK 923 INTER-LIGAND FREE ENERGY PREDICTED BY IDOCK:   -7.26 KCAL/MOL
REMARK 924 INTRA-LIGAND FREE ENERGY PREDICTED BY IDOCK:   -0.95 KCAL/MOL
REMARK 927      BINDING AFFINITY PREDICTED BY RF-SCORE:    0.00 PKD
ROOT
HETATM    1  C   UNL     1      -7.879  15.121  67.104  1.00  0.00    -0.240 C  
HETATM    2  C   UNL     1      -8.742  15.345  68.355  1.00  0.00    -0.171 C  
ENDROOT
BRANCH   2   3
HETATM    3  N   UNL     1      -9.266  14.089  68.914  1.00  0.00    -0.393 NA 
HETATM    4  H   UNL     1     -10.037  14.287  69.551  1.00  0.00     0.000 HD 
BRANCH   3   5
HETATM    5  C   UNL     1      -9.680  13.061  67.920  1.00  0.00    -0.218 C  
HETATM    6  C   UNL     1      -9.028  11.707  68.224  1.00  0.00    -0.185 C  
BRANCH   5   7
HETATM    7  C   UNL     1     -11.243  12.925  67.919  1.00  0.00    -0.269 C  
HETATM    8  H   UNL     1     -12.534  11.627  67.239  1.00  0.00     0.000 HD 
HETATM    9  O   UNL     1     -11.587  11.710  67.240  1.00  0.00    -0.484 OA 
BRANCH   7  10
HETATM   10  C   UNL     1     -11.920  12.941  69.285  1.00  0.00    -0.313 A  
HETATM   11  C   UNL     1     -12.068  11.782  70.069  1.00  0.00    -0.387 A  
HETATM   12  C   UNL     1     -13.150  13.042  71.813  1.00  0.00    -0.373 A  
HETATM   13  C   UNL     1     -12.990  14.206  71.081  1.00  0.00    -0.419 A  
HETATM   14  O   UNL     1     -13.772  13.126  73.025  1.00  0.00    -0.596 OA 
HETATM   15  C   UNL     1     -12.690  11.827  71.321  1.00  0.00    -0.420 A  
HETATM   16  C   UNL     1     -12.371  14.158  69.829  1.00  0.00    -0.350 A  
HETATM   17  H   UNL     1     -14.087  13.957  73.362  1.00  0.00     0.000 HD 
ENDBRANCH   7  10
ENDBRANCH   5   7
ENDBRANCH   3   5
ENDBRANCH   2   3
BRANCH   2  18
HETATM   18  C   UNL     1      -9.912  16.264  67.945  1.00  0.00    -0.241 C  
BRANCH  18  19
HETATM   19  C   UNL     1      -9.873  17.680  68.531  1.00  0.00    -0.346 C  
BRANCH  19  20
HETATM   20  C   UNL     1      -8.720  18.440  67.911  1.00  0.00    -0.296 A  
HETATM   21  C   UNL     1      -7.660  18.893  68.708  1.00  0.00    -0.368 A  
HETATM   22  C   UNL     1      -6.655  19.694  68.162  1.00  0.00    -0.295 A  
HETATM   23  C   UNL     1      -7.744  19.594  66.010  1.00  0.00    -0.335 A  
HETATM   24  C   UNL     1      -8.749  18.792  66.555  1.00  0.00    -0.317 A  
HETATM   25  C   UNL     1      -6.701  20.049  66.815  1.00  0.00    -0.241 A  
ENDBRANCH  19  20
ENDBRANCH  18  19
ENDBRANCH   2  18
TORSDOF 7
ENDMDL
MODEL      127
REMARK 921   NORMALIZED FREE ENERGY PREDICTED BY IDOCK:   -4.66 KCAL/MOL
REMARK 922        TOTAL FREE ENERGY PREDICTED BY IDOCK:   -8.20 KCAL/MOL
REMARK 923 INTER-LIGAND FREE ENERGY PREDICTED BY IDOCK:   -5.85 KCAL/MOL
REMARK 924 INTRA-LIGAND FREE ENERGY PREDICTED BY IDOCK:   -2.35 KCAL/MOL
REMARK 927      BINDING AFFINITY PREDICTED BY RF-SCORE:    0.00 PKD
ROOT
HETATM    1  C   UNL     1     -10.128  18.832  66.017  1.00  0.00    -0.353 C  
HETATM    2  C   UNL     1     -10.208  19.229  67.498  1.00  0.00    -0.414 C  
ENDROOT
BRANCH   2   3
HETATM    3  N   UNL     1      -8.891  19.241  68.153  1.00  0.00    -0.319 NA 
HETATM    4  H   UNL     1      -8.804  18.436  68.773  1.00  0.00     0.000 HD 
BRANCH   3   5
HETATM    5  C   UNL     1      -7.716  19.310  67.242  1.00  0.00    -0.245 C  
HETATM    6  C   UNL     1      -7.142  20.730  67.189  1.00  0.00    -0.404 C  
BRANCH   5   7
HETATM    7  C   UNL     1      -6.617  18.296  67.719  1.00  0.00    -0.204 C  
HETATM    8  H   UNL     1      -5.367  18.190  69.216  1.00  0.00     0.000 HD 
HETATM    9  O   UNL     1      -6.033  18.803  68.928  1.00  0.00    -0.207 OA 
BRANCH   7  10
HETATM   10  C   UNL     1      -7.080  16.862  67.954  1.00  0.00    -0.162 A  
HETATM   11  C   UNL     1      -7.528  16.033  66.909  1.00  0.00    -0.253 A  
HETATM   12  C   UNL     1      -7.892  14.214  68.447  1.00  0.00    -0.143 A  
HETATM   13  C   UNL     1      -7.423  14.994  69.491  1.00  0.00    -0.194 A  
HETATM   14  O   UNL     1      -8.297  12.942  68.728  1.00  0.00    -0.345 OA 
HETATM   15  C   UNL     1      -7.944  14.719  67.154  1.00  0.00    -0.205 A  
HETATM   16  C   UNL     1      -7.012  16.307  69.245  1.00  0.00    -0.217 A  
HETATM   17  H   UNL     1      -8.262  12.597  69.613  1.00  0.00     0.000 HD 
ENDBRANCH   7  10
ENDBRANCH   5   7
ENDBRANCH   3   5
ENDBRANCH   2   3
BRANCH   2  18
HETATM   18  C   UNL     1     -11.132  18.210  68.197  1.00  0.00     0.254 C  
BRANCH  18  19
HETATM   19  C   UNL     1     -10.417  17.085  68.955  1.00  0.00    -0.347 C  
BRANCH  19  20
HETATM   20  C   UNL     1     -11.045  15.760  68.578  1.00  0.00    -0.335 A  
HETATM   21  C   UNL     1     -11.387  14.830  69.571  1.00  0.00    -0.312 A  
HETATM   22  C   UNL     1     -11.856  13.563  69.221  1.00  0.00    -0.392 A  
HETATM   23  C   UNL     1     -11.662  14.133  66.884  1.00  0.00    -0.437 A  
HETATM   24  C   UNL     1     -11.194  15.401  67.231  1.00  0.00    -0.270 A  
HETATM   25  C   UNL     1     -11.988  13.212  67.879  1.00  0.00    -0.347 A  
ENDBRANCH  19  20
ENDBRANCH  18  19
ENDBRANCH   2  18
TORSDOF 7
ENDMDL
MODEL      128
REMARK 921   NORMALIZED FREE ENERGY PREDICTED BY IDOCK:   -4.65 KCAL/MOL
REMARK 922        TOTAL FREE ENERGY PREDICTED BY IDOCK:   -8.18 KCAL/MOL
REMARK 923 INTER-LIGAND FREE ENERGY PREDICTED BY IDOCK:   -7.33 KCAL/MOL
REMARK 924 INTRA-LIGAND FREE ENERGY PREDICTED BY IDOCK:   -0.85 KCAL/MOL
REMARK 927      BINDING AFFINITY PREDICTED BY RF-SCORE:    0.00 PKD
ROOT
HETATM    1  C   UNL     1     -12.253   9.385  72.069  1.00  0.00    -0.396 C  
HETATM    2  C   UNL     1     -11.172   9.636  71.007  1.00  0.00    -0.375 C  
ENDROOT
BRANCH   2   3
HETATM    3  N   UNL     1     -11.735   9.844  69.664  1.00  0.00    -0.456 NA 
HETATM    4  H   UNL     1     -12.733  10.044  69.732  1.00  0.00     0.000 HD 
BRANCH   3   5
HETATM    5  C   UNL     1     -11.065  10.884  68.835  1.00  0.00    -0.252 C  
HETATM    6  C   UNL     1     -10.636  10.314  67.478  1.00  0.00    -0.320 C  
BRANCH   5   7
HETATM    7  C   UNL     1     -12.031  12.103  68.633  1.00  0.00    -0.237 C  
HETATM    8  H   UNL     1     -12.694  13.563  69.748  1.00  0.00     0.000 HD 
HETATM    9  O   UNL     1     -12.108  12.825  69.870  1.00  0.00    -0.308 OA 
BRANCH   7  10
HETATM   10  C   UNL     1     -11.666  13.072  67.513  1.00  0.00    -0.421 A  
HETATM   11  C   UNL     1     -12.352  13.101  66.285  1.00  0.00    -0.346 A  
HETATM   12  C   UNL     1     -10.965  14.907  65.499  1.00  0.00    -0.350 A  
HETATM   13  C   UNL     1     -10.293  14.927  66.710  1.00  0.00    -0.269 A  
HETATM   14  O   UNL     1     -10.581  15.797  64.538  1.00  0.00    -0.720 OA 
HETATM   15  C   UNL     1     -11.997  14.005  65.277  1.00  0.00    -0.384 A  
HETATM   16  C   UNL     1     -10.646  14.021  67.714  1.00  0.00    -0.244 A  
HETATM   17  H   UNL     1      -9.875  16.414  64.690  1.00  0.00     0.000 HD 
ENDBRANCH   7  10
ENDBRANCH   5   7
ENDBRANCH   3   5
ENDBRANCH   2   3
BRANCH   2  18
HETATM   18  C   UNL     1     -10.241   8.406  71.000  1.00  0.00    -0.245 C  
BRANCH  18  19
HETATM   19  C   UNL     1     -10.789   7.169  70.278  1.00  0.00    -0.271 C  
BRANCH  19  20
HETATM   20  C   UNL     1     -10.627   5.961  71.176  1.00  0.00    -0.306 A  
HETATM   21  C   UNL     1     -11.398   5.836  72.340  1.00  0.00    -0.348 A  
HETATM   22  C   UNL     1     -11.169   4.784  73.230  1.00  0.00    -0.421 A  
HETATM   23  C   UNL     1      -9.407   3.958  71.804  1.00  0.00    -0.197 A  
HETATM   24  C   UNL     1      -9.634   5.008  70.912  1.00  0.00    -0.242 A  
HETATM   25  C   UNL     1     -10.170   3.849  72.965  1.00  0.00    -0.228 A  
ENDBRANCH  19  20
ENDBRANCH  18  19
ENDBRANCH   2  18
TORSDOF 7
ENDMDL
MODEL      129
REMARK 921   NORMALIZED FREE ENERGY PREDICTED BY IDOCK:   -4.63 KCAL/MOL
REMARK 922        TOTAL FREE ENERGY PREDICTED BY IDOCK:   -8.16 KCAL/MOL
REMARK 923 INTER-LIGAND FREE ENERGY PREDICTED BY IDOCK:   -7.24 KCAL/MOL
REMARK 924 INTRA-LIGAND FREE ENERGY PREDICTED BY IDOCK:   -0.93 KCAL/MOL
REMARK 927      BINDING AFFINITY PREDICTED BY RF-SCORE:    0.00 PKD
ROOT
HETATM    1  C   UNL     1     -12.707  15.260  70.858  1.00  0.00    -0.496 C  
HETATM    2  C   UNL     1     -11.717  15.154  69.688  1.00  0.00    -0.327 C  
ENDROOT
BRANCH   2   3
HETATM    3  N   UNL     1     -10.818  13.996  69.810  1.00  0.00    -0.456 NA 
HETATM    4  H   UNL     1     -11.096  13.422  70.606  1.00  0.00     0.000 HD 
BRANCH   3   5
HETATM    5  C   UNL     1     -10.686  13.148  68.594  1.00  0.00    -0.250 C  
HETATM    6  C   UNL     1      -9.330  12.434  68.564  1.00  0.00    -0.090 C  
BRANCH   5   7
HETATM    7  C   UNL     1     -11.854  12.100  68.550  1.00  0.00    -0.310 C  
HETATM    8  H   UNL     1     -12.430  10.699  67.319  1.00  0.00     0.000 HD 
HETATM    9  O   UNL     1     -11.722  11.333  67.345  1.00  0.00    -0.580 OA 
BRANCH   7  10
HETATM   10  C   UNL     1     -11.948  11.149  69.739  1.00  0.00    -0.428 A  
HETATM   11  C   UNL     1     -12.814  11.379  70.824  1.00  0.00    -0.255 A  
HETATM   12  C   UNL     1     -12.102   9.338  71.886  1.00  0.00    -0.370 A  
HETATM   13  C   UNL     1     -11.265   9.066  70.817  1.00  0.00    -0.329 A  
HETATM   14  O   UNL     1     -12.133   8.448  72.920  1.00  0.00    -0.498 OA 
HETATM   15  C   UNL     1     -12.883  10.486  71.898  1.00  0.00    -0.509 A  
HETATM   16  C   UNL     1     -11.195   9.961  69.746  1.00  0.00    -0.279 A  
HETATM   17  H   UNL     1     -11.598   7.663  72.912  1.00  0.00     0.000 HD 
ENDBRANCH   7  10
ENDBRANCH   5   7
ENDBRANCH   3   5
ENDBRANCH   2   3
BRANCH   2  18
HETATM   18  C   UNL     1     -10.893  16.458  69.665  1.00  0.00    -0.346 C  
BRANCH  18  19
HETATM   19  C   UNL     1     -10.053  16.685  68.403  1.00  0.00    -0.268 C  
BRANCH  19  20
HETATM   20  C   UNL     1      -8.618  16.950  68.806  1.00  0.00    -0.246 A  
HETATM   21  C   UNL     1      -8.080  18.241  68.702  1.00  0.00    -0.304 A  
HETATM   22  C   UNL     1      -6.726  18.465  68.961  1.00  0.00    -0.280 A  
HETATM   23  C   UNL     1      -6.426  16.120  69.444  1.00  0.00    -0.185 A  
HETATM   24  C   UNL     1      -7.780  15.893  69.186  1.00  0.00    -0.220 A  
HETATM   25  C   UNL     1      -5.899  17.405  69.325  1.00  0.00    -0.210 A  
ENDBRANCH  19  20
ENDBRANCH  18  19
ENDBRANCH   2  18
TORSDOF 7
ENDMDL
MODEL      130
REMARK 921   NORMALIZED FREE ENERGY PREDICTED BY IDOCK:   -4.62 KCAL/MOL
REMARK 922        TOTAL FREE ENERGY PREDICTED BY IDOCK:   -8.14 KCAL/MOL
REMARK 923 INTER-LIGAND FREE ENERGY PREDICTED BY IDOCK:   -6.95 KCAL/MOL
REMARK 924 INTRA-LIGAND FREE ENERGY PREDICTED BY IDOCK:   -1.18 KCAL/MOL
REMARK 927      BINDING AFFINITY PREDICTED BY RF-SCORE:    0.00 PKD
ROOT
HETATM    1  C   UNL     1     -10.370   6.596  67.491  1.00  0.00    -0.262 C  
HETATM    2  C   UNL     1      -9.989   7.775  68.399  1.00  0.00    -0.178 C  
ENDROOT
BRANCH   2   3
HETATM    3  N   UNL     1     -11.156   8.383  69.058  1.00  0.00    -0.415 NA 
HETATM    4  H   UNL     1     -12.014   7.948  68.716  1.00  0.00     0.000 HD 
BRANCH   3   5
HETATM    5  C   UNL     1     -11.139   8.369  70.546  1.00  0.00    -0.252 C  
HETATM    6  C   UNL     1      -9.905   9.099  71.089  1.00  0.00    -0.371 C  
BRANCH   5   7
HETATM    7  C   UNL     1     -12.450   9.032  71.097  1.00  0.00    -0.231 C  
HETATM    8  H   UNL     1     -13.398   9.050  72.804  1.00  0.00     0.000 HD 
HETATM    9  O   UNL     1     -12.604   8.648  72.471  1.00  0.00    -0.392 OA 
BRANCH   7  10
HETATM   10  C   UNL     1     -12.532  10.551  70.992  1.00  0.00    -0.501 A  
HETATM   11  C   UNL     1     -13.132  11.346  71.985  1.00  0.00    -0.423 A  
HETATM   12  C   UNL     1     -12.620  13.353  70.755  1.00  0.00    -0.294 A  
HETATM   13  C   UNL     1     -11.991  12.601  69.777  1.00  0.00    -0.365 A  
HETATM   14  O   UNL     1     -12.663  14.707  70.595  1.00  0.00    -0.335 OA 
HETATM   15  C   UNL     1     -13.188  12.739  71.864  1.00  0.00    -0.511 A  
HETATM   16  C   UNL     1     -11.940  11.210  69.898  1.00  0.00    -0.439 A  
HETATM   17  H   UNL     1     -12.275  15.128  69.836  1.00  0.00     0.000 HD 
ENDBRANCH   7  10
ENDBRANCH   5   7
ENDBRANCH   3   5
ENDBRANCH   2   3
BRANCH   2  18
HETATM   18  C   UNL     1      -9.282   8.824  67.515  1.00  0.00    -0.154 C  
BRANCH  18  19
HETATM   19  C   UNL     1     -10.161   9.489  66.450  1.00  0.00    -0.328 C  
BRANCH  19  20
HETATM   20  C   UNL     1      -9.989  10.990  66.535  1.00  0.00    -0.253 A  
HETATM   21  C   UNL     1      -9.040  11.547  67.406  1.00  0.00    -0.166 A  
HETATM   22  C   UNL     1      -8.960  12.930  67.573  1.00  0.00    -0.193 A  
HETATM   23  C   UNL     1     -10.763  13.229  65.997  1.00  0.00    -0.286 A  
HETATM   24  C   UNL     1     -10.844  11.845  65.827  1.00  0.00    -0.341 A  
HETATM   25  C   UNL     1      -9.825  13.770  66.874  1.00  0.00    -0.264 A  
ENDBRANCH  19  20
ENDBRANCH  18  19
ENDBRANCH   2  18
TORSDOF 7
ENDMDL
MODEL      131
REMARK 921   NORMALIZED FREE ENERGY PREDICTED BY IDOCK:   -4.61 KCAL/MOL
REMARK 922        TOTAL FREE ENERGY PREDICTED BY IDOCK:   -8.13 KCAL/MOL
REMARK 923 INTER-LIGAND FREE ENERGY PREDICTED BY IDOCK:   -6.75 KCAL/MOL
REMARK 924 INTRA-LIGAND FREE ENERGY PREDICTED BY IDOCK:   -1.38 KCAL/MOL
REMARK 927      BINDING AFFINITY PREDICTED BY RF-SCORE:    0.00 PKD
ROOT
HETATM    1  C   UNL     1     -12.101  13.908  67.861  1.00  0.00    -0.318 C  
HETATM    2  C   UNL     1     -11.471  12.611  67.332  1.00  0.00    -0.337 C  
ENDROOT
BRANCH   2   3
HETATM    3  N   UNL     1     -12.023  12.204  66.030  1.00  0.00    -0.585 NA 
HETATM    4  H   UNL     1     -12.910  12.680  65.864  1.00  0.00     0.000 HD 
BRANCH   3   5
HETATM    5  C   UNL     1     -11.122  12.386  64.859  1.00  0.00    -0.303 C  
HETATM    6  C   UNL     1     -10.068  13.463  65.138  1.00  0.00    -0.266 C  
BRANCH   5   7
HETATM    7  C   UNL     1     -10.429  11.023  64.507  1.00  0.00    -0.342 C  
HETATM    8  H   UNL     1      -9.060  10.435  63.245  1.00  0.00     0.000 HD 
HETATM    9  O   UNL     1      -9.480  11.261  63.458  1.00  0.00    -0.245 OA 
BRANCH   7  10
HETATM   10  C   UNL     1      -9.731  10.306  65.658  1.00  0.00    -0.308 A  
HETATM   11  C   UNL     1     -10.254   9.142  66.251  1.00  0.00    -0.257 A  
HETATM   12  C   UNL     1      -8.378   9.011  67.757  1.00  0.00    -0.117 A  
HETATM   13  C   UNL     1      -7.820  10.135  67.170  1.00  0.00    -0.099 A  
HETATM   14  O   UNL     1      -7.704   8.423  68.787  1.00  0.00    -0.098 OA 
HETATM   15  C   UNL     1      -9.589   8.503  67.303  1.00  0.00    -0.220 A  
HETATM   16  C   UNL     1      -8.488  10.774  66.122  1.00  0.00    -0.167 A  
HETATM   17  H   UNL     1      -6.876   8.770  69.097  1.00  0.00     0.000 HD 
ENDBRANCH   7  10
ENDBRANCH   5   7
ENDBRANCH   3   5
ENDBRANCH   2   3
BRANCH   2  18
HETATM   18  C   UNL     1     -11.736  11.512  68.381  1.00  0.00    -0.372 C  
BRANCH  18  19
HETATM   19  C   UNL     1     -10.661  11.362  69.464  1.00  0.00    -0.098 C  
BRANCH  19  20
HETATM   20  C   UNL     1     -11.186  10.455  70.557  1.00  0.00    -0.395 A  
HETATM   21  C   UNL     1     -10.423   9.365  70.999  1.00  0.00    -0.392 A  
HETATM   22  C   UNL     1     -10.952   8.460  71.922  1.00  0.00    -0.375 A  
HETATM   23  C   UNL     1     -13.007   9.724  71.987  1.00  0.00    -0.515 A  
HETATM   24  C   UNL     1     -12.480  10.630  71.066  1.00  0.00    -0.515 A  
HETATM   25  C   UNL     1     -12.245   8.636  72.411  1.00  0.00    -0.419 A  
ENDBRANCH  19  20
ENDBRANCH  18  19
ENDBRANCH   2  18
TORSDOF 7
ENDMDL
MODEL      132
REMARK 921   NORMALIZED FREE ENERGY PREDICTED BY IDOCK:   -4.60 KCAL/MOL
REMARK 922        TOTAL FREE ENERGY PREDICTED BY IDOCK:   -8.12 KCAL/MOL
REMARK 923 INTER-LIGAND FREE ENERGY PREDICTED BY IDOCK:   -7.42 KCAL/MOL
REMARK 924 INTRA-LIGAND FREE ENERGY PREDICTED BY IDOCK:   -0.70 KCAL/MOL
REMARK 927      BINDING AFFINITY PREDICTED BY RF-SCORE:    0.00 PKD
ROOT
HETATM    1  C   UNL     1     -10.623   5.439  66.701  1.00  0.00    -0.359 C  
HETATM    2  C   UNL     1     -11.026   6.712  67.458  1.00  0.00    -0.338 C  
ENDROOT
BRANCH   2   3
HETATM    3  N   UNL     1     -10.056   7.805  67.287  1.00  0.00    -0.211 NA 
HETATM    4  H   UNL     1      -9.480   7.632  66.462  1.00  0.00     0.000 HD 
BRANCH   3   5
HETATM    5  C   UNL     1     -10.629   9.177  67.226  1.00  0.00    -0.233 C  
HETATM    6  C   UNL     1     -10.633   9.833  68.611  1.00  0.00    -0.249 C  
BRANCH   5   7
HETATM    7  C   UNL     1      -9.809  10.049  66.213  1.00  0.00    -0.236 C  
HETATM    8  H   UNL     1      -8.704   9.700  64.641  1.00  0.00     0.000 HD 
HETATM    9  O   UNL     1      -9.201   9.171  65.255  1.00  0.00    -0.221 OA 
BRANCH   7  10
HETATM   10  C   UNL     1     -10.588  11.131  65.472  1.00  0.00    -0.289 A  
HETATM   11  C   UNL     1     -11.451  12.026  66.131  1.00  0.00    -0.401 A  
HETATM   12  C   UNL     1     -11.973  13.127  64.053  1.00  0.00    -0.460 A  
HETATM   13  C   UNL     1     -11.105  12.283  63.380  1.00  0.00    -0.487 A  
HETATM   14  O   UNL     1     -12.644  14.068  63.328  1.00  0.00    -1.073 OA 
HETATM   15  C   UNL     1     -12.150  13.012  65.426  1.00  0.00    -0.490 A  
HETATM   16  C   UNL     1     -10.410  11.297  64.086  1.00  0.00    -0.410 A  
HETATM   17  H   UNL     1     -12.524  14.147  62.389  1.00  0.00     0.000 HD 
ENDBRANCH   7  10
ENDBRANCH   5   7
ENDBRANCH   3   5
ENDBRANCH   2   3
BRANCH   2  18
HETATM   18  C   UNL     1     -11.139   6.341  68.951  1.00  0.00    -0.434 C  
BRANCH  18  19
HETATM   19  C   UNL     1      -9.829   6.400  69.746  1.00  0.00    -0.189 C  
BRANCH  19  20
HETATM   20  C   UNL     1      -9.705   5.147  70.586  1.00  0.00    -0.257 A  
HETATM   21  C   UNL     1      -9.085   4.003  70.064  1.00  0.00    -0.187 A  
HETATM   22  C   UNL     1      -9.072   2.811  70.791  1.00  0.00    -0.190 A  
HETATM   23  C   UNL     1     -10.287   3.886  72.578  1.00  0.00    -0.210 A  
HETATM   24  C   UNL     1     -10.300   5.079  71.853  1.00  0.00    -0.270 A  
HETATM   25  C   UNL     1      -9.678   2.751  72.045  1.00  0.00    -0.223 A  
ENDBRANCH  19  20
ENDBRANCH  18  19
ENDBRANCH   2  18
TORSDOF 7
ENDMDL
MODEL      133
REMARK 921   NORMALIZED FREE ENERGY PREDICTED BY IDOCK:   -4.60 KCAL/MOL
REMARK 922        TOTAL FREE ENERGY PREDICTED BY IDOCK:   -8.11 KCAL/MOL
REMARK 923 INTER-LIGAND FREE ENERGY PREDICTED BY IDOCK:   -7.39 KCAL/MOL
REMARK 924 INTRA-LIGAND FREE ENERGY PREDICTED BY IDOCK:   -0.72 KCAL/MOL
REMARK 927      BINDING AFFINITY PREDICTED BY RF-SCORE:    0.00 PKD
ROOT
HETATM    1  C   UNL     1     -12.118  14.041  69.219  1.00  0.00    -0.380 C  
HETATM    2  C   UNL     1     -11.772  14.689  67.870  1.00  0.00    -0.351 C  
ENDROOT
BRANCH   2   3
HETATM    3  N   UNL     1     -11.127  13.749  66.939  1.00  0.00    -0.297 NA 
HETATM    4  H   UNL     1     -10.663  13.006  67.462  1.00  0.00     0.000 HD 
BRANCH   3   5
HETATM    5  C   UNL     1     -12.013  13.160  65.898  1.00  0.00    -0.427 C  
HETATM    6  C   UNL     1     -13.028  14.189  65.391  1.00  0.00    -0.300 C  
BRANCH   5   7
HETATM    7  C   UNL     1     -11.144  12.620  64.708  1.00  0.00    -0.300 C  
HETATM    8  H   UNL     1      -9.646  13.294  63.651  1.00  0.00     0.000 HD 
HETATM    9  O   UNL     1     -10.173  13.621  64.372  1.00  0.00    -0.393 OA 
BRANCH   7  10
HETATM   10  C   UNL     1     -10.430  11.293  64.945  1.00  0.00    -0.375 A  
HETATM   11  C   UNL     1      -9.550  10.730  64.002  1.00  0.00    -0.339 A  
HETATM   12  C   UNL     1      -9.117   8.857  65.455  1.00  0.00    -0.190 A  
HETATM   13  C   UNL     1      -9.951   9.403  66.417  1.00  0.00    -0.346 A  
HETATM   14  O   UNL     1      -8.516   7.664  65.729  1.00  0.00    -0.135 OA 
HETATM   15  C   UNL     1      -8.905   9.513  64.249  1.00  0.00    -0.247 A  
HETATM   16  C   UNL     1     -10.596  10.617  66.168  1.00  0.00    -0.211 A  
HETATM   17  H   UNL     1      -8.661   7.215  66.554  1.00  0.00     0.000 HD 
ENDBRANCH   7  10
ENDBRANCH   5   7
ENDBRANCH   3   5
ENDBRANCH   2   3
BRANCH   2  18
HETATM   18  C   UNL     1     -10.826  15.873  68.159  1.00  0.00    -0.317 C  
BRANCH  18  19
HETATM   19  C   UNL     1      -9.891  16.265  67.009  1.00  0.00    -0.247 C  
BRANCH  19  20
HETATM   20  C   UNL     1      -9.668  17.762  67.043  1.00  0.00    -0.290 A  
HETATM   21  C   UNL     1      -8.766  18.323  67.959  1.00  0.00    -0.287 A  
HETATM   22  C   UNL     1      -8.645  19.709  68.073  1.00  0.00    -0.355 A  
HETATM   23  C   UNL     1     -10.312  19.999  66.352  1.00  0.00    -0.573 A  
HETATM   24  C   UNL     1     -10.434  18.613  66.236  1.00  0.00    -0.468 A  
HETATM   25  C   UNL     1      -9.422  20.546  67.275  1.00  0.00    -0.559 A  
ENDBRANCH  19  20
ENDBRANCH  18  19
ENDBRANCH   2  18
TORSDOF 7
ENDMDL
MODEL      134
REMARK 921   NORMALIZED FREE ENERGY PREDICTED BY IDOCK:   -4.59 KCAL/MOL
REMARK 922        TOTAL FREE ENERGY PREDICTED BY IDOCK:   -8.09 KCAL/MOL
REMARK 923 INTER-LIGAND FREE ENERGY PREDICTED BY IDOCK:   -6.27 KCAL/MOL
REMARK 924 INTRA-LIGAND FREE ENERGY PREDICTED BY IDOCK:   -1.83 KCAL/MOL
REMARK 927      BINDING AFFINITY PREDICTED BY RF-SCORE:    0.00 PKD
ROOT
HETATM    1  C   UNL     1      -7.563  15.959  69.424  1.00  0.00    -0.210 C  
HETATM    2  C   UNL     1      -6.617  16.144  68.228  1.00  0.00    -0.124 C  
ENDROOT
BRANCH   2   3
HETATM    3  N   UNL     1      -5.828  17.383  68.317  1.00  0.00    -0.147 NA 
HETATM    4  H   UNL     1      -5.806  17.847  67.408  1.00  0.00     0.000 HD 
BRANCH   3   5
HETATM    5  C   UNL     1      -6.253  18.347  69.368  1.00  0.00    -0.259 C  
HETATM    6  C   UNL     1      -5.169  18.508  70.439  1.00  0.00    -0.241 C  
BRANCH   5   7
HETATM    7  C   UNL     1      -6.582  19.734  68.713  1.00  0.00    -0.309 C  
HETATM    8  H   UNL     1      -5.637  20.994  67.558  1.00  0.00     0.000 HD 
HETATM    9  O   UNL     1      -5.438  20.154  67.955  1.00  0.00    -0.190 OA 
BRANCH   7  10
HETATM   10  C   UNL     1      -7.816  19.780  67.818  1.00  0.00    -0.326 A  
HETATM   11  C   UNL     1      -9.124  19.684  68.329  1.00  0.00    -0.395 A  
HETATM   12  C   UNL     1     -10.055  19.905  66.119  1.00  0.00    -0.504 A  
HETATM   13  C   UNL     1      -8.782  20.037  65.589  1.00  0.00     0.192 A  
HETATM   14  O   UNL     1     -11.115  19.949  65.261  1.00  0.00    -0.360 OA 
HETATM   15  C   UNL     1     -10.238  19.734  67.485  1.00  0.00    -0.572 A  
HETATM   16  C   UNL     1      -7.670  19.984  66.434  1.00  0.00    -0.324 A  
HETATM   17  H   UNL     1     -10.990  20.065  64.326  1.00  0.00     0.000 HD 
ENDBRANCH   7  10
ENDBRANCH   5   7
ENDBRANCH   3   5
ENDBRANCH   2   3
BRANCH   2  18
HETATM   18  C   UNL     1      -7.487  16.167  66.954  1.00  0.00    -0.266 C  
BRANCH  18  19
HETATM   19  C   UNL     1      -8.982  16.419  67.182  1.00  0.00    -0.218 C  
BRANCH  19  20
HETATM   20  C   UNL     1      -9.780  15.442  66.345  1.00  0.00    -0.311 A  
HETATM   21  C   UNL     1      -9.454  14.078  66.344  1.00  0.00    -0.278 A  
HETATM   22  C   UNL     1     -10.111  13.195  65.486  1.00  0.00    -0.271 A  
HETATM   23  C   UNL     1     -11.439  15.016  64.623  1.00  0.00    -0.382 A  
HETATM   24  C   UNL     1     -10.784  15.901  65.481  1.00  0.00    -0.386 A  
HETATM   25  C   UNL     1     -11.099  13.664  64.622  1.00  0.00    -0.387 A  
ENDBRANCH  19  20
ENDBRANCH  18  19
ENDBRANCH   2  18
TORSDOF 7
ENDMDL
MODEL      135
REMARK 921   NORMALIZED FREE ENERGY PREDICTED BY IDOCK:   -4.58 KCAL/MOL
REMARK 922        TOTAL FREE ENERGY PREDICTED BY IDOCK:   -8.09 KCAL/MOL
REMARK 923 INTER-LIGAND FREE ENERGY PREDICTED BY IDOCK:   -7.17 KCAL/MOL
REMARK 924 INTRA-LIGAND FREE ENERGY PREDICTED BY IDOCK:   -0.92 KCAL/MOL
REMARK 927      BINDING AFFINITY PREDICTED BY RF-SCORE:    0.00 PKD
ROOT
HETATM    1  C   UNL     1      -9.516  10.818  64.682  1.00  0.00    -0.297 C  
HETATM    2  C   UNL     1     -10.431  11.767  65.470  1.00  0.00    -0.267 C  
ENDROOT
BRANCH   2   3
HETATM    3  N   UNL     1      -9.742  12.997  65.892  1.00  0.00    -0.411 NA 
HETATM    4  H   UNL     1      -8.799  13.018  65.504  1.00  0.00     0.000 HD 
BRANCH   3   5
HETATM    5  C   UNL     1     -10.447  14.272  65.584  1.00  0.00    -0.324 C  
HETATM    6  C   UNL     1     -11.585  14.044  64.583  1.00  0.00    -0.400 C  
BRANCH   5   7
HETATM    7  C   UNL     1     -11.004  14.902  66.908  1.00  0.00    -0.327 C  
HETATM    8  H   UNL     1     -10.798  14.554  68.818  1.00  0.00     0.000 HD 
HETATM    9  O   UNL     1     -10.460  14.172  68.016  1.00  0.00    -0.233 OA 
BRANCH   7  10
HETATM   10  C   UNL     1     -10.733  16.389  67.110  1.00  0.00    -0.233 A  
HETATM   11  C   UNL     1     -10.572  16.961  68.386  1.00  0.00    -0.365 A  
HETATM   12  C   UNL     1     -10.202  19.135  67.416  1.00  0.00    -0.400 A  
HETATM   13  C   UNL     1     -10.321  18.596  66.146  1.00  0.00    -0.481 A  
HETATM   14  O   UNL     1      -9.967  20.475  67.525  1.00  0.00    -0.425 OA 
HETATM   15  C   UNL     1     -10.320  18.329  68.541  1.00  0.00    -0.341 A  
HETATM   16  C   UNL     1     -10.577  17.231  65.993  1.00  0.00    -0.217 A  
HETATM   17  H   UNL     1      -9.886  21.027  66.756  1.00  0.00     0.000 HD 
ENDBRANCH   7  10
ENDBRANCH   5   7
ENDBRANCH   3   5
ENDBRANCH   2   3
BRANCH   2  18
HETATM   18  C   UNL     1     -10.932  10.996  66.709  1.00  0.00    -0.279 C  
BRANCH  18  19
HETATM   19  C   UNL     1      -9.837  10.410  67.608  1.00  0.00    -0.197 C  
BRANCH  19  20
HETATM   20  C   UNL     1     -10.200   8.984  67.962  1.00  0.00    -0.260 A  
HETATM   21  C   UNL     1     -10.411   8.035  66.951  1.00  0.00    -0.408 A  
HETATM   22  C   UNL     1     -10.859   6.751  67.269  1.00  0.00    -0.443 A  
HETATM   23  C   UNL     1     -10.882   7.336  69.610  1.00  0.00    -0.238 A  
HETATM   24  C   UNL     1     -10.433   8.619  69.295  1.00  0.00    -0.226 A  
HETATM   25  C   UNL     1     -11.100   6.404  68.597  1.00  0.00    -0.393 A  
ENDBRANCH  19  20
ENDBRANCH  18  19
ENDBRANCH   2  18
TORSDOF 7
ENDMDL
MODEL      136
REMARK 921   NORMALIZED FREE ENERGY PREDICTED BY IDOCK:   -4.58 KCAL/MOL
REMARK 922        TOTAL FREE ENERGY PREDICTED BY IDOCK:   -8.09 KCAL/MOL
REMARK 923 INTER-LIGAND FREE ENERGY PREDICTED BY IDOCK:   -7.05 KCAL/MOL
REMARK 924 INTRA-LIGAND FREE ENERGY PREDICTED BY IDOCK:   -1.04 KCAL/MOL
REMARK 927      BINDING AFFINITY PREDICTED BY RF-SCORE:    0.00 PKD
ROOT
HETATM    1  C   UNL     1     -12.124  15.143  70.411  1.00  0.00    -0.373 C  
HETATM    2  C   UNL     1     -11.272  14.666  69.226  1.00  0.00    -0.282 C  
ENDROOT
BRANCH   2   3
HETATM    3  N   UNL     1     -11.013  13.218  69.262  1.00  0.00    -0.429 NA 
HETATM    4  H   UNL     1     -11.390  12.818  70.121  1.00  0.00     0.000 HD 
BRANCH   3   5
HETATM    5  C   UNL     1     -11.499  12.444  68.086  1.00  0.00    -0.318 C  
HETATM    6  C   UNL     1     -12.015  13.379  66.987  1.00  0.00    -0.429 C  
BRANCH   5   7
HETATM    7  C   UNL     1     -10.342  11.539  67.533  1.00  0.00    -0.194 C  
HETATM    8  H   UNL     1      -8.399  11.482  67.723  1.00  0.00     0.000 HD 
HETATM    9  O   UNL     1      -9.100  12.029  68.058  1.00  0.00    -0.175 OA 
BRANCH   7  10
HETATM   10  C   UNL     1     -10.454  10.048  67.830  1.00  0.00    -0.276 A  
HETATM   11  C   UNL     1     -10.504   9.076  66.813  1.00  0.00    -0.270 A  
HETATM   12  C   UNL     1     -10.628   7.308  68.444  1.00  0.00    -0.170 A  
HETATM   13  C   UNL     1     -10.546   8.237  69.468  1.00  0.00    -0.216 A  
HETATM   14  O   UNL     1     -10.734   5.990  68.781  1.00  0.00    -0.252 OA 
HETATM   15  C   UNL     1     -10.603   7.714  67.116  1.00  0.00    -0.410 A  
HETATM   16  C   UNL     1     -10.452   9.597  69.163  1.00  0.00    -0.230 A  
HETATM   17  H   UNL     1     -10.752   5.712  69.689  1.00  0.00     0.000 HD 
ENDBRANCH   7  10
ENDBRANCH   5   7
ENDBRANCH   3   5
ENDBRANCH   2   3
BRANCH   2  18
HETATM   18  C   UNL     1      -9.938  15.438  69.280  1.00  0.00    -0.256 C  
BRANCH  18  19
HETATM   19  C   UNL     1      -9.330  15.799  67.920  1.00  0.00    -0.200 C  
BRANCH  19  20
HETATM   20  C   UNL     1      -9.658  17.242  67.600  1.00  0.00    -0.256 A  
HETATM   21  C   UNL     1      -9.608  18.220  68.604  1.00  0.00    -0.351 A  
HETATM   22  C   UNL     1     -10.023  19.527  68.340  1.00  0.00    -0.540 A  
HETATM   23  C   UNL     1     -10.534  18.907  66.064  1.00  0.00    -0.507 A  
HETATM   24  C   UNL     1     -10.119  17.600  66.325  1.00  0.00    -0.344 A  
HETATM   25  C   UNL     1     -10.491  19.868  67.072  1.00  0.00    -0.570 A  
ENDBRANCH  19  20
ENDBRANCH  18  19
ENDBRANCH   2  18
TORSDOF 7
ENDMDL
MODEL      137
REMARK 921   NORMALIZED FREE ENERGY PREDICTED BY IDOCK:   -4.57 KCAL/MOL
REMARK 922        TOTAL FREE ENERGY PREDICTED BY IDOCK:   -8.07 KCAL/MOL
REMARK 923 INTER-LIGAND FREE ENERGY PREDICTED BY IDOCK:   -6.91 KCAL/MOL
REMARK 924 INTRA-LIGAND FREE ENERGY PREDICTED BY IDOCK:   -1.16 KCAL/MOL
REMARK 927      BINDING AFFINITY PREDICTED BY RF-SCORE:    0.00 PKD
ROOT
HETATM    1  C   UNL     1     -10.691  12.459  65.119  1.00  0.00    -0.327 C  
HETATM    2  C   UNL     1     -11.749  12.628  66.220  1.00  0.00    -0.402 C  
ENDROOT
BRANCH   2   3
HETATM    3  N   UNL     1     -12.107  14.037  66.449  1.00  0.00    -0.438 NA 
HETATM    4  H   UNL     1     -12.441  14.160  67.405  1.00  0.00     0.000 HD 
BRANCH   3   5
HETATM    5  C   UNL     1     -11.041  15.032  66.152  1.00  0.00    -0.329 C  
HETATM    6  C   UNL     1     -11.359  15.815  64.874  1.00  0.00    -0.284 C  
BRANCH   5   7
HETATM    7  C   UNL     1     -10.880  16.014  67.366  1.00  0.00    -0.277 C  
HETATM    8  H   UNL     1     -11.784  16.283  69.076  1.00  0.00     0.000 HD 
HETATM    9  O   UNL     1     -11.881  15.689  68.341  1.00  0.00    -0.346 OA 
BRANCH   7  10
HETATM   10  C   UNL     1      -9.513  16.029  68.042  1.00  0.00    -0.207 A  
HETATM   11  C   UNL     1      -8.740  17.199  68.157  1.00  0.00    -0.232 A  
HETATM   12  C   UNL     1      -7.012  15.999  69.330  1.00  0.00    -0.216 A  
HETATM   13  C   UNL     1      -7.764  14.838  69.264  1.00  0.00    -0.129 A  
HETATM   14  O   UNL     1      -5.794  15.940  69.943  1.00  0.00    -0.144 OA 
HETATM   15  C   UNL     1      -7.491  17.184  68.787  1.00  0.00    -0.250 A  
HETATM   16  C   UNL     1      -9.010  14.854  68.631  1.00  0.00    -0.184 A  
HETATM   17  H   UNL     1      -5.467  15.129  70.315  1.00  0.00     0.000 HD 
ENDBRANCH   7  10
ENDBRANCH   5   7
ENDBRANCH   3   5
ENDBRANCH   2   3
BRANCH   2  18
HETATM   18  C   UNL     1     -11.167  12.019  67.512  1.00  0.00    -0.357 C  
BRANCH  18  19
HETATM   19  C   UNL     1     -11.900  12.393  68.806  1.00  0.00    -0.358 C  
BRANCH  19  20
HETATM   20  C   UNL     1     -11.648  11.320  69.844  1.00  0.00    -0.413 A  
HETATM   21  C   UNL     1     -10.558  10.449  69.712  1.00  0.00    -0.302 A  
HETATM   22  C   UNL     1     -10.390   9.386  70.602  1.00  0.00    -0.349 A  
HETATM   23  C   UNL     1     -12.390  10.053  71.778  1.00  0.00    -0.434 A  
HETATM   24  C   UNL     1     -12.559  11.116  70.890  1.00  0.00    -0.483 A  
HETATM   25  C   UNL     1     -11.309   9.185  71.631  1.00  0.00    -0.446 A  
ENDBRANCH  19  20
ENDBRANCH  18  19
ENDBRANCH   2  18
TORSDOF 7
ENDMDL
MODEL      138
REMARK 921   NORMALIZED FREE ENERGY PREDICTED BY IDOCK:   -4.56 KCAL/MOL
REMARK 922        TOTAL FREE ENERGY PREDICTED BY IDOCK:   -8.06 KCAL/MOL
REMARK 923 INTER-LIGAND FREE ENERGY PREDICTED BY IDOCK:   -6.80 KCAL/MOL
REMARK 924 INTRA-LIGAND FREE ENERGY PREDICTED BY IDOCK:   -1.26 KCAL/MOL
REMARK 927      BINDING AFFINITY PREDICTED BY RF-SCORE:    0.00 PKD
ROOT
HETATM    1  C   UNL     1      -9.670   4.051  69.846  1.00  0.00    -0.263 C  
HETATM    2  C   UNL     1     -10.291   5.394  69.433  1.00  0.00    -0.269 C  
ENDROOT
BRANCH   2   3
HETATM    3  N   UNL     1      -9.317   6.298  68.802  1.00  0.00    -0.124 NA 
HETATM    4  H   UNL     1      -8.368   5.980  69.000  1.00  0.00     0.000 HD 
BRANCH   3   5
HETATM    5  C   UNL     1      -9.486   6.510  67.338  1.00  0.00    -0.124 C  
HETATM    6  C   UNL     1     -10.969   6.586  66.960  1.00  0.00    -0.466 C  
BRANCH   5   7
HETATM    7  C   UNL     1      -8.746   7.825  66.906  1.00  0.00    -0.132 C  
HETATM    8  H   UNL     1      -7.605   8.362  65.414  1.00  0.00     0.000 HD 
HETATM    9  O   UNL     1      -8.053   7.566  65.676  1.00  0.00    -0.113 OA 
BRANCH   7  10
HETATM   10  C   UNL     1      -9.619   9.063  66.734  1.00  0.00    -0.259 A  
HETATM   11  C   UNL     1      -9.777   9.711  65.495  1.00  0.00    -0.372 A  
HETATM   12  C   UNL     1     -11.272  11.325  66.475  1.00  0.00    -0.152 A  
HETATM   13  C   UNL     1     -11.165  10.689  67.701  1.00  0.00    -0.361 A  
HETATM   14  O   UNL     1     -12.066  12.432  66.393  1.00  0.00    -0.607 OA 
HETATM   15  C   UNL     1     -10.589  10.843  65.366  1.00  0.00    -0.243 A  
HETATM   16  C   UNL     1     -10.351   9.561  67.828  1.00  0.00    -0.291 A  
HETATM   17  H   UNL     1     -12.533  12.762  67.152  1.00  0.00     0.000 HD 
ENDBRANCH   7  10
ENDBRANCH   5   7
ENDBRANCH   3   5
ENDBRANCH   2   3
BRANCH   2  18
HETATM   18  C   UNL     1     -10.861   6.047  70.709  1.00  0.00    -0.358 C  
BRANCH  18  19
HETATM   19  C   UNL     1     -10.307   7.437  71.043  1.00  0.00    -0.201 C  
BRANCH  19  20
HETATM   20  C   UNL     1     -11.456   8.353  71.405  1.00  0.00    -0.328 A  
HETATM   21  C   UNL     1     -12.701   7.819  71.769  1.00  0.00    -0.354 A  
HETATM   22  C   UNL     1     -13.794   8.659  71.989  1.00  0.00    -0.491 A  
HETATM   23  C   UNL     1     -12.418  10.581  71.500  1.00  0.00    -0.493 A  
HETATM   24  C   UNL     1     -11.324   9.742  71.280  1.00  0.00    -0.445 A  
HETATM   25  C   UNL     1     -13.654  10.039  71.849  1.00  0.00    -0.354 A  
ENDBRANCH  19  20
ENDBRANCH  18  19
ENDBRANCH   2  18
TORSDOF 7
ENDMDL
MODEL      139
REMARK 921   NORMALIZED FREE ENERGY PREDICTED BY IDOCK:   -4.55 KCAL/MOL
REMARK 922        TOTAL FREE ENERGY PREDICTED BY IDOCK:   -8.05 KCAL/MOL
REMARK 923 INTER-LIGAND FREE ENERGY PREDICTED BY IDOCK:   -6.60 KCAL/MOL
REMARK 924 INTRA-LIGAND FREE ENERGY PREDICTED BY IDOCK:   -1.45 KCAL/MOL
REMARK 927      BINDING AFFINITY PREDICTED BY RF-SCORE:    0.00 PKD
ROOT
HETATM    1  C   UNL     1      -6.319  14.393  67.925  1.00  0.00    -0.173 C  
HETATM    2  C   UNL     1      -7.687  13.706  67.798  1.00  0.00    -0.164 C  
ENDROOT
BRANCH   2   3
HETATM    3  N   UNL     1      -7.667  12.575  66.858  1.00  0.00    -0.382 NA 
HETATM    4  H   UNL     1      -6.797  12.580  66.326  1.00  0.00     0.000 HD 
BRANCH   3   5
HETATM    5  C   UNL     1      -7.886  11.230  67.459  1.00  0.00    -0.123 C  
HETATM    6  C   UNL     1      -8.594  11.341  68.814  1.00  0.00    -0.109 C  
BRANCH   5   7
HETATM    7  C   UNL     1      -8.727  10.342  66.477  1.00  0.00    -0.131 C  
HETATM    8  H   UNL     1      -9.908   8.796  66.651  1.00  0.00     0.000 HD 
HETATM    9  O   UNL     1      -9.398   9.334  67.246  1.00  0.00    -0.128 OA 
BRANCH   7  10
HETATM   10  C   UNL     1      -9.750  11.075  65.615  1.00  0.00    -0.276 A  
HETATM   11  C   UNL     1      -9.611  11.202  64.221  1.00  0.00    -0.288 A  
HETATM   12  C   UNL     1     -11.689  12.411  64.076  1.00  0.00    -0.420 A  
HETATM   13  C   UNL     1     -11.872  12.273  65.442  1.00  0.00    -0.418 A  
HETATM   14  O   UNL     1     -12.640  13.084  63.366  1.00  0.00    -0.722 OA 
HETATM   15  C   UNL     1     -10.568  11.876  63.455  1.00  0.00    -0.507 A  
HETATM   16  C   UNL     1     -10.913  11.602  66.206  1.00  0.00    -0.338 A  
HETATM   17  H   UNL     1     -13.407  13.450  63.791  1.00  0.00     0.000 HD 
ENDBRANCH   7  10
ENDBRANCH   5   7
ENDBRANCH   3   5
ENDBRANCH   2   3
BRANCH   2  18
HETATM   18  C   UNL     1      -8.691  14.772  67.313  1.00  0.00    -0.226 C  
BRANCH  18  19
HETATM   19  C   UNL     1      -9.038  15.863  68.333  1.00  0.00    -0.189 C  
BRANCH  19  20
HETATM   20  C   UNL     1     -10.328  15.493  69.032  1.00  0.00    -0.235 A  
HETATM   21  C   UNL     1     -10.797  16.262  70.108  1.00  0.00    -0.299 A  
HETATM   22  C   UNL     1     -11.921  15.857  70.829  1.00  0.00    -0.413 A  
HETATM   23  C   UNL     1     -12.139  13.919  69.407  1.00  0.00    -0.384 A  
HETATM   24  C   UNL     1     -11.015  14.322  68.685  1.00  0.00    -0.268 A  
HETATM   25  C   UNL     1     -12.588  14.683  70.483  1.00  0.00    -0.409 A  
ENDBRANCH  19  20
ENDBRANCH  18  19
ENDBRANCH   2  18
TORSDOF 7
ENDMDL
MODEL      140
REMARK 921   NORMALIZED FREE ENERGY PREDICTED BY IDOCK:   -4.54 KCAL/MOL
REMARK 922        TOTAL FREE ENERGY PREDICTED BY IDOCK:   -8.03 KCAL/MOL
REMARK 923 INTER-LIGAND FREE ENERGY PREDICTED BY IDOCK:   -6.21 KCAL/MOL
REMARK 924 INTRA-LIGAND FREE ENERGY PREDICTED BY IDOCK:   -1.83 KCAL/MOL
REMARK 927      BINDING AFFINITY PREDICTED BY RF-SCORE:    0.00 PKD
ROOT
HETATM    1  C   UNL     1      -9.244   8.316  72.921  1.00  0.00    -0.329 C  
HETATM    2  C   UNL     1     -10.385   7.301  73.087  1.00  0.00    -0.313 C  
ENDROOT
BRANCH   2   3
HETATM    3  N   UNL     1     -10.108   6.023  72.413  1.00  0.00    -0.174 NA 
HETATM    4  H   UNL     1     -10.872   5.793  71.778  1.00  0.00     0.000 HD 
BRANCH   3   5
HETATM    5  C   UNL     1      -8.808   5.939  71.693  1.00  0.00    -0.139 C  
HETATM    6  C   UNL     1      -7.786   5.127  72.497  1.00  0.00    -0.098 C  
BRANCH   5   7
HETATM    7  C   UNL     1      -9.026   5.294  70.280  1.00  0.00    -0.126 C  
HETATM    8  H   UNL     1     -10.230   3.956  69.523  1.00  0.00     0.000 HD 
HETATM    9  O   UNL     1     -10.098   4.347  70.379  1.00  0.00    -0.209 OA 
BRANCH   7  10
HETATM   10  C   UNL     1      -9.321   6.261  69.138  1.00  0.00    -0.133 A  
HETATM   11  C   UNL     1      -8.449   7.310  68.791  1.00  0.00    -0.129 A  
HETATM   12  C   UNL     1      -9.905   7.992  66.998  1.00  0.00    -0.227 A  
HETATM   13  C   UNL     1     -10.767   6.948  67.292  1.00  0.00    -0.421 A  
HETATM   14  O   UNL     1     -10.234   8.824  65.968  1.00  0.00    -0.412 OA 
HETATM   15  C   UNL     1      -8.743   8.179  67.735  1.00  0.00    -0.130 A  
HETATM   16  C   UNL     1     -10.473   6.084  68.350  1.00  0.00    -0.290 A  
HETATM   17  H   UNL     1     -11.029   8.697  65.464  1.00  0.00     0.000 HD 
ENDBRANCH   7  10
ENDBRANCH   5   7
ENDBRANCH   3   5
ENDBRANCH   2   3
BRANCH   2  18
HETATM   18  C   UNL     1     -11.658   7.941  72.496  1.00  0.00    -0.443 C  
BRANCH  18  19
HETATM   19  C   UNL     1     -11.635   8.176  70.981  1.00  0.00    -0.301 C  
BRANCH  19  20
HETATM   20  C   UNL     1     -11.739   9.661  70.710  1.00  0.00    -0.390 A  
HETATM   21  C   UNL     1     -12.514  10.481  71.543  1.00  0.00    -0.493 A  
HETATM   22  C   UNL     1     -12.707  11.827  71.229  1.00  0.00    -0.420 A  
HETATM   23  C   UNL     1     -11.347  11.564  69.252  1.00  0.00    -0.353 A  
HETATM   24  C   UNL     1     -11.152  10.218  69.565  1.00  0.00    -0.310 A  
HETATM   25  C   UNL     1     -12.129  12.367  70.081  1.00  0.00    -0.366 A  
ENDBRANCH  19  20
ENDBRANCH  18  19
ENDBRANCH   2  18
TORSDOF 7
ENDMDL
MODEL      141
REMARK 921   NORMALIZED FREE ENERGY PREDICTED BY IDOCK:   -4.54 KCAL/MOL
REMARK 922        TOTAL FREE ENERGY PREDICTED BY IDOCK:   -8.02 KCAL/MOL
REMARK 923 INTER-LIGAND FREE ENERGY PREDICTED BY IDOCK:   -7.16 KCAL/MOL
REMARK 924 INTRA-LIGAND FREE ENERGY PREDICTED BY IDOCK:   -0.87 KCAL/MOL
REMARK 927      BINDING AFFINITY PREDICTED BY RF-SCORE:    0.00 PKD
ROOT
HETATM    1  C   UNL     1     -12.591  12.428  64.425  1.00  0.00    -0.489 C  
HETATM    2  C   UNL     1     -11.761  12.667  65.694  1.00  0.00    -0.412 C  
ENDROOT
BRANCH   2   3
HETATM    3  N   UNL     1     -11.047  13.953  65.671  1.00  0.00    -0.295 NA 
HETATM    4  H   UNL     1     -11.211  14.425  64.782  1.00  0.00     0.000 HD 
BRANCH   3   5
HETATM    5  C   UNL     1     -11.342  14.878  66.799  1.00  0.00    -0.328 C  
HETATM    6  C   UNL     1     -12.031  14.139  67.951  1.00  0.00    -0.378 C  
BRANCH   5   7
HETATM    7  C   UNL     1     -10.012  15.546  67.298  1.00  0.00    -0.238 C  
HETATM    8  H   UNL     1      -8.116  15.379  66.864  1.00  0.00     0.000 HD 
HETATM    9  O   UNL     1      -8.921  14.975  66.562  1.00  0.00    -0.269 OA 
BRANCH   7  10
HETATM   10  C   UNL     1      -9.943  17.066  67.193  1.00  0.00    -0.281 A  
HETATM   11  C   UNL     1     -10.452  17.771  66.087  1.00  0.00    -0.301 A  
HETATM   12  C   UNL     1      -9.813  19.874  67.075  1.00  0.00    -0.411 A  
HETATM   13  C   UNL     1      -9.334  19.211  68.193  1.00  0.00    -0.388 A  
HETATM   14  O   UNL     1      -9.713  21.234  67.044  1.00  0.00    -0.559 OA 
HETATM   15  C   UNL     1     -10.378  19.167  66.021  1.00  0.00    -0.538 A  
HETATM   16  C   UNL     1      -9.406  17.817  68.255  1.00  0.00    -0.288 A  
HETATM   17  H   UNL     1      -9.327  21.718  67.765  1.00  0.00     0.000 HD 
ENDBRANCH   7  10
ENDBRANCH   5   7
ENDBRANCH   3   5
ENDBRANCH   2   3
BRANCH   2  18
HETATM   18  C   UNL     1     -10.749  11.508  65.805  1.00  0.00    -0.325 C  
BRANCH  18  19
HETATM   19  C   UNL     1      -9.956  11.447  67.115  1.00  0.00    -0.217 C  
BRANCH  19  20
HETATM   20  C   UNL     1      -9.917  10.014  67.603  1.00  0.00    -0.214 A  
HETATM   21  C   UNL     1     -10.397   8.976  66.791  1.00  0.00    -0.310 A  
HETATM   22  C   UNL     1     -10.471   7.671  67.282  1.00  0.00    -0.396 A  
HETATM   23  C   UNL     1      -9.575   8.413  69.396  1.00  0.00    -0.170 A  
HETATM   24  C   UNL     1      -9.500   9.719  68.907  1.00  0.00    -0.161 A  
HETATM   25  C   UNL     1     -10.065   7.391  68.585  1.00  0.00    -0.186 A  
ENDBRANCH  19  20
ENDBRANCH  18  19
ENDBRANCH   2  18
TORSDOF 7
ENDMDL
MODEL      142
REMARK 921   NORMALIZED FREE ENERGY PREDICTED BY IDOCK:   -4.53 KCAL/MOL
REMARK 922        TOTAL FREE ENERGY PREDICTED BY IDOCK:   -8.02 KCAL/MOL
REMARK 923 INTER-LIGAND FREE ENERGY PREDICTED BY IDOCK:   -7.16 KCAL/MOL
REMARK 924 INTRA-LIGAND FREE ENERGY PREDICTED BY IDOCK:   -0.86 KCAL/MOL
REMARK 927      BINDING AFFINITY PREDICTED BY RF-SCORE:    0.00 PKD
ROOT
HETATM    1  C   UNL     1     -12.367   6.544  71.844  1.00  0.00    -0.339 C  
HETATM    2  C   UNL     1     -11.458   7.565  71.145  1.00  0.00    -0.273 C  
ENDROOT
BRANCH   2   3
HETATM    3  N   UNL     1     -10.030   7.231  71.269  1.00  0.00    -0.188 NA 
HETATM    4  H   UNL     1      -9.911   6.218  71.290  1.00  0.00     0.000 HD 
BRANCH   3   5
HETATM    5  C   UNL     1      -9.134   7.826  70.241  1.00  0.00    -0.152 C  
HETATM    6  C   UNL     1      -8.090   8.745  70.886  1.00  0.00    -0.174 C  
BRANCH   5   7
HETATM    7  C   UNL     1      -8.427   6.685  69.429  1.00  0.00    -0.131 C  
HETATM    8  H   UNL     1      -7.652   4.942  69.851  1.00  0.00     0.000 HD 
HETATM    9  O   UNL     1      -8.080   5.634  70.342  1.00  0.00    -0.100 OA 
BRANCH   7  10
HETATM   10  C   UNL     1      -9.221   6.094  68.269  1.00  0.00    -0.114 A  
HETATM   11  C   UNL     1     -10.170   6.840  67.545  1.00  0.00    -0.241 A  
HETATM   12  C   UNL     1     -10.629   4.957  66.115  1.00  0.00    -0.271 A  
HETATM   13  C   UNL     1      -9.676   4.207  66.785  1.00  0.00    -0.234 A  
HETATM   14  O   UNL     1     -11.307   4.364  65.090  1.00  0.00    -1.022 OA 
HETATM   15  C   UNL     1     -10.880   6.273  66.482  1.00  0.00    -0.137 A  
HETATM   16  C   UNL     1      -8.971   4.774  67.850  1.00  0.00    -0.124 A  
HETATM   17  H   UNL     1     -11.136   3.464  64.840  1.00  0.00     0.000 HD 
ENDBRANCH   7  10
ENDBRANCH   5   7
ENDBRANCH   3   5
ENDBRANCH   2   3
BRANCH   2  18
HETATM   18  C   UNL     1     -11.732   8.940  71.788  1.00  0.00    -0.432 C  
BRANCH  18  19
HETATM   19  C   UNL     1     -13.027   9.629  71.343  1.00  0.00    -0.474 C  
BRANCH  19  20
HETATM   20  C   UNL     1     -12.766  11.112  71.181  1.00  0.00    -0.510 A  
HETATM   21  C   UNL     1     -13.360  12.035  72.053  1.00  0.00    -0.447 A  
HETATM   22  C   UNL     1     -13.217  13.407  71.836  1.00  0.00    -0.522 A  
HETATM   23  C   UNL     1     -11.874  12.959  69.881  1.00  0.00    -0.373 A  
HETATM   24  C   UNL     1     -12.015  11.587  70.097  1.00  0.00    -0.452 A  
HETATM   25  C   UNL     1     -12.480  13.868  70.747  1.00  0.00    -0.445 A  
ENDBRANCH  19  20
ENDBRANCH  18  19
ENDBRANCH   2  18
TORSDOF 7
ENDMDL
MODEL      143
REMARK 921   NORMALIZED FREE ENERGY PREDICTED BY IDOCK:   -4.52 KCAL/MOL
REMARK 922        TOTAL FREE ENERGY PREDICTED BY IDOCK:   -8.01 KCAL/MOL
REMARK 923 INTER-LIGAND FREE ENERGY PREDICTED BY IDOCK:   -7.02 KCAL/MOL
REMARK 924 INTRA-LIGAND FREE ENERGY PREDICTED BY IDOCK:   -0.99 KCAL/MOL
REMARK 927      BINDING AFFINITY PREDICTED BY RF-SCORE:    0.00 PKD
ROOT
HETATM    1  C   UNL     1     -12.199  12.404  63.705  1.00  0.00    -0.653 C  
HETATM    2  C   UNL     1     -12.276  12.514  65.235  1.00  0.00    -0.433 C  
ENDROOT
BRANCH   2   3
HETATM    3  N   UNL     1     -12.540  13.888  65.691  1.00  0.00    -0.515 NA 
HETATM    4  H   UNL     1     -13.184  13.875  66.482  1.00  0.00     0.000 HD 
BRANCH   3   5
HETATM    5  C   UNL     1     -11.338  14.699  66.029  1.00  0.00    -0.344 C  
HETATM    6  C   UNL     1     -11.088  15.780  64.971  1.00  0.00    -0.380 C  
BRANCH   5   7
HETATM    7  C   UNL     1     -11.523  15.354  67.443  1.00  0.00    -0.195 C  
HETATM    8  H   UNL     1     -11.745  14.700  69.269  1.00  0.00     0.000 HD 
HETATM    9  O   UNL     1     -11.633  14.303  68.413  1.00  0.00    -0.285 OA 
BRANCH   7  10
HETATM   10  C   UNL     1     -10.431  16.325  67.882  1.00  0.00    -0.295 A  
HETATM   11  C   UNL     1     -10.612  17.720  67.874  1.00  0.00    -0.389 A  
HETATM   12  C   UNL     1      -8.389  18.061  68.737  1.00  0.00    -0.212 A  
HETATM   13  C   UNL     1      -8.192  16.691  68.789  1.00  0.00    -0.249 A  
HETATM   14  O   UNL     1      -7.368  18.872  69.138  1.00  0.00    -0.303 OA 
HETATM   15  C   UNL     1      -9.594  18.586  68.287  1.00  0.00    -0.370 A  
HETATM   16  C   UNL     1      -9.209  15.828  68.373  1.00  0.00    -0.192 A  
HETATM   17  H   UNL     1      -6.544  18.513  69.445  1.00  0.00     0.000 HD 
ENDBRANCH   7  10
ENDBRANCH   5   7
ENDBRANCH   3   5
ENDBRANCH   2   3
BRANCH   2  18
HETATM   18  C   UNL     1     -10.926  12.025  65.799  1.00  0.00    -0.351 C  
BRANCH  18  19
HETATM   19  C   UNL     1     -10.200  10.974  64.951  1.00  0.00    -0.373 C  
BRANCH  19  20
HETATM   20  C   UNL     1      -9.814   9.808  65.836  1.00  0.00    -0.352 A  
HETATM   21  C   UNL     1      -9.018   8.769  65.332  1.00  0.00    -0.211 A  
HETATM   22  C   UNL     1      -8.758   7.637  66.106  1.00  0.00    -0.176 A  
HETATM   23  C   UNL     1     -10.072   8.564  67.906  1.00  0.00    -0.258 A  
HETATM   24  C   UNL     1     -10.333   9.697  67.133  1.00  0.00    -0.319 A  
HETATM   25  C   UNL     1      -9.290   7.532  67.390  1.00  0.00    -0.164 A  
ENDBRANCH  19  20
ENDBRANCH  18  19
ENDBRANCH   2  18
TORSDOF 7
ENDMDL
MODEL      144
REMARK 921   NORMALIZED FREE ENERGY PREDICTED BY IDOCK:   -4.52 KCAL/MOL
REMARK 922        TOTAL FREE ENERGY PREDICTED BY IDOCK:   -8.01 KCAL/MOL
REMARK 923 INTER-LIGAND FREE ENERGY PREDICTED BY IDOCK:   -7.12 KCAL/MOL
REMARK 924 INTRA-LIGAND FREE ENERGY PREDICTED BY IDOCK:   -0.88 KCAL/MOL
REMARK 927      BINDING AFFINITY PREDICTED BY RF-SCORE:    0.00 PKD
ROOT
HETATM    1  C   UNL     1      -9.775  10.724  65.882  1.00  0.00    -0.272 C  
HETATM    2  C   UNL     1     -10.194  12.143  66.293  1.00  0.00    -0.223 C  
ENDROOT
BRANCH   2   3
HETATM    3  N   UNL     1      -9.191  13.157  65.929  1.00  0.00    -0.456 NA 
HETATM    4  H   UNL     1      -9.177  13.284  64.918  1.00  0.00     0.000 HD 
BRANCH   3   5
HETATM    5  C   UNL     1      -9.330  14.476  66.605  1.00  0.00    -0.281 C  
HETATM    6  C   UNL     1      -8.078  14.811  67.423  1.00  0.00    -0.220 C  
BRANCH   5   7
HETATM    7  C   UNL     1      -9.597  15.593  65.535  1.00  0.00    -0.202 C  
HETATM    8  H   UNL     1     -11.073  16.070  64.349  1.00  0.00     0.000 HD 
HETATM    9  O   UNL     1     -10.912  15.394  64.997  1.00  0.00    -0.391 OA 
BRANCH   7  10
HETATM   10  C   UNL     1      -9.469  17.033  66.020  1.00  0.00    -0.195 A  
HETATM   11  C   UNL     1      -8.250  17.735  65.993  1.00  0.00    -0.109 A  
HETATM   12  C   UNL     1      -9.307  19.701  66.899  1.00  0.00    -0.355 A  
HETATM   13  C   UNL     1     -10.529  19.048  66.906  1.00  0.00    -0.505 A  
HETATM   14  O   UNL     1      -9.263  20.986  67.353  1.00  0.00    -0.516 OA 
HETATM   15  C   UNL     1      -8.165  19.058  66.440  1.00  0.00    -0.314 A  
HETATM   16  C   UNL     1     -10.612  17.726  66.462  1.00  0.00    -0.220 A  
HETATM   17  H   UNL     1     -10.045  21.426  67.667  1.00  0.00     0.000 HD 
ENDBRANCH   7  10
ENDBRANCH   5   7
ENDBRANCH   3   5
ENDBRANCH   2   3
BRANCH   2  18
HETATM   18  C   UNL     1     -10.400  12.136  67.822  1.00  0.00    -0.217 C  
BRANCH  18  19
HETATM   19  C   UNL     1     -11.833  12.409  68.295  1.00  0.00    -0.364 C  
BRANCH  19  20
HETATM   20  C   UNL     1     -11.826  13.603  69.226  1.00  0.00    -0.395 A  
HETATM   21  C   UNL     1     -12.194  13.454  70.571  1.00  0.00    -0.425 A  
HETATM   22  C   UNL     1     -12.302  14.571  71.401  1.00  0.00    -0.425 A  
HETATM   23  C   UNL     1     -11.664  16.002  69.566  1.00  0.00    -0.275 A  
HETATM   24  C   UNL     1     -11.555  14.887  68.733  1.00  0.00    -0.348 A  
HETATM   25  C   UNL     1     -12.043  15.844  70.898  1.00  0.00    -0.414 A  
ENDBRANCH  19  20
ENDBRANCH  18  19
ENDBRANCH   2  18
TORSDOF 7
ENDMDL
MODEL      145
REMARK 921   NORMALIZED FREE ENERGY PREDICTED BY IDOCK:   -4.51 KCAL/MOL
REMARK 922        TOTAL FREE ENERGY PREDICTED BY IDOCK:   -7.98 KCAL/MOL
REMARK 923 INTER-LIGAND FREE ENERGY PREDICTED BY IDOCK:   -7.04 KCAL/MOL
REMARK 924 INTRA-LIGAND FREE ENERGY PREDICTED BY IDOCK:   -0.94 KCAL/MOL
REMARK 927      BINDING AFFINITY PREDICTED BY RF-SCORE:    0.00 PKD
ROOT
HETATM    1  C   UNL     1      -8.362  14.351  68.705  1.00  0.00    -0.147 C  
HETATM    2  C   UNL     1      -9.891  14.345  68.567  1.00  0.00    -0.233 C  
ENDROOT
BRANCH   2   3
HETATM    3  N   UNL     1     -10.334  14.156  67.177  1.00  0.00    -0.264 NA 
HETATM    4  H   UNL     1      -9.525  14.036  66.567  1.00  0.00     0.000 HD 
BRANCH   3   5
HETATM    5  C   UNL     1     -11.307  13.052  66.951  1.00  0.00    -0.311 C  
HETATM    6  C   UNL     1     -11.462  12.751  65.457  1.00  0.00    -0.372 C  
BRANCH   5   7
HETATM    7  C   UNL     1     -10.836  11.767  67.719  1.00  0.00    -0.213 C  
HETATM    8  H   UNL     1     -11.707  10.187  68.467  1.00  0.00     0.000 HD 
HETATM    9  O   UNL     1     -11.992  10.965  68.002  1.00  0.00    -0.586 OA 
BRANCH   7  10
HETATM   10  C   UNL     1      -9.793  10.907  67.015  1.00  0.00    -0.214 A  
HETATM   11  C   UNL     1      -8.441  11.285  66.918  1.00  0.00    -0.152 A  
HETATM   12  C   UNL     1      -7.910   9.258  65.730  1.00  0.00    -0.098 A  
HETATM   13  C   UNL     1      -9.226   8.841  65.839  1.00  0.00    -0.282 A  
HETATM   14  O   UNL     1      -7.030   8.442  65.081  1.00  0.00    -0.072 OA 
HETATM   15  C   UNL     1      -7.506  10.473  66.269  1.00  0.00    -0.133 A  
HETATM   16  C   UNL     1     -10.160   9.656  66.485  1.00  0.00    -0.314 A  
HETATM   17  H   UNL     1      -7.306   7.612  64.712  1.00  0.00     0.000 HD 
ENDBRANCH   7  10
ENDBRANCH   5   7
ENDBRANCH   3   5
ENDBRANCH   2   3
BRANCH   2  18
HETATM   18  C   UNL     1     -10.405  15.699  69.101  1.00  0.00    -0.241 C  
BRANCH  18  19
HETATM   19  C   UNL     1     -11.928  15.822  69.226  1.00  0.00    -0.305 C  
BRANCH  19  20
HETATM   20  C   UNL     1     -12.332  15.513  70.652  1.00  0.00    -0.462 A  
HETATM   21  C   UNL     1     -11.570  15.995  71.726  1.00  0.00    -0.534 A  
HETATM   22  C   UNL     1     -11.872  15.614  73.034  1.00  0.00    -0.558 A  
HETATM   23  C   UNL     1     -13.709  14.275  72.224  1.00  0.00    -0.592 A  
HETATM   24  C   UNL     1     -13.409  14.655  70.915  1.00  0.00    -0.350 A  
HETATM   25  C   UNL     1     -12.937  14.750  73.283  1.00  0.00    -0.608 A  
ENDBRANCH  19  20
ENDBRANCH  18  19
ENDBRANCH   2  18
TORSDOF 7
ENDMDL
MODEL      146
REMARK 921   NORMALIZED FREE ENERGY PREDICTED BY IDOCK:   -4.51 KCAL/MOL
REMARK 922        TOTAL FREE ENERGY PREDICTED BY IDOCK:   -7.98 KCAL/MOL
REMARK 923 INTER-LIGAND FREE ENERGY PREDICTED BY IDOCK:   -6.24 KCAL/MOL
REMARK 924 INTRA-LIGAND FREE ENERGY PREDICTED BY IDOCK:   -1.74 KCAL/MOL
REMARK 927      BINDING AFFINITY PREDICTED BY RF-SCORE:    0.00 PKD
ROOT
HETATM    1  C   UNL     1      -7.724  14.868  67.509  1.00  0.00    -0.214 C  
HETATM    2  C   UNL     1      -8.699  13.708  67.755  1.00  0.00    -0.184 C  
ENDROOT
BRANCH   2   3
HETATM    3  N   UNL     1      -9.906  14.128  68.485  1.00  0.00    -0.230 NA 
HETATM    4  H   UNL     1     -10.265  14.998  68.091  1.00  0.00     0.000 HD 
BRANCH   3   5
HETATM    5  C   UNL     1     -10.998  13.120  68.566  1.00  0.00    -0.263 C  
HETATM    6  C   UNL     1     -11.787  13.266  69.871  1.00  0.00    -0.380 C  
BRANCH   5   7
HETATM    7  C   UNL     1     -11.953  13.273  67.331  1.00  0.00    -0.335 C  
HETATM    8  H   UNL     1     -12.712  14.766  66.327  1.00  0.00     0.000 HD 
HETATM    9  O   UNL     1     -12.134  14.673  67.075  1.00  0.00    -0.357 OA 
BRANCH   7  10
HETATM   10  C   UNL     1     -11.506  12.585  66.045  1.00  0.00    -0.423 A  
HETATM   11  C   UNL     1     -10.811  11.362  66.045  1.00  0.00    -0.306 A  
HETATM   12  C   UNL     1     -10.738  11.350  63.637  1.00  0.00    -0.401 A  
HETATM   13  C   UNL     1     -11.452  12.537  63.603  1.00  0.00    -0.568 A  
HETATM   14  O   UNL     1     -10.364  10.792  62.449  1.00  0.00    -0.666 OA 
HETATM   15  C   UNL     1     -10.418  10.752  64.849  1.00  0.00    -0.324 A  
HETATM   16  C   UNL     1     -11.840  13.146  64.798  1.00  0.00    -0.413 A  
HETATM   17  H   UNL     1     -10.582  11.201  61.620  1.00  0.00     0.000 HD 
ENDBRANCH   7  10
ENDBRANCH   5   7
ENDBRANCH   3   5
ENDBRANCH   2   3
BRANCH   2  18
HETATM   18  C   UNL     1      -7.942  12.637  68.568  1.00  0.00    -0.093 C  
BRANCH  18  19
HETATM   19  C   UNL     1      -7.429  11.439  67.762  1.00  0.00    -0.100 C  
BRANCH  19  20
HETATM   20  C   UNL     1      -8.299  10.236  68.059  1.00  0.00    -0.114 A  
HETATM   21  C   UNL     1      -8.230   9.094  67.248  1.00  0.00    -0.114 A  
HETATM   22  C   UNL     1      -9.112   8.030  67.446  1.00  0.00    -0.147 A  
HETATM   23  C   UNL     1     -10.140   9.222  69.276  1.00  0.00    -0.201 A  
HETATM   24  C   UNL     1      -9.258  10.286  69.080  1.00  0.00    -0.188 A  
HETATM   25  C   UNL     1     -10.070   8.097  68.456  1.00  0.00    -0.220 A  
ENDBRANCH  19  20
ENDBRANCH  18  19
ENDBRANCH   2  18
TORSDOF 7
ENDMDL
MODEL      147
REMARK 921   NORMALIZED FREE ENERGY PREDICTED BY IDOCK:   -4.50 KCAL/MOL
REMARK 922        TOTAL FREE ENERGY PREDICTED BY IDOCK:   -7.97 KCAL/MOL
REMARK 923 INTER-LIGAND FREE ENERGY PREDICTED BY IDOCK:   -6.74 KCAL/MOL
REMARK 924 INTRA-LIGAND FREE ENERGY PREDICTED BY IDOCK:   -1.23 KCAL/MOL
REMARK 927      BINDING AFFINITY PREDICTED BY RF-SCORE:    0.00 PKD
ROOT
HETATM    1  C   UNL     1      -8.108   6.644  70.800  1.00  0.00    -0.119 C  
HETATM    2  C   UNL     1      -9.013   6.886  69.583  1.00  0.00    -0.144 C  
ENDROOT
BRANCH   2   3
HETATM    3  N   UNL     1      -9.071   8.303  69.193  1.00  0.00    -0.147 NA 
HETATM    4  H   UNL     1      -8.534   8.867  69.851  1.00  0.00     0.000 HD 
BRANCH   3   5
HETATM    5  C   UNL     1      -8.646   8.609  67.799  1.00  0.00    -0.136 C  
HETATM    6  C   UNL     1      -7.965   7.397  67.153  1.00  0.00    -0.114 C  
BRANCH   5   7
HETATM    7  C   UNL     1      -9.891   9.050  66.951  1.00  0.00    -0.224 C  
HETATM    8  H   UNL     1     -11.612   8.259  66.476  1.00  0.00     0.000 HD 
HETATM    9  O   UNL     1     -10.858   7.992  66.990  1.00  0.00    -0.283 OA 
BRANCH   7  10
HETATM   10  C   UNL     1     -10.562  10.354  67.371  1.00  0.00    -0.321 A  
HETATM   11  C   UNL     1     -11.290  10.478  68.568  1.00  0.00    -0.320 A  
HETATM   12  C   UNL     1     -11.749  12.796  68.104  1.00  0.00    -0.345 A  
HETATM   13  C   UNL     1     -11.010  12.716  66.935  1.00  0.00    -0.297 A  
HETATM   14  O   UNL     1     -12.329  13.992  68.416  1.00  0.00    -0.533 OA 
HETATM   15  C   UNL     1     -11.891  11.689  68.929  1.00  0.00    -0.392 A  
HETATM   16  C   UNL     1     -10.414  11.505  66.575  1.00  0.00    -0.284 A  
HETATM   17  H   UNL     1     -12.233  14.750  67.851  1.00  0.00     0.000 HD 
ENDBRANCH   7  10
ENDBRANCH   5   7
ENDBRANCH   3   5
ENDBRANCH   2   3
BRANCH   2  18
HETATM   18  C   UNL     1     -10.425   6.387  69.956  1.00  0.00    -0.267 C  
BRANCH  18  19
HETATM   19  C   UNL     1     -10.773   6.447  71.447  1.00  0.00    -0.290 C  
BRANCH  19  20
HETATM   20  C   UNL     1     -11.972   7.352  71.638  1.00  0.00    -0.339 A  
HETATM   21  C   UNL     1     -13.271   6.849  71.480  1.00  0.00    -0.322 A  
HETATM   22  C   UNL     1     -14.372   7.705  71.539  1.00  0.00    -0.589 A  
HETATM   23  C   UNL     1     -12.900   9.577  71.928  1.00  0.00    -0.508 A  
HETATM   24  C   UNL     1     -11.798   8.723  71.870  1.00  0.00    -0.437 A  
HETATM   25  C   UNL     1     -14.187   9.069  71.757  1.00  0.00    -0.326 A  
ENDBRANCH  19  20
ENDBRANCH  18  19
ENDBRANCH   2  18
TORSDOF 7
ENDMDL
MODEL      148
REMARK 921   NORMALIZED FREE ENERGY PREDICTED BY IDOCK:   -4.48 KCAL/MOL
REMARK 922        TOTAL FREE ENERGY PREDICTED BY IDOCK:   -7.95 KCAL/MOL
REMARK 923 INTER-LIGAND FREE ENERGY PREDICTED BY IDOCK:   -6.73 KCAL/MOL
REMARK 924 INTRA-LIGAND FREE ENERGY PREDICTED BY IDOCK:   -1.21 KCAL/MOL
REMARK 927      BINDING AFFINITY PREDICTED BY RF-SCORE:    0.00 PKD
ROOT
HETATM    1  C   UNL     1      -6.602  13.478  68.836  1.00  0.00    -0.106 C  
HETATM    2  C   UNL     1      -7.458  13.148  67.605  1.00  0.00    -0.164 C  
ENDROOT
BRANCH   2   3
HETATM    3  N   UNL     1      -8.391  14.231  67.257  1.00  0.00    -0.202 NA 
HETATM    4  H   UNL     1      -9.194  13.852  66.756  1.00  0.00     0.000 HD 
BRANCH   3   5
HETATM    5  C   UNL     1      -8.853  15.077  68.391  1.00  0.00    -0.178 C  
HETATM    6  C   UNL     1      -8.162  16.445  68.377  1.00  0.00    -0.190 C  
BRANCH   5   7
HETATM    7  C   UNL     1     -10.411  15.253  68.320  1.00  0.00    -0.234 C  
HETATM    8  H   UNL     1     -11.673  16.697  68.685  1.00  0.00     0.000 HD 
HETATM    9  O   UNL     1     -10.730  16.590  68.728  1.00  0.00    -0.296 OA 
BRANCH   7  10
HETATM   10  C   UNL     1     -11.058  14.976  66.967  1.00  0.00    -0.334 A  
HETATM   11  C   UNL     1     -12.098  14.044  66.803  1.00  0.00    -0.480 A  
HETATM   12  C   UNL     1     -12.232  14.536  64.449  1.00  0.00    -0.458 A  
HETATM   13  C   UNL     1     -11.233  15.486  64.584  1.00  0.00    -0.381 A  
HETATM   14  O   UNL     1     -12.763  14.334  63.208  1.00  0.00    -0.940 OA 
HETATM   15  C   UNL     1     -12.676  13.814  65.550  1.00  0.00    -0.530 A  
HETATM   16  C   UNL     1     -10.655  15.711  65.836  1.00  0.00    -0.354 A  
HETATM   17  H   UNL     1     -12.459  14.828  62.455  1.00  0.00     0.000 HD 
ENDBRANCH   7  10
ENDBRANCH   5   7
ENDBRANCH   3   5
ENDBRANCH   2   3
BRANCH   2  18
HETATM   18  C   UNL     1      -8.246  11.861  67.926  1.00  0.00    -0.150 C  
BRANCH  18  19
HETATM   19  C   UNL     1      -9.584  11.708  67.194  1.00  0.00    -0.185 C  
BRANCH  19  20
HETATM   20  C   UNL     1      -9.333  11.119  65.822  1.00  0.00    -0.238 A  
HETATM   21  C   UNL     1     -10.012  11.617  64.702  1.00  0.00    -0.291 A  
HETATM   22  C   UNL     1      -9.871  11.000  63.457  1.00  0.00    -0.403 A  
HETATM   23  C   UNL     1      -8.361   9.386  64.425  1.00  0.00    -0.170 A  
HETATM   24  C   UNL     1      -8.500  10.002  65.671  1.00  0.00    -0.155 A  
HETATM   25  C   UNL     1      -9.051   9.882  63.320  1.00  0.00    -0.294 A  
ENDBRANCH  19  20
ENDBRANCH  18  19
ENDBRANCH   2  18
TORSDOF 7
ENDMDL
MODEL      149
REMARK 921   NORMALIZED FREE ENERGY PREDICTED BY IDOCK:   -4.45 KCAL/MOL
REMARK 922        TOTAL FREE ENERGY PREDICTED BY IDOCK:   -7.90 KCAL/MOL
REMARK 923 INTER-LIGAND FREE ENERGY PREDICTED BY IDOCK:   -7.55 KCAL/MOL
REMARK 924 INTRA-LIGAND FREE ENERGY PREDICTED BY IDOCK:   -0.35 KCAL/MOL
REMARK 927      BINDING AFFINITY PREDICTED BY RF-SCORE:    0.00 PKD
ROOT
HETATM    1  C   UNL     1     -11.285   6.214  69.273  1.00  0.00    -0.438 C  
HETATM    2  C   UNL     1     -10.477   7.501  69.053  1.00  0.00    -0.208 C  
ENDROOT
BRANCH   2   3
HETATM    3  N   UNL     1     -11.072   8.666  69.726  1.00  0.00    -0.425 NA 
HETATM    4  H   UNL     1     -11.758   9.109  69.114  1.00  0.00     0.000 HD 
BRANCH   3   5
HETATM    5  C   UNL     1     -11.679   8.402  71.060  1.00  0.00    -0.267 C  
HETATM    6  C   UNL     1     -10.693   8.727  72.188  1.00  0.00    -0.383 C  
BRANCH   5   7
HETATM    7  C   UNL     1     -12.990   9.249  71.222  1.00  0.00    -0.277 C  
HETATM    8  H   UNL     1     -14.357   9.460  72.600  1.00  0.00     0.000 HD 
HETATM    9  O   UNL     1     -13.563   8.947  72.502  1.00  0.00    -0.441 OA 
BRANCH   7  10
HETATM   10  C   UNL     1     -12.835  10.760  71.089  1.00  0.00    -0.513 A  
HETATM   11  C   UNL     1     -13.359  11.660  72.036  1.00  0.00    -0.405 A  
HETATM   12  C   UNL     1     -12.487  13.537  70.804  1.00  0.00    -0.353 A  
HETATM   13  C   UNL     1     -11.930  12.677  69.873  1.00  0.00    -0.365 A  
HETATM   14  O   UNL     1     -12.316  14.879  70.621  1.00  0.00    -0.300 OA 
HETATM   15  C   UNL     1     -13.198  13.042  71.890  1.00  0.00    -0.527 A  
HETATM   16  C   UNL     1     -12.095  11.297  70.019  1.00  0.00    -0.425 A  
HETATM   17  H   UNL     1     -11.831  15.218  69.878  1.00  0.00     0.000 HD 
ENDBRANCH   7  10
ENDBRANCH   5   7
ENDBRANCH   3   5
ENDBRANCH   2   3
BRANCH   2  18
HETATM   18  C   UNL     1     -10.416   7.750  67.532  1.00  0.00    -0.338 C  
BRANCH  18  19
HETATM   19  C   UNL     1     -10.332   9.221  67.107  1.00  0.00    -0.330 C  
BRANCH  19  20
HETATM   20  C   UNL     1      -9.697   9.303  65.736  1.00  0.00    -0.339 A  
HETATM   21  C   UNL     1      -8.595   8.497  65.415  1.00  0.00    -0.202 A  
HETATM   22  C   UNL     1      -7.935   8.654  64.195  1.00  0.00    -0.149 A  
HETATM   23  C   UNL     1      -9.471  10.414  63.588  1.00  0.00    -0.353 A  
HETATM   24  C   UNL     1     -10.133  10.258  64.807  1.00  0.00    -0.336 A  
HETATM   25  C   UNL     1      -8.369   9.616  63.285  1.00  0.00    -0.173 A  
ENDBRANCH  19  20
ENDBRANCH  18  19
ENDBRANCH   2  18
TORSDOF 7
ENDMDL
MODEL      150
REMARK 921   NORMALIZED FREE ENERGY PREDICTED BY IDOCK:   -4.43 KCAL/MOL
REMARK 922        TOTAL FREE ENERGY PREDICTED BY IDOCK:   -7.88 KCAL/MOL
REMARK 923 INTER-LIGAND FREE ENERGY PREDICTED BY IDOCK:   -6.58 KCAL/MOL
REMARK 924 INTRA-LIGAND FREE ENERGY PREDICTED BY IDOCK:   -1.30 KCAL/MOL
REMARK 927      BINDING AFFINITY PREDICTED BY RF-SCORE:    0.00 PKD
ROOT
HETATM    1  C   UNL     1     -11.743  15.907  69.121  1.00  0.00    -0.369 C  
HETATM    2  C   UNL     1     -11.377  15.124  67.851  1.00  0.00    -0.338 C  
ENDROOT
BRANCH   2   3
HETATM    3  N   UNL     1     -11.724  13.697  67.946  1.00  0.00    -0.340 NA 
HETATM    4  H   UNL     1     -12.340  13.541  68.744  1.00  0.00     0.000 HD 
BRANCH   3   5
HETATM    5  C   UNL     1     -12.317  13.092  66.722  1.00  0.00    -0.108 C  
HETATM    6  C   UNL     1     -12.658  14.169  65.685  1.00  0.00    -0.495 C  
BRANCH   5   7
HETATM    7  C   UNL     1     -11.320  12.045  66.113  1.00  0.00    -0.351 C  
HETATM    8  H   UNL     1      -9.857  12.094  64.820  1.00  0.00     0.000 HD 
HETATM    9  O   UNL     1     -10.461  12.728  65.189  1.00  0.00    -0.287 OA 
BRANCH   7  10
HETATM   10  C   UNL     1     -10.464  11.272  67.110  1.00  0.00    -0.259 A  
HETATM   11  C   UNL     1      -9.124  11.607  67.376  1.00  0.00    -0.169 A  
HETATM   12  C   UNL     1      -8.947   9.826  68.987  1.00  0.00    -0.154 A  
HETATM   13  C   UNL     1     -10.275   9.492  68.773  1.00  0.00    -0.215 A  
HETATM   14  O   UNL     1      -8.237   9.087  69.889  1.00  0.00    -0.106 OA 
HETATM   15  C   UNL     1      -8.364  10.882  68.300  1.00  0.00    -0.129 A  
HETATM   16  C   UNL     1     -11.031  10.215  67.847  1.00  0.00    -0.335 A  
HETATM   17  H   UNL     1      -8.636   8.364  70.358  1.00  0.00     0.000 HD 
ENDBRANCH   7  10
ENDBRANCH   5   7
ENDBRANCH   3   5
ENDBRANCH   2   3
BRANCH   2  18
HETATM   18  C   UNL     1      -9.857  15.280  67.638  1.00  0.00    -0.217 C  
BRANCH  18  19
HETATM   19  C   UNL     1      -9.441  15.934  66.316  1.00  0.00    -0.350 C  
BRANCH  19  20
HETATM   20  C   UNL     1      -9.395  17.436  66.501  1.00  0.00    -0.288 A  
HETATM   21  C   UNL     1      -8.266  18.046  67.068  1.00  0.00    -0.240 A  
HETATM   22  C   UNL     1      -8.267  19.413  67.349  1.00  0.00    -0.319 A  
HETATM   23  C   UNL     1     -10.516  19.590  66.490  1.00  0.00    -0.595 A  
HETATM   24  C   UNL     1     -10.516  18.223  66.208  1.00  0.00    -0.397 A  
HETATM   25  C   UNL     1      -9.393  20.184  67.065  1.00  0.00    -0.523 A  
ENDBRANCH  19  20
ENDBRANCH  18  19
ENDBRANCH   2  18
TORSDOF 7
ENDMDL
MODEL      151
REMARK 921   NORMALIZED FREE ENERGY PREDICTED BY IDOCK:   -4.40 KCAL/MOL
REMARK 922        TOTAL FREE ENERGY PREDICTED BY IDOCK:   -7.83 KCAL/MOL
REMARK 923 INTER-LIGAND FREE ENERGY PREDICTED BY IDOCK:   -6.94 KCAL/MOL
REMARK 924 INTRA-LIGAND FREE ENERGY PREDICTED BY IDOCK:   -0.89 KCAL/MOL
REMARK 927      BINDING AFFINITY PREDICTED BY RF-SCORE:    0.00 PKD
ROOT
HETATM    1  C   UNL     1      -9.087   9.792  69.527  1.00  0.00    -0.227 C  
HETATM    2  C   UNL     1     -10.574  10.135  69.706  1.00  0.00    -0.260 C  
ENDROOT
BRANCH   2   3
HETATM    3  N   UNL     1     -11.350   9.014  70.259  1.00  0.00    -0.390 NA 
HETATM    4  H   UNL     1     -11.877   8.555  69.516  1.00  0.00     0.000 HD 
BRANCH   3   5
HETATM    5  C   UNL     1     -10.572   8.004  71.027  1.00  0.00    -0.213 C  
HETATM    6  C   UNL     1     -10.652   8.275  72.534  1.00  0.00    -0.407 C  
BRANCH   5   7
HETATM    7  C   UNL     1     -11.108   6.565  70.704  1.00  0.00    -0.309 C  
HETATM    8  H   UNL     1     -12.866   5.747  70.472  1.00  0.00     0.000 HD 
HETATM    9  O   UNL     1     -12.541   6.618  70.668  1.00  0.00    -0.223 OA 
BRANCH   7  10
HETATM   10  C   UNL     1     -10.601   5.932  69.412  1.00  0.00    -0.379 A  
HETATM   11  C   UNL     1      -9.730   4.827  69.403  1.00  0.00    -0.266 A  
HETATM   12  C   UNL     1      -9.726   4.790  66.995  1.00  0.00    -0.186 A  
HETATM   13  C   UNL     1     -10.611   5.855  66.970  1.00  0.00    -0.376 A  
HETATM   14  O   UNL     1      -9.307   4.276  65.802  1.00  0.00    -0.142 OA 
HETATM   15  C   UNL     1      -9.284   4.265  68.202  1.00  0.00    -0.186 A  
HETATM   16  C   UNL     1     -11.052   6.418  68.171  1.00  0.00    -0.358 A  
HETATM   17  H   UNL     1      -9.609   4.636  64.976  1.00  0.00     0.000 HD 
ENDBRANCH   7  10
ENDBRANCH   5   7
ENDBRANCH   3   5
ENDBRANCH   2   3
BRANCH   2  18
HETATM   18  C   UNL     1     -11.126  10.520  68.318  1.00  0.00    -0.340 C  
BRANCH  18  19
HETATM   19  C   UNL     1     -11.900  11.842  68.260  1.00  0.00    -0.340 C  
BRANCH  19  20
HETATM   20  C   UNL     1     -11.605  12.529  66.944  1.00  0.00    -0.436 A  
HETATM   21  C   UNL     1     -12.127  13.803  66.678  1.00  0.00    -0.471 A  
HETATM   22  C   UNL     1     -11.955  14.389  65.422  1.00  0.00    -0.369 A  
HETATM   23  C   UNL     1     -10.726  12.449  64.682  1.00  0.00    -0.339 A  
HETATM   24  C   UNL     1     -10.896  11.861  65.936  1.00  0.00    -0.342 A  
HETATM   25  C   UNL     1     -11.261  13.710  64.423  1.00  0.00    -0.382 A  
ENDBRANCH  19  20
ENDBRANCH  18  19
ENDBRANCH   2  18
TORSDOF 7
ENDMDL
MODEL      152
REMARK 921   NORMALIZED FREE ENERGY PREDICTED BY IDOCK:   -4.38 KCAL/MOL
REMARK 922        TOTAL FREE ENERGY PREDICTED BY IDOCK:   -7.81 KCAL/MOL
REMARK 923 INTER-LIGAND FREE ENERGY PREDICTED BY IDOCK:   -6.53 KCAL/MOL
REMARK 924 INTRA-LIGAND FREE ENERGY PREDICTED BY IDOCK:   -1.28 KCAL/MOL
REMARK 927      BINDING AFFINITY PREDICTED BY RF-SCORE:    0.00 PKD
ROOT
HETATM    1  C   UNL     1     -11.035   4.745  73.821  1.00  0.00    -0.371 C  
HETATM    2  C   UNL     1     -10.804   5.221  72.379  1.00  0.00    -0.224 C  
ENDROOT
BRANCH   2   3
HETATM    3  N   UNL     1      -9.429   5.695  72.153  1.00  0.00    -0.149 NA 
HETATM    4  H   UNL     1      -8.945   5.796  73.045  1.00  0.00     0.000 HD 
BRANCH   3   5
HETATM    5  C   UNL     1      -8.607   4.877  71.220  1.00  0.00    -0.123 C  
HETATM    6  C   UNL     1      -9.344   3.595  70.816  1.00  0.00    -0.225 C  
BRANCH   5   7
HETATM    7  C   UNL     1      -8.251   5.724  69.948  1.00  0.00    -0.115 C  
HETATM    8  H   UNL     1      -6.658   5.999  68.852  1.00  0.00     0.000 HD 
HETATM    9  O   UNL     1      -6.874   5.486  69.622  1.00  0.00    -0.056 OA 
BRANCH   7  10
HETATM   10  C   UNL     1      -9.106   5.471  68.710  1.00  0.00    -0.131 A  
HETATM   11  C   UNL     1     -10.233   6.254  68.398  1.00  0.00    -0.200 A  
HETATM   12  C   UNL     1     -10.623   4.976  66.394  1.00  0.00    -0.261 A  
HETATM   13  C   UNL     1      -9.499   4.210  66.655  1.00  0.00    -0.206 A  
HETATM   14  O   UNL     1     -11.347   4.692  65.272  1.00  0.00    -0.980 OA 
HETATM   15  C   UNL     1     -10.996   6.001  67.253  1.00  0.00    -0.356 A  
HETATM   16  C   UNL     1      -8.740   4.461  67.801  1.00  0.00    -0.115 A  
HETATM   17  H   UNL     1     -11.092   3.990  64.685  1.00  0.00     0.000 HD 
ENDBRANCH   7  10
ENDBRANCH   5   7
ENDBRANCH   3   5
ENDBRANCH   2   3
BRANCH   2  18
HETATM   18  C   UNL     1     -11.803   6.364  72.108  1.00  0.00    -0.361 C  
BRANCH  18  19
HETATM   19  C   UNL     1     -11.434   7.721  72.716  1.00  0.00    -0.415 C  
BRANCH  19  20
HETATM   20  C   UNL     1     -11.391   8.760  71.616  1.00  0.00    -0.390 A  
HETATM   21  C   UNL     1     -10.208   8.984  70.898  1.00  0.00    -0.324 A  
HETATM   22  C   UNL     1     -10.132  10.020  69.965  1.00  0.00    -0.289 A  
HETATM   23  C   UNL     1     -12.421  10.619  70.440  1.00  0.00    -0.421 A  
HETATM   24  C   UNL     1     -12.499   9.583  71.373  1.00  0.00    -0.450 A  
HETATM   25  C   UNL     1     -11.236  10.841  69.741  1.00  0.00    -0.365 A  
ENDBRANCH  19  20
ENDBRANCH  18  19
ENDBRANCH   2  18
TORSDOF 7
ENDMDL
MODEL      153
REMARK 921   NORMALIZED FREE ENERGY PREDICTED BY IDOCK:   -4.31 KCAL/MOL
REMARK 922        TOTAL FREE ENERGY PREDICTED BY IDOCK:   -7.71 KCAL/MOL
REMARK 923 INTER-LIGAND FREE ENERGY PREDICTED BY IDOCK:   -6.60 KCAL/MOL
REMARK 924 INTRA-LIGAND FREE ENERGY PREDICTED BY IDOCK:   -1.11 KCAL/MOL
REMARK 927      BINDING AFFINITY PREDICTED BY RF-SCORE:    0.00 PKD
ROOT
HETATM    1  C   UNL     1     -11.629   8.364  70.655  1.00  0.00    -0.205 C  
HETATM    2  C   UNL     1     -10.966   9.637  70.108  1.00  0.00    -0.275 C  
ENDROOT
BRANCH   2   3
HETATM    3  N   UNL     1     -11.119   9.773  68.651  1.00  0.00    -0.454 NA 
HETATM    4  H   UNL     1     -11.778   9.076  68.304  1.00  0.00     0.000 HD 
BRANCH   3   5
HETATM    5  C   UNL     1     -11.508  11.125  68.164  1.00  0.00    -0.303 C  
HETATM    6  C   UNL     1     -11.670  12.105  69.332  1.00  0.00    -0.391 C  
BRANCH   5   7
HETATM    7  C   UNL     1     -10.430  11.654  67.154  1.00  0.00    -0.220 C  
HETATM    8  H   UNL     1      -9.346  10.874  65.730  1.00  0.00     0.000 HD 
HETATM    9  O   UNL     1      -9.999  10.554  66.341  1.00  0.00    -0.202 OA 
BRANCH   7  10
HETATM   10  C   UNL     1     -10.864  12.802  66.249  1.00  0.00    -0.299 A  
HETATM   11  C   UNL     1     -10.047  13.921  66.003  1.00  0.00    -0.324 A  
HETATM   12  C   UNL     1     -11.707  14.873  64.541  1.00  0.00    -0.382 A  
HETATM   13  C   UNL     1     -12.521  13.768  64.735  1.00  0.00    -0.386 A  
HETATM   14  O   UNL     1     -12.160  15.867  63.723  1.00  0.00    -1.239 OA 
HETATM   15  C   UNL     1     -10.469  14.958  65.164  1.00  0.00    -0.442 A  
HETATM   16  C   UNL     1     -12.098  12.736  65.576  1.00  0.00    -0.517 A  
HETATM   17  H   UNL     1     -13.008  15.809  63.297  1.00  0.00     0.000 HD 
ENDBRANCH   7  10
ENDBRANCH   5   7
ENDBRANCH   3   5
ENDBRANCH   2   3
BRANCH   2  18
HETATM   18  C   UNL     1      -9.469   9.568  70.473  1.00  0.00    -0.306 C  
BRANCH  18  19
HETATM   19  C   UNL     1      -8.520   9.262  69.309  1.00  0.00    -0.137 C  
BRANCH  19  20
HETATM   20  C   UNL     1      -8.002   7.846  69.453  1.00  0.00    -0.117 A  
HETATM   21  C   UNL     1      -8.363   6.862  68.521  1.00  0.00    -0.121 A  
HETATM   22  C   UNL     1      -7.985   5.533  68.715  1.00  0.00    -0.095 A  
HETATM   23  C   UNL     1      -6.869   6.146  70.765  1.00  0.00    -0.062 A  
HETATM   24  C   UNL     1      -7.246   7.476  70.573  1.00  0.00    -0.064 A  
HETATM   25  C   UNL     1      -7.243   5.174  69.839  1.00  0.00    -0.059 A  
ENDBRANCH  19  20
ENDBRANCH  18  19
ENDBRANCH   2  18
TORSDOF 7
ENDMDL
MODEL      154
REMARK 921   NORMALIZED FREE ENERGY PREDICTED BY IDOCK:   -4.30 KCAL/MOL
REMARK 922        TOTAL FREE ENERGY PREDICTED BY IDOCK:   -7.69 KCAL/MOL
REMARK 923 INTER-LIGAND FREE ENERGY PREDICTED BY IDOCK:   -6.41 KCAL/MOL
REMARK 924 INTRA-LIGAND FREE ENERGY PREDICTED BY IDOCK:   -1.28 KCAL/MOL
REMARK 927      BINDING AFFINITY PREDICTED BY RF-SCORE:    0.00 PKD
ROOT
HETATM    1  C   UNL     1      -7.701  11.010  68.395  1.00  0.00    -0.119 C  
HETATM    2  C   UNL     1      -8.784  10.472  69.342  1.00  0.00    -0.078 C  
ENDROOT
BRANCH   2   3
HETATM    3  N   UNL     1      -8.899   9.006  69.297  1.00  0.00    -0.137 NA 
HETATM    4  H   UNL     1      -9.883   8.735  69.299  1.00  0.00     0.000 HD 
BRANCH   3   5
HETATM    5  C   UNL     1      -8.191   8.336  68.172  1.00  0.00    -0.128 C  
HETATM    6  C   UNL     1      -7.425   7.102  68.661  1.00  0.00    -0.102 C  
BRANCH   5   7
HETATM    7  C   UNL     1      -9.223   7.932  67.062  1.00  0.00    -0.148 C  
HETATM    8  H   UNL     1     -11.149   7.615  66.991  1.00  0.00     0.000 HD 
HETATM    9  O   UNL     1     -10.524   7.861  67.663  1.00  0.00    -0.228 OA 
BRANCH   7  10
HETATM   10  C   UNL     1      -9.289   8.843  65.840  1.00  0.00    -0.301 A  
HETATM   11  C   UNL     1      -8.489   8.637  64.701  1.00  0.00    -0.150 A  
HETATM   12  C   UNL     1      -9.480  10.540  63.605  1.00  0.00    -0.304 A  
HETATM   13  C   UNL     1     -10.305  10.748  64.698  1.00  0.00    -0.394 A  
HETATM   14  O   UNL     1      -9.586  11.397  62.548  1.00  0.00    -0.553 OA 
HETATM   15  C   UNL     1      -8.574   9.487  63.593  1.00  0.00    -0.222 A  
HETATM   16  C   UNL     1     -10.216   9.900  65.805  1.00  0.00    -0.251 A  
HETATM   17  H   UNL     1     -10.205  12.117  62.557  1.00  0.00     0.000 HD 
ENDBRANCH   7  10
ENDBRANCH   5   7
ENDBRANCH   3   5
ENDBRANCH   2   3
BRANCH   2  18
HETATM   18  C   UNL     1     -10.121  11.117  68.922  1.00  0.00    -0.199 C  
BRANCH  18  19
HETATM   19  C   UNL     1     -11.362  10.600  69.659  1.00  0.00    -0.360 C  
BRANCH  19  20
HETATM   20  C   UNL     1     -12.080  11.769  70.298  1.00  0.00    -0.426 A  
HETATM   21  C   UNL     1     -11.866  13.073  69.830  1.00  0.00    -0.381 A  
HETATM   22  C   UNL     1     -12.434  14.164  70.491  1.00  0.00    -0.431 A  
HETATM   23  C   UNL     1     -13.449  12.669  72.091  1.00  0.00    -0.561 A  
HETATM   24  C   UNL     1     -12.882  11.577  71.431  1.00  0.00    -0.489 A  
HETATM   25  C   UNL     1     -13.219  13.963  71.624  1.00  0.00    -0.446 A  
ENDBRANCH  19  20
ENDBRANCH  18  19
ENDBRANCH   2  18
TORSDOF 7
ENDMDL
MODEL      155
REMARK 921   NORMALIZED FREE ENERGY PREDICTED BY IDOCK:   -4.27 KCAL/MOL
REMARK 922        TOTAL FREE ENERGY PREDICTED BY IDOCK:   -7.65 KCAL/MOL
REMARK 923 INTER-LIGAND FREE ENERGY PREDICTED BY IDOCK:   -6.51 KCAL/MOL
REMARK 924 INTRA-LIGAND FREE ENERGY PREDICTED BY IDOCK:   -1.14 KCAL/MOL
REMARK 927      BINDING AFFINITY PREDICTED BY RF-SCORE:    0.00 PKD
ROOT
HETATM    1  C   UNL     1      -7.680   9.838  65.714  1.00  0.00    -0.110 C  
HETATM    2  C   UNL     1      -8.546   9.585  66.957  1.00  0.00    -0.128 C  
ENDROOT
BRANCH   2   3
HETATM    3  N   UNL     1      -9.569   8.551  66.734  1.00  0.00    -0.190 NA 
HETATM    4  H   UNL     1      -9.787   8.487  65.739  1.00  0.00     0.000 HD 
BRANCH   3   5
HETATM    5  C   UNL     1      -9.251   7.200  67.272  1.00  0.00    -0.130 C  
HETATM    6  C   UNL     1      -8.155   7.276  68.340  1.00  0.00    -0.125 C  
BRANCH   5   7
HETATM    7  C   UNL     1     -10.548   6.549  67.868  1.00  0.00    -0.252 C  
HETATM    8  H   UNL     1     -11.248   4.735  68.047  1.00  0.00     0.000 HD 
HETATM    9  O   UNL     1     -10.462   5.129  67.686  1.00  0.00    -0.151 OA 
BRANCH   7  10
HETATM   10  C   UNL     1     -10.836   6.846  69.336  1.00  0.00    -0.283 A  
HETATM   11  C   UNL     1     -11.185   8.131  69.793  1.00  0.00     0.027 A  
HETATM   12  C   UNL     1     -11.388   7.323  72.053  1.00  0.00    -0.260 A  
HETATM   13  C   UNL     1     -11.082   6.041  71.629  1.00  0.00    -0.333 A  
HETATM   14  O   UNL     1     -11.628   7.520  73.382  1.00  0.00    -0.621 OA 
HETATM   15  C   UNL     1     -11.448   8.373  71.145  1.00  0.00    -0.314 A  
HETATM   16  C   UNL     1     -10.816   5.802  70.279  1.00  0.00    -0.373 A  
HETATM   17  H   UNL     1     -11.587   6.802  74.003  1.00  0.00     0.000 HD 
ENDBRANCH   7  10
ENDBRANCH   5   7
ENDBRANCH   3   5
ENDBRANCH   2   3
BRANCH   2  18
HETATM   18  C   UNL     1      -9.224  10.922  67.324  1.00  0.00    -0.160 C  
BRANCH  18  19
HETATM   19  C   UNL     1     -10.751  10.944  67.191  1.00  0.00    -0.320 C  
BRANCH  19  20
HETATM   20  C   UNL     1     -11.130  11.788  65.993  1.00  0.00    -0.363 A  
HETATM   21  C   UNL     1     -11.923  12.933  66.155  1.00  0.00    -0.491 A  
HETATM   22  C   UNL     1     -12.372  13.647  65.042  1.00  0.00    -0.462 A  
HETATM   23  C   UNL     1     -11.234  12.095  63.586  1.00  0.00    -0.540 A  
HETATM   24  C   UNL     1     -10.784  11.380  64.698  1.00  0.00    -0.378 A  
HETATM   25  C   UNL     1     -12.032  13.224  63.758  1.00  0.00    -0.551 A  
ENDBRANCH  19  20
ENDBRANCH  18  19
ENDBRANCH   2  18
TORSDOF 7
ENDMDL
MODEL      156
REMARK 921   NORMALIZED FREE ENERGY PREDICTED BY IDOCK:   -4.27 KCAL/MOL
REMARK 922        TOTAL FREE ENERGY PREDICTED BY IDOCK:   -7.65 KCAL/MOL
REMARK 923 INTER-LIGAND FREE ENERGY PREDICTED BY IDOCK:   -6.66 KCAL/MOL
REMARK 924 INTRA-LIGAND FREE ENERGY PREDICTED BY IDOCK:   -0.98 KCAL/MOL
REMARK 927      BINDING AFFINITY PREDICTED BY RF-SCORE:    0.00 PKD
ROOT
HETATM    1  C   UNL     1     -10.924  14.650  65.590  1.00  0.00    -0.336 C  
HETATM    2  C   UNL     1     -11.453  15.211  66.918  1.00  0.00    -0.214 C  
ENDROOT
BRANCH   2   3
HETATM    3  N   UNL     1     -10.418  15.924  67.684  1.00  0.00    -0.282 NA 
HETATM    4  H   UNL     1      -9.717  15.263  68.020  1.00  0.00     0.000 HD 
BRANCH   3   5
HETATM    5  C   UNL     1      -9.752  17.053  66.978  1.00  0.00    -0.263 C  
HETATM    6  C   UNL     1     -10.645  18.299  66.968  1.00  0.00    -0.375 C  
BRANCH   5   7
HETATM    7  C   UNL     1      -8.379  17.372  67.667  1.00  0.00    -0.211 C  
HETATM    8  H   UNL     1      -7.798  18.427  69.204  1.00  0.00     0.000 HD 
HETATM    9  O   UNL     1      -8.629  18.234  68.787  1.00  0.00    -0.301 OA 
BRANCH   7  10
HETATM   10  C   UNL     1      -7.566  16.170  68.135  1.00  0.00    -0.140 A  
HETATM   11  C   UNL     1      -7.373  15.030  67.334  1.00  0.00    -0.231 A  
HETATM   12  C   UNL     1      -6.026  13.998  69.043  1.00  0.00    -0.091 A  
HETATM   13  C   UNL     1      -6.169  15.120  69.843  1.00  0.00    -0.154 A  
HETATM   14  O   UNL     1      -5.290  12.955  69.527  1.00  0.00    -0.075 OA 
HETATM   15  C   UNL     1      -6.617  13.944  67.788  1.00  0.00    -0.186 A  
HETATM   16  C   UNL     1      -6.927  16.203  69.388  1.00  0.00    -0.220 A  
HETATM   17  H   UNL     1      -4.886  12.993  70.386  1.00  0.00     0.000 HD 
ENDBRANCH   7  10
ENDBRANCH   5   7
ENDBRANCH   3   5
ENDBRANCH   2   3
BRANCH   2  18
HETATM   18  C   UNL     1     -11.985  14.019  67.740  1.00  0.00    -0.392 C  
BRANCH  18  19
HETATM   19  C   UNL     1     -11.290  13.784  69.086  1.00  0.00    -0.329 C  
BRANCH  19  20
HETATM   20  C   UNL     1     -12.306  13.939  70.198  1.00  0.00    -0.400 A  
HETATM   21  C   UNL     1     -12.973  15.158  70.384  1.00  0.00    -0.296 A  
HETATM   22  C   UNL     1     -13.821  15.341  71.478  1.00  0.00    -0.617 A  
HETATM   23  C   UNL     1     -13.360  13.089  72.214  1.00  0.00    -0.606 A  
HETATM   24  C   UNL     1     -12.513  12.904  71.120  1.00  0.00    -0.344 A  
HETATM   25  C   UNL     1     -14.010  14.309  72.396  1.00  0.00    -0.597 A  
ENDBRANCH  19  20
ENDBRANCH  18  19
ENDBRANCH   2  18
TORSDOF 7
ENDMDL
MODEL      157
REMARK 921   NORMALIZED FREE ENERGY PREDICTED BY IDOCK:   -4.26 KCAL/MOL
REMARK 922        TOTAL FREE ENERGY PREDICTED BY IDOCK:   -7.63 KCAL/MOL
REMARK 923 INTER-LIGAND FREE ENERGY PREDICTED BY IDOCK:   -6.62 KCAL/MOL
REMARK 924 INTRA-LIGAND FREE ENERGY PREDICTED BY IDOCK:   -1.01 KCAL/MOL
REMARK 927      BINDING AFFINITY PREDICTED BY RF-SCORE:    0.00 PKD
ROOT
HETATM    1  C   UNL     1      -8.097  10.436  67.514  1.00  0.00    -0.107 C  
HETATM    2  C   UNL     1      -8.790   9.402  66.615  1.00  0.00    -0.135 C  
ENDROOT
BRANCH   2   3
HETATM    3  N   UNL     1     -10.012   9.926  65.986  1.00  0.00    -0.264 NA 
HETATM    4  H   UNL     1     -10.764   9.973  66.673  1.00  0.00     0.000 HD 
BRANCH   3   5
HETATM    5  C   UNL     1      -9.873  11.238  65.296  1.00  0.00    -0.246 C  
HETATM    6  C   UNL     1      -9.406  11.052  63.848  1.00  0.00    -0.233 C  
BRANCH   5   7
HETATM    7  C   UNL     1     -11.242  12.003  65.332  1.00  0.00    -0.322 C  
HETATM    8  H   UNL     1     -12.721  12.165  66.598  1.00  0.00     0.000 HD 
HETATM    9  O   UNL     1     -11.891  11.701  66.575  1.00  0.00    -0.500 OA 
BRANCH   7  10
HETATM   10  C   UNL     1     -11.171  13.517  65.162  1.00  0.00    -0.320 A  
HETATM   11  C   UNL     1     -10.100  14.284  65.657  1.00  0.00    -0.364 A  
HETATM   12  C   UNL     1     -11.082  16.304  64.787  1.00  0.00    -0.281 A  
HETATM   13  C   UNL     1     -12.133  15.573  64.258  1.00  0.00    -0.126 A  
HETATM   14  O   UNL     1     -11.085  17.656  64.604  1.00  0.00    -0.906 OA 
HETATM   15  C   UNL     1     -10.060  15.671  65.482  1.00  0.00    -0.395 A  
HETATM   16  C   UNL     1     -12.173  14.188  64.437  1.00  0.00    -0.466 A  
HETATM   17  H   UNL     1     -11.785  18.089  64.129  1.00  0.00     0.000 HD 
ENDBRANCH   7  10
ENDBRANCH   5   7
ENDBRANCH   3   5
ENDBRANCH   2   3
BRANCH   2  18
HETATM   18  C   UNL     1      -9.136   8.185  67.498  1.00  0.00    -0.147 C  
BRANCH  18  19
HETATM   19  C   UNL     1     -10.572   8.147  68.033  1.00  0.00    -0.188 C  
BRANCH  19  20
HETATM   20  C   UNL     1     -10.538   8.236  69.544  1.00  0.00    -0.216 A  
HETATM   21  C   UNL     1     -11.371   9.139  70.220  1.00  0.00    -0.217 A  
HETATM   22  C   UNL     1     -11.259   9.308  71.601  1.00  0.00    -0.449 A  
HETATM   23  C   UNL     1      -9.492   7.665  71.661  1.00  0.00    -0.174 A  
HETATM   24  C   UNL     1      -9.603   7.495  70.279  1.00  0.00    -0.165 A  
HETATM   25  C   UNL     1     -10.316   8.575  72.320  1.00  0.00    -0.402 A  
ENDBRANCH  19  20
ENDBRANCH  18  19
ENDBRANCH   2  18
TORSDOF 7
ENDMDL
MODEL      158
REMARK 921   NORMALIZED FREE ENERGY PREDICTED BY IDOCK:   -4.26 KCAL/MOL
REMARK 922        TOTAL FREE ENERGY PREDICTED BY IDOCK:   -7.63 KCAL/MOL
REMARK 923 INTER-LIGAND FREE ENERGY PREDICTED BY IDOCK:   -6.70 KCAL/MOL
REMARK 924 INTRA-LIGAND FREE ENERGY PREDICTED BY IDOCK:   -0.93 KCAL/MOL
REMARK 927      BINDING AFFINITY PREDICTED BY RF-SCORE:    0.00 PKD
ROOT
HETATM    1  C   UNL     1     -12.271  12.457  63.343  1.00  0.00    -0.623 C  
HETATM    2  C   UNL     1     -11.196  12.905  64.345  1.00  0.00    -0.351 C  
ENDROOT
BRANCH   2   3
HETATM    3  N   UNL     1      -9.882  12.301  64.072  1.00  0.00    -0.568 NA 
HETATM    4  H   UNL     1      -9.206  12.609  64.772  1.00  0.00     0.000 HD 
BRANCH   3   5
HETATM    5  C   UNL     1      -9.862  10.816  63.967  1.00  0.00    -0.332 C  
HETATM    6  C   UNL     1      -9.625  10.370  62.520  1.00  0.00    -0.228 C  
BRANCH   5   7
HETATM    7  C   UNL     1      -8.747  10.234  64.905  1.00  0.00    -0.185 C  
HETATM    8  H   UNL     1      -7.696  10.902  66.409  1.00  0.00     0.000 HD 
HETATM    9  O   UNL     1      -8.371  11.254  65.841  1.00  0.00    -0.130 OA 
BRANCH   7  10
HETATM   10  C   UNL     1      -9.107   8.965  65.670  1.00  0.00    -0.269 A  
HETATM   11  C   UNL     1      -8.424   7.749  65.481  1.00  0.00    -0.146 A  
HETATM   12  C   UNL     1      -9.798   6.666  67.137  1.00  0.00    -0.151 A  
HETATM   13  C   UNL     1     -10.467   7.856  67.371  1.00  0.00    -0.360 A  
HETATM   14  O   UNL     1     -10.176   5.567  67.852  1.00  0.00    -0.165 OA 
HETATM   15  C   UNL     1      -8.774   6.602  66.201  1.00  0.00    -0.154 A  
HETATM   16  C   UNL     1     -10.118   9.000  66.648  1.00  0.00    -0.355 A  
HETATM   17  H   UNL     1     -10.877   5.610  68.492  1.00  0.00     0.000 HD 
ENDBRANCH   7  10
ENDBRANCH   5   7
ENDBRANCH   3   5
ENDBRANCH   2   3
BRANCH   2  18
HETATM   18  C   UNL     1     -11.680  12.494  65.751  1.00  0.00    -0.478 C  
BRANCH  18  19
HETATM   19  C   UNL     1     -12.654  13.468  66.423  1.00  0.00    -0.244 C  
BRANCH  19  20
HETATM   20  C   UNL     1     -11.894  14.314  67.423  1.00  0.00    -0.441 A  
HETATM   21  C   UNL     1     -11.965  14.027  68.793  1.00  0.00    -0.382 A  
HETATM   22  C   UNL     1     -11.362  14.873  69.726  1.00  0.00    -0.314 A  
HETATM   23  C   UNL     1     -10.597  16.302  67.937  1.00  0.00    -0.318 A  
HETATM   24  C   UNL     1     -11.198  15.456  67.003  1.00  0.00    -0.229 A  
HETATM   25  C   UNL     1     -10.684  16.013  69.298  1.00  0.00    -0.275 A  
ENDBRANCH  19  20
ENDBRANCH  18  19
ENDBRANCH   2  18
TORSDOF 7
ENDMDL
MODEL      159
REMARK 921   NORMALIZED FREE ENERGY PREDICTED BY IDOCK:   -4.25 KCAL/MOL
REMARK 922        TOTAL FREE ENERGY PREDICTED BY IDOCK:   -7.63 KCAL/MOL
REMARK 923 INTER-LIGAND FREE ENERGY PREDICTED BY IDOCK:   -6.27 KCAL/MOL
REMARK 924 INTRA-LIGAND FREE ENERGY PREDICTED BY IDOCK:   -1.35 KCAL/MOL
REMARK 927      BINDING AFFINITY PREDICTED BY RF-SCORE:    0.00 PKD
ROOT
HETATM    1  C   UNL     1     -10.945  14.187  66.025  1.00  0.00    -0.304 C  
HETATM    2  C   UNL     1     -11.226  15.054  67.261  1.00  0.00    -0.338 C  
ENDROOT
BRANCH   2   3
HETATM    3  N   UNL     1     -10.000  15.615  67.850  1.00  0.00    -0.222 NA 
HETATM    4  H   UNL     1      -9.854  15.230  68.783  1.00  0.00     0.000 HD 
BRANCH   3   5
HETATM    5  C   UNL     1      -8.762  15.460  67.038  1.00  0.00    -0.229 C  
HETATM    6  C   UNL     1      -8.395  16.772  66.336  1.00  0.00    -0.344 C  
BRANCH   5   7
HETATM    7  C   UNL     1      -7.582  14.984  67.956  1.00  0.00    -0.119 C  
HETATM    8  H   UNL     1      -6.934  15.431  69.743  1.00  0.00     0.000 HD 
HETATM    9  O   UNL     1      -7.648  15.719  69.187  1.00  0.00    -0.182 OA 
BRANCH   7  10
HETATM   10  C   UNL     1      -7.532  13.492  68.269  1.00  0.00    -0.122 A  
HETATM   11  C   UNL     1      -8.307  12.548  67.571  1.00  0.00    -0.175 A  
HETATM   12  C   UNL     1      -7.369  10.749  68.871  1.00  0.00    -0.104 A  
HETATM   13  C   UNL     1      -6.568  11.650  69.552  1.00  0.00    -0.111 A  
HETATM   14  O   UNL     1      -7.279   9.429  69.206  1.00  0.00    -0.062 OA 
HETATM   15  C   UNL     1      -8.236  11.184  67.877  1.00  0.00    -0.121 A  
HETATM   16  C   UNL     1      -6.643  13.012  69.248  1.00  0.00    -0.089 A  
HETATM   17  H   UNL     1      -6.686   9.132  69.886  1.00  0.00     0.000 HD 
ENDBRANCH   7  10
ENDBRANCH   5   7
ENDBRANCH   3   5
ENDBRANCH   2   3
BRANCH   2  18
HETATM   18  C   UNL     1     -11.942  14.160  68.295  1.00  0.00    -0.367 C  
BRANCH  18  19
HETATM   19  C   UNL     1     -11.171  13.911  69.597  1.00  0.00    -0.196 C  
BRANCH  19  20
HETATM   20  C   UNL     1     -11.977  14.450  70.759  1.00  0.00    -0.391 A  
HETATM   21  C   UNL     1     -11.737  15.742  71.249  1.00  0.00    -0.496 A  
HETATM   22  C   UNL     1     -12.395  16.198  72.393  1.00  0.00    -0.554 A  
HETATM   23  C   UNL     1     -13.555  14.089  72.570  1.00  0.00    -0.670 A  
HETATM   24  C   UNL     1     -12.898  13.631  71.426  1.00  0.00    -0.442 A  
HETATM   25  C   UNL     1     -13.299  15.370  73.056  1.00  0.00    -0.632 A  
ENDBRANCH  19  20
ENDBRANCH  18  19
ENDBRANCH   2  18
TORSDOF 7
ENDMDL
MODEL      160
REMARK 921   NORMALIZED FREE ENERGY PREDICTED BY IDOCK:   -4.25 KCAL/MOL
REMARK 922        TOTAL FREE ENERGY PREDICTED BY IDOCK:   -7.62 KCAL/MOL
REMARK 923 INTER-LIGAND FREE ENERGY PREDICTED BY IDOCK:   -6.63 KCAL/MOL
REMARK 924 INTRA-LIGAND FREE ENERGY PREDICTED BY IDOCK:   -0.99 KCAL/MOL
REMARK 927      BINDING AFFINITY PREDICTED BY RF-SCORE:    0.00 PKD
ROOT
HETATM    1  C   UNL     1      -8.091  12.465  68.137  1.00  0.00    -0.163 C  
HETATM    2  C   UNL     1      -9.559  12.016  68.192  1.00  0.00    -0.200 C  
ENDROOT
BRANCH   2   3
HETATM    3  N   UNL     1      -9.758  10.664  67.648  1.00  0.00    -0.164 NA 
HETATM    4  H   UNL     1      -8.866  10.170  67.609  1.00  0.00     0.000 HD 
BRANCH   3   5
HETATM    5  C   UNL     1     -10.770   9.827  68.349  1.00  0.00    -0.221 C  
HETATM    6  C   UNL     1     -10.386   8.344  68.303  1.00  0.00    -0.244 C  
BRANCH   5   7
HETATM    7  C   UNL     1     -10.915  10.306  69.836  1.00  0.00    -0.303 C  
HETATM    8  H   UNL     1     -12.398  10.785  71.013  1.00  0.00     0.000 HD 
HETATM    9  O   UNL     1     -12.310  10.495  70.112  1.00  0.00    -0.300 OA 
BRANCH   7  10
HETATM   10  C   UNL     1     -10.316   9.392  70.899  1.00  0.00    -0.380 A  
HETATM   11  C   UNL     1      -8.933   9.154  71.000  1.00  0.00    -0.281 A  
HETATM   12  C   UNL     1      -9.269   7.719  72.905  1.00  0.00    -0.208 A  
HETATM   13  C   UNL     1     -10.633   7.960  72.854  1.00  0.00    -0.434 A  
HETATM   14  O   UNL     1      -8.801   6.885  73.878  1.00  0.00    -0.144 OA 
HETATM   15  C   UNL     1      -8.411   8.313  71.989  1.00  0.00    -0.227 A  
HETATM   16  C   UNL     1     -11.152   8.798  71.863  1.00  0.00    -0.434 A  
HETATM   17  H   UNL     1      -9.389   6.478  74.504  1.00  0.00     0.000 HD 
ENDBRANCH   7  10
ENDBRANCH   5   7
ENDBRANCH   3   5
ENDBRANCH   2   3
BRANCH   2  18
HETATM   18  C   UNL     1     -10.381  13.035  67.375  1.00  0.00    -0.234 C  
BRANCH  18  19
HETATM   19  C   UNL     1     -11.798  13.305  67.893  1.00  0.00    -0.388 C  
BRANCH  19  20
HETATM   20  C   UNL     1     -11.716  14.203  69.109  1.00  0.00    -0.368 A  
HETATM   21  C   UNL     1     -12.340  13.830  70.308  1.00  0.00    -0.407 A  
HETATM   22  C   UNL     1     -12.367  14.707  71.394  1.00  0.00    -0.411 A  
HETATM   23  C   UNL     1     -11.135  16.338  70.110  1.00  0.00    -0.346 A  
HETATM   24  C   UNL     1     -11.107  15.462  69.023  1.00  0.00    -0.268 A  
HETATM   25  C   UNL     1     -11.770  15.962  71.293  1.00  0.00    -0.504 A  
ENDBRANCH  19  20
ENDBRANCH  18  19
ENDBRANCH   2  18
TORSDOF 7
ENDMDL
MODEL      161
REMARK 921   NORMALIZED FREE ENERGY PREDICTED BY IDOCK:   -4.23 KCAL/MOL
REMARK 922        TOTAL FREE ENERGY PREDICTED BY IDOCK:   -7.60 KCAL/MOL
REMARK 923 INTER-LIGAND FREE ENERGY PREDICTED BY IDOCK:   -6.90 KCAL/MOL
REMARK 924 INTRA-LIGAND FREE ENERGY PREDICTED BY IDOCK:   -0.70 KCAL/MOL
REMARK 927      BINDING AFFINITY PREDICTED BY RF-SCORE:    0.00 PKD
ROOT
HETATM    1  C   UNL     1      -9.568  10.647  62.566  1.00  0.00    -0.246 C  
HETATM    2  C   UNL     1     -10.289  11.422  63.678  1.00  0.00    -0.410 C  
ENDROOT
BRANCH   2   3
HETATM    3  N   UNL     1      -9.696  12.746  63.923  1.00  0.00    -0.663 NA 
HETATM    4  H   UNL     1      -9.261  13.096  63.068  1.00  0.00     0.000 HD 
BRANCH   3   5
HETATM    5  C   UNL     1     -10.615  13.775  64.481  1.00  0.00    -0.386 C  
HETATM    6  C   UNL     1     -12.078  13.419  64.197  1.00  0.00    -0.491 C  
BRANCH   5   7
HETATM    7  C   UNL     1     -10.378  13.914  66.026  1.00  0.00    -0.305 C  
HETATM    8  H   UNL     1      -8.949  13.440  67.270  1.00  0.00     0.000 HD 
HETATM    9  O   UNL     1      -9.093  13.356  66.335  1.00  0.00    -0.174 OA 
BRANCH   7  10
HETATM   10  C   UNL     1     -10.457  15.327  66.595  1.00  0.00    -0.290 A  
HETATM   11  C   UNL     1     -10.162  16.468  65.826  1.00  0.00    -0.350 A  
HETATM   12  C   UNL     1     -10.654  17.909  67.692  1.00  0.00    -0.387 A  
HETATM   13  C   UNL     1     -10.984  16.808  68.465  1.00  0.00    -0.312 A  
HETATM   14  O   UNL     1     -10.740  19.145  68.266  1.00  0.00    -0.382 OA 
HETATM   15  C   UNL     1     -10.248  17.753  66.374  1.00  0.00    -0.365 A  
HETATM   16  C   UNL     1     -10.895  15.526  67.917  1.00  0.00    -0.307 A  
HETATM   17  H   UNL     1     -11.018  19.252  69.169  1.00  0.00     0.000 HD 
ENDBRANCH   7  10
ENDBRANCH   5   7
ENDBRANCH   3   5
ENDBRANCH   2   3
BRANCH   2  18
HETATM   18  C   UNL     1     -10.208  10.567  64.959  1.00  0.00    -0.365 C  
BRANCH  18  19
HETATM   19  C   UNL     1      -8.970   9.672  65.077  1.00  0.00    -0.255 C  
BRANCH  19  20
HETATM   20  C   UNL     1      -9.048   8.888  66.370  1.00  0.00    -0.217 A  
HETATM   21  C   UNL     1     -10.240   8.246  66.737  1.00  0.00    -0.375 A  
HETATM   22  C   UNL     1     -10.352   7.622  67.981  1.00  0.00    -0.257 A  
HETATM   23  C   UNL     1      -8.084   8.256  68.507  1.00  0.00    -0.123 A  
HETATM   24  C   UNL     1      -7.969   8.881  67.264  1.00  0.00    -0.097 A  
HETATM   25  C   UNL     1      -9.277   7.632  68.868  1.00  0.00    -0.139 A  
ENDBRANCH  19  20
ENDBRANCH  18  19
ENDBRANCH   2  18
TORSDOF 7
ENDMDL
MODEL      162
REMARK 921   NORMALIZED FREE ENERGY PREDICTED BY IDOCK:   -4.21 KCAL/MOL
REMARK 922        TOTAL FREE ENERGY PREDICTED BY IDOCK:   -7.57 KCAL/MOL
REMARK 923 INTER-LIGAND FREE ENERGY PREDICTED BY IDOCK:   -6.23 KCAL/MOL
REMARK 924 INTRA-LIGAND FREE ENERGY PREDICTED BY IDOCK:   -1.34 KCAL/MOL
REMARK 927      BINDING AFFINITY PREDICTED BY RF-SCORE:    0.00 PKD
ROOT
HETATM    1  C   UNL     1      -9.202  14.391  67.225  1.00  0.00    -0.214 C  
HETATM    2  C   UNL     1      -9.308  12.876  67.000  1.00  0.00    -0.235 C  
ENDROOT
BRANCH   2   3
HETATM    3  N   UNL     1      -9.408  12.520  65.576  1.00  0.00    -0.447 NA 
HETATM    4  H   UNL     1      -8.575  12.008  65.286  1.00  0.00     0.000 HD 
BRANCH   3   5
HETATM    5  C   UNL     1     -10.630  11.766  65.182  1.00  0.00    -0.283 C  
HETATM    6  C   UNL     1     -11.463  12.559  64.168  1.00  0.00    -0.449 C  
BRANCH   5   7
HETATM    7  C   UNL     1     -10.223  10.374  64.582  1.00  0.00    -0.235 C  
HETATM    8  H   UNL     1      -8.865   9.732  63.335  1.00  0.00     0.000 HD 
HETATM    9  O   UNL     1      -9.111  10.575  63.698  1.00  0.00    -0.199 OA 
BRANCH   7  10
HETATM   10  C   UNL     1      -9.867   9.286  65.590  1.00  0.00    -0.237 A  
HETATM   11  C   UNL     1      -8.713   8.491  65.467  1.00  0.00    -0.208 A  
HETATM   12  C   UNL     1      -9.249   7.317  67.501  1.00  0.00    -0.130 A  
HETATM   13  C   UNL     1     -10.374   8.106  67.669  1.00  0.00    -0.313 A  
HETATM   14  O   UNL     1      -8.994   6.357  68.437  1.00  0.00    -0.122 OA 
HETATM   15  C   UNL     1      -8.410   7.503  66.410  1.00  0.00    -0.126 A  
HETATM   16  C   UNL     1     -10.677   9.090  66.724  1.00  0.00    -0.103 A  
HETATM   17  H   UNL     1      -9.568   6.229  69.183  1.00  0.00     0.000 HD 
ENDBRANCH   7  10
ENDBRANCH   5   7
ENDBRANCH   3   5
ENDBRANCH   2   3
BRANCH   2  18
HETATM   18  C   UNL     1     -10.563  12.387  67.752  1.00  0.00    -0.236 C  
BRANCH  18  19
HETATM   19  C   UNL     1     -11.217  13.416  68.681  1.00  0.00    -0.304 C  
BRANCH  19  20
HETATM   20  C   UNL     1     -12.020  12.687  69.738  1.00  0.00    -0.365 A  
HETATM   21  C   UNL     1     -12.457  13.362  70.887  1.00  0.00    -0.439 A  
HETATM   22  C   UNL     1     -13.094  12.667  71.916  1.00  0.00    -0.470 A  
HETATM   23  C   UNL     1     -12.884  10.614  70.663  1.00  0.00    -0.404 A  
HETATM   24  C   UNL     1     -12.246  11.308  69.633  1.00  0.00    -0.340 A  
HETATM   25  C   UNL     1     -13.302  11.293  71.807  1.00  0.00    -0.371 A  
ENDBRANCH  19  20
ENDBRANCH  18  19
ENDBRANCH   2  18
TORSDOF 7
ENDMDL
MODEL      163
REMARK 921   NORMALIZED FREE ENERGY PREDICTED BY IDOCK:   -4.21 KCAL/MOL
REMARK 922        TOTAL FREE ENERGY PREDICTED BY IDOCK:   -7.57 KCAL/MOL
REMARK 923 INTER-LIGAND FREE ENERGY PREDICTED BY IDOCK:   -6.02 KCAL/MOL
REMARK 924 INTRA-LIGAND FREE ENERGY PREDICTED BY IDOCK:   -1.55 KCAL/MOL
REMARK 927      BINDING AFFINITY PREDICTED BY RF-SCORE:    0.00 PKD
ROOT
HETATM    1  C   UNL     1      -8.801  14.783  66.794  1.00  0.00    -0.281 C  
HETATM    2  C   UNL     1      -9.808  14.595  67.939  1.00  0.00    -0.217 C  
ENDROOT
BRANCH   2   3
HETATM    3  N   UNL     1      -9.559  13.370  68.715  1.00  0.00    -0.412 NA 
HETATM    4  H   UNL     1     -10.404  12.799  68.745  1.00  0.00     0.000 HD 
BRANCH   3   5
HETATM    5  C   UNL     1      -8.404  12.544  68.269  1.00  0.00    -0.167 C  
HETATM    6  C   UNL     1      -7.108  12.994  68.952  1.00  0.00    -0.068 C  
BRANCH   5   7
HETATM    7  C   UNL     1      -8.685  11.031  68.577  1.00  0.00    -0.159 C  
HETATM    8  H   UNL     1     -10.148  10.014  69.376  1.00  0.00     0.000 HD 
HETATM    9  O   UNL     1      -9.978  10.930  69.189  1.00  0.00    -0.210 OA 
BRANCH   7  10
HETATM   10  C   UNL     1      -8.622  10.079  67.386  1.00  0.00    -0.125 A  
HETATM   11  C   UNL     1      -7.629  10.175  66.394  1.00  0.00    -0.108 A  
HETATM   12  C   UNL     1      -8.540   8.272  65.232  1.00  0.00    -0.132 A  
HETATM   13  C   UNL     1      -9.510   8.130  66.211  1.00  0.00    -0.259 A  
HETATM   14  O   UNL     1      -8.546   7.390  64.191  1.00  0.00    -0.352 OA 
HETATM   15  C   UNL     1      -7.594   9.285  65.315  1.00  0.00    -0.099 A  
HETATM   16  C   UNL     1      -9.545   9.022  67.286  1.00  0.00    -0.206 A  
HETATM   17  H   UNL     1      -9.194   6.697  64.134  1.00  0.00     0.000 HD 
ENDBRANCH   7  10
ENDBRANCH   5   7
ENDBRANCH   3   5
ENDBRANCH   2   3
BRANCH   2  18
HETATM   18  C   UNL     1     -11.214  14.538  67.307  1.00  0.00    -0.341 C  
BRANCH  18  19
HETATM   19  C   UNL     1     -11.852  13.145  67.243  1.00  0.00    -0.420 C  
BRANCH  19  20
HETATM   20  C   UNL     1     -11.710  12.602  65.837  1.00  0.00    -0.470 A  
HETATM   21  C   UNL     1     -10.490  12.065  65.404  1.00  0.00    -0.313 A  
HETATM   22  C   UNL     1     -10.322  11.672  64.075  1.00  0.00    -0.405 A  
HETATM   23  C   UNL     1     -12.592  12.333  63.589  1.00  0.00    -0.599 A  
HETATM   24  C   UNL     1     -12.762  12.726  64.918  1.00  0.00    -0.479 A  
HETATM   25  C   UNL     1     -11.370  11.811  63.167  1.00  0.00    -0.198 A  
ENDBRANCH  19  20
ENDBRANCH  18  19
ENDBRANCH   2  18
TORSDOF 7
ENDMDL
MODEL      164
REMARK 921   NORMALIZED FREE ENERGY PREDICTED BY IDOCK:   -4.21 KCAL/MOL
REMARK 922        TOTAL FREE ENERGY PREDICTED BY IDOCK:   -7.57 KCAL/MOL
REMARK 923 INTER-LIGAND FREE ENERGY PREDICTED BY IDOCK:   -6.67 KCAL/MOL
REMARK 924 INTRA-LIGAND FREE ENERGY PREDICTED BY IDOCK:   -0.89 KCAL/MOL
REMARK 927      BINDING AFFINITY PREDICTED BY RF-SCORE:    0.00 PKD
ROOT
HETATM    1  C   UNL     1      -8.187   9.095  69.425  1.00  0.00    -0.118 C  
HETATM    2  C   UNL     1      -8.913   8.882  68.089  1.00  0.00    -0.137 C  
ENDROOT
BRANCH   2   3
HETATM    3  N   UNL     1     -10.031   9.818  67.897  1.00  0.00    -0.156 NA 
HETATM    4  H   UNL     1     -10.789   9.592  68.542  1.00  0.00     0.000 HD 
BRANCH   3   5
HETATM    5  C   UNL     1      -9.691  11.263  68.001  1.00  0.00    -0.179 C  
HETATM    6  C   UNL     1      -8.714  11.680  66.896  1.00  0.00    -0.185 C  
BRANCH   5   7
HETATM    7  C   UNL     1     -11.001  12.123  67.923  1.00  0.00    -0.229 C  
HETATM    8  H   UNL     1     -12.667  12.043  66.908  1.00  0.00     0.000 HD 
HETATM    9  O   UNL     1     -11.874  11.523  66.956  1.00  0.00    -0.568 OA 
BRANCH   7  10
HETATM   10  C   UNL     1     -11.761  12.312  69.231  1.00  0.00    -0.388 A  
HETATM   11  C   UNL     1     -12.183  11.228  70.023  1.00  0.00    -0.389 A  
HETATM   12  C   UNL     1     -13.131  12.726  71.653  1.00  0.00    -0.331 A  
HETATM   13  C   UNL     1     -12.699  13.815  70.914  1.00  0.00    -0.394 A  
HETATM   14  O   UNL     1     -13.812  12.966  72.811  1.00  0.00    -0.727 OA 
HETATM   15  C   UNL     1     -12.875  11.431  71.222  1.00  0.00    -0.481 A  
HETATM   16  C   UNL     1     -12.011  13.609  69.715  1.00  0.00    -0.404 A  
HETATM   17  H   UNL     1     -13.988  13.852  73.106  1.00  0.00     0.000 HD 
ENDBRANCH   7  10
ENDBRANCH   5   7
ENDBRANCH   3   5
ENDBRANCH   2   3
BRANCH   2  18
HETATM   18  C   UNL     1      -9.437   7.431  68.078  1.00  0.00    -0.146 C  
BRANCH  18  19
HETATM   19  C   UNL     1      -8.892   6.525  69.187  1.00  0.00    -0.128 C  
BRANCH  19  20
HETATM   20  C   UNL     1      -9.977   6.300  70.219  1.00  0.00    -0.210 A  
HETATM   21  C   UNL     1     -11.232   6.907  70.071  1.00  0.00    -0.347 A  
HETATM   22  C   UNL     1     -12.194   6.798  71.077  1.00  0.00    -0.405 A  
HETATM   23  C   UNL     1     -10.671   5.463  72.390  1.00  0.00    -0.286 A  
HETATM   24  C   UNL     1      -9.708   5.571  71.385  1.00  0.00    -0.205 A  
HETATM   25  C   UNL     1     -11.911   6.081  72.238  1.00  0.00    -0.259 A  
ENDBRANCH  19  20
ENDBRANCH  18  19
ENDBRANCH   2  18
TORSDOF 7
ENDMDL
MODEL      165
REMARK 921   NORMALIZED FREE ENERGY PREDICTED BY IDOCK:   -4.20 KCAL/MOL
REMARK 922        TOTAL FREE ENERGY PREDICTED BY IDOCK:   -7.55 KCAL/MOL
REMARK 923 INTER-LIGAND FREE ENERGY PREDICTED BY IDOCK:   -6.58 KCAL/MOL
REMARK 924 INTRA-LIGAND FREE ENERGY PREDICTED BY IDOCK:   -0.97 KCAL/MOL
REMARK 927      BINDING AFFINITY PREDICTED BY RF-SCORE:    0.00 PKD
ROOT
HETATM    1  C   UNL     1     -10.435  16.353  69.772  1.00  0.00    -0.246 C  
HETATM    2  C   UNL     1      -9.636  15.053  69.592  1.00  0.00    -0.034 C  
ENDROOT
BRANCH   2   3
HETATM    3  N   UNL     1      -8.410  15.246  68.802  1.00  0.00    -0.165 NA 
HETATM    4  H   UNL     1      -8.387  14.582  68.028  1.00  0.00     0.000 HD 
BRANCH   3   5
HETATM    5  C   UNL     1      -8.179  16.626  68.293  1.00  0.00    -0.200 C  
HETATM    6  C   UNL     1      -6.929  17.244  68.929  1.00  0.00    -0.233 C  
BRANCH   5   7
HETATM    7  C   UNL     1      -8.038  16.597  66.731  1.00  0.00    -0.246 C  
HETATM    8  H   UNL     1      -6.778  15.826  65.454  1.00  0.00     0.000 HD 
HETATM    9  O   UNL     1      -6.863  15.843  66.400  1.00  0.00     0.038 OA 
BRANCH   7  10
HETATM   10  C   UNL     1      -9.226  16.033  65.959  1.00  0.00    -0.375 A  
HETATM   11  C   UNL     1      -9.378  14.657  65.706  1.00  0.00    -0.058 A  
HETATM   12  C   UNL     1     -11.458  15.050  64.556  1.00  0.00    -0.318 A  
HETATM   13  C   UNL     1     -11.354  16.406  64.819  1.00  0.00    -0.154 A  
HETATM   14  O   UNL     1     -12.543  14.613  63.854  1.00  0.00    -0.931 OA 
HETATM   15  C   UNL     1     -10.481  14.167  64.998  1.00  0.00    -0.447 A  
HETATM   16  C   UNL     1     -10.250  16.893  65.523  1.00  0.00    -0.149 A  
HETATM   17  H   UNL     1     -13.211  15.218  63.551  1.00  0.00     0.000 HD 
ENDBRANCH   7  10
ENDBRANCH   5   7
ENDBRANCH   3   5
ENDBRANCH   2   3
BRANCH   2  18
HETATM   18  C   UNL     1     -10.561  14.041  68.885  1.00  0.00    -0.241 C  
BRANCH  18  19
HETATM   19  C   UNL     1     -12.031  14.460  68.770  1.00  0.00    -0.331 C  
BRANCH  19  20
HETATM   20  C   UNL     1     -12.722  14.207  70.093  1.00  0.00    -0.227 A  
HETATM   21  C   UNL     1     -13.455  15.227  70.716  1.00  0.00    -0.359 A  
HETATM   22  C   UNL     1     -13.994  15.035  71.989  1.00  0.00    -0.605 A  
HETATM   23  C   UNL     1     -13.091  12.797  72.036  1.00  0.00    -0.474 A  
HETATM   24  C   UNL     1     -12.551  12.988  70.762  1.00  0.00    -0.321 A  
HETATM   25  C   UNL     1     -13.807  13.822  72.651  1.00  0.00    -0.504 A  
ENDBRANCH  19  20
ENDBRANCH  18  19
ENDBRANCH   2  18
TORSDOF 7
ENDMDL
MODEL      166
REMARK 921   NORMALIZED FREE ENERGY PREDICTED BY IDOCK:   -4.19 KCAL/MOL
REMARK 922        TOTAL FREE ENERGY PREDICTED BY IDOCK:   -7.53 KCAL/MOL
REMARK 923 INTER-LIGAND FREE ENERGY PREDICTED BY IDOCK:   -6.84 KCAL/MOL
REMARK 924 INTRA-LIGAND FREE ENERGY PREDICTED BY IDOCK:   -0.69 KCAL/MOL
REMARK 927      BINDING AFFINITY PREDICTED BY RF-SCORE:    0.00 PKD
ROOT
HETATM    1  C   UNL     1     -12.862  11.320  69.976  1.00  0.00     0.052 C  
HETATM    2  C   UNL     1     -11.507  11.099  69.287  1.00  0.00    -0.294 C  
ENDROOT
BRANCH   2   3
HETATM    3  N   UNL     1     -11.648  10.663  67.889  1.00  0.00    -0.687 NA 
HETATM    4  H   UNL     1     -12.635  10.548  67.658  1.00  0.00     0.000 HD 
BRANCH   3   5
HETATM    5  C   UNL     1     -10.987  11.527  66.872  1.00  0.00    -0.296 C  
HETATM    6  C   UNL     1     -12.010  12.417  66.157  1.00  0.00    -0.397 C  
BRANCH   5   7
HETATM    7  C   UNL     1      -9.886  12.408  67.561  1.00  0.00    -0.194 C  
HETATM    8  H   UNL     1      -7.964  12.669  67.339  1.00  0.00     0.000 HD 
HETATM    9  O   UNL     1      -8.631  12.136  66.922  1.00  0.00    -0.191 OA 
BRANCH   7  10
HETATM   10  C   UNL     1     -10.130  13.913  67.559  1.00  0.00    -0.244 A  
HETATM   11  C   UNL     1      -9.600  14.763  66.571  1.00  0.00    -0.304 A  
HETATM   12  C   UNL     1     -10.644  16.679  67.592  1.00  0.00    -0.321 A  
HETATM   13  C   UNL     1     -11.209  15.864  68.559  1.00  0.00    -0.362 A  
HETATM   14  O   UNL     1     -10.898  18.018  67.653  1.00  0.00    -0.390 OA 
HETATM   15  C   UNL     1      -9.845  16.141  66.592  1.00  0.00    -0.262 A  
HETATM   16  C   UNL     1     -10.961  14.489  68.538  1.00  0.00    -0.261 A  
HETATM   17  H   UNL     1     -11.445  18.386  68.338  1.00  0.00     0.000 HD 
ENDBRANCH   7  10
ENDBRANCH   5   7
ENDBRANCH   3   5
ENDBRANCH   2   3
BRANCH   2  18
HETATM   18  C   UNL     1     -10.751  10.025  70.097  1.00  0.00    -0.361 C  
BRANCH  18  19
HETATM   19  C   UNL     1     -11.336   9.707  71.478  1.00  0.00    -0.420 C  
BRANCH  19  20
HETATM   20  C   UNL     1     -11.284   8.211  71.704  1.00  0.00    -0.314 A  
HETATM   21  C   UNL     1     -11.015   7.697  72.980  1.00  0.00    -0.457 A  
HETATM   22  C   UNL     1     -10.850   6.323  73.169  1.00  0.00    -0.281 A  
HETATM   23  C   UNL     1     -11.230   5.952  70.815  1.00  0.00    -0.281 A  
HETATM   24  C   UNL     1     -11.397   7.325  70.624  1.00  0.00    -0.311 A  
HETATM   25  C   UNL     1     -10.951   5.452  72.086  1.00  0.00    -0.265 A  
ENDBRANCH  19  20
ENDBRANCH  18  19
ENDBRANCH   2  18
TORSDOF 7
ENDMDL
MODEL      167
REMARK 921   NORMALIZED FREE ENERGY PREDICTED BY IDOCK:   -4.18 KCAL/MOL
REMARK 922        TOTAL FREE ENERGY PREDICTED BY IDOCK:   -7.53 KCAL/MOL
REMARK 923 INTER-LIGAND FREE ENERGY PREDICTED BY IDOCK:   -7.14 KCAL/MOL
REMARK 924 INTRA-LIGAND FREE ENERGY PREDICTED BY IDOCK:   -0.39 KCAL/MOL
REMARK 927      BINDING AFFINITY PREDICTED BY RF-SCORE:    0.00 PKD
ROOT
HETATM    1  C   UNL     1     -13.396  12.815  71.221  1.00  0.00     0.001 C  
HETATM    2  C   UNL     1     -12.239  13.321  70.346  1.00  0.00    -0.332 C  
ENDROOT
BRANCH   2   3
HETATM    3  N   UNL     1     -12.540  14.608  69.698  1.00  0.00    -0.576 NA 
HETATM    4  H   UNL     1     -13.547  14.775  69.707  1.00  0.00     0.000 HD 
BRANCH   3   5
HETATM    5  C   UNL     1     -11.825  15.792  70.248  1.00  0.00    -0.350 C  
HETATM    6  C   UNL     1     -11.396  15.552  71.700  1.00  0.00    -0.462 C  
BRANCH   5   7
HETATM    7  C   UNL     1     -10.575  16.116  69.357  1.00  0.00    -0.300 C  
HETATM    8  H   UNL     1      -8.800  15.342  69.103  1.00  0.00     0.000 HD 
HETATM    9  O   UNL     1      -9.557  15.146  69.643  1.00  0.00    -0.205 OA 
BRANCH   7  10
HETATM   10  C   UNL     1     -10.814  16.158  67.851  1.00  0.00    -0.332 A  
HETATM   11  C   UNL     1     -10.385  17.230  67.047  1.00  0.00    -0.318 A  
HETATM   12  C   UNL     1     -11.257  16.160  65.073  1.00  0.00    -0.220 A  
HETATM   13  C   UNL     1     -11.662  15.074  65.832  1.00  0.00    -0.098 A  
HETATM   14  O   UNL     1     -11.510  16.135  63.732  1.00  0.00    -1.323 OA 
HETATM   15  C   UNL     1     -10.615  17.238  65.667  1.00  0.00    -0.173 A  
HETATM   16  C   UNL     1     -11.434  15.069  67.211  1.00  0.00    -0.312 A  
HETATM   17  H   UNL     1     -11.950  15.398  63.326  1.00  0.00     0.000 HD 
ENDBRANCH   7  10
ENDBRANCH   5   7
ENDBRANCH   3   5
ENDBRANCH   2   3
BRANCH   2  18
HETATM   18  C   UNL     1     -11.971  12.245  69.274  1.00  0.00    -0.308 C  
BRANCH  18  19
HETATM   19  C   UNL     1     -10.494  11.927  69.015  1.00  0.00    -0.103 C  
BRANCH  19  20
HETATM   20  C   UNL     1     -10.362  11.262  67.661  1.00  0.00    -0.212 A  
HETATM   21  C   UNL     1     -10.399   9.864  67.552  1.00  0.00    -0.289 A  
HETATM   22  C   UNL     1     -10.160   9.244  66.324  1.00  0.00    -0.322 A  
HETATM   23  C   UNL     1      -9.858  11.404  65.290  1.00  0.00    -0.290 A  
HETATM   24  C   UNL     1     -10.096  12.026  66.517  1.00  0.00    -0.224 A  
HETATM   25  C   UNL     1      -9.884  10.013  65.195  1.00  0.00    -0.388 A  
ENDBRANCH  19  20
ENDBRANCH  18  19
ENDBRANCH   2  18
TORSDOF 7
ENDMDL
MODEL      168
REMARK 921   NORMALIZED FREE ENERGY PREDICTED BY IDOCK:   -4.18 KCAL/MOL
REMARK 922        TOTAL FREE ENERGY PREDICTED BY IDOCK:   -7.52 KCAL/MOL
REMARK 923 INTER-LIGAND FREE ENERGY PREDICTED BY IDOCK:   -6.42 KCAL/MOL
REMARK 924 INTRA-LIGAND FREE ENERGY PREDICTED BY IDOCK:   -1.10 KCAL/MOL
REMARK 927      BINDING AFFINITY PREDICTED BY RF-SCORE:    0.00 PKD
ROOT
HETATM    1  C   UNL     1     -12.963  10.754  71.273  1.00  0.00    -0.502 C  
HETATM    2  C   UNL     1     -11.802  10.905  70.279  1.00  0.00    -0.361 C  
ENDROOT
BRANCH   2   3
HETATM    3  N   UNL     1     -12.258  10.968  68.882  1.00  0.00    -0.712 NA 
HETATM    4  H   UNL     1     -13.278  10.943  68.847  1.00  0.00     0.000 HD 
BRANCH   3   5
HETATM    5  C   UNL     1     -11.753  12.121  68.087  1.00  0.00    -0.341 C  
HETATM    6  C   UNL     1     -10.451  12.670  68.681  1.00  0.00    -0.224 C  
BRANCH   5   7
HETATM    7  C   UNL     1     -11.529  11.681  66.598  1.00  0.00    -0.206 C  
HETATM    8  H   UNL     1     -11.275  12.596  64.892  1.00  0.00     0.000 HD 
HETATM    9  O   UNL     1     -11.410  12.863  65.794  1.00  0.00    -0.297 OA 
BRANCH   7  10
HETATM   10  C   UNL     1     -10.328  10.778  66.337  1.00  0.00    -0.306 A  
HETATM   11  C   UNL     1     -10.288   9.434  66.752  1.00  0.00    -0.303 A  
HETATM   12  C   UNL     1      -8.095   9.155  65.795  1.00  0.00    -0.112 A  
HETATM   13  C   UNL     1      -8.118  10.464  65.343  1.00  0.00    -0.152 A  
HETATM   14  O   UNL     1      -6.986   8.405  65.533  1.00  0.00    -0.068 OA 
HETATM   15  C   UNL     1      -9.174   8.629  66.494  1.00  0.00    -0.236 A  
HETATM   16  C   UNL     1      -9.230  11.268  65.605  1.00  0.00    -0.231 A  
HETATM   17  H   UNL     1      -6.248   8.765  65.055  1.00  0.00     0.000 HD 
ENDBRANCH   7  10
ENDBRANCH   5   7
ENDBRANCH   3   5
ENDBRANCH   2   3
BRANCH   2  18
HETATM   18  C   UNL     1     -10.873   9.688  70.472  1.00  0.00    -0.371 C  
BRANCH  18  19
HETATM   19  C   UNL     1     -11.535   8.318  70.292  1.00  0.00    -0.065 C  
BRANCH  19  20
HETATM   20  C   UNL     1     -11.164   7.433  71.464  1.00  0.00    -0.271 A  
HETATM   21  C   UNL     1     -10.713   8.000  72.664  1.00  0.00    -0.426 A  
HETATM   22  C   UNL     1     -10.259   7.186  73.704  1.00  0.00    -0.402 A  
HETATM   23  C   UNL     1     -10.712   5.226  72.370  1.00  0.00    -0.286 A  
HETATM   24  C   UNL     1     -11.166   6.038  71.329  1.00  0.00    -0.323 A  
HETATM   25  C   UNL     1     -10.253   5.800  73.554  1.00  0.00    -0.225 A  
ENDBRANCH  19  20
ENDBRANCH  18  19
ENDBRANCH   2  18
TORSDOF 7
ENDMDL
MODEL      169
REMARK 921   NORMALIZED FREE ENERGY PREDICTED BY IDOCK:   -4.17 KCAL/MOL
REMARK 922        TOTAL FREE ENERGY PREDICTED BY IDOCK:   -7.51 KCAL/MOL
REMARK 923 INTER-LIGAND FREE ENERGY PREDICTED BY IDOCK:   -6.08 KCAL/MOL
REMARK 924 INTRA-LIGAND FREE ENERGY PREDICTED BY IDOCK:   -1.43 KCAL/MOL
REMARK 927      BINDING AFFINITY PREDICTED BY RF-SCORE:    0.00 PKD
ROOT
HETATM    1  C   UNL     1     -11.233   4.278  73.367  1.00  0.00    -0.361 C  
HETATM    2  C   UNL     1     -10.835   5.459  72.469  1.00  0.00    -0.250 C  
ENDROOT
BRANCH   2   3
HETATM    3  N   UNL     1      -9.600   5.203  71.711  1.00  0.00    -0.148 NA 
HETATM    4  H   UNL     1      -9.237   4.278  71.940  1.00  0.00     0.000 HD 
BRANCH   3   5
HETATM    5  C   UNL     1      -9.704   5.356  70.234  1.00  0.00    -0.192 C  
HETATM    6  C   UNL     1     -11.046   5.982  69.838  1.00  0.00    -0.469 C  
BRANCH   5   7
HETATM    7  C   UNL     1      -8.516   6.235  69.707  1.00  0.00    -0.126 C  
HETATM    8  H   UNL     1      -6.667   5.911  69.171  1.00  0.00     0.000 HD 
HETATM    9  O   UNL     1      -7.386   5.379  69.489  1.00  0.00    -0.062 OA 
BRANCH   7  10
HETATM   10  C   UNL     1      -8.784   7.038  68.439  1.00  0.00    -0.125 A  
HETATM   11  C   UNL     1      -8.964   8.434  68.452  1.00  0.00    -0.136 A  
HETATM   12  C   UNL     1      -9.243   8.467  66.059  1.00  0.00    -0.202 A  
HETATM   13  C   UNL     1      -9.036   7.099  66.009  1.00  0.00    -0.141 A  
HETATM   14  O   UNL     1      -9.485   9.123  64.887  1.00  0.00    -0.453 OA 
HETATM   15  C   UNL     1      -9.204   9.145  67.271  1.00  0.00    -0.157 A  
HETATM   16  C   UNL     1      -8.800   6.390  67.190  1.00  0.00    -0.113 A  
HETATM   17  H   UNL     1      -9.512   8.659  64.058  1.00  0.00     0.000 HD 
ENDBRANCH   7  10
ENDBRANCH   5   7
ENDBRANCH   3   5
ENDBRANCH   2   3
BRANCH   2  18
HETATM   18  C   UNL     1     -10.643   6.687  73.384  1.00  0.00    -0.333 C  
BRANCH  18  19
HETATM   19  C   UNL     1      -9.945   7.888  72.737  1.00  0.00    -0.348 C  
BRANCH  19  20
HETATM   20  C   UNL     1     -10.988   8.779  72.097  1.00  0.00    -0.404 A  
HETATM   21  C   UNL     1     -12.336   8.670  72.467  1.00  0.00    -0.378 A  
HETATM   22  C   UNL     1     -13.315   9.406  71.796  1.00  0.00    -0.489 A  
HETATM   23  C   UNL     1     -11.618  10.383  70.385  1.00  0.00    -0.423 A  
HETATM   24  C   UNL     1     -10.638   9.648  71.055  1.00  0.00    -0.362 A  
HETATM   25  C   UNL     1     -12.957  10.257  70.752  1.00  0.00    -0.408 A  
ENDBRANCH  19  20
ENDBRANCH  18  19
ENDBRANCH   2  18
TORSDOF 7
ENDMDL
MODEL      170
REMARK 921   NORMALIZED FREE ENERGY PREDICTED BY IDOCK:   -4.15 KCAL/MOL
REMARK 922        TOTAL FREE ENERGY PREDICTED BY IDOCK:   -7.48 KCAL/MOL
REMARK 923 INTER-LIGAND FREE ENERGY PREDICTED BY IDOCK:   -6.82 KCAL/MOL
REMARK 924 INTRA-LIGAND FREE ENERGY PREDICTED BY IDOCK:   -0.66 KCAL/MOL
REMARK 927      BINDING AFFINITY PREDICTED BY RF-SCORE:    0.00 PKD
ROOT
HETATM    1  C   UNL     1     -12.525  15.588  70.175  1.00  0.00    -0.351 C  
HETATM    2  C   UNL     1     -11.712  14.725  69.198  1.00  0.00    -0.313 C  
ENDROOT
BRANCH   2   3
HETATM    3  N   UNL     1     -11.427  13.384  69.731  1.00  0.00    -0.471 NA 
HETATM    4  H   UNL     1     -11.864  13.273  70.646  1.00  0.00     0.000 HD 
BRANCH   3   5
HETATM    5  C   UNL     1     -11.801  12.244  68.849  1.00  0.00    -0.303 C  
HETATM    6  C   UNL     1     -11.851  12.678  67.380  1.00  0.00    -0.393 C  
BRANCH   5   7
HETATM    7  C   UNL     1     -10.775  11.072  69.036  1.00  0.00    -0.219 C  
HETATM    8  H   UNL     1     -10.862   9.222  69.657  1.00  0.00     0.000 HD 
HETATM    9  O   UNL     1     -11.483   9.933  69.544  1.00  0.00    -0.180 OA 
BRANCH   7  10
HETATM   10  C   UNL     1      -9.993  10.658  67.793  1.00  0.00    -0.192 A  
HETATM   11  C   UNL     1     -10.507   9.760  66.840  1.00  0.00    -0.281 A  
HETATM   12  C   UNL     1      -8.513   9.961  65.504  1.00  0.00    -0.140 A  
HETATM   13  C   UNL     1      -7.993  10.874  66.406  1.00  0.00    -0.157 A  
HETATM   14  O   UNL     1      -7.757   9.630  64.418  1.00  0.00    -0.117 OA 
HETATM   15  C   UNL     1      -9.769   9.402  65.708  1.00  0.00    -0.354 A  
HETATM   16  C   UNL     1      -8.731  11.227  67.539  1.00  0.00    -0.138 A  
HETATM   17  H   UNL     1      -6.898  10.011  64.279  1.00  0.00     0.000 HD 
ENDBRANCH   7  10
ENDBRANCH   5   7
ENDBRANCH   3   5
ENDBRANCH   2   3
BRANCH   2  18
HETATM   18  C   UNL     1     -10.390  15.470  68.919  1.00  0.00    -0.221 C  
BRANCH  18  19
HETATM   19  C   UNL     1     -10.184  15.925  67.470  1.00  0.00    -0.269 C  
BRANCH  19  20
HETATM   20  C   UNL     1     -10.268  17.435  67.410  1.00  0.00    -0.326 A  
HETATM   21  C   UNL     1     -10.500  18.084  66.189  1.00  0.00    -0.336 A  
HETATM   22  C   UNL     1     -10.462  19.477  66.110  1.00  0.00    -0.613 A  
HETATM   23  C   UNL     1      -9.972  19.600  68.470  1.00  0.00    -0.542 A  
HETATM   24  C   UNL     1     -10.011  18.207  68.551  1.00  0.00    -0.408 A  
HETATM   25  C   UNL     1     -10.192  20.235  67.248  1.00  0.00    -0.495 A  
ENDBRANCH  19  20
ENDBRANCH  18  19
ENDBRANCH   2  18
TORSDOF 7
ENDMDL
MODEL      171
REMARK 921   NORMALIZED FREE ENERGY PREDICTED BY IDOCK:   -4.13 KCAL/MOL
REMARK 922        TOTAL FREE ENERGY PREDICTED BY IDOCK:   -7.45 KCAL/MOL
REMARK 923 INTER-LIGAND FREE ENERGY PREDICTED BY IDOCK:   -6.74 KCAL/MOL
REMARK 924 INTRA-LIGAND FREE ENERGY PREDICTED BY IDOCK:   -0.71 KCAL/MOL
REMARK 927      BINDING AFFINITY PREDICTED BY RF-SCORE:    0.00 PKD
ROOT
HETATM    1  C   UNL     1     -10.853  16.998  67.831  1.00  0.00    -0.302 C  
HETATM    2  C   UNL     1     -10.459  15.912  66.819  1.00  0.00    -0.309 C  
ENDROOT
BRANCH   2   3
HETATM    3  N   UNL     1     -11.251  14.681  66.974  1.00  0.00    -0.334 NA 
HETATM    4  H   UNL     1     -11.753  14.699  67.862  1.00  0.00     0.000 HD 
BRANCH   3   5
HETATM    5  C   UNL     1     -12.196  14.376  65.864  1.00  0.00    -0.341 C  
HETATM    6  C   UNL     1     -11.778  15.090  64.573  1.00  0.00    -0.372 C  
BRANCH   5   7
HETATM    7  C   UNL     1     -12.257  12.825  65.633  1.00  0.00    -0.444 C  
HETATM    8  H   UNL     1     -13.325  11.616  64.532  1.00  0.00     0.000 HD 
HETATM    9  O   UNL     1     -13.287  12.555  64.672  1.00  0.00    -0.804 OA 
BRANCH   7  10
HETATM   10  C   UNL     1     -10.963  12.161  65.175  1.00  0.00    -0.355 A  
HETATM   11  C   UNL     1     -10.030  11.620  66.080  1.00  0.00    -0.260 A  
HETATM   12  C   UNL     1      -8.608  10.919  64.266  1.00  0.00     0.053 A  
HETATM   13  C   UNL     1      -9.523  11.411  63.350  1.00  0.00    -0.292 A  
HETATM   14  O   UNL     1      -7.467  10.343  63.788  1.00  0.00    -0.274 OA 
HETATM   15  C   UNL     1      -8.853  11.012  65.630  1.00  0.00    -0.187 A  
HETATM   16  C   UNL     1     -10.696  12.021  63.801  1.00  0.00    -0.478 A  
HETATM   17  H   UNL     1      -7.299  10.280  62.855  1.00  0.00     0.000 HD 
ENDBRANCH   7  10
ENDBRANCH   5   7
ENDBRANCH   3   5
ENDBRANCH   2   3
BRANCH   2  18
HETATM   18  C   UNL     1      -8.964  15.603  67.036  1.00  0.00    -0.244 C  
BRANCH  18  19
HETATM   19  C   UNL     1      -8.289  16.376  68.174  1.00  0.00    -0.186 C  
BRANCH  19  20
HETATM   20  C   UNL     1      -7.594  17.593  67.601  1.00  0.00    -0.211 A  
HETATM   21  C   UNL     1      -7.203  18.647  68.439  1.00  0.00    -0.300 A  
HETATM   22  C   UNL     1      -6.669  19.818  67.899  1.00  0.00    -0.280 A  
HETATM   23  C   UNL     1      -6.893  18.901  65.678  1.00  0.00    -0.292 A  
HETATM   24  C   UNL     1      -7.426  17.728  66.216  1.00  0.00    -0.328 A  
HETATM   25  C   UNL     1      -6.520  19.948  66.520  1.00  0.00    -0.203 A  
ENDBRANCH  19  20
ENDBRANCH  18  19
ENDBRANCH   2  18
TORSDOF 7
ENDMDL
MODEL      172
REMARK 921   NORMALIZED FREE ENERGY PREDICTED BY IDOCK:   -4.11 KCAL/MOL
REMARK 922        TOTAL FREE ENERGY PREDICTED BY IDOCK:   -7.42 KCAL/MOL
REMARK 923 INTER-LIGAND FREE ENERGY PREDICTED BY IDOCK:   -5.28 KCAL/MOL
REMARK 924 INTRA-LIGAND FREE ENERGY PREDICTED BY IDOCK:   -2.15 KCAL/MOL
REMARK 927      BINDING AFFINITY PREDICTED BY RF-SCORE:    0.00 PKD
ROOT
HETATM    1  C   UNL     1      -9.172   4.194  67.286  1.00  0.00    -0.178 C  
HETATM    2  C   UNL     1      -9.297   5.725  67.263  1.00  0.00    -0.113 C  
ENDROOT
BRANCH   2   3
HETATM    3  N   UNL     1      -8.127   6.397  67.849  1.00  0.00    -0.114 NA 
HETATM    4  H   UNL     1      -7.523   5.712  68.302  1.00  0.00     0.000 HD 
BRANCH   3   5
HETATM    5  C   UNL     1      -7.328   7.238  66.916  1.00  0.00    -0.092 C  
HETATM    6  C   UNL     1      -7.876   7.148  65.487  1.00  0.00    -0.115 C  
BRANCH   5   7
HETATM    7  C   UNL     1      -7.335   8.728  67.409  1.00  0.00    -0.081 C  
HETATM    8  H   UNL     1      -6.805  10.452  66.659  1.00  0.00     0.000 HD 
HETATM    9  O   UNL     1      -6.801   9.549  66.361  1.00  0.00    -0.081 OA 
BRANCH   7  10
HETATM   10  C   UNL     1      -8.686   9.288  67.841  1.00  0.00    -0.124 A  
HETATM   11  C   UNL     1      -8.976   9.615  69.179  1.00  0.00    -0.154 A  
HETATM   12  C   UNL     1     -11.188  10.348  68.570  1.00  0.00    -0.251 A  
HETATM   13  C   UNL     1     -10.922  10.069  67.240  1.00  0.00    -0.225 A  
HETATM   14  O   UNL     1     -12.420  10.840  68.888  1.00  0.00    -0.782 OA 
HETATM   15  C   UNL     1     -10.223  10.131  69.545  1.00  0.00    -0.258 A  
HETATM   16  C   UNL     1      -9.676   9.550  66.876  1.00  0.00    -0.237 A  
HETATM   17  H   UNL     1     -13.080  10.989  68.221  1.00  0.00     0.000 HD 
ENDBRANCH   7  10
ENDBRANCH   5   7
ENDBRANCH   3   5
ENDBRANCH   2   3
BRANCH   2  18
HETATM   18  C   UNL     1     -10.566   6.094  68.059  1.00  0.00    -0.334 C  
BRANCH  18  19
HETATM   19  C   UNL     1     -10.733   5.376  69.403  1.00  0.00    -0.226 C  
BRANCH  19  20
HETATM   20  C   UNL     1     -10.849   6.409  70.503  1.00  0.00    -0.335 A  
HETATM   21  C   UNL     1      -9.758   6.677  71.341  1.00  0.00    -0.181 A  
HETATM   22  C   UNL     1      -9.897   7.542  72.429  1.00  0.00    -0.219 A  
HETATM   23  C   UNL     1     -12.214   7.896  71.854  1.00  0.00    -0.351 A  
HETATM   24  C   UNL     1     -12.077   7.032  70.766  1.00  0.00    -0.374 A  
HETATM   25  C   UNL     1     -11.126   8.146  72.688  1.00  0.00    -0.450 A  
ENDBRANCH  19  20
ENDBRANCH  18  19
ENDBRANCH   2  18
TORSDOF 7
ENDMDL
MODEL      173
REMARK 921   NORMALIZED FREE ENERGY PREDICTED BY IDOCK:   -4.10 KCAL/MOL
REMARK 922        TOTAL FREE ENERGY PREDICTED BY IDOCK:   -7.41 KCAL/MOL
REMARK 923 INTER-LIGAND FREE ENERGY PREDICTED BY IDOCK:   -6.43 KCAL/MOL
REMARK 924 INTRA-LIGAND FREE ENERGY PREDICTED BY IDOCK:   -0.98 KCAL/MOL
REMARK 927      BINDING AFFINITY PREDICTED BY RF-SCORE:    0.00 PKD
ROOT
HETATM    1  C   UNL     1     -12.897  13.302  70.881  1.00  0.00    -0.257 C  
HETATM    2  C   UNL     1     -11.798  12.516  70.151  1.00  0.00    -0.258 C  
ENDROOT
BRANCH   2   3
HETATM    3  N   UNL     1     -11.302  13.215  68.954  1.00  0.00    -0.272 NA 
HETATM    4  H   UNL     1     -11.709  12.800  68.116  1.00  0.00     0.000 HD 
BRANCH   3   5
HETATM    5  C   UNL     1     -11.501  14.690  68.938  1.00  0.00    -0.298 C  
HETATM    6  C   UNL     1     -10.414  15.401  69.751  1.00  0.00    -0.303 C  
BRANCH   5   7
HETATM    7  C   UNL     1     -11.499  15.208  67.456  1.00  0.00    -0.298 C  
HETATM    8  H   UNL     1     -10.346  16.357  66.378  1.00  0.00     0.000 HD 
HETATM    9  O   UNL     1     -10.347  16.043  67.275  1.00  0.00    -0.282 OA 
BRANCH   7  10
HETATM   10  C   UNL     1     -11.515  14.138  66.370  1.00  0.00    -0.362 A  
HETATM   11  C   UNL     1     -12.707  13.564  65.892  1.00  0.00    -0.382 A  
HETATM   12  C   UNL     1     -11.479  12.191  64.339  1.00  0.00    -0.350 A  
HETATM   13  C   UNL     1     -10.291  12.762  64.764  1.00  0.00    -0.345 A  
HETATM   14  O   UNL     1     -11.420  11.234  63.368  1.00  0.00    -0.741 OA 
HETATM   15  C   UNL     1     -12.691  12.587  64.890  1.00  0.00    -0.371 A  
HETATM   16  C   UNL     1     -10.309  13.735  65.767  1.00  0.00    -0.315 A  
HETATM   17  H   UNL     1     -10.591  10.963  62.991  1.00  0.00     0.000 HD 
ENDBRANCH   7  10
ENDBRANCH   5   7
ENDBRANCH   3   5
ENDBRANCH   2   3
BRANCH   2  18
HETATM   18  C   UNL     1     -12.398  11.153  69.750  1.00  0.00    -0.315 C  
BRANCH  18  19
HETATM   19  C   UNL     1     -11.749  10.478  68.536  1.00  0.00    -0.125 C  
BRANCH  19  20
HETATM   20  C   UNL     1     -10.306  10.156  68.863  1.00  0.00    -0.223 A  
HETATM   21  C   UNL     1      -9.966   9.620  70.113  1.00  0.00    -0.309 A  
HETATM   22  C   UNL     1      -8.627   9.432  70.461  1.00  0.00    -0.265 A  
HETATM   23  C   UNL     1      -7.944  10.300  68.315  1.00  0.00    -0.106 A  
HETATM   24  C   UNL     1      -9.283  10.488  67.965  1.00  0.00    -0.143 A  
HETATM   25  C   UNL     1      -7.617   9.778  69.565  1.00  0.00    -0.114 A  
ENDBRANCH  19  20
ENDBRANCH  18  19
ENDBRANCH   2  18
TORSDOF 7
ENDMDL
MODEL      174
REMARK 921   NORMALIZED FREE ENERGY PREDICTED BY IDOCK:   -4.10 KCAL/MOL
REMARK 922        TOTAL FREE ENERGY PREDICTED BY IDOCK:   -7.41 KCAL/MOL
REMARK 923 INTER-LIGAND FREE ENERGY PREDICTED BY IDOCK:   -6.69 KCAL/MOL
REMARK 924 INTRA-LIGAND FREE ENERGY PREDICTED BY IDOCK:   -0.72 KCAL/MOL
REMARK 927      BINDING AFFINITY PREDICTED BY RF-SCORE:    0.00 PKD
ROOT
HETATM    1  C   UNL     1      -8.687  14.010  67.861  1.00  0.00    -0.184 C  
HETATM    2  C   UNL     1      -9.518  12.771  68.227  1.00  0.00    -0.203 C  
ENDROOT
BRANCH   2   3
HETATM    3  N   UNL     1      -9.527  11.759  67.159  1.00  0.00    -0.173 NA 
HETATM    4  H   UNL     1      -8.877  12.028  66.420  1.00  0.00     0.000 HD 
BRANCH   3   5
HETATM    5  C   UNL     1      -9.254  10.361  67.591  1.00  0.00    -0.148 C  
HETATM    6  C   UNL     1      -9.659  10.146  69.053  1.00  0.00    -0.202 C  
BRANCH   5   7
HETATM    7  C   UNL     1     -10.025   9.360  66.660  1.00  0.00    -0.258 C  
HETATM    8  H   UNL     1     -10.130   9.036  64.737  1.00  0.00     0.000 HD 
HETATM    9  O   UNL     1      -9.664   9.642  65.301  1.00  0.00    -0.300 OA 
BRANCH   7  10
HETATM   10  C   UNL     1      -9.802   7.876  66.936  1.00  0.00    -0.309 A  
HETATM   11  C   UNL     1      -8.519   7.322  67.099  1.00  0.00    -0.118 A  
HETATM   12  C   UNL     1      -9.459   5.137  67.478  1.00  0.00    -0.133 A  
HETATM   13  C   UNL     1     -10.737   5.658  67.357  1.00  0.00    -0.283 A  
HETATM   14  O   UNL     1      -9.331   3.800  67.718  1.00  0.00    -0.162 OA 
HETATM   15  C   UNL     1      -8.346   5.958  67.356  1.00  0.00    -0.105 A  
HETATM   16  C   UNL     1     -10.908   7.020  67.096  1.00  0.00    -0.427 A  
HETATM   17  H   UNL     1     -10.093   3.238  67.801  1.00  0.00     0.000 HD 
ENDBRANCH   7  10
ENDBRANCH   5   7
ENDBRANCH   3   5
ENDBRANCH   2   3
BRANCH   2  18
HETATM   18  C   UNL     1     -10.958  13.251  68.506  1.00  0.00    -0.291 C  
BRANCH  18  19
HETATM   19  C   UNL     1     -11.075  14.589  69.243  1.00  0.00    -0.296 C  
BRANCH  19  20
HETATM   20  C   UNL     1     -12.076  14.446  70.370  1.00  0.00    -0.399 A  
HETATM   21  C   UNL     1     -12.362  13.183  70.908  1.00  0.00    -0.393 A  
HETATM   22  C   UNL     1     -13.368  13.033  71.863  1.00  0.00    -0.539 A  
HETATM   23  C   UNL     1     -13.813  15.403  71.772  1.00  0.00    -0.620 A  
HETATM   24  C   UNL     1     -12.807  15.556  70.816  1.00  0.00    -0.513 A  
HETATM   25  C   UNL     1     -14.098  14.141  72.291  1.00  0.00    -0.630 A  
ENDBRANCH  19  20
ENDBRANCH  18  19
ENDBRANCH   2  18
TORSDOF 7
ENDMDL
MODEL      175
REMARK 921   NORMALIZED FREE ENERGY PREDICTED BY IDOCK:   -4.09 KCAL/MOL
REMARK 922        TOTAL FREE ENERGY PREDICTED BY IDOCK:   -7.39 KCAL/MOL
REMARK 923 INTER-LIGAND FREE ENERGY PREDICTED BY IDOCK:   -6.63 KCAL/MOL
REMARK 924 INTRA-LIGAND FREE ENERGY PREDICTED BY IDOCK:   -0.76 KCAL/MOL
REMARK 927      BINDING AFFINITY PREDICTED BY RF-SCORE:    0.00 PKD
ROOT
HETATM    1  C   UNL     1     -11.231   6.336  68.910  1.00  0.00    -0.387 C  
HETATM    2  C   UNL     1     -10.191   7.269  68.271  1.00  0.00    -0.180 C  
ENDROOT
BRANCH   2   3
HETATM    3  N   UNL     1     -10.799   8.266  67.377  1.00  0.00    -0.497 NA 
HETATM    4  H   UNL     1     -11.753   7.990  67.145  1.00  0.00     0.000 HD 
BRANCH   3   5
HETATM    5  C   UNL     1     -10.783   9.671  67.869  1.00  0.00    -0.247 C  
HETATM    6  C   UNL     1     -10.329   9.738  69.331  1.00  0.00    -0.232 C  
BRANCH   5   7
HETATM    7  C   UNL     1      -9.838  10.538  66.964  1.00  0.00    -0.183 C  
HETATM    8  H   UNL     1      -8.325  10.186  65.781  1.00  0.00     0.000 HD 
HETATM    9  O   UNL     1      -8.898   9.661  66.328  1.00  0.00    -0.145 OA 
BRANCH   7  10
HETATM   10  C   UNL     1     -10.521  11.392  65.901  1.00  0.00    -0.309 A  
HETATM   11  C   UNL     1     -10.201  11.295  64.534  1.00  0.00    -0.370 A  
HETATM   12  C   UNL     1     -11.842  12.971  63.984  1.00  0.00    -0.445 A  
HETATM   13  C   UNL     1     -12.204  13.065  65.318  1.00  0.00    -0.513 A  
HETATM   14  O   UNL     1     -12.489  13.769  63.086  1.00  0.00    -1.089 OA 
HETATM   15  C   UNL     1     -10.848  12.088  63.581  1.00  0.00    -0.510 A  
HETATM   16  C   UNL     1     -11.553  12.274  66.269  1.00  0.00    -0.446 A  
HETATM   17  H   UNL     1     -13.168  14.373  63.362  1.00  0.00     0.000 HD 
ENDBRANCH   7  10
ENDBRANCH   5   7
ENDBRANCH   3   5
ENDBRANCH   2   3
BRANCH   2  18
HETATM   18  C   UNL     1      -9.207   6.384  67.478  1.00  0.00    -0.112 C  
BRANCH  18  19
HETATM   19  C   UNL     1      -9.853   5.365  66.532  1.00  0.00    -0.195 C  
BRANCH  19  20
HETATM   20  C   UNL     1      -9.204   4.014  66.744  1.00  0.00    -0.178 A  
HETATM   21  C   UNL     1      -9.483   3.268  67.898  1.00  0.00    -0.219 A  
HETATM   22  C   UNL     1      -8.799   2.078  68.154  1.00  0.00    -0.150 A  
HETATM   23  C   UNL     1      -7.555   2.350  66.103  1.00  0.00    -0.068 A  
HETATM   24  C   UNL     1      -8.239   3.540  65.846  1.00  0.00    -0.097 A  
HETATM   25  C   UNL     1      -7.831   1.623  67.260  1.00  0.00    -0.060 A  
ENDBRANCH  19  20
ENDBRANCH  18  19
ENDBRANCH   2  18
TORSDOF 7
ENDMDL
MODEL      176
REMARK 921   NORMALIZED FREE ENERGY PREDICTED BY IDOCK:   -4.07 KCAL/MOL
REMARK 922        TOTAL FREE ENERGY PREDICTED BY IDOCK:   -7.37 KCAL/MOL
REMARK 923 INTER-LIGAND FREE ENERGY PREDICTED BY IDOCK:   -6.52 KCAL/MOL
REMARK 924 INTRA-LIGAND FREE ENERGY PREDICTED BY IDOCK:   -0.85 KCAL/MOL
REMARK 927      BINDING AFFINITY PREDICTED BY RF-SCORE:    0.00 PKD
ROOT
HETATM    1  C   UNL     1      -7.651   9.806  68.815  1.00  0.00    -0.076 C  
HETATM    2  C   UNL     1      -8.931  10.613  69.083  1.00  0.00    -0.128 C  
ENDROOT
BRANCH   2   3
HETATM    3  N   UNL     1      -9.734  10.053  70.181  1.00  0.00    -0.394 NA 
HETATM    4  H   UNL     1      -9.932  10.778  70.871  1.00  0.00     0.000 HD 
BRANCH   3   5
HETATM    5  C   UNL     1     -10.997   9.376  69.780  1.00  0.00    -0.215 C  
HETATM    6  C   UNL     1     -10.818   7.854  69.740  1.00  0.00    -0.202 C  
BRANCH   5   7
HETATM    7  C   UNL     1     -12.145   9.763  70.777  1.00  0.00    -0.279 C  
HETATM    8  H   UNL     1     -12.499   9.488  72.678  1.00  0.00     0.000 HD 
HETATM    9  O   UNL     1     -11.804   9.253  72.074  1.00  0.00    -0.363 OA 
BRANCH   7  10
HETATM   10  C   UNL     1     -12.461  11.251  70.894  1.00  0.00    -0.493 A  
HETATM   11  C   UNL     1     -13.053  11.809  72.042  1.00  0.00    -0.436 A  
HETATM   12  C   UNL     1     -12.988  14.009  71.062  1.00  0.00    -0.308 A  
HETATM   13  C   UNL     1     -12.372  13.495  69.933  1.00  0.00    -0.287 A  
HETATM   14  O   UNL     1     -13.247  15.348  71.098  1.00  0.00    -0.462 OA 
HETATM   15  C   UNL     1     -13.327  13.179  72.123  1.00  0.00    -0.621 A  
HETATM   16  C   UNL     1     -12.102  12.127  69.853  1.00  0.00    -0.324 A  
HETATM   17  H   UNL     1     -13.015  15.916  70.373  1.00  0.00     0.000 HD 
ENDBRANCH   7  10
ENDBRANCH   5   7
ENDBRANCH   3   5
ENDBRANCH   2   3
BRANCH   2  18
HETATM   18  C   UNL     1      -9.755  10.611  67.778  1.00  0.00    -0.179 C  
BRANCH  18  19
HETATM   19  C   UNL     1      -9.501  11.794  66.837  1.00  0.00    -0.200 C  
BRANCH  19  20
HETATM   20  C   UNL     1      -9.330  11.274  65.426  1.00  0.00    -0.232 A  
HETATM   21  C   UNL     1     -10.248  11.623  64.425  1.00  0.00    -0.346 A  
HETATM   22  C   UNL     1     -10.160  11.053  63.154  1.00  0.00    -0.350 A  
HETATM   23  C   UNL     1      -8.230   9.785  63.854  1.00  0.00    -0.159 A  
HETATM   24  C   UNL     1      -8.315  10.354  65.125  1.00  0.00    -0.165 A  
HETATM   25  C   UNL     1      -9.156  10.130  62.871  1.00  0.00    -0.299 A  
ENDBRANCH  19  20
ENDBRANCH  18  19
ENDBRANCH   2  18
TORSDOF 7
ENDMDL
MODEL      177
REMARK 921   NORMALIZED FREE ENERGY PREDICTED BY IDOCK:   -4.04 KCAL/MOL
REMARK 922        TOTAL FREE ENERGY PREDICTED BY IDOCK:   -7.33 KCAL/MOL
REMARK 923 INTER-LIGAND FREE ENERGY PREDICTED BY IDOCK:   -6.81 KCAL/MOL
REMARK 924 INTRA-LIGAND FREE ENERGY PREDICTED BY IDOCK:   -0.52 KCAL/MOL
REMARK 927      BINDING AFFINITY PREDICTED BY RF-SCORE:    0.00 PKD
ROOT
HETATM    1  C   UNL     1     -10.850   5.342  73.583  1.00  0.00    -0.347 C  
HETATM    2  C   UNL     1     -10.960   6.478  72.555  1.00  0.00    -0.248 C  
ENDROOT
BRANCH   2   3
HETATM    3  N   UNL     1     -12.000   7.458  72.904  1.00  0.00    -0.549 NA 
HETATM    4  H   UNL     1     -11.691   8.027  73.692  1.00  0.00     0.000 HD 
BRANCH   3   5
HETATM    5  C   UNL     1     -12.461   8.336  71.794  1.00  0.00    -0.332 C  
HETATM    6  C   UNL     1     -13.854   8.906  72.085  1.00  0.00    -0.531 C  
BRANCH   5   7
HETATM    7  C   UNL     1     -11.431   9.500  71.577  1.00  0.00    -0.395 C  
HETATM    8  H   UNL     1      -9.539   9.784  71.967  1.00  0.00     0.000 HD 
HETATM    9  O   UNL     1     -10.163   9.079  72.099  1.00  0.00    -0.300 OA 
BRANCH   7  10
HETATM   10  C   UNL     1     -11.245   9.974  70.139  1.00  0.00    -0.367 A  
HETATM   11  C   UNL     1     -10.592   9.196  69.165  1.00  0.00    -0.224 A  
HETATM   12  C   UNL     1     -10.963  10.891  67.495  1.00  0.00    -0.293 A  
HETATM   13  C   UNL     1     -11.641  11.665  68.421  1.00  0.00    -0.376 A  
HETATM   14  O   UNL     1     -10.827  11.378  66.227  1.00  0.00    -0.272 OA 
HETATM   15  C   UNL     1     -10.440   9.655  67.853  1.00  0.00    -0.296 A  
HETATM   16  C   UNL     1     -11.789  11.206  69.733  1.00  0.00    -0.422 A  
HETATM   17  H   UNL     1     -11.185  12.224  65.983  1.00  0.00     0.000 HD 
ENDBRANCH   7  10
ENDBRANCH   5   7
ENDBRANCH   3   5
ENDBRANCH   2   3
BRANCH   2  18
HETATM   18  C   UNL     1     -11.285   5.832  71.192  1.00  0.00    -0.211 C  
BRANCH  18  19
HETATM   19  C   UNL     1     -10.274   6.110  70.074  1.00  0.00    -0.250 C  
BRANCH  19  20
HETATM   20  C   UNL     1      -9.811   4.793  69.488  1.00  0.00    -0.292 A  
HETATM   21  C   UNL     1      -9.668   4.645  68.101  1.00  0.00    -0.197 A  
HETATM   22  C   UNL     1      -9.356   3.401  67.551  1.00  0.00    -0.248 A  
HETATM   23  C   UNL     1      -9.311   2.432  69.761  1.00  0.00    -0.168 A  
HETATM   24  C   UNL     1      -9.623   3.676  70.313  1.00  0.00    -0.246 A  
HETATM   25  C   UNL     1      -9.184   2.294  68.380  1.00  0.00    -0.241 A  
ENDBRANCH  19  20
ENDBRANCH  18  19
ENDBRANCH   2  18
TORSDOF 7
ENDMDL
MODEL      178
REMARK 921   NORMALIZED FREE ENERGY PREDICTED BY IDOCK:   -4.04 KCAL/MOL
REMARK 922        TOTAL FREE ENERGY PREDICTED BY IDOCK:   -7.33 KCAL/MOL
REMARK 923 INTER-LIGAND FREE ENERGY PREDICTED BY IDOCK:   -5.71 KCAL/MOL
REMARK 924 INTRA-LIGAND FREE ENERGY PREDICTED BY IDOCK:   -1.62 KCAL/MOL
REMARK 927      BINDING AFFINITY PREDICTED BY RF-SCORE:    0.00 PKD
ROOT
HETATM    1  C   UNL     1      -7.232   5.526  68.161  1.00  0.00    -0.072 C  
HETATM    2  C   UNL     1      -7.918   6.809  67.668  1.00  0.00    -0.113 C  
ENDROOT
BRANCH   2   3
HETATM    3  N   UNL     1      -7.638   7.968  68.530  1.00  0.00    -0.102 NA 
HETATM    4  H   UNL     1      -6.873   8.517  68.137  1.00  0.00     0.000 HD 
BRANCH   3   5
HETATM    5  C   UNL     1      -8.799   8.853  68.823  1.00  0.00    -0.137 C  
HETATM    6  C   UNL     1      -9.030   8.976  70.333  1.00  0.00    -0.235 C  
BRANCH   5   7
HETATM    7  C   UNL     1      -8.557  10.269  68.191  1.00  0.00    -0.119 C  
HETATM    8  H   UNL     1      -6.996  11.325  67.680  1.00  0.00     0.000 HD 
HETATM    9  O   UNL     1      -7.143  10.467  68.062  1.00  0.00    -0.083 OA 
BRANCH   7  10
HETATM   10  C   UNL     1      -9.221  10.525  66.842  1.00  0.00    -0.173 A  
HETATM   11  C   UNL     1      -8.870   9.814  65.679  1.00  0.00    -0.182 A  
HETATM   12  C   UNL     1     -10.506  11.022  64.389  1.00  0.00    -0.354 A  
HETATM   13  C   UNL     1     -10.898  11.715  65.523  1.00  0.00    -0.334 A  
HETATM   14  O   UNL     1     -11.137  11.306  63.213  1.00  0.00    -0.771 OA 
HETATM   15  C   UNL     1      -9.499  10.068  64.456  1.00  0.00    -0.359 A  
HETATM   16  C   UNL     1     -10.266  11.462  66.743  1.00  0.00    -0.258 A  
HETATM   17  H   UNL     1     -11.825  11.959  63.167  1.00  0.00     0.000 HD 
ENDBRANCH   7  10
ENDBRANCH   5   7
ENDBRANCH   3   5
ENDBRANCH   2   3
BRANCH   2  18
HETATM   18  C   UNL     1      -9.436   6.534  67.637  1.00  0.00    -0.126 C  
BRANCH  18  19
HETATM   19  C   UNL     1      -9.892   5.271  68.376  1.00  0.00    -0.208 C  
BRANCH  19  20
HETATM   20  C   UNL     1     -10.451   5.665  69.727  1.00  0.00    -0.377 A  
HETATM   21  C   UNL     1      -9.883   5.156  70.904  1.00  0.00    -0.266 A  
HETATM   22  C   UNL     1     -10.468   5.423  72.143  1.00  0.00    -0.273 A  
HETATM   23  C   UNL     1     -12.188   6.721  71.056  1.00  0.00    -0.405 A  
HETATM   24  C   UNL     1     -11.604   6.456  69.816  1.00  0.00    -0.397 A  
HETATM   25  C   UNL     1     -11.623   6.199  72.219  1.00  0.00    -0.362 A  
ENDBRANCH  19  20
ENDBRANCH  18  19
ENDBRANCH   2  18
TORSDOF 7
ENDMDL
MODEL      179
REMARK 921   NORMALIZED FREE ENERGY PREDICTED BY IDOCK:   -4.03 KCAL/MOL
REMARK 922        TOTAL FREE ENERGY PREDICTED BY IDOCK:   -7.31 KCAL/MOL
REMARK 923 INTER-LIGAND FREE ENERGY PREDICTED BY IDOCK:   -6.64 KCAL/MOL
REMARK 924 INTRA-LIGAND FREE ENERGY PREDICTED BY IDOCK:   -0.67 KCAL/MOL
REMARK 927      BINDING AFFINITY PREDICTED BY RF-SCORE:    0.00 PKD
ROOT
HETATM    1  C   UNL     1     -12.202  15.407  70.823  1.00  0.00    -0.430 C  
HETATM    2  C   UNL     1     -11.416  15.353  69.505  1.00  0.00    -0.319 C  
ENDROOT
BRANCH   2   3
HETATM    3  N   UNL     1     -10.541  14.174  69.416  1.00  0.00    -0.431 NA 
HETATM    4  H   UNL     1     -10.956  13.393  69.925  1.00  0.00     0.000 HD 
BRANCH   3   5
HETATM    5  C   UNL     1     -10.173  13.743  68.039  1.00  0.00    -0.248 C  
HETATM    6  C   UNL     1      -8.651  13.711  67.860  1.00  0.00    -0.181 C  
BRANCH   5   7
HETATM    7  C   UNL     1     -10.786  12.329  67.745  1.00  0.00    -0.221 C  
HETATM    8  H   UNL     1     -10.646  11.015  66.307  1.00  0.00     0.000 HD 
HETATM    9  O   UNL     1     -10.274  11.872  66.485  1.00  0.00    -0.199 OA 
BRANCH   7  10
HETATM   10  C   UNL     1     -10.541  11.257  68.801  1.00  0.00    -0.234 A  
HETATM   11  C   UNL     1      -9.374  10.472  68.824  1.00  0.00    -0.181 A  
HETATM   12  C   UNL     1     -10.133   9.316  70.797  1.00  0.00    -0.291 A  
HETATM   13  C   UNL     1     -11.277  10.097  70.822  1.00  0.00    -0.414 A  
HETATM   14  O   UNL     1      -9.981   8.370  71.768  1.00  0.00    -0.195 OA 
HETATM   15  C   UNL     1      -9.174   9.498  69.809  1.00  0.00    -0.224 A  
HETATM   16  C   UNL     1     -11.476  11.066  69.835  1.00  0.00    -0.400 A  
HETATM   17  H   UNL     1     -10.637   8.246  72.444  1.00  0.00     0.000 HD 
ENDBRANCH   7  10
ENDBRANCH   5   7
ENDBRANCH   3   5
ENDBRANCH   2   3
BRANCH   2  18
HETATM   18  C   UNL     1     -10.571  16.641  69.422  1.00  0.00    -0.333 C  
BRANCH  18  19
HETATM   19  C   UNL     1     -10.567  17.340  68.058  1.00  0.00    -0.394 C  
BRANCH  19  20
HETATM   20  C   UNL     1      -9.450  18.361  68.029  1.00  0.00    -0.305 A  
HETATM   21  C   UNL     1      -9.718  19.696  67.696  1.00  0.00    -0.471 A  
HETATM   22  C   UNL     1      -8.675  20.613  67.554  1.00  0.00    -0.271 A  
HETATM   23  C   UNL     1      -7.079  18.883  68.088  1.00  0.00    -0.273 A  
HETATM   24  C   UNL     1      -8.120  17.965  68.231  1.00  0.00    -0.294 A  
HETATM   25  C   UNL     1      -7.356  20.206  67.744  1.00  0.00    -0.333 A  
ENDBRANCH  19  20
ENDBRANCH  18  19
ENDBRANCH   2  18
TORSDOF 7
ENDMDL
MODEL      180
REMARK 921   NORMALIZED FREE ENERGY PREDICTED BY IDOCK:   -4.02 KCAL/MOL
REMARK 922        TOTAL FREE ENERGY PREDICTED BY IDOCK:   -7.29 KCAL/MOL
REMARK 923 INTER-LIGAND FREE ENERGY PREDICTED BY IDOCK:   -6.68 KCAL/MOL
REMARK 924 INTRA-LIGAND FREE ENERGY PREDICTED BY IDOCK:   -0.61 KCAL/MOL
REMARK 927      BINDING AFFINITY PREDICTED BY RF-SCORE:    0.00 PKD
ROOT
HETATM    1  C   UNL     1     -12.110  14.010  69.661  1.00  0.00    -0.408 C  
HETATM    2  C   UNL     1     -11.344  13.532  68.419  1.00  0.00    -0.292 C  
ENDROOT
BRANCH   2   3
HETATM    3  N   UNL     1     -10.270  12.582  68.747  1.00  0.00    -0.404 NA 
HETATM    4  H   UNL     1     -10.256  12.406  69.751  1.00  0.00     0.000 HD 
BRANCH   3   5
HETATM    5  C   UNL     1     -10.298  11.291  68.006  1.00  0.00    -0.183 C  
HETATM    6  C   UNL     1     -10.043  11.509  66.510  1.00  0.00    -0.246 C  
BRANCH   5   7
HETATM    7  C   UNL     1      -9.227  10.314  68.604  1.00  0.00    -0.159 C  
HETATM    8  H   UNL     1      -7.364  10.458  69.173  1.00  0.00     0.000 HD 
HETATM    9  O   UNL     1      -8.013  11.050  68.811  1.00  0.00    -0.130 OA 
BRANCH   7  10
HETATM   10  C   UNL     1      -9.609   9.609  69.902  1.00  0.00    -0.260 A  
HETATM   11  C   UNL     1      -8.682   8.876  70.665  1.00  0.00    -0.230 A  
HETATM   12  C   UNL     1     -10.370   8.360  72.305  1.00  0.00    -0.333 A  
HETATM   13  C   UNL     1     -11.297   9.104  71.594  1.00  0.00    -0.446 A  
HETATM   14  O   UNL     1     -10.781   7.751  73.454  1.00  0.00    -0.348 OA 
HETATM   15  C   UNL     1      -9.061   8.244  71.854  1.00  0.00    -0.259 A  
HETATM   16  C   UNL     1     -10.918   9.731  70.405  1.00  0.00    -0.371 A  
HETATM   17  H   UNL     1     -11.677   7.830  73.762  1.00  0.00     0.000 HD 
ENDBRANCH   7  10
ENDBRANCH   5   7
ENDBRANCH   3   5
ENDBRANCH   2   3
BRANCH   2  18
HETATM   18  C   UNL     1     -10.749  14.782  67.738  1.00  0.00    -0.268 C  
BRANCH  18  19
HETATM   19  C   UNL     1     -11.285  16.126  68.243  1.00  0.00    -0.343 C  
BRANCH  19  20
HETATM   20  C   UNL     1     -10.460  17.244  67.641  1.00  0.00    -0.363 A  
HETATM   21  C   UNL     1     -11.007  18.526  67.492  1.00  0.00    -0.200 A  
HETATM   22  C   UNL     1     -10.292  19.527  66.832  1.00  0.00    -0.566 A  
HETATM   23  C   UNL     1      -8.467  17.990  66.470  1.00  0.00    -0.285 A  
HETATM   24  C   UNL     1      -9.180  16.987  67.131  1.00  0.00    -0.242 A  
HETATM   25  C   UNL     1      -9.026  19.258  66.316  1.00  0.00    -0.347 A  
ENDBRANCH  19  20
ENDBRANCH  18  19
ENDBRANCH   2  18
TORSDOF 7
ENDMDL
MODEL      181
REMARK 921   NORMALIZED FREE ENERGY PREDICTED BY IDOCK:   -4.01 KCAL/MOL
REMARK 922        TOTAL FREE ENERGY PREDICTED BY IDOCK:   -7.28 KCAL/MOL
REMARK 923 INTER-LIGAND FREE ENERGY PREDICTED BY IDOCK:   -6.78 KCAL/MOL
REMARK 924 INTRA-LIGAND FREE ENERGY PREDICTED BY IDOCK:   -0.50 KCAL/MOL
REMARK 927      BINDING AFFINITY PREDICTED BY RF-SCORE:    0.00 PKD
ROOT
HETATM    1  C   UNL     1     -11.642  15.404  70.171  1.00  0.00    -0.351 C  
HETATM    2  C   UNL     1     -11.828  15.569  68.655  1.00  0.00    -0.300 C  
ENDROOT
BRANCH   2   3
HETATM    3  N   UNL     1     -12.447  14.389  68.030  1.00  0.00    -0.529 NA 
HETATM    4  H   UNL     1     -13.090  14.683  67.295  1.00  0.00     0.000 HD 
BRANCH   3   5
HETATM    5  C   UNL     1     -11.503  13.368  67.499  1.00  0.00    -0.323 C  
HETATM    6  C   UNL     1     -11.364  12.189  68.470  1.00  0.00    -0.324 C  
BRANCH   5   7
HETATM    7  C   UNL     1     -11.999  12.865  66.099  1.00  0.00    -0.429 C  
HETATM    8  H   UNL     1     -12.641  13.706  64.457  1.00  0.00     0.000 HD 
HETATM    9  O   UNL     1     -12.340  14.011  65.306  1.00  0.00    -0.419 OA 
BRANCH   7  10
HETATM   10  C   UNL     1     -11.027  11.989  65.315  1.00  0.00    -0.356 A  
HETATM   11  C   UNL     1     -10.727  12.218  63.960  1.00  0.00    -0.438 A  
HETATM   12  C   UNL     1      -9.199  10.356  63.934  1.00  0.00    -0.266 A  
HETATM   13  C   UNL     1      -9.447  10.126  65.278  1.00  0.00    -0.306 A  
HETATM   14  O   UNL     1      -8.323   9.530  63.293  1.00  0.00    -0.156 OA 
HETATM   15  C   UNL     1      -9.827  11.400  63.268  1.00  0.00    -0.428 A  
HETATM   16  C   UNL     1     -10.349  10.941  65.966  1.00  0.00    -0.304 A  
HETATM   17  H   UNL     1      -7.894   8.815  63.748  1.00  0.00     0.000 HD 
ENDBRANCH   7  10
ENDBRANCH   5   7
ENDBRANCH   3   5
ENDBRANCH   2   3
BRANCH   2  18
HETATM   18  C   UNL     1     -10.433  15.814  68.045  1.00  0.00    -0.270 C  
BRANCH  18  19
HETATM   19  C   UNL     1      -9.357  16.287  69.029  1.00  0.00    -0.254 C  
BRANCH  19  20
HETATM   20  C   UNL     1      -8.154  16.772  68.250  1.00  0.00    -0.202 A  
HETATM   21  C   UNL     1      -8.301  17.232  66.933  1.00  0.00    -0.253 A  
HETATM   22  C   UNL     1      -7.180  17.570  66.173  1.00  0.00    -0.343 A  
HETATM   23  C   UNL     1      -5.746  17.007  68.031  1.00  0.00    -0.124 A  
HETATM   24  C   UNL     1      -6.866  16.670  68.794  1.00  0.00    -0.180 A  
HETATM   25  C   UNL     1      -5.903  17.451  66.719  1.00  0.00    -0.221 A  
ENDBRANCH  19  20
ENDBRANCH  18  19
ENDBRANCH   2  18
TORSDOF 7
ENDMDL
MODEL      182
REMARK 921   NORMALIZED FREE ENERGY PREDICTED BY IDOCK:   -3.99 KCAL/MOL
REMARK 922        TOTAL FREE ENERGY PREDICTED BY IDOCK:   -7.25 KCAL/MOL
REMARK 923 INTER-LIGAND FREE ENERGY PREDICTED BY IDOCK:   -6.06 KCAL/MOL
REMARK 924 INTRA-LIGAND FREE ENERGY PREDICTED BY IDOCK:   -1.19 KCAL/MOL
REMARK 927      BINDING AFFINITY PREDICTED BY RF-SCORE:    0.00 PKD
ROOT
HETATM    1  C   UNL     1      -7.482  14.269  67.811  1.00  0.00    -0.175 C  
HETATM    2  C   UNL     1      -8.716  13.354  67.808  1.00  0.00    -0.197 C  
ENDROOT
BRANCH   2   3
HETATM    3  N   UNL     1      -8.888  12.642  66.532  1.00  0.00    -0.408 NA 
HETATM    4  H   UNL     1      -8.351  13.105  65.799  1.00  0.00     0.000 HD 
BRANCH   3   5
HETATM    5  C   UNL     1      -8.568  11.188  66.554  1.00  0.00    -0.169 C  
HETATM    6  C   UNL     1      -7.659  10.842  67.739  1.00  0.00    -0.095 C  
BRANCH   5   7
HETATM    7  C   UNL     1      -9.896  10.354  66.625  1.00  0.00    -0.202 C  
HETATM    8  H   UNL     1     -10.569   8.724  65.789  1.00  0.00     0.000 HD 
HETATM    9  O   UNL     1      -9.765   9.229  65.746  1.00  0.00    -0.278 OA 
BRANCH   7  10
HETATM   10  C   UNL     1     -10.307   9.861  68.009  1.00  0.00    -0.244 A  
HETATM   11  C   UNL     1     -11.054  10.651  68.902  1.00  0.00    -0.314 A  
HETATM   12  C   UNL     1     -11.063   8.881  70.535  1.00  0.00    -0.251 A  
HETATM   13  C   UNL     1     -10.357   8.066  69.665  1.00  0.00    -0.220 A  
HETATM   14  O   UNL     1     -11.393   8.378  71.760  1.00  0.00    -0.264 OA 
HETATM   15  C   UNL     1     -11.421  10.170  70.163  1.00  0.00    -0.368 A  
HETATM   16  C   UNL     1      -9.989   8.549  68.407  1.00  0.00    -0.208 A  
HETATM   17  H   UNL     1     -11.148   7.496  72.014  1.00  0.00     0.000 HD 
ENDBRANCH   7  10
ENDBRANCH   5   7
ENDBRANCH   3   5
ENDBRANCH   2   3
BRANCH   2  18
HETATM   18  C   UNL     1      -9.947  14.243  68.082  1.00  0.00    -0.230 C  
BRANCH  18  19
HETATM   19  C   UNL     1      -9.770  15.290  69.187  1.00  0.00    -0.243 C  
BRANCH  19  20
HETATM   20  C   UNL     1     -10.943  15.204  70.140  1.00  0.00    -0.277 A  
HETATM   21  C   UNL     1     -11.228  16.266  71.011  1.00  0.00    -0.227 A  
HETATM   22  C   UNL     1     -12.235  16.143  71.971  1.00  0.00    -0.524 A  
HETATM   23  C   UNL     1     -12.698  13.902  71.202  1.00  0.00    -0.441 A  
HETATM   24  C   UNL     1     -11.692  14.024  70.240  1.00  0.00    -0.308 A  
HETATM   25  C   UNL     1     -12.965  14.960  72.070  1.00  0.00    -0.414 A  
ENDBRANCH  19  20
ENDBRANCH  18  19
ENDBRANCH   2  18
TORSDOF 7
ENDMDL
MODEL      183
REMARK 921   NORMALIZED FREE ENERGY PREDICTED BY IDOCK:   -3.97 KCAL/MOL
REMARK 922        TOTAL FREE ENERGY PREDICTED BY IDOCK:   -7.23 KCAL/MOL
REMARK 923 INTER-LIGAND FREE ENERGY PREDICTED BY IDOCK:   -6.59 KCAL/MOL
REMARK 924 INTRA-LIGAND FREE ENERGY PREDICTED BY IDOCK:   -0.64 KCAL/MOL
REMARK 927      BINDING AFFINITY PREDICTED BY RF-SCORE:    0.00 PKD
ROOT
HETATM    1  C   UNL     1      -8.259  10.597  69.017  1.00  0.00    -0.151 C  
HETATM    2  C   UNL     1      -8.846  11.734  68.168  1.00  0.00    -0.169 C  
ENDROOT
BRANCH   2   3
HETATM    3  N   UNL     1      -9.524  12.755  68.981  1.00  0.00    -0.284 NA 
HETATM    4  H   UNL     1      -9.122  13.674  68.792  1.00  0.00     0.000 HD 
BRANCH   3   5
HETATM    5  C   UNL     1     -11.005  12.813  68.845  1.00  0.00    -0.231 C  
HETATM    6  C   UNL     1     -11.691  11.969  69.925  1.00  0.00    -0.374 C  
BRANCH   5   7
HETATM    7  C   UNL     1     -11.487  14.304  68.931  1.00  0.00    -0.286 C  
HETATM    8  H   UNL     1     -12.805  15.403  67.999  1.00  0.00     0.000 HD 
HETATM    9  O   UNL     1     -12.513  14.501  67.947  1.00  0.00    -0.072 OA 
BRANCH   7  10
HETATM   10  C   UNL     1     -12.005  14.766  70.289  1.00  0.00    -0.367 A  
HETATM   11  C   UNL     1     -13.356  14.648  70.663  1.00  0.00    -0.181 A  
HETATM   12  C   UNL     1     -12.891  15.607  72.823  1.00  0.00    -0.452 A  
HETATM   13  C   UNL     1     -11.548  15.704  72.498  1.00  0.00    -0.507 A  
HETATM   14  O   UNL     1     -13.287  16.046  74.053  1.00  0.00    -0.880 OA 
HETATM   15  C   UNL     1     -13.801  15.077  71.918  1.00  0.00    -0.575 A  
HETATM   16  C   UNL     1     -11.106  15.279  71.243  1.00  0.00    -0.306 A  
HETATM   17  H   UNL     1     -12.665  16.409  74.672  1.00  0.00     0.000 HD 
ENDBRANCH   7  10
ENDBRANCH   5   7
ENDBRANCH   3   5
ENDBRANCH   2   3
BRANCH   2  18
HETATM   18  C   UNL     1      -9.848  11.099  67.181  1.00  0.00    -0.212 C  
BRANCH  18  19
HETATM   19  C   UNL     1      -9.226  10.423  65.954  1.00  0.00    -0.205 C  
BRANCH  19  20
HETATM   20  C   UNL     1      -9.474   8.932  66.033  1.00  0.00    -0.320 A  
HETATM   21  C   UNL     1     -10.539   8.430  66.794  1.00  0.00    -0.227 A  
HETATM   22  C   UNL     1     -10.700   7.054  66.964  1.00  0.00    -0.423 A  
HETATM   23  C   UNL     1      -8.744   6.655  65.607  1.00  0.00    -0.093 A  
HETATM   24  C   UNL     1      -8.582   8.031  65.435  1.00  0.00    -0.138 A  
HETATM   25  C   UNL     1      -9.799   6.167  66.376  1.00  0.00    -0.141 A  
ENDBRANCH  19  20
ENDBRANCH  18  19
ENDBRANCH   2  18
TORSDOF 7
ENDMDL
MODEL      184
REMARK 921   NORMALIZED FREE ENERGY PREDICTED BY IDOCK:   -3.97 KCAL/MOL
REMARK 922        TOTAL FREE ENERGY PREDICTED BY IDOCK:   -7.23 KCAL/MOL
REMARK 923 INTER-LIGAND FREE ENERGY PREDICTED BY IDOCK:   -5.93 KCAL/MOL
REMARK 924 INTRA-LIGAND FREE ENERGY PREDICTED BY IDOCK:   -1.30 KCAL/MOL
REMARK 927      BINDING AFFINITY PREDICTED BY RF-SCORE:    0.00 PKD
ROOT
HETATM    1  C   UNL     1      -8.815   9.239  67.598  1.00  0.00    -0.122 C  
HETATM    2  C   UNL     1      -9.595   8.460  66.528  1.00  0.00    -0.236 C  
ENDROOT
BRANCH   2   3
HETATM    3  N   UNL     1      -9.902   9.278  65.344  1.00  0.00    -0.444 NA 
HETATM    4  H   UNL     1     -10.881   9.563  65.362  1.00  0.00     0.000 HD 
BRANCH   3   5
HETATM    5  C   UNL     1      -9.032  10.468  65.136  1.00  0.00    -0.191 C  
HETATM    6  C   UNL     1      -8.231  10.344  63.834  1.00  0.00    -0.115 C  
BRANCH   5   7
HETATM    7  C   UNL     1      -9.909  11.768  65.113  1.00  0.00    -0.235 C  
HETATM    8  H   UNL     1     -11.689  12.244  64.464  1.00  0.00     0.000 HD 
HETATM    9  O   UNL     1     -11.157  11.456  64.478  1.00  0.00    -0.309 OA 
BRANCH   7  10
HETATM   10  C   UNL     1     -10.187  12.415  66.466  1.00  0.00    -0.244 A  
HETATM   11  C   UNL     1      -9.376  13.435  66.997  1.00  0.00    -0.243 A  
HETATM   12  C   UNL     1     -10.773  13.592  68.953  1.00  0.00    -0.212 A  
HETATM   13  C   UNL     1     -11.610  12.615  68.442  1.00  0.00    -0.370 A  
HETATM   14  O   UNL     1     -11.076  14.124  70.172  1.00  0.00    -0.468 OA 
HETATM   15  C   UNL     1      -9.659  14.014  68.239  1.00  0.00    -0.224 A  
HETATM   16  C   UNL     1     -11.324  12.036  67.203  1.00  0.00    -0.396 A  
HETATM   17  H   UNL     1     -11.838  13.836  70.661  1.00  0.00     0.000 HD 
ENDBRANCH   7  10
ENDBRANCH   5   7
ENDBRANCH   3   5
ENDBRANCH   2   3
BRANCH   2  18
HETATM   18  C   UNL     1     -10.904   7.971  67.180  1.00  0.00    -0.150 C  
BRANCH  18  19
HETATM   19  C   UNL     1     -10.968   6.470  67.484  1.00  0.00    -0.444 C  
BRANCH  19  20
HETATM   20  C   UNL     1     -10.521   6.236  68.912  1.00  0.00    -0.280 A  
HETATM   21  C   UNL     1      -9.399   5.440  69.182  1.00  0.00    -0.158 A  
HETATM   22  C   UNL     1      -9.055   5.126  70.498  1.00  0.00    -0.177 A  
HETATM   23  C   UNL     1     -10.937   6.406  71.299  1.00  0.00    -0.321 A  
HETATM   24  C   UNL     1     -11.283   6.722  69.983  1.00  0.00    -0.380 A  
HETATM   25  C   UNL     1      -9.826   5.604  71.555  1.00  0.00    -0.213 A  
ENDBRANCH  19  20
ENDBRANCH  18  19
ENDBRANCH   2  18
TORSDOF 7
ENDMDL
MODEL      185
REMARK 921   NORMALIZED FREE ENERGY PREDICTED BY IDOCK:   -3.96 KCAL/MOL
REMARK 922        TOTAL FREE ENERGY PREDICTED BY IDOCK:   -7.21 KCAL/MOL
REMARK 923 INTER-LIGAND FREE ENERGY PREDICTED BY IDOCK:   -6.68 KCAL/MOL
REMARK 924 INTRA-LIGAND FREE ENERGY PREDICTED BY IDOCK:   -0.54 KCAL/MOL
REMARK 927      BINDING AFFINITY PREDICTED BY RF-SCORE:    0.00 PKD
ROOT
HETATM    1  C   UNL     1     -10.010   9.652  65.940  1.00  0.00    -0.351 C  
HETATM    2  C   UNL     1     -10.339  10.870  66.816  1.00  0.00    -0.241 C  
ENDROOT
BRANCH   2   3
HETATM    3  N   UNL     1      -9.451  12.013  66.552  1.00  0.00    -0.222 NA 
HETATM    4  H   UNL     1      -9.478  12.252  65.561  1.00  0.00     0.000 HD 
BRANCH   3   5
HETATM    5  C   UNL     1      -9.700  13.229  67.374  1.00  0.00    -0.221 C  
HETATM    6  C   UNL     1      -8.417  14.050  67.545  1.00  0.00    -0.201 C  
BRANCH   5   7
HETATM    7  C   UNL     1     -10.820  14.101  66.704  1.00  0.00    -0.299 C  
HETATM    8  H   UNL     1     -12.766  14.203  66.815  1.00  0.00     0.000 HD 
HETATM    9  O   UNL     1     -12.088  13.675  67.220  1.00  0.00    -0.380 OA 
BRANCH   7  10
HETATM   10  C   UNL     1     -10.692  15.611  66.879  1.00  0.00    -0.307 A  
HETATM   11  C   UNL     1     -10.776  16.235  68.138  1.00  0.00    -0.322 A  
HETATM   12  C   UNL     1     -10.414  18.398  67.141  1.00  0.00    -0.404 A  
HETATM   13  C   UNL     1     -10.292  17.810  65.893  1.00  0.00    -0.257 A  
HETATM   14  O   UNL     1     -10.296  19.755  67.225  1.00  0.00    -0.403 OA 
HETATM   15  C   UNL     1     -10.650  17.622  68.268  1.00  0.00    -0.342 A  
HETATM   16  C   UNL     1     -10.422  16.424  65.764  1.00  0.00    -0.369 A  
HETATM   17  H   UNL     1     -10.135  20.285  66.454  1.00  0.00     0.000 HD 
ENDBRANCH   7  10
ENDBRANCH   5   7
ENDBRANCH   3   5
ENDBRANCH   2   3
BRANCH   2  18
HETATM   18  C   UNL     1     -10.200  10.428  68.288  1.00  0.00    -0.184 C  
BRANCH  18  19
HETATM   19  C   UNL     1     -10.091   8.916  68.514  1.00  0.00    -0.209 C  
BRANCH  19  20
HETATM   20  C   UNL     1     -10.885   8.543  69.748  1.00  0.00    -0.177 A  
HETATM   21  C   UNL     1     -11.445   9.540  70.558  1.00  0.00    -0.337 A  
HETATM   22  C   UNL     1     -12.076   9.206  71.758  1.00  0.00    -0.446 A  
HETATM   23  C   UNL     1     -11.610   6.872  71.355  1.00  0.00    -0.340 A  
HETATM   24  C   UNL     1     -10.979   7.205  70.154  1.00  0.00    -0.293 A  
HETATM   25  C   UNL     1     -12.153   7.873  72.159  1.00  0.00    -0.371 A  
ENDBRANCH  19  20
ENDBRANCH  18  19
ENDBRANCH   2  18
TORSDOF 7
ENDMDL
MODEL      186
REMARK 921   NORMALIZED FREE ENERGY PREDICTED BY IDOCK:   -3.95 KCAL/MOL
REMARK 922        TOTAL FREE ENERGY PREDICTED BY IDOCK:   -7.20 KCAL/MOL
REMARK 923 INTER-LIGAND FREE ENERGY PREDICTED BY IDOCK:   -6.89 KCAL/MOL
REMARK 924 INTRA-LIGAND FREE ENERGY PREDICTED BY IDOCK:   -0.31 KCAL/MOL
REMARK 927      BINDING AFFINITY PREDICTED BY RF-SCORE:    0.00 PKD
ROOT
HETATM    1  C   UNL     1      -8.557  14.343  68.429  1.00  0.00    -0.174 C  
HETATM    2  C   UNL     1      -9.558  13.810  67.393  1.00  0.00    -0.229 C  
ENDROOT
BRANCH   2   3
HETATM    3  N   UNL     1     -10.931  14.279  67.639  1.00  0.00    -0.271 NA 
HETATM    4  H   UNL     1     -11.195  14.089  68.606  1.00  0.00     0.000 HD 
BRANCH   3   5
HETATM    5  C   UNL     1     -11.195  15.707  67.312  1.00  0.00    -0.184 C  
HETATM    6  C   UNL     1     -11.088  16.587  68.561  1.00  0.00    -0.335 C  
BRANCH   5   7
HETATM    7  C   UNL     1     -10.186  16.194  66.213  1.00  0.00    -0.320 C  
HETATM    8  H   UNL     1     -10.237  16.440  64.277  1.00  0.00     0.000 HD 
HETATM    9  O   UNL     1     -10.849  16.145  64.942  1.00  0.00    -0.582 OA 
BRANCH   7  10
HETATM   10  C   UNL     1      -9.595  17.586  66.413  1.00  0.00    -0.283 A  
HETATM   11  C   UNL     1     -10.328  18.761  66.165  1.00  0.00    -0.494 A  
HETATM   12  C   UNL     1      -8.458  20.124  66.833  1.00  0.00    -0.314 A  
HETATM   13  C   UNL     1      -7.722  18.987  67.120  1.00  0.00    -0.249 A  
HETATM   14  O   UNL     1      -7.866  21.338  67.028  1.00  0.00    -0.717 OA 
HETATM   15  C   UNL     1      -9.761  20.024  66.361  1.00  0.00    -0.557 A  
HETATM   16  C   UNL     1      -8.290  17.726  66.919  1.00  0.00    -0.257 A  
HETATM   17  H   UNL     1      -6.974  21.407  67.350  1.00  0.00     0.000 HD 
ENDBRANCH   7  10
ENDBRANCH   5   7
ENDBRANCH   3   5
ENDBRANCH   2   3
BRANCH   2  18
HETATM   18  C   UNL     1      -9.510  12.270  67.461  1.00  0.00    -0.182 C  
BRANCH  18  19
HETATM   19  C   UNL     1      -9.505  11.550  66.107  1.00  0.00    -0.239 C  
BRANCH  19  20
HETATM   20  C   UNL     1      -9.549  10.056  66.342  1.00  0.00    -0.248 A  
HETATM   21  C   UNL     1      -8.738   9.196  65.587  1.00  0.00    -0.203 A  
HETATM   22  C   UNL     1      -8.861   7.811  65.718  1.00  0.00    -0.141 A  
HETATM   23  C   UNL     1     -10.594   8.119  67.369  1.00  0.00    -0.325 A  
HETATM   24  C   UNL     1     -10.473   9.504  67.240  1.00  0.00    -0.328 A  
HETATM   25  C   UNL     1      -9.792   7.273  66.604  1.00  0.00    -0.257 A  
ENDBRANCH  19  20
ENDBRANCH  18  19
ENDBRANCH   2  18
TORSDOF 7
ENDMDL
MODEL      187
REMARK 921   NORMALIZED FREE ENERGY PREDICTED BY IDOCK:   -3.95 KCAL/MOL
REMARK 922        TOTAL FREE ENERGY PREDICTED BY IDOCK:   -7.20 KCAL/MOL
REMARK 923 INTER-LIGAND FREE ENERGY PREDICTED BY IDOCK:   -5.62 KCAL/MOL
REMARK 924 INTRA-LIGAND FREE ENERGY PREDICTED BY IDOCK:   -1.58 KCAL/MOL
REMARK 927      BINDING AFFINITY PREDICTED BY RF-SCORE:    0.00 PKD
ROOT
HETATM    1  C   UNL     1     -11.583  16.020  68.928  1.00  0.00    -0.354 C  
HETATM    2  C   UNL     1     -10.560  14.916  69.234  1.00  0.00    -0.243 C  
ENDROOT
BRANCH   2   3
HETATM    3  N   UNL     1      -9.170  15.375  69.082  1.00  0.00    -0.226 NA 
HETATM    4  H   UNL     1      -8.565  14.870  69.730  1.00  0.00     0.000 HD 
BRANCH   3   5
HETATM    5  C   UNL     1      -8.611  15.303  67.705  1.00  0.00    -0.169 C  
HETATM    6  C   UNL     1      -8.539  16.694  67.066  1.00  0.00    -0.220 C  
BRANCH   5   7
HETATM    7  C   UNL     1      -7.185  14.648  67.746  1.00  0.00    -0.175 C  
HETATM    8  H   UNL     1      -5.514  14.994  68.695  1.00  0.00     0.000 HD 
HETATM    9  O   UNL     1      -6.377  15.390  68.670  1.00  0.00    -0.092 OA 
BRANCH   7  10
HETATM   10  C   UNL     1      -7.135  13.169  68.116  1.00  0.00    -0.109 A  
HETATM   11  C   UNL     1      -6.532  12.707  69.300  1.00  0.00    -0.106 A  
HETATM   12  C   UNL     1      -7.103  10.431  68.758  1.00  0.00    -0.074 A  
HETATM   13  C   UNL     1      -7.735  10.858  67.602  1.00  0.00    -0.108 A  
HETATM   14  O   UNL     1      -7.089   9.093  69.025  1.00  0.00    -0.065 OA 
HETATM   15  C   UNL     1      -6.504  11.344  69.616  1.00  0.00    -0.133 A  
HETATM   16  C   UNL     1      -7.758  12.219  67.287  1.00  0.00    -0.161 A  
HETATM   17  H   UNL     1      -7.498   8.467  68.438  1.00  0.00     0.000 HD 
ENDBRANCH   7  10
ENDBRANCH   5   7
ENDBRANCH   3   5
ENDBRANCH   2   3
BRANCH   2  18
HETATM   18  C   UNL     1     -10.836  13.753  68.259  1.00  0.00    -0.266 C  
BRANCH  18  19
HETATM   19  C   UNL     1     -12.082  13.911  67.379  1.00  0.00    -0.380 C  
BRANCH  19  20
HETATM   20  C   UNL     1     -11.865  13.169  66.078  1.00  0.00    -0.457 A  
HETATM   21  C   UNL     1     -11.076  12.010  66.047  1.00  0.00    -0.364 A  
HETATM   22  C   UNL     1     -10.778  11.390  64.832  1.00  0.00    -0.350 A  
HETATM   23  C   UNL     1     -12.061  13.065  63.660  1.00  0.00    -0.604 A  
HETATM   24  C   UNL     1     -12.360  13.686  64.874  1.00  0.00    -0.442 A  
HETATM   25  C   UNL     1     -11.265  11.921  63.639  1.00  0.00    -0.522 A  
ENDBRANCH  19  20
ENDBRANCH  18  19
ENDBRANCH   2  18
TORSDOF 7
ENDMDL
MODEL      188
REMARK 921   NORMALIZED FREE ENERGY PREDICTED BY IDOCK:   -3.95 KCAL/MOL
REMARK 922        TOTAL FREE ENERGY PREDICTED BY IDOCK:   -7.20 KCAL/MOL
REMARK 923 INTER-LIGAND FREE ENERGY PREDICTED BY IDOCK:   -5.91 KCAL/MOL
REMARK 924 INTRA-LIGAND FREE ENERGY PREDICTED BY IDOCK:   -1.28 KCAL/MOL
REMARK 927      BINDING AFFINITY PREDICTED BY RF-SCORE:    0.00 PKD
ROOT
HETATM    1  C   UNL     1     -12.149  14.177  69.308  1.00  0.00    -0.364 C  
HETATM    2  C   UNL     1     -11.635  14.113  67.863  1.00  0.00    -0.338 C  
ENDROOT
BRANCH   2   3
HETATM    3  N   UNL     1     -11.631  12.744  67.323  1.00  0.00    -0.340 NA 
HETATM    4  H   UNL     1     -12.146  12.123  67.947  1.00  0.00     0.000 HD 
BRANCH   3   5
HETATM    5  C   UNL     1     -12.135  12.596  65.931  1.00  0.00    -0.396 C  
HETATM    6  C   UNL     1     -12.621  13.939  65.375  1.00  0.00    -0.538 C  
BRANCH   5   7
HETATM    7  C   UNL     1     -11.003  12.006  65.018  1.00  0.00    -0.306 C  
HETATM    8  H   UNL     1      -9.697  12.736  63.762  1.00  0.00     0.000 HD 
HETATM    9  O   UNL     1     -10.383  13.092  64.315  1.00  0.00    -0.421 OA 
BRANCH   7  10
HETATM   10  C   UNL     1      -9.925  11.191  65.724  1.00  0.00    -0.292 A  
HETATM   11  C   UNL     1     -10.034   9.801  65.918  1.00  0.00    -0.345 A  
HETATM   12  C   UNL     1      -7.887   9.737  67.007  1.00  0.00    -0.102 A  
HETATM   13  C   UNL     1      -7.734  11.098  66.801  1.00  0.00    -0.153 A  
HETATM   14  O   UNL     1      -6.887   9.069  67.652  1.00  0.00    -0.069 OA 
HETATM   15  C   UNL     1      -9.027   9.078  66.566  1.00  0.00    -0.177 A  
HETATM   16  C   UNL     1      -8.742  11.819  66.156  1.00  0.00    -0.057 A  
HETATM   17  H   UNL     1      -6.107   9.520  67.954  1.00  0.00     0.000 HD 
ENDBRANCH   7  10
ENDBRANCH   5   7
ENDBRANCH   3   5
ENDBRANCH   2   3
BRANCH   2  18
HETATM   18  C   UNL     1     -10.200  14.680  67.861  1.00  0.00    -0.226 C  
BRANCH  18  19
HETATM   19  C   UNL     1      -9.812  15.488  66.618  1.00  0.00    -0.268 C  
BRANCH  19  20
HETATM   20  C   UNL     1      -8.367  15.922  66.742  1.00  0.00    -0.306 A  
HETATM   21  C   UNL     1      -7.453  15.143  67.466  1.00  0.00    -0.223 A  
HETATM   22  C   UNL     1      -6.151  15.597  67.681  1.00  0.00    -0.174 A  
HETATM   23  C   UNL     1      -6.646  17.610  66.444  1.00  0.00    -0.278 A  
HETATM   24  C   UNL     1      -7.949  17.156  66.227  1.00  0.00    -0.339 A  
HETATM   25  C   UNL     1      -5.750  16.833  67.176  1.00  0.00    -0.202 A  
ENDBRANCH  19  20
ENDBRANCH  18  19
ENDBRANCH   2  18
TORSDOF 7
ENDMDL
MODEL      189
REMARK 921   NORMALIZED FREE ENERGY PREDICTED BY IDOCK:   -3.95 KCAL/MOL
REMARK 922        TOTAL FREE ENERGY PREDICTED BY IDOCK:   -7.20 KCAL/MOL
REMARK 923 INTER-LIGAND FREE ENERGY PREDICTED BY IDOCK:   -8.23 KCAL/MOL
REMARK 924 INTRA-LIGAND FREE ENERGY PREDICTED BY IDOCK:    1.03 KCAL/MOL
REMARK 927      BINDING AFFINITY PREDICTED BY RF-SCORE:    0.00 PKD
ROOT
HETATM    1  C   UNL     1     -10.442  11.932  63.188  1.00  0.00    -0.327 C  
HETATM    2  C   UNL     1     -11.862  12.196  63.711  1.00  0.00    -0.500 C  
ENDROOT
BRANCH   2   3
HETATM    3  N   UNL     1     -12.360  13.532  63.348  1.00  0.00    -0.963 NA 
HETATM    4  H   UNL     1     -13.278  13.454  62.910  1.00  0.00     0.000 HD 
BRANCH   3   5
HETATM    5  C   UNL     1     -12.409  14.527  64.454  1.00  0.00    -0.413 C  
HETATM    6  C   UNL     1     -12.872  13.875  65.762  1.00  0.00    -0.437 C  
BRANCH   5   7
HETATM    7  C   UNL     1     -10.994  15.180  64.642  1.00  0.00    -0.303 C  
HETATM    8  H   UNL     1     -10.211  16.939  64.317  1.00  0.00     0.000 HD 
HETATM    9  O   UNL     1     -11.068  16.544  64.203  1.00  0.00    -0.903 OA 
BRANCH   7  10
HETATM   10  C   UNL     1     -10.418  15.141  66.053  1.00  0.00    -0.330 A  
HETATM   11  C   UNL     1      -9.400  14.245  66.429  1.00  0.00    -0.270 A  
HETATM   12  C   UNL     1      -9.372  15.142  68.665  1.00  0.00    -0.199 A  
HETATM   13  C   UNL     1     -10.349  16.060  68.316  1.00  0.00    -0.261 A  
HETATM   14  O   UNL     1      -8.905  15.157  69.947  1.00  0.00    -0.433 OA 
HETATM   15  C   UNL     1      -8.887  14.235  67.731  1.00  0.00    -0.185 A  
HETATM   16  C   UNL     1     -10.863  16.065  67.017  1.00  0.00    -0.227 A  
HETATM   17  H   UNL     1      -9.237  15.777  70.586  1.00  0.00     0.000 HD 
ENDBRANCH   7  10
ENDBRANCH   5   7
ENDBRANCH   3   5
ENDBRANCH   2   3
BRANCH   2  18
HETATM   18  C   UNL     1     -11.820  12.052  65.246  1.00  0.00    -0.269 C  
BRANCH  18  19
HETATM   19  C   UNL     1     -10.870  10.974  65.781  1.00  0.00    -0.167 C  
BRANCH  19  20
HETATM   20  C   UNL     1     -11.017  10.889  67.285  1.00  0.00    -0.355 A  
HETATM   21  C   UNL     1     -10.546   9.766  67.980  1.00  0.00    -0.291 A  
HETATM   22  C   UNL     1     -10.785   9.630  69.349  1.00  0.00    -0.248 A  
HETATM   23  C   UNL     1     -11.956  11.740  69.357  1.00  0.00    -0.361 A  
HETATM   24  C   UNL     1     -11.718  11.878  67.988  1.00  0.00    -0.382 A  
HETATM   25  C   UNL     1     -11.494  10.613  70.036  1.00  0.00    -0.404 A  
ENDBRANCH  19  20
ENDBRANCH  18  19
ENDBRANCH   2  18
TORSDOF 7
ENDMDL
MODEL      190
REMARK 921   NORMALIZED FREE ENERGY PREDICTED BY IDOCK:   -3.93 KCAL/MOL
REMARK 922        TOTAL FREE ENERGY PREDICTED BY IDOCK:   -7.18 KCAL/MOL
REMARK 923 INTER-LIGAND FREE ENERGY PREDICTED BY IDOCK:   -6.36 KCAL/MOL
REMARK 924 INTRA-LIGAND FREE ENERGY PREDICTED BY IDOCK:   -0.82 KCAL/MOL
REMARK 927      BINDING AFFINITY PREDICTED BY RF-SCORE:    0.00 PKD
ROOT
HETATM    1  C   UNL     1      -9.086  11.674  66.184  1.00  0.00    -0.209 C  
HETATM    2  C   UNL     1     -10.499  11.082  66.075  1.00  0.00    -0.245 C  
ENDROOT
BRANCH   2   3
HETATM    3  N   UNL     1     -11.506  12.087  65.701  1.00  0.00    -0.339 NA 
HETATM    4  H   UNL     1     -11.714  12.686  66.500  1.00  0.00     0.000 HD 
BRANCH   3   5
HETATM    5  C   UNL     1     -11.177  12.922  64.513  1.00  0.00    -0.336 C  
HETATM    6  C   UNL     1     -11.606  12.228  63.216  1.00  0.00    -0.434 C  
BRANCH   5   7
HETATM    7  C   UNL     1     -11.877  14.321  64.640  1.00  0.00    -0.448 C  
HETATM    8  H   UNL     1     -13.663  14.955  65.111  1.00  0.00     0.000 HD 
HETATM    9  O   UNL     1     -13.239  14.107  65.035  1.00  0.00    -0.691 OA 
BRANCH   7  10
HETATM   10  C   UNL     1     -11.229  15.313  65.601  1.00  0.00    -0.256 A  
HETATM   11  C   UNL     1     -10.561  16.469  65.157  1.00  0.00    -0.237 A  
HETATM   12  C   UNL     1     -10.084  17.121  67.426  1.00  0.00    -0.301 A  
HETATM   13  C   UNL     1     -10.765  16.010  67.896  1.00  0.00    -0.316 A  
HETATM   14  O   UNL     1      -9.522  17.963  68.341  1.00  0.00    -0.282 OA 
HETATM   15  C   UNL     1      -9.980  17.363  66.063  1.00  0.00    -0.230 A  
HETATM   16  C   UNL     1     -11.341  15.116  66.990  1.00  0.00    -0.277 A  
HETATM   17  H   UNL     1      -9.592  17.797  69.274  1.00  0.00     0.000 HD 
ENDBRANCH   7  10
ENDBRANCH   5   7
ENDBRANCH   3   5
ENDBRANCH   2   3
BRANCH   2  18
HETATM   18  C   UNL     1     -10.850  10.476  67.450  1.00  0.00    -0.349 C  
BRANCH  18  19
HETATM   19  C   UNL     1      -9.778   9.567  68.062  1.00  0.00    -0.168 C  
BRANCH  19  20
HETATM   20  C   UNL     1      -9.980   8.155  67.554  1.00  0.00    -0.251 A  
HETATM   21  C   UNL     1     -10.891   7.298  68.187  1.00  0.00    -0.130 A  
HETATM   22  C   UNL     1     -10.994   5.962  67.796  1.00  0.00    -0.245 A  
HETATM   23  C   UNL     1      -9.288   6.317  66.126  1.00  0.00    -0.117 A  
HETATM   24  C   UNL     1      -9.184   7.653  66.515  1.00  0.00    -0.220 A  
HETATM   25  C   UNL     1     -10.189   5.470  66.770  1.00  0.00    -0.277 A  
ENDBRANCH  19  20
ENDBRANCH  18  19
ENDBRANCH   2  18
TORSDOF 7
ENDMDL
MODEL      191
REMARK 921   NORMALIZED FREE ENERGY PREDICTED BY IDOCK:   -3.93 KCAL/MOL
REMARK 922        TOTAL FREE ENERGY PREDICTED BY IDOCK:   -7.17 KCAL/MOL
REMARK 923 INTER-LIGAND FREE ENERGY PREDICTED BY IDOCK:   -6.47 KCAL/MOL
REMARK 924 INTRA-LIGAND FREE ENERGY PREDICTED BY IDOCK:   -0.71 KCAL/MOL
REMARK 927      BINDING AFFINITY PREDICTED BY RF-SCORE:    0.00 PKD
ROOT
HETATM    1  C   UNL     1      -9.842  15.469  69.878  1.00  0.00    -0.207 C  
HETATM    2  C   UNL     1      -9.154  14.687  68.748  1.00  0.00    -0.178 C  
ENDROOT
BRANCH   2   3
HETATM    3  N   UNL     1      -8.237  15.523  67.958  1.00  0.00    -0.142 NA 
HETATM    4  H   UNL     1      -8.730  16.344  67.607  1.00  0.00     0.000 HD 
BRANCH   3   5
HETATM    5  C   UNL     1      -6.985  15.940  68.647  1.00  0.00    -0.127 C  
HETATM    6  C   UNL     1      -5.755  15.642  67.782  1.00  0.00    -0.156 C  
BRANCH   5   7
HETATM    7  C   UNL     1      -7.053  17.470  68.989  1.00  0.00    -0.234 C  
HETATM    8  H   UNL     1      -5.756  18.914  69.205  1.00  0.00     0.000 HD 
HETATM    9  O   UNL     1      -5.715  17.987  68.998  1.00  0.00    -0.192 OA 
BRANCH   7  10
HETATM   10  C   UNL     1      -7.912  18.328  68.066  1.00  0.00    -0.273 A  
HETATM   11  C   UNL     1      -7.443  18.812  66.831  1.00  0.00    -0.231 A  
HETATM   12  C   UNL     1      -9.558  19.879  66.393  1.00  0.00    -0.431 A  
HETATM   13  C   UNL     1     -10.061  19.388  67.587  1.00  0.00    -0.505 A  
HETATM   14  O   UNL     1     -10.379  20.646  65.619  1.00  0.00    -0.340 OA 
HETATM   15  C   UNL     1      -8.256  19.594  66.003  1.00  0.00    -0.307 A  
HETATM   16  C   UNL     1      -9.246  18.611  68.414  1.00  0.00    -0.355 A  
HETATM   17  H   UNL     1     -11.270  20.841  65.886  1.00  0.00     0.000 HD 
ENDBRANCH   7  10
ENDBRANCH   5   7
ENDBRANCH   3   5
ENDBRANCH   2   3
BRANCH   2  18
HETATM   18  C   UNL     1     -10.265  14.124  67.838  1.00  0.00    -0.235 C  
BRANCH  18  19
HETATM   19  C   UNL     1     -11.688  14.216  68.401  1.00  0.00    -0.380 C  
BRANCH  19  20
HETATM   20  C   UNL     1     -11.970  12.984  69.235  1.00  0.00    -0.331 A  
HETATM   21  C   UNL     1     -12.544  13.107  70.508  1.00  0.00    -0.237 A  
HETATM   22  C   UNL     1     -12.697  11.986  71.326  1.00  0.00    -0.382 A  
HETATM   23  C   UNL     1     -11.718  10.598  69.611  1.00  0.00    -0.368 A  
HETATM   24  C   UNL     1     -11.565  11.718  68.792  1.00  0.00    -0.367 A  
HETATM   25  C   UNL     1     -12.279  10.734  70.881  1.00  0.00    -0.487 A  
ENDBRANCH  19  20
ENDBRANCH  18  19
ENDBRANCH   2  18
TORSDOF 7
ENDMDL
MODEL      192
REMARK 921   NORMALIZED FREE ENERGY PREDICTED BY IDOCK:   -3.93 KCAL/MOL
REMARK 922        TOTAL FREE ENERGY PREDICTED BY IDOCK:   -7.17 KCAL/MOL
REMARK 923 INTER-LIGAND FREE ENERGY PREDICTED BY IDOCK:   -7.38 KCAL/MOL
REMARK 924 INTRA-LIGAND FREE ENERGY PREDICTED BY IDOCK:    0.21 KCAL/MOL
REMARK 927      BINDING AFFINITY PREDICTED BY RF-SCORE:    0.00 PKD
ROOT
HETATM    1  C   UNL     1     -10.862  14.214  65.686  1.00  0.00    -0.306 C  
HETATM    2  C   UNL     1     -11.254  14.959  66.971  1.00  0.00    -0.344 C  
ENDROOT
BRANCH   2   3
HETATM    3  N   UNL     1     -10.086  15.430  67.732  1.00  0.00    -0.226 NA 
HETATM    4  H   UNL     1      -9.963  14.860  68.568  1.00  0.00     0.000 HD 
BRANCH   3   5
HETATM    5  C   UNL     1      -8.807  15.502  66.975  1.00  0.00    -0.230 C  
HETATM    6  C   UNL     1      -8.752  16.762  66.103  1.00  0.00    -0.299 C  
BRANCH   5   7
HETATM    7  C   UNL     1      -7.598  15.478  67.975  1.00  0.00    -0.125 C  
HETATM    8  H   UNL     1      -5.726  14.928  67.893  1.00  0.00     0.000 HD 
HETATM    9  O   UNL     1      -6.458  14.942  67.288  1.00  0.00    -0.304 OA 
BRANCH   7  10
HETATM   10  C   UNL     1      -7.218  16.815  68.602  1.00  0.00    -0.207 A  
HETATM   11  C   UNL     1      -8.048  17.948  68.527  1.00  0.00    -0.305 A  
HETATM   12  C   UNL     1      -6.475  19.245  69.810  1.00  0.00    -0.224 A  
HETATM   13  C   UNL     1      -5.651  18.138  69.931  1.00  0.00    -0.238 A  
HETATM   14  O   UNL     1      -6.070  20.412  70.390  1.00  0.00    -0.436 OA 
HETATM   15  C   UNL     1      -7.675  19.161  69.117  1.00  0.00    -0.247 A  
HETATM   16  C   UNL     1      -6.024  16.929  69.338  1.00  0.00    -0.206 A  
HETATM   17  H   UNL     1      -5.248  20.469  70.863  1.00  0.00     0.000 HD 
ENDBRANCH   7  10
ENDBRANCH   5   7
ENDBRANCH   3   5
ENDBRANCH   2   3
BRANCH   2  18
HETATM   18  C   UNL     1     -12.082  13.983  67.832  1.00  0.00    -0.314 C  
BRANCH  18  19
HETATM   19  C   UNL     1     -11.413  13.523  69.133  1.00  0.00    -0.345 C  
BRANCH  19  20
HETATM   20  C   UNL     1     -12.296  13.901  70.303  1.00  0.00    -0.413 A  
HETATM   21  C   UNL     1     -12.564  15.249  70.581  1.00  0.00    -0.471 A  
HETATM   22  C   UNL     1     -13.280  15.607  71.725  1.00  0.00    -0.548 A  
HETATM   23  C   UNL     1     -13.483  13.279  72.328  1.00  0.00    -0.679 A  
HETATM   24  C   UNL     1     -12.768  12.919  71.184  1.00  0.00    -0.366 A  
HETATM   25  C   UNL     1     -13.733  14.622  72.601  1.00  0.00    -0.545 A  
ENDBRANCH  19  20
ENDBRANCH  18  19
ENDBRANCH   2  18
TORSDOF 7
ENDMDL
MODEL      193
REMARK 921   NORMALIZED FREE ENERGY PREDICTED BY IDOCK:   -3.92 KCAL/MOL
REMARK 922        TOTAL FREE ENERGY PREDICTED BY IDOCK:   -7.16 KCAL/MOL
REMARK 923 INTER-LIGAND FREE ENERGY PREDICTED BY IDOCK:   -6.22 KCAL/MOL
REMARK 924 INTRA-LIGAND FREE ENERGY PREDICTED BY IDOCK:   -0.94 KCAL/MOL
REMARK 927      BINDING AFFINITY PREDICTED BY RF-SCORE:    0.00 PKD
ROOT
HETATM    1  C   UNL     1     -10.666   7.370  68.926  1.00  0.00    -0.152 C  
HETATM    2  C   UNL     1     -10.196   8.783  68.551  1.00  0.00    -0.195 C  
ENDROOT
BRANCH   2   3
HETATM    3  N   UNL     1     -11.127   9.466  67.639  1.00  0.00    -0.459 NA 
HETATM    4  H   UNL     1     -12.038   9.571  68.086  1.00  0.00     0.000 HD 
BRANCH   3   5
HETATM    5  C   UNL     1     -10.668  10.780  67.110  1.00  0.00    -0.272 C  
HETATM    6  C   UNL     1     -10.173  10.649  65.665  1.00  0.00    -0.319 C  
BRANCH   5   7
HETATM    7  C   UNL     1     -11.838  11.822  67.192  1.00  0.00    -0.077 C  
HETATM    8  H   UNL     1     -12.653  12.902  68.600  1.00  0.00     0.000 HD 
HETATM    9  O   UNL     1     -11.945  12.271  68.550  1.00  0.00    -0.317 OA 
BRANCH   7  10
HETATM   10  C   UNL     1     -11.725  13.035  66.274  1.00  0.00    -0.440 A  
HETATM   11  C   UNL     1     -10.793  14.065  66.495  1.00  0.00    -0.300 A  
HETATM   12  C   UNL     1     -11.542  15.230  64.525  1.00  0.00    -0.312 A  
HETATM   13  C   UNL     1     -12.447  14.215  64.261  1.00  0.00    -0.301 A  
HETATM   14  O   UNL     1     -11.498  16.290  63.666  1.00  0.00    -1.361 OA 
HETATM   15  C   UNL     1     -10.708  15.164  65.633  1.00  0.00    -0.374 A  
HETATM   16  C   UNL     1     -12.532  13.121  65.125  1.00  0.00    -0.539 A  
HETATM   17  H   UNL     1     -12.069  16.336  62.908  1.00  0.00     0.000 HD 
ENDBRANCH   7  10
ENDBRANCH   5   7
ENDBRANCH   3   5
ENDBRANCH   2   3
BRANCH   2  18
HETATM   18  C   UNL     1      -8.814   8.644  67.881  1.00  0.00    -0.137 C  
BRANCH  18  19
HETATM   19  C   UNL     1      -7.611   8.942  68.784  1.00  0.00    -0.091 C  
BRANCH  19  20
HETATM   20  C   UNL     1      -7.001  10.265  68.373  1.00  0.00    -0.069 A  
HETATM   21  C   UNL     1      -7.570  11.472  68.805  1.00  0.00    -0.129 A  
HETATM   22  C   UNL     1      -7.083  12.692  68.334  1.00  0.00    -0.101 A  
HETATM   23  C   UNL     1      -5.442  11.526  67.003  1.00  0.00    -0.110 A  
HETATM   24  C   UNL     1      -5.928  10.304  67.473  1.00  0.00    -0.053 A  
HETATM   25  C   UNL     1      -6.023  12.719  67.429  1.00  0.00    -0.110 A  
ENDBRANCH  19  20
ENDBRANCH  18  19
ENDBRANCH   2  18
TORSDOF 7
ENDMDL
MODEL      194
REMARK 921   NORMALIZED FREE ENERGY PREDICTED BY IDOCK:   -3.92 KCAL/MOL
REMARK 922        TOTAL FREE ENERGY PREDICTED BY IDOCK:   -7.15 KCAL/MOL
REMARK 923 INTER-LIGAND FREE ENERGY PREDICTED BY IDOCK:   -6.34 KCAL/MOL
REMARK 924 INTRA-LIGAND FREE ENERGY PREDICTED BY IDOCK:   -0.82 KCAL/MOL
REMARK 927      BINDING AFFINITY PREDICTED BY RF-SCORE:    0.00 PKD
ROOT
HETATM    1  C   UNL     1      -8.666   5.101  70.989  1.00  0.00    -0.139 C  
HETATM    2  C   UNL     1      -9.301   5.567  69.671  1.00  0.00    -0.134 C  
ENDROOT
BRANCH   2   3
HETATM    3  N   UNL     1      -8.673   6.787  69.140  1.00  0.00    -0.131 NA 
HETATM    4  H   UNL     1      -7.746   6.906  69.547  1.00  0.00     0.000 HD 
BRANCH   3   5
HETATM    5  C   UNL     1      -8.591   6.880  67.656  1.00  0.00    -0.121 C  
HETATM    6  C   UNL     1      -8.642   5.490  67.014  1.00  0.00    -0.109 C  
BRANCH   5   7
HETATM    7  C   UNL     1      -9.762   7.773  67.116  1.00  0.00    -0.186 C  
HETATM    8  H   UNL     1     -10.987   9.087  67.882  1.00  0.00     0.000 HD 
HETATM    9  O   UNL     1     -10.277   8.546  68.209  1.00  0.00    -0.193 OA 
BRANCH   7  10
HETATM   10  C   UNL     1      -9.417   8.710  65.963  1.00  0.00    -0.278 A  
HETATM   11  C   UNL     1      -8.453   8.388  64.991  1.00  0.00    -0.160 A  
HETATM   12  C   UNL     1      -8.850  10.466  63.840  1.00  0.00    -0.210 A  
HETATM   13  C   UNL     1      -9.830  10.797  64.762  1.00  0.00    -0.358 A  
HETATM   14  O   UNL     1      -8.587  11.353  62.837  1.00  0.00    -0.479 OA 
HETATM   15  C   UNL     1      -8.160   9.265  63.941  1.00  0.00    -0.151 A  
HETATM   16  C   UNL     1     -10.118   9.921  65.811  1.00  0.00    -0.317 A  
HETATM   17  H   UNL     1      -9.058  12.175  62.768  1.00  0.00     0.000 HD 
ENDBRANCH   7  10
ENDBRANCH   5   7
ENDBRANCH   3   5
ENDBRANCH   2   3
BRANCH   2  18
HETATM   18  C   UNL     1     -10.796   5.826  69.949  1.00  0.00    -0.417 C  
BRANCH  18  19
HETATM   19  C   UNL     1     -11.155   6.104  71.413  1.00  0.00    -0.346 C  
BRANCH  19  20
HETATM   20  C   UNL     1     -11.931   7.402  71.494  1.00  0.00    -0.337 A  
HETATM   21  C   UNL     1     -11.257   8.632  71.475  1.00  0.00    -0.360 A  
HETATM   22  C   UNL     1     -11.957   9.824  71.667  1.00  0.00    -0.454 A  
HETATM   23  C   UNL     1     -14.016   8.584  71.887  1.00  0.00    -0.498 A  
HETATM   24  C   UNL     1     -13.318   7.390  71.695  1.00  0.00    -0.426 A  
HETATM   25  C   UNL     1     -13.335   9.800  71.879  1.00  0.00    -0.530 A  
ENDBRANCH  19  20
ENDBRANCH  18  19
ENDBRANCH   2  18
TORSDOF 7
ENDMDL
MODEL      195
REMARK 921   NORMALIZED FREE ENERGY PREDICTED BY IDOCK:   -3.91 KCAL/MOL
REMARK 922        TOTAL FREE ENERGY PREDICTED BY IDOCK:   -7.14 KCAL/MOL
REMARK 923 INTER-LIGAND FREE ENERGY PREDICTED BY IDOCK:   -6.31 KCAL/MOL
REMARK 924 INTRA-LIGAND FREE ENERGY PREDICTED BY IDOCK:   -0.84 KCAL/MOL
REMARK 927      BINDING AFFINITY PREDICTED BY RF-SCORE:    0.00 PKD
ROOT
HETATM    1  C   UNL     1     -12.885   9.982  71.912  1.00  0.00    -0.524 C  
HETATM    2  C   UNL     1     -11.519   9.831  71.225  1.00  0.00    -0.385 C  
ENDROOT
BRANCH   2   3
HETATM    3  N   UNL     1     -11.636   9.429  69.814  1.00  0.00    -0.442 NA 
HETATM    4  H   UNL     1     -12.492   9.812  69.414  1.00  0.00     0.000 HD 
BRANCH   3   5
HETATM    5  C   UNL     1     -10.475   9.767  68.947  1.00  0.00    -0.214 C  
HETATM    6  C   UNL     1      -9.191   9.109  69.464  1.00  0.00    -0.160 C  
BRANCH   5   7
HETATM    7  C   UNL     1     -10.765   9.311  67.473  1.00  0.00    -0.203 C  
HETATM    8  H   UNL     1     -10.366  10.002  65.691  1.00  0.00     0.000 HD 
HETATM    9  O   UNL     1     -10.190  10.278  66.583  1.00  0.00    -0.220 OA 
BRANCH   7  10
HETATM   10  C   UNL     1     -10.266   7.922  67.089  1.00  0.00    -0.360 A  
HETATM   11  C   UNL     1     -10.953   6.747  67.445  1.00  0.00    -0.407 A  
HETATM   12  C   UNL     1      -9.311   5.390  66.320  1.00  0.00    -0.154 A  
HETATM   13  C   UNL     1      -8.630   6.530  65.924  1.00  0.00    -0.153 A  
HETATM   14  O   UNL     1      -8.806   4.179  65.947  1.00  0.00    -0.116 OA 
HETATM   15  C   UNL     1     -10.474   5.486  67.073  1.00  0.00    -0.336 A  
HETATM   16  C   UNL     1      -9.109   7.788  66.299  1.00  0.00    -0.221 A  
HETATM   17  H   UNL     1      -8.010   4.113  65.431  1.00  0.00     0.000 HD 
ENDBRANCH   7  10
ENDBRANCH   5   7
ENDBRANCH   3   5
ENDBRANCH   2   3
BRANCH   2  18
HETATM   18  C   UNL     1     -10.726   8.766  72.010  1.00  0.00    -0.417 C  
BRANCH  18  19
HETATM   19  C   UNL     1     -11.574   7.703  72.718  1.00  0.00    -0.334 C  
BRANCH  19  20
HETATM   20  C   UNL     1     -11.125   6.330  72.263  1.00  0.00    -0.311 A  
HETATM   21  C   UNL     1     -10.978   5.290  73.191  1.00  0.00    -0.362 A  
HETATM   22  C   UNL     1     -10.453   4.058  72.795  1.00  0.00    -0.234 A  
HETATM   23  C   UNL     1     -10.225   4.878  70.537  1.00  0.00    -0.288 A  
HETATM   24  C   UNL     1     -10.751   6.110  70.931  1.00  0.00    -0.316 A  
HETATM   25  C   UNL     1     -10.071   3.855  71.471  1.00  0.00    -0.148 A  
ENDBRANCH  19  20
ENDBRANCH  18  19
ENDBRANCH   2  18
TORSDOF 7
ENDMDL
MODEL      196
REMARK 921   NORMALIZED FREE ENERGY PREDICTED BY IDOCK:   -3.90 KCAL/MOL
REMARK 922        TOTAL FREE ENERGY PREDICTED BY IDOCK:   -7.12 KCAL/MOL
REMARK 923 INTER-LIGAND FREE ENERGY PREDICTED BY IDOCK:   -5.93 KCAL/MOL
REMARK 924 INTRA-LIGAND FREE ENERGY PREDICTED BY IDOCK:   -1.20 KCAL/MOL
REMARK 927      BINDING AFFINITY PREDICTED BY RF-SCORE:    0.00 PKD
ROOT
HETATM    1  C   UNL     1      -8.445  12.892  67.247  1.00  0.00    -0.197 C  
HETATM    2  C   UNL     1      -9.223  11.959  68.187  1.00  0.00    -0.187 C  
ENDROOT
BRANCH   2   3
HETATM    3  N   UNL     1      -8.593  10.636  68.320  1.00  0.00    -0.123 NA 
HETATM    4  H   UNL     1      -8.589  10.349  69.299  1.00  0.00     0.000 HD 
BRANCH   3   5
HETATM    5  C   UNL     1      -9.173   9.554  67.478  1.00  0.00    -0.126 C  
HETATM    6  C   UNL     1      -8.558   9.559  66.074  1.00  0.00    -0.145 C  
BRANCH   5   7
HETATM    7  C   UNL     1      -8.943   8.164  68.169  1.00  0.00    -0.135 C  
HETATM    8  H   UNL     1      -7.458   7.285  69.081  1.00  0.00     0.000 HD 
HETATM    9  O   UNL     1      -7.597   8.127  68.663  1.00  0.00    -0.098 OA 
BRANCH   7  10
HETATM   10  C   UNL     1      -9.900   7.810  69.302  1.00  0.00    -0.173 A  
HETATM   11  C   UNL     1     -10.904   6.832  69.166  1.00  0.00    -0.298 A  
HETATM   12  C   UNL     1     -11.614   7.177  71.441  1.00  0.00    -0.283 A  
HETATM   13  C   UNL     1     -10.614   8.120  71.618  1.00  0.00    -0.292 A  
HETATM   14  O   UNL     1     -12.440   6.913  72.495  1.00  0.00    -0.493 OA 
HETATM   15  C   UNL     1     -11.765   6.525  70.225  1.00  0.00    -0.430 A  
HETATM   16  C   UNL     1      -9.758   8.428  70.558  1.00  0.00    -0.192 A  
HETATM   17  H   UNL     1     -12.338   7.360  73.327  1.00  0.00     0.000 HD 
ENDBRANCH   7  10
ENDBRANCH   5   7
ENDBRANCH   3   5
ENDBRANCH   2   3
BRANCH   2  18
HETATM   18  C   UNL     1     -10.645  11.806  67.608  1.00  0.00    -0.237 C  
BRANCH  18  19
HETATM   19  C   UNL     1     -11.639  12.903  68.005  1.00  0.00    -0.385 C  
BRANCH  19  20
HETATM   20  C   UNL     1     -12.180  12.602  69.387  1.00  0.00    -0.116 A  
HETATM   21  C   UNL     1     -12.516  13.648  70.259  1.00  0.00    -0.335 A  
HETATM   22  C   UNL     1     -12.903  13.376  71.572  1.00  0.00    -0.427 A  
HETATM   23  C   UNL     1     -12.640  11.012  71.164  1.00  0.00    -0.522 A  
HETATM   24  C   UNL     1     -12.253  11.281  69.850  1.00  0.00    -0.358 A  
HETATM   25  C   UNL     1     -12.959  12.060  72.026  1.00  0.00    -0.374 A  
ENDBRANCH  19  20
ENDBRANCH  18  19
ENDBRANCH   2  18
TORSDOF 7
ENDMDL
MODEL      197
REMARK 921   NORMALIZED FREE ENERGY PREDICTED BY IDOCK:   -3.86 KCAL/MOL
REMARK 922        TOTAL FREE ENERGY PREDICTED BY IDOCK:   -7.07 KCAL/MOL
REMARK 923 INTER-LIGAND FREE ENERGY PREDICTED BY IDOCK:   -6.11 KCAL/MOL
REMARK 924 INTRA-LIGAND FREE ENERGY PREDICTED BY IDOCK:   -0.97 KCAL/MOL
REMARK 927      BINDING AFFINITY PREDICTED BY RF-SCORE:    0.00 PKD
ROOT
HETATM    1  C   UNL     1     -10.387   5.792  66.840  1.00  0.00    -0.306 C  
HETATM    2  C   UNL     1     -10.671   6.989  67.759  1.00  0.00    -0.231 C  
ENDROOT
BRANCH   2   3
HETATM    3  N   UNL     1      -9.459   7.764  68.071  1.00  0.00    -0.144 NA 
HETATM    4  H   UNL     1      -8.635   7.278  67.716  1.00  0.00     0.000 HD 
BRANCH   3   5
HETATM    5  C   UNL     1      -9.456   9.177  67.602  1.00  0.00    -0.140 C  
HETATM    6  C   UNL     1     -10.026   9.288  66.184  1.00  0.00    -0.348 C  
BRANCH   5   7
HETATM    7  C   UNL     1     -10.285  10.065  68.594  1.00  0.00    -0.180 C  
HETATM    8  H   UNL     1     -10.156  10.549  70.481  1.00  0.00     0.000 HD 
HETATM    9  O   UNL     1      -9.653  10.011  69.880  1.00  0.00    -0.226 OA 
BRANCH   7  10
HETATM   10  C   UNL     1     -10.474  11.525  68.193  1.00  0.00    -0.216 A  
HETATM   11  C   UNL     1      -9.398  12.427  68.096  1.00  0.00    -0.209 A  
HETATM   12  C   UNL     1     -10.882  14.197  67.415  1.00  0.00    -0.287 A  
HETATM   13  C   UNL     1     -11.957  13.325  67.467  1.00  0.00    -0.371 A  
HETATM   14  O   UNL     1     -11.123  15.491  67.055  1.00  0.00    -0.312 OA 
HETATM   15  C   UNL     1      -9.601  13.759  67.722  1.00  0.00    -0.219 A  
HETATM   16  C   UNL     1     -11.753  11.996  67.845  1.00  0.00    -0.393 A  
HETATM   17  H   UNL     1     -12.000  15.791  66.846  1.00  0.00     0.000 HD 
ENDBRANCH   7  10
ENDBRANCH   5   7
ENDBRANCH   3   5
ENDBRANCH   2   3
BRANCH   2  18
HETATM   18  C   UNL     1     -11.286   6.433  69.060  1.00  0.00    -0.402 C  
BRANCH  18  19
HETATM   19  C   UNL     1     -10.414   5.431  69.825  1.00  0.00    -0.378 C  
BRANCH  19  20
HETATM   20  C   UNL     1     -10.371   5.828  71.285  1.00  0.00    -0.281 A  
HETATM   21  C   UNL     1     -10.169   4.858  72.278  1.00  0.00    -0.254 A  
HETATM   22  C   UNL     1     -10.246   5.202  73.629  1.00  0.00    -0.237 A  
HETATM   23  C   UNL     1     -10.713   7.491  73.022  1.00  0.00    -0.438 A  
HETATM   24  C   UNL     1     -10.636   7.149  71.671  1.00  0.00    -0.229 A  
HETATM   25  C   UNL     1     -10.524   6.516  74.000  1.00  0.00    -0.306 A  
ENDBRANCH  19  20
ENDBRANCH  18  19
ENDBRANCH   2  18
TORSDOF 7
ENDMDL
MODEL      198
REMARK 921   NORMALIZED FREE ENERGY PREDICTED BY IDOCK:   -3.83 KCAL/MOL
REMARK 922        TOTAL FREE ENERGY PREDICTED BY IDOCK:   -7.03 KCAL/MOL
REMARK 923 INTER-LIGAND FREE ENERGY PREDICTED BY IDOCK:   -6.06 KCAL/MOL
REMARK 924 INTRA-LIGAND FREE ENERGY PREDICTED BY IDOCK:   -0.97 KCAL/MOL
REMARK 927      BINDING AFFINITY PREDICTED BY RF-SCORE:    0.00 PKD
ROOT
HETATM    1  C   UNL     1      -8.806  10.860  67.282  1.00  0.00    -0.134 C  
HETATM    2  C   UNL     1     -10.129  10.294  66.745  1.00  0.00    -0.216 C  
ENDROOT
BRANCH   2   3
HETATM    3  N   UNL     1     -11.060  11.347  66.311  1.00  0.00    -0.264 NA 
HETATM    4  H   UNL     1     -11.643  11.641  67.094  1.00  0.00     0.000 HD 
BRANCH   3   5
HETATM    5  C   UNL     1     -10.438  12.536  65.667  1.00  0.00    -0.273 C  
HETATM    6  C   UNL     1     -10.821  12.625  64.186  1.00  0.00    -0.431 C  
BRANCH   5   7
HETATM    7  C   UNL     1     -10.879  13.839  66.423  1.00  0.00    -0.287 C  
HETATM    8  H   UNL     1     -11.564  14.259  68.203  1.00  0.00     0.000 HD 
HETATM    9  O   UNL     1     -11.297  13.470  67.745  1.00  0.00    -0.269 OA 
BRANCH   7  10
HETATM   10  C   UNL     1      -9.834  14.946  66.522  1.00  0.00    -0.281 A  
HETATM   11  C   UNL     1      -8.595  14.760  67.160  1.00  0.00    -0.248 A  
HETATM   12  C   UNL     1      -7.936  17.018  66.641  1.00  0.00    -0.267 A  
HETATM   13  C   UNL     1      -9.133  17.222  65.975  1.00  0.00    -0.114 A  
HETATM   14  O   UNL     1      -7.049  18.054  66.697  1.00  0.00    -0.186 OA 
HETATM   15  C   UNL     1      -7.654  15.793  67.231  1.00  0.00    -0.244 A  
HETATM   16  C   UNL     1     -10.073  16.190  65.909  1.00  0.00    -0.379 A  
HETATM   17  H   UNL     1      -7.242  18.892  66.294  1.00  0.00     0.000 HD 
ENDBRANCH   7  10
ENDBRANCH   5   7
ENDBRANCH   3   5
ENDBRANCH   2   3
BRANCH   2  18
HETATM   18  C   UNL     1     -10.768   9.466  67.880  1.00  0.00    -0.269 C  
BRANCH  18  19
HETATM   19  C   UNL     1      -9.937   8.278  68.377  1.00  0.00    -0.211 C  
BRANCH  19  20
HETATM   20  C   UNL     1     -10.358   7.937  69.790  1.00  0.00    -0.219 A  
HETATM   21  C   UNL     1     -10.936   6.692  70.077  1.00  0.00    -0.363 A  
HETATM   22  C   UNL     1     -11.433   6.420  71.353  1.00  0.00    -0.363 A  
HETATM   23  C   UNL     1     -10.772   8.623  72.083  1.00  0.00    -0.417 A  
HETATM   24  C   UNL     1     -10.275   8.897  70.808  1.00  0.00    -0.282 A  
HETATM   25  C   UNL     1     -11.356   7.387  72.353  1.00  0.00    -0.341 A  
ENDBRANCH  19  20
ENDBRANCH  18  19
ENDBRANCH   2  18
TORSDOF 7
ENDMDL
MODEL      199
REMARK 921   NORMALIZED FREE ENERGY PREDICTED BY IDOCK:   -3.82 KCAL/MOL
REMARK 922        TOTAL FREE ENERGY PREDICTED BY IDOCK:   -7.02 KCAL/MOL
REMARK 923 INTER-LIGAND FREE ENERGY PREDICTED BY IDOCK:   -5.13 KCAL/MOL
REMARK 924 INTRA-LIGAND FREE ENERGY PREDICTED BY IDOCK:   -1.89 KCAL/MOL
REMARK 927      BINDING AFFINITY PREDICTED BY RF-SCORE:    0.00 PKD
ROOT
HETATM    1  C   UNL     1      -7.720   6.229  64.546  1.00  0.00    -0.106 C  
HETATM    2  C   UNL     1      -7.733   7.033  65.854  1.00  0.00    -0.101 C  
ENDROOT
BRANCH   2   3
HETATM    3  N   UNL     1      -8.424   6.328  66.945  1.00  0.00    -0.109 NA 
HETATM    4  H   UNL     1      -7.763   6.109  67.691  1.00  0.00     0.000 HD 
BRANCH   3   5
HETATM    5  C   UNL     1      -9.616   7.018  67.510  1.00  0.00    -0.130 C  
HETATM    6  C   UNL     1     -10.896   6.221  67.234  1.00  0.00    -0.457 C  
BRANCH   5   7
HETATM    7  C   UNL     1      -9.426   7.226  69.053  1.00  0.00    -0.147 C  
HETATM    8  H   UNL     1      -7.968   7.802  70.218  1.00  0.00     0.000 HD 
HETATM    9  O   UNL     1      -8.083   7.676  69.283  1.00  0.00    -0.123 OA 
BRANCH   7  10
HETATM   10  C   UNL     1     -10.396   8.191  69.726  1.00  0.00    -0.216 A  
HETATM   11  C   UNL     1     -10.618   9.495  69.249  1.00  0.00    -0.236 A  
HETATM   12  C   UNL     1     -12.226   9.912  70.994  1.00  0.00    -0.353 A  
HETATM   13  C   UNL     1     -12.055   8.621  71.468  1.00  0.00    -0.369 A  
HETATM   14  O   UNL     1     -13.105  10.724  71.648  1.00  0.00    -0.432 OA 
HETATM   15  C   UNL     1     -11.518  10.357  69.885  1.00  0.00    -0.368 A  
HETATM   16  C   UNL     1     -11.153   7.763  70.833  1.00  0.00    -0.270 A  
HETATM   17  H   UNL     1     -13.589  10.420  72.407  1.00  0.00     0.000 HD 
ENDBRANCH   7  10
ENDBRANCH   5   7
ENDBRANCH   3   5
ENDBRANCH   2   3
BRANCH   2  18
HETATM   18  C   UNL     1      -8.443   8.371  65.564  1.00  0.00    -0.184 C  
BRANCH  18  19
HETATM   19  C   UNL     1      -7.642   9.632  65.911  1.00  0.00    -0.103 C  
BRANCH  19  20
HETATM   20  C   UNL     1      -8.601  10.727  66.327  1.00  0.00    -0.163 A  
HETATM   21  C   UNL     1      -9.936  10.701  65.898  1.00  0.00    -0.312 A  
HETATM   22  C   UNL     1     -10.791  11.767  66.181  1.00  0.00    -0.336 A  
HETATM   23  C   UNL     1      -9.000  12.899  67.337  1.00  0.00    -0.199 A  
HETATM   24  C   UNL     1      -8.143  11.833  67.055  1.00  0.00    -0.169 A  
HETATM   25  C   UNL     1     -10.321  12.868  66.895  1.00  0.00    -0.247 A  
ENDBRANCH  19  20
ENDBRANCH  18  19
ENDBRANCH   2  18
TORSDOF 7
ENDMDL
MODEL      200
REMARK 921   NORMALIZED FREE ENERGY PREDICTED BY IDOCK:   -3.82 KCAL/MOL
REMARK 922        TOTAL FREE ENERGY PREDICTED BY IDOCK:   -7.02 KCAL/MOL
REMARK 923 INTER-LIGAND FREE ENERGY PREDICTED BY IDOCK:   -6.16 KCAL/MOL
REMARK 924 INTRA-LIGAND FREE ENERGY PREDICTED BY IDOCK:   -0.86 KCAL/MOL
REMARK 927      BINDING AFFINITY PREDICTED BY RF-SCORE:    0.00 PKD
ROOT
HETATM    1  C   UNL     1     -10.019  18.640  68.412  1.00  0.00    -0.428 C  
HETATM    2  C   UNL     1     -10.005  17.477  67.408  1.00  0.00    -0.315 C  
ENDROOT
BRANCH   2   3
HETATM    3  N   UNL     1     -10.937  16.400  67.777  1.00  0.00    -0.302 NA 
HETATM    4  H   UNL     1     -11.737  16.788  68.277  1.00  0.00     0.000 HD 
BRANCH   3   5
HETATM    5  C   UNL     1     -11.407  15.538  66.658  1.00  0.00    -0.034 C  
HETATM    6  C   UNL     1     -10.736  15.935  65.338  1.00  0.00    -0.415 C  
BRANCH   5   7
HETATM    7  C   UNL     1     -11.110  14.033  66.988  1.00  0.00    -0.304 C  
HETATM    8  H   UNL     1     -11.978  12.635  68.039  1.00  0.00     0.000 HD 
HETATM    9  O   UNL     1     -12.158  13.546  67.839  1.00  0.00    -0.346 OA 
BRANCH   7  10
HETATM   10  C   UNL     1     -10.965  13.098  65.792  1.00  0.00    -0.295 A  
HETATM   11  C   UNL     1     -11.980  12.936  64.831  1.00  0.00    -0.437 A  
HETATM   12  C   UNL     1     -10.622  11.383  63.589  1.00  0.00    -0.412 A  
HETATM   13  C   UNL     1      -9.590  11.547  64.498  1.00  0.00    -0.177 A  
HETATM   14  O   UNL     1     -10.427  10.525  62.546  1.00  0.00    -0.669 OA 
HETATM   15  C   UNL     1     -11.817  12.075  63.742  1.00  0.00    -0.581 A  
HETATM   16  C   UNL     1      -9.757  12.405  65.588  1.00  0.00    -0.183 A  
HETATM   17  H   UNL     1      -9.610  10.051  62.441  1.00  0.00     0.000 HD 
ENDBRANCH   7  10
ENDBRANCH   5   7
ENDBRANCH   3   5
ENDBRANCH   2   3
BRANCH   2  18
HETATM   18  C   UNL     1      -8.564  16.930  67.359  1.00  0.00    -0.214 C  
BRANCH  18  19
HETATM   19  C   UNL     1      -7.936  16.605  68.719  1.00  0.00    -0.239 C  
BRANCH  19  20
HETATM   20  C   UNL     1      -7.202  15.285  68.621  1.00  0.00    -0.121 A  
HETATM   21  C   UNL     1      -7.372  14.461  67.499  1.00  0.00    -0.208 A  
HETATM   22  C   UNL     1      -6.790  13.193  67.458  1.00  0.00    -0.156 A  
HETATM   23  C   UNL     1      -5.848  13.551  69.650  1.00  0.00    -0.110 A  
HETATM   24  C   UNL     1      -6.428  14.820  69.693  1.00  0.00    -0.150 A  
HETATM   25  C   UNL     1      -6.034  12.736  68.535  1.00  0.00    -0.062 A  
ENDBRANCH  19  20
ENDBRANCH  18  19
ENDBRANCH   2  18
TORSDOF 7
ENDMDL
MODEL      201
REMARK 921   NORMALIZED FREE ENERGY PREDICTED BY IDOCK:   -3.82 KCAL/MOL
REMARK 922        TOTAL FREE ENERGY PREDICTED BY IDOCK:   -7.02 KCAL/MOL
REMARK 923 INTER-LIGAND FREE ENERGY PREDICTED BY IDOCK:   -6.07 KCAL/MOL
REMARK 924 INTRA-LIGAND FREE ENERGY PREDICTED BY IDOCK:   -0.94 KCAL/MOL
REMARK 927      BINDING AFFINITY PREDICTED BY RF-SCORE:    0.00 PKD
ROOT
HETATM    1  C   UNL     1     -13.111   9.365  72.150  1.00  0.00    -0.526 C  
HETATM    2  C   UNL     1     -12.040  10.011  71.258  1.00  0.00    -0.394 C  
ENDROOT
BRANCH   2   3
HETATM    3  N   UNL     1     -12.579  10.470  69.968  1.00  0.00    -0.526 NA 
HETATM    4  H   UNL     1     -13.517  10.093  69.830  1.00  0.00     0.000 HD 
BRANCH   3   5
HETATM    5  C   UNL     1     -12.588  11.943  69.757  1.00  0.00     0.205 C  
HETATM    6  C   UNL     1     -12.316  12.689  71.068  1.00  0.00    -0.307 C  
BRANCH   5   7
HETATM    7  C   UNL     1     -11.517  12.330  68.678  1.00  0.00    -0.307 C  
HETATM    8  H   UNL     1     -11.414  12.277  66.729  1.00  0.00     0.000 HD 
HETATM    9  O   UNL     1     -12.062  12.042  67.382  1.00  0.00    -0.566 OA 
BRANCH   7  10
HETATM   10  C   UNL     1     -11.028  13.774  68.703  1.00  0.00    -0.287 A  
HETATM   11  C   UNL     1      -9.678  14.111  68.914  1.00  0.00    -0.084 A  
HETATM   12  C   UNL     1     -10.182  16.457  68.705  1.00  0.00    -0.258 A  
HETATM   13  C   UNL     1     -11.512  16.157  68.460  1.00  0.00    -0.324 A  
HETATM   14  O   UNL     1      -9.814  17.771  68.721  1.00  0.00    -0.332 OA 
HETATM   15  C   UNL     1      -9.258  15.445  68.928  1.00  0.00    -0.216 A  
HETATM   16  C   UNL     1     -11.931  14.823  68.451  1.00  0.00    -0.270 A  
HETATM   17  H   UNL     1     -10.447  18.463  68.569  1.00  0.00     0.000 HD 
ENDBRANCH   7  10
ENDBRANCH   5   7
ENDBRANCH   3   5
ENDBRANCH   2   3
BRANCH   2  18
HETATM   18  C   UNL     1     -10.942   8.954  71.021  1.00  0.00    -0.341 C  
BRANCH  18  19
HETATM   19  C   UNL     1      -9.647   9.479  70.391  1.00  0.00    -0.326 C  
BRANCH  19  20
HETATM   20  C   UNL     1      -9.423   8.779  69.067  1.00  0.00    -0.160 A  
HETATM   21  C   UNL     1      -8.156   8.279  68.735  1.00  0.00    -0.115 A  
HETATM   22  C   UNL     1      -7.918   7.739  67.470  1.00  0.00    -0.123 A  
HETATM   23  C   UNL     1     -10.209   8.176  66.850  1.00  0.00    -0.387 A  
HETATM   24  C   UNL     1     -10.449   8.716  68.115  1.00  0.00    -0.241 A  
HETATM   25  C   UNL     1      -8.942   7.693  66.526  1.00  0.00    -0.187 A  
ENDBRANCH  19  20
ENDBRANCH  18  19
ENDBRANCH   2  18
TORSDOF 7
ENDMDL
MODEL      202
REMARK 921   NORMALIZED FREE ENERGY PREDICTED BY IDOCK:   -3.81 KCAL/MOL
REMARK 922        TOTAL FREE ENERGY PREDICTED BY IDOCK:   -7.00 KCAL/MOL
REMARK 923 INTER-LIGAND FREE ENERGY PREDICTED BY IDOCK:   -6.56 KCAL/MOL
REMARK 924 INTRA-LIGAND FREE ENERGY PREDICTED BY IDOCK:   -0.44 KCAL/MOL
REMARK 927      BINDING AFFINITY PREDICTED BY RF-SCORE:    0.00 PKD
ROOT
HETATM    1  C   UNL     1      -9.303  10.066  65.178  1.00  0.00    -0.302 C  
HETATM    2  C   UNL     1     -10.657  10.365  65.839  1.00  0.00    -0.044 C  
ENDROOT
BRANCH   2   3
HETATM    3  N   UNL     1     -10.847  11.798  66.115  1.00  0.00    -0.281 NA 
HETATM    4  H   UNL     1     -10.056  12.157  66.649  1.00  0.00     0.000 HD 
BRANCH   3   5
HETATM    5  C   UNL     1     -11.089  12.660  64.926  1.00  0.00    -0.296 C  
HETATM    6  C   UNL     1     -12.030  11.973  63.930  1.00  0.00    -0.542 C  
BRANCH   5   7
HETATM    7  C   UNL     1     -11.689  14.036  65.383  1.00  0.00    -0.342 C  
HETATM    8  H   UNL     1     -13.476  14.815  65.492  1.00  0.00     0.000 HD 
HETATM    9  O   UNL     1     -13.113  13.982  65.215  1.00  0.00    -0.782 OA 
BRANCH   7  10
HETATM   10  C   UNL     1     -11.372  14.467  66.811  1.00  0.00    -0.358 A  
HETATM   11  C   UNL     1     -10.360  15.397  67.112  1.00  0.00    -0.271 A  
HETATM   12  C   UNL     1     -10.857  15.247  69.464  1.00  0.00    -0.271 A  
HETATM   13  C   UNL     1     -11.882  14.355  69.197  1.00  0.00    -0.359 A  
HETATM   14  O   UNL     1     -10.622  15.585  70.765  1.00  0.00    -0.372 OA 
HETATM   15  C   UNL     1     -10.094  15.778  68.431  1.00  0.00    -0.222 A  
HETATM   16  C   UNL     1     -12.144  13.974  67.879  1.00  0.00    -0.314 A  
HETATM   17  H   UNL     1     -11.143  15.222  71.471  1.00  0.00     0.000 HD 
ENDBRANCH   7  10
ENDBRANCH   5   7
ENDBRANCH   3   5
ENDBRANCH   2   3
BRANCH   2  18
HETATM   18  C   UNL     1     -10.710   9.566  67.157  1.00  0.00    -0.252 C  
BRANCH  18  19
HETATM   19  C   UNL     1      -9.562   8.573  67.373  1.00  0.00    -0.204 C  
BRANCH  19  20
HETATM   20  C   UNL     1      -9.881   7.703  68.570  1.00  0.00    -0.174 A  
HETATM   21  C   UNL     1      -9.016   7.672  69.674  1.00  0.00    -0.140 A  
HETATM   22  C   UNL     1      -9.245   6.784  70.726  1.00  0.00    -0.158 A  
HETATM   23  C   UNL     1     -11.212   5.953  69.602  1.00  0.00    -0.319 A  
HETATM   24  C   UNL     1     -10.985   6.840  68.548  1.00  0.00    -0.258 A  
HETATM   25  C   UNL     1     -10.338   5.921  70.688  1.00  0.00    -0.296 A  
ENDBRANCH  19  20
ENDBRANCH  18  19
ENDBRANCH   2  18
TORSDOF 7
ENDMDL
MODEL      203
REMARK 921   NORMALIZED FREE ENERGY PREDICTED BY IDOCK:   -3.81 KCAL/MOL
REMARK 922        TOTAL FREE ENERGY PREDICTED BY IDOCK:   -7.00 KCAL/MOL
REMARK 923 INTER-LIGAND FREE ENERGY PREDICTED BY IDOCK:   -5.19 KCAL/MOL
REMARK 924 INTRA-LIGAND FREE ENERGY PREDICTED BY IDOCK:   -1.81 KCAL/MOL
REMARK 927      BINDING AFFINITY PREDICTED BY RF-SCORE:    0.00 PKD
ROOT
HETATM    1  C   UNL     1      -6.674   7.302  71.813  1.00  0.00    -0.051 C  
HETATM    2  C   UNL     1      -7.954   6.960  72.589  1.00  0.00    -0.101 C  
ENDROOT
BRANCH   2   3
HETATM    3  N   UNL     1      -8.735   5.890  71.949  1.00  0.00    -0.138 NA 
HETATM    4  H   UNL     1      -9.466   6.295  71.364  1.00  0.00     0.000 HD 
BRANCH   3   5
HETATM    5  C   UNL     1      -7.951   4.896  71.165  1.00  0.00    -0.092 C  
HETATM    6  C   UNL     1      -7.519   3.718  72.045  1.00  0.00    -0.057 C  
BRANCH   5   7
HETATM    7  C   UNL     1      -8.806   4.386  69.952  1.00  0.00    -0.083 C  
HETATM    8  H   UNL     1     -10.462   3.374  69.736  1.00  0.00     0.000 HD 
HETATM    9  O   UNL     1      -9.945   3.684  70.470  1.00  0.00    -0.115 OA 
BRANCH   7  10
HETATM   10  C   UNL     1      -9.282   5.450  68.970  1.00  0.00    -0.149 A  
HETATM   11  C   UNL     1     -10.636   5.812  68.844  1.00  0.00    -0.337 A  
HETATM   12  C   UNL     1     -10.092   7.446  67.160  1.00  0.00    -0.244 A  
HETATM   13  C   UNL     1      -8.748   7.137  67.285  1.00  0.00    -0.120 A  
HETATM   14  O   UNL     1     -10.449   8.404  66.256  1.00  0.00    -0.356 OA 
HETATM   15  C   UNL     1     -11.042   6.795  67.936  1.00  0.00    -0.262 A  
HETATM   16  C   UNL     1      -8.344   6.152  68.189  1.00  0.00    -0.114 A  
HETATM   17  H   UNL     1      -9.799   8.849  65.725  1.00  0.00     0.000 HD 
ENDBRANCH   7  10
ENDBRANCH   5   7
ENDBRANCH   3   5
ENDBRANCH   2   3
BRANCH   2  18
HETATM   18  C   UNL     1      -8.799   8.248  72.672  1.00  0.00    -0.304 C  
BRANCH  18  19
HETATM   19  C   UNL     1      -9.347   8.762  71.336  1.00  0.00    -0.328 C  
BRANCH  19  20
HETATM   20  C   UNL     1     -10.846   8.941  71.454  1.00  0.00    -0.378 A  
HETATM   21  C   UNL     1     -11.632   7.950  72.061  1.00  0.00    -0.357 A  
HETATM   22  C   UNL     1     -13.024   8.057  72.066  1.00  0.00    -0.302 A  
HETATM   23  C   UNL     1     -12.871  10.149  70.872  1.00  0.00    -0.442 A  
HETATM   24  C   UNL     1     -11.479  10.044  70.866  1.00  0.00    -0.452 A  
HETATM   25  C   UNL     1     -13.643   9.152  71.467  1.00  0.00    -0.406 A  
ENDBRANCH  19  20
ENDBRANCH  18  19
ENDBRANCH   2  18
TORSDOF 7
ENDMDL
MODEL      204
REMARK 921   NORMALIZED FREE ENERGY PREDICTED BY IDOCK:   -3.79 KCAL/MOL
REMARK 922        TOTAL FREE ENERGY PREDICTED BY IDOCK:   -6.98 KCAL/MOL
REMARK 923 INTER-LIGAND FREE ENERGY PREDICTED BY IDOCK:   -6.14 KCAL/MOL
REMARK 924 INTRA-LIGAND FREE ENERGY PREDICTED BY IDOCK:   -0.83 KCAL/MOL
REMARK 927      BINDING AFFINITY PREDICTED BY RF-SCORE:    0.00 PKD
ROOT
HETATM    1  C   UNL     1     -11.507   7.215  70.016  1.00  0.00    -0.200 C  
HETATM    2  C   UNL     1     -11.253   8.448  70.896  1.00  0.00    -0.262 C  
ENDROOT
BRANCH   2   3
HETATM    3  N   UNL     1     -10.477   9.488  70.202  1.00  0.00    -0.234 NA 
HETATM    4  H   UNL     1      -9.715   9.061  69.676  1.00  0.00     0.000 HD 
BRANCH   3   5
HETATM    5  C   UNL     1     -11.258  10.395  69.316  1.00  0.00    -0.248 C  
HETATM    6  C   UNL     1     -12.224  11.263  70.130  1.00  0.00    -0.410 C  
BRANCH   5   7
HETATM    7  C   UNL     1     -10.279  11.299  68.489  1.00  0.00    -0.205 C  
HETATM    8  H   UNL     1      -8.705  11.000  67.371  1.00  0.00     0.000 HD 
HETATM    9  O   UNL     1      -9.299  10.452  67.872  1.00  0.00    -0.138 OA 
BRANCH   7  10
HETATM   10  C   UNL     1     -10.917  12.181  67.421  1.00  0.00    -0.308 A  
HETATM   11  C   UNL     1     -10.924  13.585  67.505  1.00  0.00    -0.283 A  
HETATM   12  C   UNL     1     -12.083  13.753  65.400  1.00  0.00    -0.407 A  
HETATM   13  C   UNL     1     -12.062  12.374  65.271  1.00  0.00    -0.451 A  
HETATM   14  O   UNL     1     -12.678  14.482  64.411  1.00  0.00    -0.655 OA 
HETATM   15  C   UNL     1     -11.514  14.369  66.508  1.00  0.00    -0.369 A  
HETATM   16  C   UNL     1     -11.476  11.594  66.271  1.00  0.00    -0.217 A  
HETATM   17  H   UNL     1     -13.068  14.060  63.654  1.00  0.00     0.000 HD 
ENDBRANCH   7  10
ENDBRANCH   5   7
ENDBRANCH   3   5
ENDBRANCH   2   3
BRANCH   2  18
HETATM   18  C   UNL     1     -10.486   7.969  72.146  1.00  0.00    -0.329 C  
BRANCH  18  19
HETATM   19  C   UNL     1     -11.275   7.062  73.096  1.00  0.00    -0.190 C  
BRANCH  19  20
HETATM   20  C   UNL     1     -10.491   5.788  73.329  1.00  0.00    -0.255 A  
HETATM   21  C   UNL     1      -9.095   5.782  73.200  1.00  0.00    -0.127 A  
HETATM   22  C   UNL     1      -8.381   4.586  73.298  1.00  0.00    -0.099 A  
HETATM   23  C   UNL     1     -10.441   3.384  73.668  1.00  0.00    -0.259 A  
HETATM   24  C   UNL     1     -11.156   4.579  73.571  1.00  0.00    -0.398 A  
HETATM   25  C   UNL     1      -9.054   3.387  73.526  1.00  0.00    -0.099 A  
ENDBRANCH  19  20
ENDBRANCH  18  19
ENDBRANCH   2  18
TORSDOF 7
ENDMDL
MODEL      205
REMARK 921   NORMALIZED FREE ENERGY PREDICTED BY IDOCK:   -3.79 KCAL/MOL
REMARK 922        TOTAL FREE ENERGY PREDICTED BY IDOCK:   -6.97 KCAL/MOL
REMARK 923 INTER-LIGAND FREE ENERGY PREDICTED BY IDOCK:   -6.21 KCAL/MOL
REMARK 924 INTRA-LIGAND FREE ENERGY PREDICTED BY IDOCK:   -0.76 KCAL/MOL
REMARK 927      BINDING AFFINITY PREDICTED BY RF-SCORE:    0.00 PKD
ROOT
HETATM    1  C   UNL     1     -13.118   9.347  72.136  1.00  0.00    -0.526 C  
HETATM    2  C   UNL     1     -12.040   9.891  71.187  1.00  0.00    -0.374 C  
ENDROOT
BRANCH   2   3
HETATM    3  N   UNL     1     -12.580  10.261  69.869  1.00  0.00    -0.550 NA 
HETATM    4  H   UNL     1     -13.543   9.935  69.784  1.00  0.00     0.000 HD 
BRANCH   3   5
HETATM    5  C   UNL     1     -12.501  11.705  69.519  1.00  0.00     0.046 C  
HETATM    6  C   UNL     1     -12.162  12.553  70.750  1.00  0.00    -0.332 C  
BRANCH   5   7
HETATM    7  C   UNL     1     -11.424  11.919  68.397  1.00  0.00    -0.299 C  
HETATM    8  H   UNL     1     -11.356  11.681  66.460  1.00  0.00     0.000 HD 
HETATM    9  O   UNL     1     -12.008  11.551  67.140  1.00  0.00    -0.581 OA 
BRANCH   7  10
HETATM   10  C   UNL     1     -10.841  13.324  68.284  1.00  0.00    -0.276 A  
HETATM   11  C   UNL     1      -9.476  13.595  68.494  1.00  0.00    -0.143 A  
HETATM   12  C   UNL     1      -9.820  15.933  68.027  1.00  0.00    -0.218 A  
HETATM   13  C   UNL     1     -11.162  15.693  67.780  1.00  0.00    -0.297 A  
HETATM   14  O   UNL     1      -9.366  17.215  67.915  1.00  0.00    -0.241 OA 
HETATM   15  C   UNL     1      -8.969  14.894  68.379  1.00  0.00    -0.183 A  
HETATM   16  C   UNL     1     -11.668  14.396  67.900  1.00  0.00    -0.388 A  
HETATM   17  H   UNL     1      -9.949  17.926  67.675  1.00  0.00     0.000 HD 
ENDBRANCH   7  10
ENDBRANCH   5   7
ENDBRANCH   3   5
ENDBRANCH   2   3
BRANCH   2  18
HETATM   18  C   UNL     1     -10.973   8.789  71.026  1.00  0.00    -0.328 C  
BRANCH  18  19
HETATM   19  C   UNL     1     -11.511   7.356  70.954  1.00  0.00    -0.311 C  
BRANCH  19  20
HETATM   20  C   UNL     1     -10.786   6.505  71.975  1.00  0.00    -0.267 A  
HETATM   21  C   UNL     1     -11.260   5.224  72.295  1.00  0.00    -0.181 A  
HETATM   22  C   UNL     1     -10.665   4.485  73.318  1.00  0.00    -0.312 A  
HETATM   23  C   UNL     1      -9.105   6.284  73.714  1.00  0.00    -0.136 A  
HETATM   24  C   UNL     1      -9.698   7.024  72.690  1.00  0.00    -0.173 A  
HETATM   25  C   UNL     1      -9.592   5.017  74.031  1.00  0.00    -0.139 A  
ENDBRANCH  19  20
ENDBRANCH  18  19
ENDBRANCH   2  18
TORSDOF 7
ENDMDL
MODEL      206
REMARK 921   NORMALIZED FREE ENERGY PREDICTED BY IDOCK:   -3.78 KCAL/MOL
REMARK 922        TOTAL FREE ENERGY PREDICTED BY IDOCK:   -6.95 KCAL/MOL
REMARK 923 INTER-LIGAND FREE ENERGY PREDICTED BY IDOCK:   -5.78 KCAL/MOL
REMARK 924 INTRA-LIGAND FREE ENERGY PREDICTED BY IDOCK:   -1.17 KCAL/MOL
REMARK 927      BINDING AFFINITY PREDICTED BY RF-SCORE:    0.00 PKD
ROOT
HETATM    1  C   UNL     1     -10.624   6.947  70.630  1.00  0.00    -0.248 C  
HETATM    2  C   UNL     1     -10.461   7.874  69.416  1.00  0.00    -0.220 C  
ENDROOT
BRANCH   2   3
HETATM    3  N   UNL     1     -11.275   9.095  69.524  1.00  0.00    -0.437 NA 
HETATM    4  H   UNL     1     -12.000   8.969  70.231  1.00  0.00     0.000 HD 
BRANCH   3   5
HETATM    5  C   UNL     1     -10.523  10.353  69.789  1.00  0.00    -0.240 C  
HETATM    6  C   UNL     1      -9.031  10.177  69.484  1.00  0.00    -0.205 C  
BRANCH   5   7
HETATM    7  C   UNL     1     -11.122  11.519  68.927  1.00  0.00    -0.232 C  
HETATM    8  H   UNL     1     -12.394  11.657  67.452  1.00  0.00     0.000 HD 
HETATM    9  O   UNL     1     -12.032  10.951  67.974  1.00  0.00    -0.586 OA 
BRANCH   7  10
HETATM   10  C   UNL     1     -11.834  12.627  69.696  1.00  0.00    -0.379 A  
HETATM   11  C   UNL     1     -11.962  13.935  69.193  1.00  0.00    -0.404 A  
HETATM   12  C   UNL     1     -13.189  14.618  71.149  1.00  0.00    -0.372 A  
HETATM   13  C   UNL     1     -13.110  13.332  71.657  1.00  0.00    -0.453 A  
HETATM   14  O   UNL     1     -13.834  15.563  71.893  1.00  0.00    -0.476 OA 
HETATM   15  C   UNL     1     -12.625  14.930  69.919  1.00  0.00    -0.205 A  
HETATM   16  C   UNL     1     -12.444  12.341  70.931  1.00  0.00    -0.371 A  
HETATM   17  H   UNL     1     -14.220  15.350  72.735  1.00  0.00     0.000 HD 
ENDBRANCH   7  10
ENDBRANCH   5   7
ENDBRANCH   3   5
ENDBRANCH   2   3
BRANCH   2  18
HETATM   18  C   UNL     1     -10.882   7.073  68.167  1.00  0.00    -0.214 C  
BRANCH  18  19
HETATM   19  C   UNL     1      -9.944   7.192  66.961  1.00  0.00    -0.283 C  
BRANCH  19  20
HETATM   20  C   UNL     1      -8.604   6.582  67.316  1.00  0.00    -0.111 A  
HETATM   21  C   UNL     1      -8.518   5.237  67.701  1.00  0.00    -0.105 A  
HETATM   22  C   UNL     1      -7.305   4.704  68.141  1.00  0.00    -0.066 A  
HETATM   23  C   UNL     1      -6.240   6.844  67.808  1.00  0.00    -0.041 A  
HETATM   24  C   UNL     1      -7.452   7.379  67.367  1.00  0.00    -0.104 A  
HETATM   25  C   UNL     1      -6.168   5.509  68.201  1.00  0.00    -0.033 A  
ENDBRANCH  19  20
ENDBRANCH  18  19
ENDBRANCH   2  18
TORSDOF 7
ENDMDL
MODEL      207
REMARK 921   NORMALIZED FREE ENERGY PREDICTED BY IDOCK:   -3.77 KCAL/MOL
REMARK 922        TOTAL FREE ENERGY PREDICTED BY IDOCK:   -6.95 KCAL/MOL
REMARK 923 INTER-LIGAND FREE ENERGY PREDICTED BY IDOCK:   -6.09 KCAL/MOL
REMARK 924 INTRA-LIGAND FREE ENERGY PREDICTED BY IDOCK:   -0.85 KCAL/MOL
REMARK 927      BINDING AFFINITY PREDICTED BY RF-SCORE:    0.00 PKD
ROOT
HETATM    1  C   UNL     1     -10.016   6.530  68.486  1.00  0.00    -0.148 C  
HETATM    2  C   UNL     1     -10.629   7.783  69.129  1.00  0.00    -0.183 C  
ENDROOT
BRANCH   2   3
HETATM    3  N   UNL     1      -9.617   8.789  69.485  1.00  0.00    -0.165 NA 
HETATM    4  H   UNL     1      -8.733   8.572  69.025  1.00  0.00     0.000 HD 
BRANCH   3   5
HETATM    5  C   UNL     1      -9.991  10.205  69.220  1.00  0.00    -0.219 C  
HETATM    6  C   UNL     1      -8.779  11.017  68.751  1.00  0.00    -0.146 C  
BRANCH   5   7
HETATM    7  C   UNL     1     -11.132  10.259  68.144  1.00  0.00    -0.264 C  
HETATM    8  H   UNL     1     -12.870  11.135  67.990  1.00  0.00     0.000 HD 
HETATM    9  O   UNL     1     -12.180  11.102  68.642  1.00  0.00    -0.582 OA 
BRANCH   7  10
HETATM   10  C   UNL     1     -10.724  10.740  66.755  1.00  0.00    -0.291 A  
HETATM   11  C   UNL     1     -10.982  12.046  66.301  1.00  0.00    -0.340 A  
HETATM   12  C   UNL     1      -9.916  11.576  64.193  1.00  0.00    -0.287 A  
HETATM   13  C   UNL     1      -9.617  10.294  64.623  1.00  0.00    -0.374 A  
HETATM   14  O   UNL     1      -9.528  11.938  62.936  1.00  0.00    -0.544 OA 
HETATM   15  C   UNL     1     -10.592  12.461  65.023  1.00  0.00    -0.330 A  
HETATM   16  C   UNL     1     -10.010   9.881  65.898  1.00  0.00    -0.347 A  
HETATM   17  H   UNL     1      -9.066  11.333  62.368  1.00  0.00     0.000 HD 
ENDBRANCH   7  10
ENDBRANCH   5   7
ENDBRANCH   3   5
ENDBRANCH   2   3
BRANCH   2  18
HETATM   18  C   UNL     1     -11.382   7.326  70.395  1.00  0.00    -0.299 C  
BRANCH  18  19
HETATM   19  C   UNL     1     -11.215   5.848  70.765  1.00  0.00    -0.281 C  
BRANCH  19  20
HETATM   20  C   UNL     1     -10.441   5.747  72.061  1.00  0.00    -0.267 A  
HETATM   21  C   UNL     1     -10.504   6.780  73.007  1.00  0.00    -0.280 A  
HETATM   22  C   UNL     1      -9.702   6.745  74.148  1.00  0.00    -0.325 A  
HETATM   23  C   UNL     1      -8.767   4.640  73.429  1.00  0.00    -0.100 A  
HETATM   24  C   UNL     1      -9.569   4.673  72.287  1.00  0.00    -0.200 A  
HETATM   25  C   UNL     1      -8.829   5.679  74.356  1.00  0.00    -0.121 A  
ENDBRANCH  19  20
ENDBRANCH  18  19
ENDBRANCH   2  18
TORSDOF 7
ENDMDL
MODEL      208
REMARK 921   NORMALIZED FREE ENERGY PREDICTED BY IDOCK:   -3.76 KCAL/MOL
REMARK 922        TOTAL FREE ENERGY PREDICTED BY IDOCK:   -6.93 KCAL/MOL
REMARK 923 INTER-LIGAND FREE ENERGY PREDICTED BY IDOCK:   -4.49 KCAL/MOL
REMARK 924 INTRA-LIGAND FREE ENERGY PREDICTED BY IDOCK:   -2.44 KCAL/MOL
REMARK 927      BINDING AFFINITY PREDICTED BY RF-SCORE:    0.00 PKD
ROOT
HETATM    1  C   UNL     1      -9.262  17.940  65.970  1.00  0.00    -0.035 C  
HETATM    2  C   UNL     1      -9.294  18.455  67.416  1.00  0.00    -0.272 C  
ENDROOT
BRANCH   2   3
HETATM    3  N   UNL     1      -8.153  17.976  68.213  1.00  0.00    -0.283 NA 
HETATM    4  H   UNL     1      -8.462  17.257  68.866  1.00  0.00     0.000 HD 
BRANCH   3   5
HETATM    5  C   UNL     1      -6.982  17.486  67.436  1.00  0.00    -0.164 C  
HETATM    6  C   UNL     1      -5.995  18.623  67.150  1.00  0.00    -0.166 C  
BRANCH   5   7
HETATM    7  C   UNL     1      -6.269  16.331  68.224  1.00  0.00    -0.120 C  
HETATM    8  H   UNL     1      -5.800  15.994  70.090  1.00  0.00     0.000 HD 
HETATM    9  O   UNL     1      -6.232  16.693  69.612  1.00  0.00    -0.212 OA 
BRANCH   7  10
HETATM   10  C   UNL     1      -6.886  14.943  68.088  1.00  0.00    -0.136 A  
HETATM   11  C   UNL     1      -6.611  13.902  68.993  1.00  0.00    -0.107 A  
HETATM   12  C   UNL     1      -8.082  12.413  67.800  1.00  0.00    -0.162 A  
HETATM   13  C   UNL     1      -8.399  13.428  66.912  1.00  0.00    -0.013 A  
HETATM   14  O   UNL     1      -8.664  11.193  67.616  1.00  0.00    -0.127 OA 
HETATM   15  C   UNL     1      -7.195  12.639  68.845  1.00  0.00    -0.045 A  
HETATM   16  C   UNL     1      -7.812  14.687  67.060  1.00  0.00    -0.056 A  
HETATM   17  H   UNL     1      -9.271  11.038  66.901  1.00  0.00     0.000 HD 
ENDBRANCH   7  10
ENDBRANCH   5   7
ENDBRANCH   3   5
ENDBRANCH   2   3
BRANCH   2  18
HETATM   18  C   UNL     1     -10.614  17.968  68.048  1.00  0.00    -0.361 C  
BRANCH  18  19
HETATM   19  C   UNL     1     -10.466  16.944  69.179  1.00  0.00    -0.335 C  
BRANCH  19  20
HETATM   20  C   UNL     1     -10.921  15.589  68.681  1.00  0.00    -0.279 A  
HETATM   21  C   UNL     1     -11.449  15.449  67.389  1.00  0.00    -0.197 A  
HETATM   22  C   UNL     1     -11.978  14.227  66.970  1.00  0.00    -0.463 A  
HETATM   23  C   UNL     1     -11.451  13.259  69.116  1.00  0.00    -0.357 A  
HETATM   24  C   UNL     1     -10.921  14.480  69.538  1.00  0.00    -0.253 A  
HETATM   25  C   UNL     1     -11.984  13.135  67.835  1.00  0.00    -0.347 A  
ENDBRANCH  19  20
ENDBRANCH  18  19
ENDBRANCH   2  18
TORSDOF 7
ENDMDL
MODEL      209
REMARK 921   NORMALIZED FREE ENERGY PREDICTED BY IDOCK:   -3.76 KCAL/MOL
REMARK 922        TOTAL FREE ENERGY PREDICTED BY IDOCK:   -6.93 KCAL/MOL
REMARK 923 INTER-LIGAND FREE ENERGY PREDICTED BY IDOCK:   -6.02 KCAL/MOL
REMARK 924 INTRA-LIGAND FREE ENERGY PREDICTED BY IDOCK:   -0.91 KCAL/MOL
REMARK 927      BINDING AFFINITY PREDICTED BY RF-SCORE:    0.00 PKD
ROOT
HETATM    1  C   UNL     1      -9.065   8.676  67.894  1.00  0.00    -0.145 C  
HETATM    2  C   UNL     1      -9.582   8.012  66.609  1.00  0.00    -0.230 C  
ENDROOT
BRANCH   2   3
HETATM    3  N   UNL     1      -9.860   8.985  65.541  1.00  0.00    -0.436 NA 
HETATM    4  H   UNL     1     -10.833   9.286  65.590  1.00  0.00     0.000 HD 
BRANCH   3   5
HETATM    5  C   UNL     1      -8.963  10.172  65.497  1.00  0.00    -0.172 C  
HETATM    6  C   UNL     1      -7.676   9.862  64.725  1.00  0.00    -0.138 C  
BRANCH   5   7
HETATM    7  C   UNL     1      -9.716  11.380  64.837  1.00  0.00    -0.247 C  
HETATM    8  H   UNL     1     -11.126  11.589  63.502  1.00  0.00     0.000 HD 
HETATM    9  O   UNL     1     -10.670  10.857  63.902  1.00  0.00    -0.339 OA 
BRANCH   7  10
HETATM   10  C   UNL     1     -10.427  12.332  65.793  1.00  0.00    -0.287 A  
HETATM   11  C   UNL     1     -10.374  13.731  65.645  1.00  0.00    -0.321 A  
HETATM   12  C   UNL     1     -11.789  14.035  67.571  1.00  0.00    -0.407 A  
HETATM   13  C   UNL     1     -11.889  12.662  67.723  1.00  0.00    -0.381 A  
HETATM   14  O   UNL     1     -12.445  14.829  68.466  1.00  0.00    -0.582 OA 
HETATM   15  C   UNL     1     -11.041  14.580  66.535  1.00  0.00    -0.332 A  
HETATM   16  C   UNL     1     -11.219  11.816  66.835  1.00  0.00    -0.387 A  
HETATM   17  H   UNL     1     -12.956  14.457  69.175  1.00  0.00     0.000 HD 
ENDBRANCH   7  10
ENDBRANCH   5   7
ENDBRANCH   3   5
ENDBRANCH   2   3
BRANCH   2  18
HETATM   18  C   UNL     1     -10.873   7.251  66.974  1.00  0.00    -0.350 C  
BRANCH  18  19
HETATM   19  C   UNL     1     -10.670   5.920  67.707  1.00  0.00    -0.346 C  
BRANCH  19  20
HETATM   20  C   UNL     1      -9.965   4.951  66.783  1.00  0.00    -0.250 A  
HETATM   21  C   UNL     1     -10.582   4.525  65.597  1.00  0.00    -0.231 A  
HETATM   22  C   UNL     1      -9.987   3.543  64.803  1.00  0.00    -0.126 A  
HETATM   23  C   UNL     1      -8.143   3.403  66.354  1.00  0.00    -0.092 A  
HETATM   24  C   UNL     1      -8.736   4.385  67.149  1.00  0.00    -0.106 A  
HETATM   25  C   UNL     1      -8.771   2.978  65.184  1.00  0.00    -0.117 A  
ENDBRANCH  19  20
ENDBRANCH  18  19
ENDBRANCH   2  18
TORSDOF 7
ENDMDL
MODEL      210
REMARK 921   NORMALIZED FREE ENERGY PREDICTED BY IDOCK:   -3.75 KCAL/MOL
REMARK 922        TOTAL FREE ENERGY PREDICTED BY IDOCK:   -6.92 KCAL/MOL
REMARK 923 INTER-LIGAND FREE ENERGY PREDICTED BY IDOCK:   -5.74 KCAL/MOL
REMARK 924 INTRA-LIGAND FREE ENERGY PREDICTED BY IDOCK:   -1.18 KCAL/MOL
REMARK 927      BINDING AFFINITY PREDICTED BY RF-SCORE:    0.00 PKD
ROOT
HETATM    1  C   UNL     1     -12.928  10.590  71.399  1.00  0.00    -0.542 C  
HETATM    2  C   UNL     1     -11.777  10.848  70.416  1.00  0.00    -0.350 C  
ENDROOT
BRANCH   2   3
HETATM    3  N   UNL     1     -12.222  10.867  69.014  1.00  0.00    -0.724 NA 
HETATM    4  H   UNL     1     -13.200  10.583  68.956  1.00  0.00     0.000 HD 
BRANCH   3   5
HETATM    5  C   UNL     1     -12.023  12.152  68.288  1.00  0.00    -0.187 C  
HETATM    6  C   UNL     1     -11.591  13.265  69.249  1.00  0.00    -0.370 C  
BRANCH   5   7
HETATM    7  C   UNL     1     -10.951  11.961  67.158  1.00  0.00    -0.269 C  
HETATM    8  H   UNL     1     -10.408  12.950  65.565  1.00  0.00     0.000 HD 
HETATM    9  O   UNL     1     -11.057  13.065  66.249  1.00  0.00    -0.281 OA 
BRANCH   7  10
HETATM   10  C   UNL     1      -9.503  11.832  67.619  1.00  0.00    -0.180 A  
HETATM   11  C   UNL     1      -8.830  10.597  67.657  1.00  0.00    -0.131 A  
HETATM   12  C   UNL     1      -6.820  11.664  68.449  1.00  0.00    -0.071 A  
HETATM   13  C   UNL     1      -7.445  12.899  68.390  1.00  0.00    -0.124 A  
HETATM   14  O   UNL     1      -5.526  11.620  68.877  1.00  0.00    -0.049 OA 
HETATM   15  C   UNL     1      -7.499  10.510  68.081  1.00  0.00    -0.090 A  
HETATM   16  C   UNL     1      -8.775  12.983  67.970  1.00  0.00    -0.187 A  
HETATM   17  H   UNL     1      -5.062  12.410  69.129  1.00  0.00     0.000 HD 
ENDBRANCH   7  10
ENDBRANCH   5   7
ENDBRANCH   3   5
ENDBRANCH   2   3
BRANCH   2  18
HETATM   18  C   UNL     1     -10.738   9.726  70.621  1.00  0.00    -0.394 C  
BRANCH  18  19
HETATM   19  C   UNL     1     -11.314   8.355  70.994  1.00  0.00    -0.303 C  
BRANCH  19  20
HETATM   20  C   UNL     1     -10.958   7.358  69.912  1.00  0.00    -0.239 A  
HETATM   21  C   UNL     1     -10.825   5.997  70.219  1.00  0.00    -0.398 A  
HETATM   22  C   UNL     1     -10.383   5.094  69.250  1.00  0.00    -0.248 A  
HETATM   23  C   UNL     1     -10.212   6.891  67.648  1.00  0.00    -0.235 A  
HETATM   24  C   UNL     1     -10.655   7.795  68.615  1.00  0.00    -0.152 A  
HETATM   25  C   UNL     1     -10.071   5.541  67.968  1.00  0.00    -0.221 A  
ENDBRANCH  19  20
ENDBRANCH  18  19
ENDBRANCH   2  18
TORSDOF 7
ENDMDL
MODEL      211
REMARK 921   NORMALIZED FREE ENERGY PREDICTED BY IDOCK:   -3.74 KCAL/MOL
REMARK 922        TOTAL FREE ENERGY PREDICTED BY IDOCK:   -6.90 KCAL/MOL
REMARK 923 INTER-LIGAND FREE ENERGY PREDICTED BY IDOCK:   -6.13 KCAL/MOL
REMARK 924 INTRA-LIGAND FREE ENERGY PREDICTED BY IDOCK:   -0.77 KCAL/MOL
REMARK 927      BINDING AFFINITY PREDICTED BY RF-SCORE:    0.00 PKD
ROOT
HETATM    1  C   UNL     1      -9.151   8.129  65.956  1.00  0.00    -0.218 C  
HETATM    2  C   UNL     1      -9.906   8.752  67.140  1.00  0.00    -0.207 C  
ENDROOT
BRANCH   2   3
HETATM    3  N   UNL     1      -9.428  10.104  67.468  1.00  0.00    -0.151 NA 
HETATM    4  H   UNL     1      -8.506  10.255  67.059  1.00  0.00     0.000 HD 
BRANCH   3   5
HETATM    5  C   UNL     1     -10.338  11.221  67.094  1.00  0.00    -0.209 C  
HETATM    6  C   UNL     1     -11.465  11.380  68.120  1.00  0.00    -0.375 C  
BRANCH   5   7
HETATM    7  C   UNL     1      -9.519  12.554  66.973  1.00  0.00    -0.217 C  
HETATM    8  H   UNL     1      -7.738  13.048  66.342  1.00  0.00     0.000 HD 
HETATM    9  O   UNL     1      -8.235  12.241  66.415  1.00  0.00     0.031 OA 
BRANCH   7  10
HETATM   10  C   UNL     1     -10.162  13.666  66.152  1.00  0.00    -0.306 A  
HETATM   11  C   UNL     1      -9.595  14.950  66.044  1.00  0.00    -0.346 A  
HETATM   12  C   UNL     1     -11.380  15.667  64.594  1.00  0.00    -0.349 A  
HETATM   13  C   UNL     1     -11.944  14.403  64.652  1.00  0.00    -0.475 A  
HETATM   14  O   UNL     1     -12.011  16.618  63.846  1.00  0.00    -1.099 OA 
HETATM   15  C   UNL     1     -10.205  15.950  65.279  1.00  0.00    -0.284 A  
HETATM   16  C   UNL     1     -11.335  13.407  65.419  1.00  0.00    -0.309 A  
HETATM   17  H   UNL     1     -12.815  16.425  63.377  1.00  0.00     0.000 HD 
ENDBRANCH   7  10
ENDBRANCH   5   7
ENDBRANCH   3   5
ENDBRANCH   2   3
BRANCH   2  18
HETATM   18  C   UNL     1      -9.709   7.818  68.352  1.00  0.00    -0.167 C  
BRANCH  18  19
HETATM   19  C   UNL     1     -10.820   7.864  69.407  1.00  0.00    -0.114 C  
BRANCH  19  20
HETATM   20  C   UNL     1     -10.195   8.048  70.774  1.00  0.00    -0.209 A  
HETATM   21  C   UNL     1      -8.801   8.041  70.922  1.00  0.00    -0.147 A  
HETATM   22  C   UNL     1      -8.225   8.092  72.193  1.00  0.00    -0.197 A  
HETATM   23  C   UNL     1     -10.422   8.172  73.189  1.00  0.00    -0.110 A  
HETATM   24  C   UNL     1     -11.000   8.122  71.919  1.00  0.00    -0.338 A  
HETATM   25  C   UNL     1      -9.034   8.152  73.326  1.00  0.00    -0.332 A  
ENDBRANCH  19  20
ENDBRANCH  18  19
ENDBRANCH   2  18
TORSDOF 7
ENDMDL
MODEL      212
REMARK 921   NORMALIZED FREE ENERGY PREDICTED BY IDOCK:   -3.73 KCAL/MOL
REMARK 922        TOTAL FREE ENERGY PREDICTED BY IDOCK:   -6.89 KCAL/MOL
REMARK 923 INTER-LIGAND FREE ENERGY PREDICTED BY IDOCK:   -5.72 KCAL/MOL
REMARK 924 INTRA-LIGAND FREE ENERGY PREDICTED BY IDOCK:   -1.17 KCAL/MOL
REMARK 927      BINDING AFFINITY PREDICTED BY RF-SCORE:    0.00 PKD
ROOT
HETATM    1  C   UNL     1     -10.758  16.752  67.810  1.00  0.00    -0.321 C  
HETATM    2  C   UNL     1     -10.452  15.597  66.845  1.00  0.00    -0.307 C  
ENDROOT
BRANCH   2   3
HETATM    3  N   UNL     1     -11.482  14.547  66.873  1.00  0.00    -0.352 NA 
HETATM    4  H   UNL     1     -12.203  14.785  67.555  1.00  0.00     0.000 HD 
BRANCH   3   5
HETATM    5  C   UNL     1     -12.110  14.221  65.564  1.00  0.00    -0.394 C  
HETATM    6  C   UNL     1     -11.276  14.769  64.401  1.00  0.00    -0.184 C  
BRANCH   5   7
HETATM    7  C   UNL     1     -12.278  12.667  65.429  1.00  0.00    -0.459 C  
HETATM    8  H   UNL     1     -13.485  11.468  64.471  1.00  0.00     0.000 HD 
HETATM    9  O   UNL     1     -13.384  12.409  64.553  1.00  0.00    -0.800 OA 
BRANCH   7  10
HETATM   10  C   UNL     1     -11.058  11.900  64.929  1.00  0.00    -0.363 A  
HETATM   11  C   UNL     1      -9.956  11.611  65.755  1.00  0.00    -0.270 A  
HETATM   12  C   UNL     1      -8.851  10.452  63.956  1.00  0.00    -0.212 A  
HETATM   13  C   UNL     1      -9.935  10.690  63.127  1.00  0.00    -0.286 A  
HETATM   14  O   UNL     1      -7.789   9.766  63.442  1.00  0.00    -0.131 OA 
HETATM   15  C   UNL     1      -8.852  10.902  65.270  1.00  0.00    -0.179 A  
HETATM   16  C   UNL     1     -11.035  11.402  63.613  1.00  0.00    -0.443 A  
HETATM   17  H   UNL     1      -7.788   9.458  62.543  1.00  0.00     0.000 HD 
ENDBRANCH   7  10
ENDBRANCH   5   7
ENDBRANCH   3   5
ENDBRANCH   2   3
BRANCH   2  18
HETATM   18  C   UNL     1      -9.089  15.004  67.258  1.00  0.00    -0.213 C  
BRANCH  18  19
HETATM   19  C   UNL     1      -8.760  15.085  68.753  1.00  0.00    -0.186 C  
BRANCH  19  20
HETATM   20  C   UNL     1      -7.450  14.371  69.010  1.00  0.00    -0.119 A  
HETATM   21  C   UNL     1      -7.087  13.257  68.239  1.00  0.00    -0.109 A  
HETATM   22  C   UNL     1      -5.939  12.526  68.549  1.00  0.00    -0.056 A  
HETATM   23  C   UNL     1      -5.488  14.013  70.396  1.00  0.00    -0.121 A  
HETATM   24  C   UNL     1      -6.636  14.746  70.087  1.00  0.00    -0.145 A  
HETATM   25  C   UNL     1      -5.143  12.900  69.630  1.00  0.00    -0.073 A  
ENDBRANCH  19  20
ENDBRANCH  18  19
ENDBRANCH   2  18
TORSDOF 7
ENDMDL
MODEL      213
REMARK 921   NORMALIZED FREE ENERGY PREDICTED BY IDOCK:   -3.73 KCAL/MOL
REMARK 922        TOTAL FREE ENERGY PREDICTED BY IDOCK:   -6.89 KCAL/MOL
REMARK 923 INTER-LIGAND FREE ENERGY PREDICTED BY IDOCK:   -6.29 KCAL/MOL
REMARK 924 INTRA-LIGAND FREE ENERGY PREDICTED BY IDOCK:   -0.61 KCAL/MOL
REMARK 927      BINDING AFFINITY PREDICTED BY RF-SCORE:    0.00 PKD
ROOT
HETATM    1  C   UNL     1      -8.143  13.676  68.239  1.00  0.00    -0.155 C  
HETATM    2  C   UNL     1      -9.585  13.260  68.565  1.00  0.00    -0.127 C  
ENDROOT
BRANCH   2   3
HETATM    3  N   UNL     1      -9.835  11.833  68.305  1.00  0.00    -0.194 NA 
HETATM    4  H   UNL     1      -9.025  11.417  67.845  1.00  0.00     0.000 HD 
BRANCH   3   5
HETATM    5  C   UNL     1     -10.221  11.017  69.488  1.00  0.00     0.005 C  
HETATM    6  C   UNL     1     -11.696  11.230  69.847  1.00  0.00    -0.430 C  
BRANCH   5   7
HETATM    7  C   UNL     1      -9.945   9.500  69.199  1.00  0.00    -0.183 C  
HETATM    8  H   UNL     1      -8.359   8.398  68.906  1.00  0.00     0.000 HD 
HETATM    9  O   UNL     1      -8.527   9.317  69.082  1.00  0.00    -0.125 OA 
BRANCH   7  10
HETATM   10  C   UNL     1     -10.493   8.509  70.220  1.00  0.00    -0.233 A  
HETATM   11  C   UNL     1     -10.309   8.673  71.606  1.00  0.00    -0.366 A  
HETATM   12  C   UNL     1     -11.557   6.663  72.057  1.00  0.00    -0.301 A  
HETATM   13  C   UNL     1     -11.784   6.492  70.701  1.00  0.00    -0.436 A  
HETATM   14  O   UNL     1     -12.070   5.735  72.916  1.00  0.00    -0.543 OA 
HETATM   15  C   UNL     1     -10.827   7.750  72.520  1.00  0.00    -0.386 A  
HETATM   16  C   UNL     1     -11.263   7.413  69.790  1.00  0.00    -0.110 A  
HETATM   17  H   UNL     1     -12.569   4.991  72.599  1.00  0.00     0.000 HD 
ENDBRANCH   7  10
ENDBRANCH   5   7
ENDBRANCH   3   5
ENDBRANCH   2   3
BRANCH   2  18
HETATM   18  C   UNL     1     -10.520  14.123  67.693  1.00  0.00    -0.245 C  
BRANCH  18  19
HETATM   19  C   UNL     1      -9.828  14.947  66.601  1.00  0.00    -0.272 C  
BRANCH  19  20
HETATM   20  C   UNL     1      -9.986  16.418  66.918  1.00  0.00    -0.273 A  
HETATM   21  C   UNL     1      -9.870  16.875  68.239  1.00  0.00    -0.266 A  
HETATM   22  C   UNL     1     -10.131  18.211  68.551  1.00  0.00    -0.413 A  
HETATM   23  C   UNL     1     -10.616  18.661  66.230  1.00  0.00    -0.396 A  
HETATM   24  C   UNL     1     -10.355  17.326  65.916  1.00  0.00    -0.287 A  
HETATM   25  C   UNL     1     -10.510  19.101  67.548  1.00  0.00    -0.549 A  
ENDBRANCH  19  20
ENDBRANCH  18  19
ENDBRANCH   2  18
TORSDOF 7
ENDMDL
MODEL      214
REMARK 921   NORMALIZED FREE ENERGY PREDICTED BY IDOCK:   -3.73 KCAL/MOL
REMARK 922        TOTAL FREE ENERGY PREDICTED BY IDOCK:   -6.89 KCAL/MOL
REMARK 923 INTER-LIGAND FREE ENERGY PREDICTED BY IDOCK:   -5.90 KCAL/MOL
REMARK 924 INTRA-LIGAND FREE ENERGY PREDICTED BY IDOCK:   -0.99 KCAL/MOL
REMARK 927      BINDING AFFINITY PREDICTED BY RF-SCORE:    0.00 PKD
ROOT
HETATM    1  C   UNL     1      -8.970  10.760  68.042  1.00  0.00    -0.139 C  
HETATM    2  C   UNL     1      -9.629   9.877  66.972  1.00  0.00    -0.175 C  
ENDROOT
BRANCH   2   3
HETATM    3  N   UNL     1     -10.725  10.562  66.269  1.00  0.00    -0.127 NA 
HETATM    4  H   UNL     1     -11.401  10.920  66.944  1.00  0.00     0.000 HD 
BRANCH   3   5
HETATM    5  C   UNL     1     -10.317  11.647  65.336  1.00  0.00    -0.267 C  
HETATM    6  C   UNL     1     -10.462  11.202  63.877  1.00  0.00    -0.445 C  
BRANCH   5   7
HETATM    7  C   UNL     1     -11.183  12.928  65.603  1.00  0.00    -0.295 C  
HETATM    8  H   UNL     1     -13.076  13.390  65.470  1.00  0.00     0.000 HD 
HETATM    9  O   UNL     1     -12.551  12.614  65.308  1.00  0.00    -0.630 OA 
BRANCH   7  10
HETATM   10  C   UNL     1     -11.098  13.517  67.007  1.00  0.00    -0.310 A  
HETATM   11  C   UNL     1     -12.104  13.321  67.971  1.00  0.00    -0.260 A  
HETATM   12  C   UNL     1     -10.867  14.602  69.592  1.00  0.00    -0.186 A  
HETATM   13  C   UNL     1      -9.843  14.784  68.677  1.00  0.00    -0.225 A  
HETATM   14  O   UNL     1     -10.730  15.162  70.829  1.00  0.00    -0.514 OA 
HETATM   15  C   UNL     1     -11.997  13.869  69.253  1.00  0.00    -0.402 A  
HETATM   16  C   UNL     1      -9.954  14.238  67.396  1.00  0.00    -0.242 A  
HETATM   17  H   UNL     1      -9.957  15.664  71.061  1.00  0.00     0.000 HD 
ENDBRANCH   7  10
ENDBRANCH   5   7
ENDBRANCH   3   5
ENDBRANCH   2   3
BRANCH   2  18
HETATM   18  C   UNL     1     -10.169   8.620  67.685  1.00  0.00    -0.300 C  
BRANCH  18  19
HETATM   19  C   UNL     1     -10.458   7.420  66.777  1.00  0.00    -0.316 C  
BRANCH  19  20
HETATM   20  C   UNL     1      -9.891   6.169  67.414  1.00  0.00    -0.151 A  
HETATM   21  C   UNL     1     -10.054   4.922  66.795  1.00  0.00    -0.269 A  
HETATM   22  C   UNL     1      -9.636   3.754  67.436  1.00  0.00    -0.208 A  
HETATM   23  C   UNL     1      -8.872   5.058  69.318  1.00  0.00    -0.115 A  
HETATM   24  C   UNL     1      -9.289   6.227  68.679  1.00  0.00    -0.122 A  
HETATM   25  C   UNL     1      -9.051   3.822  68.699  1.00  0.00    -0.198 A  
ENDBRANCH  19  20
ENDBRANCH  18  19
ENDBRANCH   2  18
TORSDOF 7
ENDMDL
MODEL      215
REMARK 921   NORMALIZED FREE ENERGY PREDICTED BY IDOCK:   -3.72 KCAL/MOL
REMARK 922        TOTAL FREE ENERGY PREDICTED BY IDOCK:   -6.88 KCAL/MOL
REMARK 923 INTER-LIGAND FREE ENERGY PREDICTED BY IDOCK:   -6.17 KCAL/MOL
REMARK 924 INTRA-LIGAND FREE ENERGY PREDICTED BY IDOCK:   -0.71 KCAL/MOL
REMARK 927      BINDING AFFINITY PREDICTED BY RF-SCORE:    0.00 PKD
ROOT
HETATM    1  C   UNL     1     -10.771   7.040  68.545  1.00  0.00    -0.219 C  
HETATM    2  C   UNL     1     -10.042   8.302  68.060  1.00  0.00    -0.198 C  
ENDROOT
BRANCH   2   3
HETATM    3  N   UNL     1     -10.838   9.080  67.097  1.00  0.00    -0.343 NA 
HETATM    4  H   UNL     1     -11.816   9.097  67.388  1.00  0.00     0.000 HD 
BRANCH   3   5
HETATM    5  C   UNL     1     -10.363  10.465  66.833  1.00  0.00    -0.240 C  
HETATM    6  C   UNL     1      -9.823  10.600  65.405  1.00  0.00    -0.325 C  
BRANCH   5   7
HETATM    7  C   UNL     1     -11.534  11.482  67.071  1.00  0.00    -0.214 C  
HETATM    8  H   UNL     1     -12.302  12.395  68.617  1.00  0.00     0.000 HD 
HETATM    9  O   UNL     1     -11.592  11.780  68.473  1.00  0.00    -0.271 OA 
BRANCH   7  10
HETATM   10  C   UNL     1     -11.461  12.788  66.286  1.00  0.00    -0.405 A  
HETATM   11  C   UNL     1     -10.481  13.765  66.536  1.00  0.00    -0.282 A  
HETATM   12  C   UNL     1     -11.360  15.162  64.782  1.00  0.00    -0.395 A  
HETATM   13  C   UNL     1     -12.316  14.204  64.488  1.00  0.00    -0.419 A  
HETATM   14  O   UNL     1     -11.355  16.311  64.045  1.00  0.00    -1.311 OA 
HETATM   15  C   UNL     1     -10.436  14.952  65.797  1.00  0.00    -0.345 A  
HETATM   16  C   UNL     1     -12.361  13.021  65.230  1.00  0.00    -0.537 A  
HETATM   17  H   UNL     1     -11.988  16.455  63.351  1.00  0.00     0.000 HD 
ENDBRANCH   7  10
ENDBRANCH   5   7
ENDBRANCH   3   5
ENDBRANCH   2   3
BRANCH   2  18
HETATM   18  C   UNL     1      -8.724   7.846  67.402  1.00  0.00    -0.128 C  
BRANCH  18  19
HETATM   19  C   UNL     1      -7.838   6.938  68.262  1.00  0.00    -0.118 C  
BRANCH  19  20
HETATM   20  C   UNL     1      -7.347   7.719  69.461  1.00  0.00    -0.088 A  
HETATM   21  C   UNL     1      -6.523   8.841  69.288  1.00  0.00    -0.042 A  
HETATM   22  C   UNL     1      -5.973   9.492  70.393  1.00  0.00    -0.055 A  
HETATM   23  C   UNL     1      -7.069   7.925  71.865  1.00  0.00    -0.072 A  
HETATM   24  C   UNL     1      -7.620   7.272  70.761  1.00  0.00    -0.084 A  
HETATM   25  C   UNL     1      -6.241   9.031  71.681  1.00  0.00    -0.076 A  
ENDBRANCH  19  20
ENDBRANCH  18  19
ENDBRANCH   2  18
TORSDOF 7
ENDMDL
MODEL      216
REMARK 921   NORMALIZED FREE ENERGY PREDICTED BY IDOCK:   -3.71 KCAL/MOL
REMARK 922        TOTAL FREE ENERGY PREDICTED BY IDOCK:   -6.86 KCAL/MOL
REMARK 923 INTER-LIGAND FREE ENERGY PREDICTED BY IDOCK:   -5.82 KCAL/MOL
REMARK 924 INTRA-LIGAND FREE ENERGY PREDICTED BY IDOCK:   -1.04 KCAL/MOL
REMARK 927      BINDING AFFINITY PREDICTED BY RF-SCORE:    0.00 PKD
ROOT
HETATM    1  C   UNL     1     -12.050   6.856  70.756  1.00  0.00    -0.400 C  
HETATM    2  C   UNL     1     -11.982   7.491  72.153  1.00  0.00    -0.285 C  
ENDROOT
BRANCH   2   3
HETATM    3  N   UNL     1     -11.566   8.902  72.114  1.00  0.00    -0.359 NA 
HETATM    4  H   UNL     1     -10.589   8.984  72.394  1.00  0.00     0.000 HD 
BRANCH   3   5
HETATM    5  C   UNL     1     -11.784   9.605  70.820  1.00  0.00    -0.314 C  
HETATM    6  C   UNL     1     -12.652  10.854  71.012  1.00  0.00    -0.517 C  
BRANCH   5   7
HETATM    7  C   UNL     1     -10.400   9.996  70.191  1.00  0.00    -0.266 C  
HETATM    8  H   UNL     1      -8.556   9.382  70.377  1.00  0.00     0.000 HD 
HETATM    9  O   UNL     1      -9.394   9.146  70.758  1.00  0.00    -0.223 OA 
BRANCH   7  10
HETATM   10  C   UNL     1     -10.311   9.927  68.670  1.00  0.00    -0.217 A  
HETATM   11  C   UNL     1     -10.132   8.716  67.977  1.00  0.00    -0.241 A  
HETATM   12  C   UNL     1     -10.186   9.864  65.860  1.00  0.00    -0.194 A  
HETATM   13  C   UNL     1     -10.397  11.068  66.511  1.00  0.00    -0.295 A  
HETATM   14  O   UNL     1     -10.108   9.875  64.498  1.00  0.00    -0.388 OA 
HETATM   15  C   UNL     1     -10.057   8.683  66.581  1.00  0.00    -0.364 A  
HETATM   16  C   UNL     1     -10.467  11.099  67.906  1.00  0.00    -0.220 A  
HETATM   17  H   UNL     1     -10.195  10.683  64.005  1.00  0.00     0.000 HD 
ENDBRANCH   7  10
ENDBRANCH   5   7
ENDBRANCH   3   5
ENDBRANCH   2   3
BRANCH   2  18
HETATM   18  C   UNL     1     -10.973   6.670  72.982  1.00  0.00    -0.279 C  
BRANCH  18  19
HETATM   19  C   UNL     1     -11.259   5.167  73.068  1.00  0.00    -0.390 C  
BRANCH  19  20
HETATM   20  C   UNL     1     -10.080   4.406  72.500  1.00  0.00    -0.237 A  
HETATM   21  C   UNL     1     -10.085   3.004  72.477  1.00  0.00    -0.232 A  
HETATM   22  C   UNL     1      -8.954   2.299  72.063  1.00  0.00    -0.122 A  
HETATM   23  C   UNL     1      -7.796   4.381  71.675  1.00  0.00    -0.080 A  
HETATM   24  C   UNL     1      -8.927   5.088  72.088  1.00  0.00    -0.144 A  
HETATM   25  C   UNL     1      -7.808   2.987  71.668  1.00  0.00    -0.056 A  
ENDBRANCH  19  20
ENDBRANCH  18  19
ENDBRANCH   2  18
TORSDOF 7
ENDMDL
MODEL      217
REMARK 921   NORMALIZED FREE ENERGY PREDICTED BY IDOCK:   -3.68 KCAL/MOL
REMARK 922        TOTAL FREE ENERGY PREDICTED BY IDOCK:   -6.82 KCAL/MOL
REMARK 923 INTER-LIGAND FREE ENERGY PREDICTED BY IDOCK:   -5.63 KCAL/MOL
REMARK 924 INTRA-LIGAND FREE ENERGY PREDICTED BY IDOCK:   -1.19 KCAL/MOL
REMARK 927      BINDING AFFINITY PREDICTED BY RF-SCORE:    0.00 PKD
ROOT
HETATM    1  C   UNL     1      -8.870  14.860  66.901  1.00  0.00    -0.284 C  
HETATM    2  C   UNL     1      -9.747  14.491  68.106  1.00  0.00    -0.219 C  
ENDROOT
BRANCH   2   3
HETATM    3  N   UNL     1      -9.378  13.196  68.699  1.00  0.00    -0.398 NA 
HETATM    4  H   UNL     1     -10.157  12.542  68.621  1.00  0.00     0.000 HD 
BRANCH   3   5
HETATM    5  C   UNL     1      -8.136  12.570  68.166  1.00  0.00    -0.167 C  
HETATM    6  C   UNL     1      -7.180  12.188  69.302  1.00  0.00     0.097 C  
BRANCH   5   7
HETATM    7  C   UNL     1      -8.505  11.304  67.316  1.00  0.00    -0.144 C  
HETATM    8  H   UNL     1      -7.623  10.241  65.935  1.00  0.00     0.000 HD 
HETATM    9  O   UNL     1      -7.400  11.008  66.450  1.00  0.00    -0.142 OA 
BRANCH   7  10
HETATM   10  C   UNL     1      -8.872  10.049  68.102  1.00  0.00    -0.122 A  
HETATM   11  C   UNL     1     -10.050   9.953  68.864  1.00  0.00    -0.194 A  
HETATM   12  C   UNL     1      -9.509   7.694  69.503  1.00  0.00    -0.152 A  
HETATM   13  C   UNL     1      -8.358   7.746  68.733  1.00  0.00    -0.128 A  
HETATM   14  O   UNL     1      -9.773   6.543  70.186  1.00  0.00    -0.166 OA 
HETATM   15  C   UNL     1     -10.363   8.787  69.571  1.00  0.00    -0.213 A  
HETATM   16  C   UNL     1      -8.046   8.912  68.031  1.00  0.00    -0.106 A  
HETATM   17  H   UNL     1      -9.188   5.796  70.140  1.00  0.00     0.000 HD 
ENDBRANCH   7  10
ENDBRANCH   5   7
ENDBRANCH   3   5
ENDBRANCH   2   3
BRANCH   2  18
HETATM   18  C   UNL     1     -11.208  14.444  67.614  1.00  0.00    -0.328 C  
BRANCH  18  19
HETATM   19  C   UNL     1     -11.811  13.042  67.473  1.00  0.00    -0.408 C  
BRANCH  19  20
HETATM   20  C   UNL     1     -11.789  12.638  66.014  1.00  0.00    -0.492 A  
HETATM   21  C   UNL     1     -11.003  11.558  65.590  1.00  0.00    -0.296 A  
HETATM   22  C   UNL     1     -10.888  11.257  64.232  1.00  0.00    -0.398 A  
HETATM   23  C   UNL     1     -12.351  13.100  63.697  1.00  0.00    -0.482 A  
HETATM   24  C   UNL     1     -12.468  13.402  65.055  1.00  0.00    -0.479 A  
HETATM   25  C   UNL     1     -11.556  12.031  63.286  1.00  0.00    -0.409 A  
ENDBRANCH  19  20
ENDBRANCH  18  19
ENDBRANCH   2  18
TORSDOF 7
ENDMDL
MODEL      218
REMARK 921   NORMALIZED FREE ENERGY PREDICTED BY IDOCK:   -3.68 KCAL/MOL
REMARK 922        TOTAL FREE ENERGY PREDICTED BY IDOCK:   -6.82 KCAL/MOL
REMARK 923 INTER-LIGAND FREE ENERGY PREDICTED BY IDOCK:   -5.64 KCAL/MOL
REMARK 924 INTRA-LIGAND FREE ENERGY PREDICTED BY IDOCK:   -1.18 KCAL/MOL
REMARK 927      BINDING AFFINITY PREDICTED BY RF-SCORE:    0.00 PKD
ROOT
HETATM    1  C   UNL     1      -7.416  10.843  66.110  1.00  0.00    -0.107 C  
HETATM    2  C   UNL     1      -8.247  10.277  67.271  1.00  0.00    -0.121 C  
ENDROOT
BRANCH   2   3
HETATM    3  N   UNL     1      -8.926   9.020  66.922  1.00  0.00    -0.121 NA 
HETATM    4  H   UNL     1      -8.679   8.743  65.972  1.00  0.00     0.000 HD 
BRANCH   3   5
HETATM    5  C   UNL     1      -8.704   7.882  67.856  1.00  0.00    -0.124 C  
HETATM    6  C   UNL     1      -7.666   8.242  68.925  1.00  0.00    -0.102 C  
BRANCH   5   7
HETATM    7  C   UNL     1     -10.061   7.477  68.529  1.00  0.00    -0.184 C  
HETATM    8  H   UNL     1     -11.827   6.930  67.900  1.00  0.00     0.000 HD 
HETATM    9  O   UNL     1     -11.005   7.176  67.492  1.00  0.00    -0.244 OA 
BRANCH   7  10
HETATM   10  C   UNL     1     -10.005   6.307  69.506  1.00  0.00    -0.198 A  
HETATM   11  C   UNL     1     -10.301   6.449  70.874  1.00  0.00    -0.246 A  
HETATM   12  C   UNL     1      -9.914   4.101  71.250  1.00  0.00    -0.146 A  
HETATM   13  C   UNL     1      -9.650   3.922  69.902  1.00  0.00    -0.270 A  
HETATM   14  O   UNL     1      -9.839   3.012  72.069  1.00  0.00    -0.156 OA 
HETATM   15  C   UNL     1     -10.245   5.356  71.745  1.00  0.00    -0.263 A  
HETATM   16  C   UNL     1      -9.704   5.016  69.034  1.00  0.00    -0.238 A  
HETATM   17  H   UNL     1      -9.612   2.154  71.730  1.00  0.00     0.000 HD 
ENDBRANCH   7  10
ENDBRANCH   5   7
ENDBRANCH   3   5
ENDBRANCH   2   3
BRANCH   2  18
HETATM   18  C   UNL     1      -9.290  11.348  67.653  1.00  0.00    -0.159 C  
BRANCH  18  19
HETATM   19  C   UNL     1     -10.749  10.977  67.368  1.00  0.00    -0.303 C  
BRANCH  19  20
HETATM   20  C   UNL     1     -11.275  11.860  66.256  1.00  0.00    -0.392 A  
HETATM   21  C   UNL     1     -10.946  11.590  64.921  1.00  0.00    -0.319 A  
HETATM   22  C   UNL     1     -11.331  12.468  63.906  1.00  0.00    -0.504 A  
HETATM   23  C   UNL     1     -12.392  13.894  65.538  1.00  0.00    -0.506 A  
HETATM   24  C   UNL     1     -12.009  13.017  66.554  1.00  0.00    -0.457 A  
HETATM   25  C   UNL     1     -12.048  13.622  64.215  1.00  0.00    -0.480 A  
ENDBRANCH  19  20
ENDBRANCH  18  19
ENDBRANCH   2  18
TORSDOF 7
ENDMDL
MODEL      219
REMARK 921   NORMALIZED FREE ENERGY PREDICTED BY IDOCK:   -3.68 KCAL/MOL
REMARK 922        TOTAL FREE ENERGY PREDICTED BY IDOCK:   -6.81 KCAL/MOL
REMARK 923 INTER-LIGAND FREE ENERGY PREDICTED BY IDOCK:   -5.85 KCAL/MOL
REMARK 924 INTRA-LIGAND FREE ENERGY PREDICTED BY IDOCK:   -0.96 KCAL/MOL
REMARK 927      BINDING AFFINITY PREDICTED BY RF-SCORE:    0.00 PKD
ROOT
HETATM    1  C   UNL     1      -9.454  11.281  68.049  1.00  0.00    -0.173 C  
HETATM    2  C   UNL     1     -10.058  10.361  66.977  1.00  0.00    -0.215 C  
ENDROOT
BRANCH   2   3
HETATM    3  N   UNL     1     -11.099  11.029  66.180  1.00  0.00    -0.093 NA 
HETATM    4  H   UNL     1     -11.718  11.561  66.793  1.00  0.00     0.000 HD 
BRANCH   3   5
HETATM    5  C   UNL     1     -10.611  11.897  65.074  1.00  0.00    -0.289 C  
HETATM    6  C   UNL     1     -10.647  11.155  63.734  1.00  0.00    -0.422 C  
BRANCH   5   7
HETATM    7  C   UNL     1     -11.484  13.199  64.999  1.00  0.00    -0.308 C  
HETATM    8  H   UNL     1     -13.394  13.604  64.984  1.00  0.00     0.000 HD 
HETATM    9  O   UNL     1     -12.866  12.815  65.030  1.00  0.00    -0.743 OA 
BRANCH   7  10
HETATM   10  C   UNL     1     -11.232  14.242  66.083  1.00  0.00    -0.331 A  
HETATM   11  C   UNL     1     -12.005  14.313  67.257  1.00  0.00    -0.439 A  
HETATM   12  C   UNL     1     -10.696  16.168  68.062  1.00  0.00    -0.321 A  
HETATM   13  C   UNL     1      -9.895  16.101  66.934  1.00  0.00    -0.247 A  
HETATM   14  O   UNL     1     -10.419  17.130  68.990  1.00  0.00    -0.322 OA 
HETATM   15  C   UNL     1     -11.747  15.278  68.237  1.00  0.00    -0.320 A  
HETATM   16  C   UNL     1     -10.156  15.139  65.955  1.00  0.00    -0.349 A  
HETATM   17  H   UNL     1      -9.699  17.739  68.870  1.00  0.00     0.000 HD 
ENDBRANCH   7  10
ENDBRANCH   5   7
ENDBRANCH   3   5
ENDBRANCH   2   3
BRANCH   2  18
HETATM   18  C   UNL     1     -10.657   9.140  67.705  1.00  0.00    -0.307 C  
BRANCH  18  19
HETATM   19  C   UNL     1     -10.558   7.809  66.951  1.00  0.00    -0.347 C  
BRANCH  19  20
HETATM   20  C   UNL     1      -9.133   7.305  67.026  1.00  0.00    -0.152 A  
HETATM   21  C   UNL     1      -8.338   7.590  68.145  1.00  0.00    -0.125 A  
HETATM   22  C   UNL     1      -6.990   7.228  68.166  1.00  0.00    -0.076 A  
HETATM   23  C   UNL     1      -7.208   6.277  65.959  1.00  0.00    -0.075 A  
HETATM   24  C   UNL     1      -8.557   6.638  65.936  1.00  0.00    -0.153 A  
HETATM   25  C   UNL     1      -6.424   6.577  67.071  1.00  0.00    -0.043 A  
ENDBRANCH  19  20
ENDBRANCH  18  19
ENDBRANCH   2  18
TORSDOF 7
ENDMDL
MODEL      220
REMARK 921   NORMALIZED FREE ENERGY PREDICTED BY IDOCK:   -3.66 KCAL/MOL
REMARK 922        TOTAL FREE ENERGY PREDICTED BY IDOCK:   -6.79 KCAL/MOL
REMARK 923 INTER-LIGAND FREE ENERGY PREDICTED BY IDOCK:   -5.93 KCAL/MOL
REMARK 924 INTRA-LIGAND FREE ENERGY PREDICTED BY IDOCK:   -0.86 KCAL/MOL
REMARK 927      BINDING AFFINITY PREDICTED BY RF-SCORE:    0.00 PKD
ROOT
HETATM    1  C   UNL     1      -7.278  11.795  67.977  1.00  0.00    -0.084 C  
HETATM    2  C   UNL     1      -8.757  11.540  68.303  1.00  0.00    -0.162 C  
ENDROOT
BRANCH   2   3
HETATM    3  N   UNL     1      -9.505  12.782  68.550  1.00  0.00    -0.381 NA 
HETATM    4  H   UNL     1      -8.861  13.531  68.806  1.00  0.00     0.000 HD 
BRANCH   3   5
HETATM    5  C   UNL     1     -10.393  13.234  67.444  1.00  0.00    -0.243 C  
HETATM    6  C   UNL     1     -11.245  12.075  66.914  1.00  0.00    -0.375 C  
BRANCH   5   7
HETATM    7  C   UNL     1     -11.313  14.401  67.947  1.00  0.00    -0.301 C  
HETATM    8  H   UNL     1     -12.378  14.753  69.546  1.00  0.00     0.000 HD 
HETATM    9  O   UNL     1     -11.820  14.046  69.241  1.00  0.00    -0.299 OA 
BRANCH   7  10
HETATM   10  C   UNL     1     -10.667  15.780  68.026  1.00  0.00    -0.296 A  
HETATM   11  C   UNL     1     -11.110  16.868  67.250  1.00  0.00     0.091 A  
HETATM   12  C   UNL     1      -9.455  18.310  68.242  1.00  0.00    -0.308 A  
HETATM   13  C   UNL     1      -9.019  17.268  69.045  1.00  0.00    -0.083 A  
HETATM   14  O   UNL     1      -8.828  19.516  68.359  1.00  0.00    -0.336 OA 
HETATM   15  C   UNL     1     -10.500  18.123  67.347  1.00  0.00    -0.414 A  
HETATM   16  C   UNL     1      -9.626  16.014  68.944  1.00  0.00    -0.236 A  
HETATM   17  H   UNL     1      -8.112  19.643  68.971  1.00  0.00     0.000 HD 
ENDBRANCH   7  10
ENDBRANCH   5   7
ENDBRANCH   3   5
ENDBRANCH   2   3
BRANCH   2  18
HETATM   18  C   UNL     1      -8.801  10.643  69.558  1.00  0.00     0.029 C  
BRANCH  18  19
HETATM   19  C   UNL     1      -9.652   9.375  69.432  1.00  0.00    -0.177 C  
BRANCH  19  20
HETATM   20  C   UNL     1     -10.832   9.476  70.375  1.00  0.00    -0.338 A  
HETATM   21  C   UNL     1     -10.893   8.672  71.522  1.00  0.00    -0.352 A  
HETATM   22  C   UNL     1     -12.032   8.677  72.330  1.00  0.00    -0.438 A  
HETATM   23  C   UNL     1     -13.063  10.299  70.869  1.00  0.00    -0.423 A  
HETATM   24  C   UNL     1     -11.925  10.295  70.061  1.00  0.00    -0.273 A  
HETATM   25  C   UNL     1     -13.118   9.486  72.000  1.00  0.00    -0.528 A  
ENDBRANCH  19  20
ENDBRANCH  18  19
ENDBRANCH   2  18
TORSDOF 7
ENDMDL
MODEL      221
REMARK 921   NORMALIZED FREE ENERGY PREDICTED BY IDOCK:   -3.66 KCAL/MOL
REMARK 922        TOTAL FREE ENERGY PREDICTED BY IDOCK:   -6.78 KCAL/MOL
REMARK 923 INTER-LIGAND FREE ENERGY PREDICTED BY IDOCK:   -5.88 KCAL/MOL
REMARK 924 INTRA-LIGAND FREE ENERGY PREDICTED BY IDOCK:   -0.91 KCAL/MOL
REMARK 927      BINDING AFFINITY PREDICTED BY RF-SCORE:    0.00 PKD
ROOT
HETATM    1  C   UNL     1      -9.576   9.588  69.683  1.00  0.00    -0.216 C  
HETATM    2  C   UNL     1      -9.386   9.965  68.206  1.00  0.00    -0.132 C  
ENDROOT
BRANCH   2   3
HETATM    3  N   UNL     1     -10.641   9.900  67.440  1.00  0.00    -0.271 NA 
HETATM    4  H   UNL     1     -11.361   9.433  67.991  1.00  0.00     0.000 HD 
BRANCH   3   5
HETATM    5  C   UNL     1     -11.156  11.200  66.930  1.00  0.00    -0.247 C  
HETATM    6  C   UNL     1     -11.610  12.103  68.082  1.00  0.00    -0.397 C  
BRANCH   5   7
HETATM    7  C   UNL     1     -10.044  11.915  66.084  1.00  0.00    -0.228 C  
HETATM    8  H   UNL     1      -9.177  11.599  64.363  1.00  0.00     0.000 HD 
HETATM    9  O   UNL     1      -9.851  11.167  64.875  1.00  0.00    -0.234 OA 
BRANCH   7  10
HETATM   10  C   UNL     1     -10.304  13.375  65.729  1.00  0.00    -0.296 A  
HETATM   11  C   UNL     1      -9.369  14.394  65.991  1.00  0.00    -0.167 A  
HETATM   12  C   UNL     1     -10.828  16.047  65.021  1.00  0.00    -0.404 A  
HETATM   13  C   UNL     1     -11.754  15.062  64.719  1.00  0.00    -0.370 A  
HETATM   14  O   UNL     1     -11.127  17.334  64.683  1.00  0.00    -1.052 OA 
HETATM   15  C   UNL     1      -9.633  15.725  65.651  1.00  0.00    -0.299 A  
HETATM   16  C   UNL     1     -11.490  13.734  65.063  1.00  0.00    -0.340 A  
HETATM   17  H   UNL     1     -11.945  17.555  64.252  1.00  0.00     0.000 HD 
ENDBRANCH   7  10
ENDBRANCH   5   7
ENDBRANCH   3   5
ENDBRANCH   2   3
BRANCH   2  18
HETATM   18  C   UNL     1      -8.357   8.982  67.611  1.00  0.00    -0.117 C  
BRANCH  18  19
HETATM   19  C   UNL     1      -8.135   7.694  68.413  1.00  0.00    -0.124 C  
BRANCH  19  20
HETATM   20  C   UNL     1      -8.637   6.516  67.604  1.00  0.00    -0.116 A  
HETATM   21  C   UNL     1      -7.752   5.775  66.808  1.00  0.00    -0.100 A  
HETATM   22  C   UNL     1      -8.230   4.765  65.972  1.00  0.00    -0.111 A  
HETATM   23  C   UNL     1     -10.482   5.207  66.721  1.00  0.00    -0.306 A  
HETATM   24  C   UNL     1     -10.005   6.218  67.558  1.00  0.00    -0.159 A  
HETATM   25  C   UNL     1      -9.595   4.485  65.924  1.00  0.00    -0.191 A  
ENDBRANCH  19  20
ENDBRANCH  18  19
ENDBRANCH   2  18
TORSDOF 7
ENDMDL
MODEL      222
REMARK 921   NORMALIZED FREE ENERGY PREDICTED BY IDOCK:   -3.65 KCAL/MOL
REMARK 922        TOTAL FREE ENERGY PREDICTED BY IDOCK:   -6.77 KCAL/MOL
REMARK 923 INTER-LIGAND FREE ENERGY PREDICTED BY IDOCK:   -6.08 KCAL/MOL
REMARK 924 INTRA-LIGAND FREE ENERGY PREDICTED BY IDOCK:   -0.69 KCAL/MOL
REMARK 927      BINDING AFFINITY PREDICTED BY RF-SCORE:    0.00 PKD
ROOT
HETATM    1  C   UNL     1      -7.470   9.712  69.169  1.00  0.00    -0.079 C  
HETATM    2  C   UNL     1      -9.004   9.714  69.242  1.00  0.00    -0.172 C  
ENDROOT
BRANCH   2   3
HETATM    3  N   UNL     1      -9.551   8.424  69.692  1.00  0.00    -0.163 NA 
HETATM    4  H   UNL     1      -8.801   7.736  69.770  1.00  0.00     0.000 HD 
BRANCH   3   5
HETATM    5  C   UNL     1     -10.339   8.460  70.954  1.00  0.00    -0.194 C  
HETATM    6  C   UNL     1     -11.204   9.723  71.028  1.00  0.00    -0.451 C  
BRANCH   5   7
HETATM    7  C   UNL     1     -11.237   7.178  71.055  1.00  0.00    -0.269 C  
HETATM    8  H   UNL     1     -12.162   6.015  69.787  1.00  0.00     0.000 HD 
HETATM    9  O   UNL     1     -11.618   6.792  69.726  1.00  0.00    -0.298 OA 
BRANCH   7  10
HETATM   10  C   UNL     1     -10.619   5.977  71.764  1.00  0.00    -0.277 A  
HETATM   11  C   UNL     1      -9.531   5.263  71.231  1.00  0.00    -0.197 A  
HETATM   12  C   UNL     1      -9.503   3.791  73.137  1.00  0.00    -0.109 A  
HETATM   13  C   UNL     1     -10.552   4.495  73.705  1.00  0.00    -0.315 A  
HETATM   14  O   UNL     1      -9.002   2.722  73.823  1.00  0.00    -0.075 OA 
HETATM   15  C   UNL     1      -8.981   4.168  71.907  1.00  0.00    -0.154 A  
HETATM   16  C   UNL     1     -11.101   5.586  73.027  1.00  0.00    -0.350 A  
HETATM   17  H   UNL     1      -9.359   2.464  74.664  1.00  0.00     0.000 HD 
ENDBRANCH   7  10
ENDBRANCH   5   7
ENDBRANCH   3   5
ENDBRANCH   2   3
BRANCH   2  18
HETATM   18  C   UNL     1      -9.530  10.041  67.829  1.00  0.00    -0.157 C  
BRANCH  18  19
HETATM   19  C   UNL     1     -10.625  11.112  67.766  1.00  0.00    -0.248 C  
BRANCH  19  20
HETATM   20  C   UNL     1     -10.977  11.372  66.317  1.00  0.00    -0.303 A  
HETATM   21  C   UNL     1     -10.279  10.721  65.290  1.00  0.00    -0.351 A  
HETATM   22  C   UNL     1     -10.522  11.045  63.954  1.00  0.00    -0.422 A  
HETATM   23  C   UNL     1     -12.171  12.667  64.644  1.00  0.00    -0.519 A  
HETATM   24  C   UNL     1     -11.930  12.343  65.981  1.00  0.00    -0.419 A  
HETATM   25  C   UNL     1     -11.462  12.022  63.631  1.00  0.00    -0.556 A  
ENDBRANCH  19  20
ENDBRANCH  18  19
ENDBRANCH   2  18
TORSDOF 7
ENDMDL
MODEL      223
REMARK 921   NORMALIZED FREE ENERGY PREDICTED BY IDOCK:   -3.64 KCAL/MOL
REMARK 922        TOTAL FREE ENERGY PREDICTED BY IDOCK:   -6.76 KCAL/MOL
REMARK 923 INTER-LIGAND FREE ENERGY PREDICTED BY IDOCK:   -5.59 KCAL/MOL
REMARK 924 INTRA-LIGAND FREE ENERGY PREDICTED BY IDOCK:   -1.16 KCAL/MOL
REMARK 927      BINDING AFFINITY PREDICTED BY RF-SCORE:    0.00 PKD
ROOT
HETATM    1  C   UNL     1      -9.656  17.133  67.747  1.00  0.00    -0.256 C  
HETATM    2  C   UNL     1      -9.485  15.893  66.857  1.00  0.00    -0.227 C  
ENDROOT
BRANCH   2   3
HETATM    3  N   UNL     1     -10.390  14.796  67.236  1.00  0.00    -0.246 NA 
HETATM    4  H   UNL     1     -10.790  14.977  68.157  1.00  0.00     0.000 HD 
BRANCH   3   5
HETATM    5  C   UNL     1     -11.476  14.488  66.265  1.00  0.00    -0.358 C  
HETATM    6  C   UNL     1     -11.133  15.019  64.868  1.00  0.00    -0.425 C  
BRANCH   5   7
HETATM    7  C   UNL     1     -11.716  12.938  66.214  1.00  0.00    -0.399 C  
HETATM    8  H   UNL     1     -10.975  11.440  65.202  1.00  0.00     0.000 HD 
HETATM    9  O   UNL     1     -10.830  12.379  65.233  1.00  0.00    -0.274 OA 
BRANCH   7  10
HETATM   10  C   UNL     1     -11.540  12.186  67.529  1.00  0.00    -0.413 A  
HETATM   11  C   UNL     1     -11.863  12.757  68.774  1.00  0.00    -0.346 A  
HETATM   12  C   UNL     1     -11.226  10.736  69.919  1.00  0.00    -0.300 A  
HETATM   13  C   UNL     1     -10.932  10.134  68.706  1.00  0.00    -0.264 A  
HETATM   14  O   UNL     1     -11.039  10.008  71.058  1.00  0.00    -0.343 OA 
HETATM   15  C   UNL     1     -11.696  12.042  69.965  1.00  0.00    -0.346 A  
HETATM   16  C   UNL     1     -11.096  10.851  67.519  1.00  0.00    -0.375 A  
HETATM   17  H   UNL     1     -10.717   9.115  71.027  1.00  0.00     0.000 HD 
ENDBRANCH   7  10
ENDBRANCH   5   7
ENDBRANCH   3   5
ENDBRANCH   2   3
BRANCH   2  18
HETATM   18  C   UNL     1      -8.019  15.431  66.989  1.00  0.00    -0.259 C  
BRANCH  18  19
HETATM   19  C   UNL     1      -7.560  15.097  68.413  1.00  0.00    -0.117 C  
BRANCH  19  20
HETATM   20  C   UNL     1      -7.188  13.631  68.480  1.00  0.00    -0.109 A  
HETATM   21  C   UNL     1      -7.772  12.711  67.599  1.00  0.00    -0.155 A  
HETATM   22  C   UNL     1      -7.522  11.344  67.735  1.00  0.00    -0.100 A  
HETATM   23  C   UNL     1      -6.088  11.792  69.624  1.00  0.00    -0.119 A  
HETATM   24  C   UNL     1      -6.337  13.159  69.490  1.00  0.00    -0.103 A  
HETATM   25  C   UNL     1      -6.685  10.885  68.750  1.00  0.00    -0.062 A  
ENDBRANCH  19  20
ENDBRANCH  18  19
ENDBRANCH   2  18
TORSDOF 7
ENDMDL
MODEL      224
REMARK 921   NORMALIZED FREE ENERGY PREDICTED BY IDOCK:   -3.63 KCAL/MOL
REMARK 922        TOTAL FREE ENERGY PREDICTED BY IDOCK:   -6.75 KCAL/MOL
REMARK 923 INTER-LIGAND FREE ENERGY PREDICTED BY IDOCK:   -5.67 KCAL/MOL
REMARK 924 INTRA-LIGAND FREE ENERGY PREDICTED BY IDOCK:   -1.08 KCAL/MOL
REMARK 927      BINDING AFFINITY PREDICTED BY RF-SCORE:    0.00 PKD
ROOT
HETATM    1  C   UNL     1      -6.757  10.379  67.689  1.00  0.00    -0.074 C  
HETATM    2  C   UNL     1      -8.188  10.936  67.715  1.00  0.00    -0.116 C  
ENDROOT
BRANCH   2   3
HETATM    3  N   UNL     1      -9.202   9.903  67.448  1.00  0.00    -0.134 NA 
HETATM    4  H   UNL     1      -8.755   9.066  67.073  1.00  0.00     0.000 HD 
BRANCH   3   5
HETATM    5  C   UNL     1     -10.075   9.541  68.597  1.00  0.00    -0.181 C  
HETATM    6  C   UNL     1     -11.231  10.536  68.746  1.00  0.00    -0.317 C  
BRANCH   5   7
HETATM    7  C   UNL     1     -10.630   8.086  68.403  1.00  0.00    -0.102 C  
HETATM    8  H   UNL     1     -10.234   6.585  67.219  1.00  0.00     0.000 HD 
HETATM    9  O   UNL     1      -9.898   7.466  67.337  1.00  0.00    -0.148 OA 
BRANCH   7  10
HETATM   10  C   UNL     1     -10.587   7.180  69.629  1.00  0.00    -0.249 A  
HETATM   11  C   UNL     1      -9.472   6.380  69.939  1.00  0.00    -0.163 A  
HETATM   12  C   UNL     1     -10.557   5.555  71.925  1.00  0.00    -0.234 A  
HETATM   13  C   UNL     1     -11.657   6.358  71.666  1.00  0.00    -0.363 A  
HETATM   14  O   UNL     1     -10.589   4.764  73.036  1.00  0.00    -0.190 OA 
HETATM   15  C   UNL     1      -9.460   5.562  71.074  1.00  0.00    -0.203 A  
HETATM   16  C   UNL     1     -11.668   7.171  70.530  1.00  0.00    -0.314 A  
HETATM   17  H   UNL     1     -11.340   4.759  73.618  1.00  0.00     0.000 HD 
ENDBRANCH   7  10
ENDBRANCH   5   7
ENDBRANCH   3   5
ENDBRANCH   2   3
BRANCH   2  18
HETATM   18  C   UNL     1      -8.269  12.040  66.641  1.00  0.00    -0.056 C  
BRANCH  18  19
HETATM   19  C   UNL     1      -9.460  12.997  66.768  1.00  0.00    -0.250 C  
BRANCH  19  20
HETATM   20  C   UNL     1     -10.441  12.717  65.650  1.00  0.00    -0.298 A  
HETATM   21  C   UNL     1     -11.807  12.980  65.823  1.00  0.00    -0.453 A  
HETATM   22  C   UNL     1     -12.728  12.614  64.840  1.00  0.00    -0.450 A  
HETATM   23  C   UNL     1     -10.936  11.728  63.487  1.00  0.00    -0.499 A  
HETATM   24  C   UNL     1     -10.013  12.093  64.469  1.00  0.00    -0.231 A  
HETATM   25  C   UNL     1     -12.293  11.983  63.675  1.00  0.00    -0.648 A  
ENDBRANCH  19  20
ENDBRANCH  18  19
ENDBRANCH   2  18
TORSDOF 7
ENDMDL
MODEL      225
REMARK 921   NORMALIZED FREE ENERGY PREDICTED BY IDOCK:   -3.62 KCAL/MOL
REMARK 922        TOTAL FREE ENERGY PREDICTED BY IDOCK:   -6.73 KCAL/MOL
REMARK 923 INTER-LIGAND FREE ENERGY PREDICTED BY IDOCK:   -5.18 KCAL/MOL
REMARK 924 INTRA-LIGAND FREE ENERGY PREDICTED BY IDOCK:   -1.55 KCAL/MOL
REMARK 927      BINDING AFFINITY PREDICTED BY RF-SCORE:    0.00 PKD
ROOT
HETATM    1  C   UNL     1      -8.212   7.971  65.082  1.00  0.00    -0.147 C  
HETATM    2  C   UNL     1      -8.154   7.679  66.588  1.00  0.00    -0.119 C  
ENDROOT
BRANCH   2   3
HETATM    3  N   UNL     1      -9.356   6.987  67.078  1.00  0.00    -0.140 NA 
HETATM    4  H   UNL     1     -10.152   7.205  66.477  1.00  0.00     0.000 HD 
BRANCH   3   5
HETATM    5  C   UNL     1      -9.234   5.513  67.243  1.00  0.00    -0.110 C  
HETATM    6  C   UNL     1      -8.161   4.942  66.308  1.00  0.00    -0.108 C  
BRANCH   5   7
HETATM    7  C   UNL     1      -8.891   5.174  68.736  1.00  0.00    -0.093 C  
HETATM    8  H   UNL     1      -7.347   5.416  69.907  1.00  0.00     0.000 HD 
HETATM    9  O   UNL     1      -7.555   5.622  69.003  1.00  0.00    -0.084 OA 
BRANCH   7  10
HETATM   10  C   UNL     1      -9.830   5.753  69.790  1.00  0.00    -0.232 A  
HETATM   11  C   UNL     1      -9.423   5.989  71.116  1.00  0.00    -0.182 A  
HETATM   12  C   UNL     1     -11.600   6.855  71.678  1.00  0.00    -0.287 A  
HETATM   13  C   UNL     1     -12.020   6.667  70.372  1.00  0.00    -0.342 A  
HETATM   14  O   UNL     1     -12.493   7.371  72.571  1.00  0.00    -0.511 OA 
HETATM   15  C   UNL     1     -10.305   6.526  72.060  1.00  0.00    -0.221 A  
HETATM   16  C   UNL     1     -11.138   6.127  69.432  1.00  0.00    -0.479 A  
HETATM   17  H   UNL     1     -13.379   7.596  72.311  1.00  0.00     0.000 HD 
ENDBRANCH   7  10
ENDBRANCH   5   7
ENDBRANCH   3   5
ENDBRANCH   2   3
BRANCH   2  18
HETATM   18  C   UNL     1      -7.996   9.032  67.312  1.00  0.00    -0.099 C  
BRANCH  18  19
HETATM   19  C   UNL     1      -8.330   9.022  68.808  1.00  0.00    -0.122 C  
BRANCH  19  20
HETATM   20  C   UNL     1      -9.608   9.803  69.033  1.00  0.00    -0.177 A  
HETATM   21  C   UNL     1     -10.193   9.851  70.307  1.00  0.00    -0.322 A  
HETATM   22  C   UNL     1     -11.431  10.470  70.493  1.00  0.00    -0.433 A  
HETATM   23  C   UNL     1     -11.515  11.015  68.143  1.00  0.00    -0.374 A  
HETATM   24  C   UNL     1     -10.278  10.397  67.955  1.00  0.00    -0.211 A  
HETATM   25  C   UNL     1     -12.094  11.046  69.411  1.00  0.00    -0.389 A  
ENDBRANCH  19  20
ENDBRANCH  18  19
ENDBRANCH   2  18
TORSDOF 7
ENDMDL
MODEL      226
REMARK 921   NORMALIZED FREE ENERGY PREDICTED BY IDOCK:   -3.60 KCAL/MOL
REMARK 922        TOTAL FREE ENERGY PREDICTED BY IDOCK:   -6.70 KCAL/MOL
REMARK 923 INTER-LIGAND FREE ENERGY PREDICTED BY IDOCK:   -5.38 KCAL/MOL
REMARK 924 INTRA-LIGAND FREE ENERGY PREDICTED BY IDOCK:   -1.32 KCAL/MOL
REMARK 927      BINDING AFFINITY PREDICTED BY RF-SCORE:    0.00 PKD
ROOT
HETATM    1  C   UNL     1      -9.871   4.911  70.838  1.00  0.00    -0.277 C  
HETATM    2  C   UNL     1     -10.459   5.793  69.726  1.00  0.00    -0.292 C  
ENDROOT
BRANCH   2   3
HETATM    3  N   UNL     1      -9.471   6.723  69.158  1.00  0.00    -0.141 NA 
HETATM    4  H   UNL     1      -8.817   7.020  69.882  1.00  0.00     0.000 HD 
BRANCH   3   5
HETATM    5  C   UNL     1      -8.721   6.225  67.972  1.00  0.00    -0.114 C  
HETATM    6  C   UNL     1      -9.476   5.083  67.283  1.00  0.00    -0.149 C  
BRANCH   5   7
HETATM    7  C   UNL     1      -8.481   7.405  66.965  1.00  0.00    -0.118 C  
HETATM    8  H   UNL     1      -9.332   8.040  65.326  1.00  0.00     0.000 HD 
HETATM    9  O   UNL     1      -9.477   7.326  65.936  1.00  0.00     0.007 OA 
BRANCH   7  10
HETATM   10  C   UNL     1      -8.490   8.809  67.560  1.00  0.00    -0.120 A  
HETATM   11  C   UNL     1      -7.645   9.186  68.620  1.00  0.00    -0.084 A  
HETATM   12  C   UNL     1      -8.530  11.426  68.591  1.00  0.00    -0.131 A  
HETATM   13  C   UNL     1      -9.350  11.096  67.525  1.00  0.00    -0.174 A  
HETATM   14  O   UNL     1      -8.594  12.699  69.079  1.00  0.00    -0.327 OA 
HETATM   15  C   UNL     1      -7.672  10.484  69.142  1.00  0.00    -0.131 A  
HETATM   16  C   UNL     1      -9.324   9.798  67.007  1.00  0.00    -0.178 A  
HETATM   17  H   UNL     1      -9.181  13.344  68.702  1.00  0.00     0.000 HD 
ENDBRANCH   7  10
ENDBRANCH   5   7
ENDBRANCH   3   5
ENDBRANCH   2   3
BRANCH   2  18
HETATM   18  C   UNL     1     -11.631   6.586  70.342  1.00  0.00    -0.470 C  
BRANCH  18  19
HETATM   19  C   UNL     1     -11.284   7.416  71.584  1.00  0.00    -0.276 C  
BRANCH  19  20
HETATM   20  C   UNL     1     -11.824   8.819  71.406  1.00  0.00    -0.369 A  
HETATM   21  C   UNL     1     -11.197   9.712  70.525  1.00  0.00    -0.359 A  
HETATM   22  C   UNL     1     -11.620  11.041  70.447  1.00  0.00    -0.389 A  
HETATM   23  C   UNL     1     -13.309  10.605  72.114  1.00  0.00    -0.335 A  
HETATM   24  C   UNL     1     -12.888   9.276  72.194  1.00  0.00    -0.485 A  
HETATM   25  C   UNL     1     -12.671  11.488  71.245  1.00  0.00    -0.469 A  
ENDBRANCH  19  20
ENDBRANCH  18  19
ENDBRANCH   2  18
TORSDOF 7
ENDMDL
MODEL      227
REMARK 921   NORMALIZED FREE ENERGY PREDICTED BY IDOCK:   -3.56 KCAL/MOL
REMARK 922        TOTAL FREE ENERGY PREDICTED BY IDOCK:   -6.65 KCAL/MOL
REMARK 923 INTER-LIGAND FREE ENERGY PREDICTED BY IDOCK:   -6.09 KCAL/MOL
REMARK 924 INTRA-LIGAND FREE ENERGY PREDICTED BY IDOCK:   -0.56 KCAL/MOL
REMARK 927      BINDING AFFINITY PREDICTED BY RF-SCORE:    0.00 PKD
ROOT
HETATM    1  C   UNL     1     -10.751   7.434  68.858  1.00  0.00    -0.152 C  
HETATM    2  C   UNL     1     -10.165   8.731  68.280  1.00  0.00    -0.201 C  
ENDROOT
BRANCH   2   3
HETATM    3  N   UNL     1     -10.911   9.216  67.108  1.00  0.00    -0.326 NA 
HETATM    4  H   UNL     1     -11.906   9.266  67.326  1.00  0.00     0.000 HD 
BRANCH   3   5
HETATM    5  C   UNL     1     -10.451  10.513  66.540  1.00  0.00    -0.212 C  
HETATM    6  C   UNL     1     -10.401  10.457  65.009  1.00  0.00    -0.249 C  
BRANCH   5   7
HETATM    7  C   UNL     1     -11.405  11.666  67.013  1.00  0.00    -0.305 C  
HETATM    8  H   UNL     1     -11.616  12.729  68.637  1.00  0.00     0.000 HD 
HETATM    9  O   UNL     1     -11.038  12.031  68.350  1.00  0.00    -0.212 OA 
BRANCH   7  10
HETATM   10  C   UNL     1     -11.428  12.919  66.143  1.00  0.00    -0.393 A  
HETATM   11  C   UNL     1     -12.552  13.289  65.381  1.00  0.00    -0.526 A  
HETATM   12  C   UNL     1     -11.420  15.260  64.584  1.00  0.00    -0.354 A  
HETATM   13  C   UNL     1     -10.310  14.941  65.349  1.00  0.00    -0.413 A  
HETATM   14  O   UNL     1     -11.371  16.392  63.823  1.00  0.00    -1.487 OA 
HETATM   15  C   UNL     1     -12.545  14.447  64.596  1.00  0.00    -0.256 A  
HETATM   16  C   UNL     1     -10.317  13.783  66.130  1.00  0.00    -0.301 A  
HETATM   17  H   UNL     1     -10.600  16.948  63.815  1.00  0.00     0.000 HD 
ENDBRANCH   7  10
ENDBRANCH   5   7
ENDBRANCH   3   5
ENDBRANCH   2   3
BRANCH   2  18
HETATM   18  C   UNL     1      -8.702   8.437  67.885  1.00  0.00    -0.138 C  
BRANCH  18  19
HETATM   19  C   UNL     1      -7.816   9.670  67.677  1.00  0.00    -0.095 C  
BRANCH  19  20
HETATM   20  C   UNL     1      -6.879   9.413  66.516  1.00  0.00    -0.083 A  
HETATM   21  C   UNL     1      -6.448  10.473  65.705  1.00  0.00    -0.119 A  
HETATM   22  C   UNL     1      -5.680  10.225  64.565  1.00  0.00    -0.133 A  
HETATM   23  C   UNL     1      -5.747   7.858  65.032  1.00  0.00    -0.037 A  
HETATM   24  C   UNL     1      -6.514   8.104  66.172  1.00  0.00    -0.046 A  
HETATM   25  C   UNL     1      -5.335   8.918  64.226  1.00  0.00    -0.055 A  
ENDBRANCH  19  20
ENDBRANCH  18  19
ENDBRANCH   2  18
TORSDOF 7
ENDMDL
MODEL      228
REMARK 921   NORMALIZED FREE ENERGY PREDICTED BY IDOCK:   -3.56 KCAL/MOL
REMARK 922        TOTAL FREE ENERGY PREDICTED BY IDOCK:   -6.65 KCAL/MOL
REMARK 923 INTER-LIGAND FREE ENERGY PREDICTED BY IDOCK:   -6.35 KCAL/MOL
REMARK 924 INTRA-LIGAND FREE ENERGY PREDICTED BY IDOCK:   -0.30 KCAL/MOL
REMARK 927      BINDING AFFINITY PREDICTED BY RF-SCORE:    0.00 PKD
ROOT
HETATM    1  C   UNL     1      -8.171  10.228  66.622  1.00  0.00    -0.125 C  
HETATM    2  C   UNL     1      -8.892   9.821  67.916  1.00  0.00    -0.122 C  
ENDROOT
BRANCH   2   3
HETATM    3  N   UNL     1      -9.967   8.844  67.681  1.00  0.00    -0.183 NA 
HETATM    4  H   UNL     1     -10.446   9.057  66.806  1.00  0.00     0.000 HD 
BRANCH   3   5
HETATM    5  C   UNL     1      -9.557   7.413  67.698  1.00  0.00    -0.138 C  
HETATM    6  C   UNL     1      -8.308   7.188  66.837  1.00  0.00    -0.118 C  
BRANCH   5   7
HETATM    7  C   UNL     1      -9.289   6.956  69.175  1.00  0.00    -0.140 C  
HETATM    8  H   UNL     1      -7.816   7.123  70.446  1.00  0.00     0.000 HD 
HETATM    9  O   UNL     1      -7.978   7.400  69.551  1.00  0.00    -0.121 OA 
BRANCH   7  10
HETATM   10  C   UNL     1     -10.294   7.433  70.219  1.00  0.00    -0.217 A  
HETATM   11  C   UNL     1     -10.112   8.616  70.959  1.00  0.00    -0.273 A  
HETATM   12  C   UNL     1     -12.202   8.276  72.106  1.00  0.00    -0.364 A  
HETATM   13  C   UNL     1     -12.427   7.125  71.369  1.00  0.00    -0.427 A  
HETATM   14  O   UNL     1     -13.139   8.641  73.029  1.00  0.00    -0.732 OA 
HETATM   15  C   UNL     1     -11.053   9.030  71.907  1.00  0.00    -0.433 A  
HETATM   16  C   UNL     1     -11.484   6.711  70.426  1.00  0.00    -0.444 A  
HETATM   17  H   UNL     1     -13.925   8.125  73.166  1.00  0.00     0.000 HD 
ENDBRANCH   7  10
ENDBRANCH   5   7
ENDBRANCH   3   5
ENDBRANCH   2   3
BRANCH   2  18
HETATM   18  C   UNL     1      -9.478  11.105  68.537  1.00  0.00    -0.193 C  
BRANCH  18  19
HETATM   19  C   UNL     1     -10.977  11.326  68.304  1.00  0.00    -0.275 C  
BRANCH  19  20
HETATM   20  C   UNL     1     -11.344  12.727  68.744  1.00  0.00    -0.332 A  
HETATM   21  C   UNL     1     -11.977  12.939  69.977  1.00  0.00    -0.380 A  
HETATM   22  C   UNL     1     -12.422  14.213  70.334  1.00  0.00    -0.424 A  
HETATM   23  C   UNL     1     -11.600  15.089  68.241  1.00  0.00    -0.355 A  
HETATM   24  C   UNL     1     -11.154  13.816  67.883  1.00  0.00    -0.285 A  
HETATM   25  C   UNL     1     -12.239  15.286  69.464  1.00  0.00    -0.273 A  
ENDBRANCH  19  20
ENDBRANCH  18  19
ENDBRANCH   2  18
TORSDOF 7
ENDMDL
MODEL      229
REMARK 921   NORMALIZED FREE ENERGY PREDICTED BY IDOCK:   -3.55 KCAL/MOL
REMARK 922        TOTAL FREE ENERGY PREDICTED BY IDOCK:   -6.64 KCAL/MOL
REMARK 923 INTER-LIGAND FREE ENERGY PREDICTED BY IDOCK:   -5.66 KCAL/MOL
REMARK 924 INTRA-LIGAND FREE ENERGY PREDICTED BY IDOCK:   -0.98 KCAL/MOL
REMARK 927      BINDING AFFINITY PREDICTED BY RF-SCORE:    0.00 PKD
ROOT
HETATM    1  C   UNL     1      -7.052  11.374  68.479  1.00  0.00    -0.085 C  
HETATM    2  C   UNL     1      -8.536  11.726  68.298  1.00  0.00    -0.161 C  
ENDROOT
BRANCH   2   3
HETATM    3  N   UNL     1      -9.296  10.652  67.640  1.00  0.00    -0.146 NA 
HETATM    4  H   UNL     1      -8.657  10.012  67.169  1.00  0.00     0.000 HD 
BRANCH   3   5
HETATM    5  C   UNL     1     -10.226   9.887  68.516  1.00  0.00    -0.177 C  
HETATM    6  C   UNL     1     -11.442  10.735  68.903  1.00  0.00    -0.362 C  
BRANCH   5   7
HETATM    7  C   UNL     1     -10.685   8.577  67.785  1.00  0.00    -0.101 C  
HETATM    8  H   UNL     1     -10.304   7.726  66.068  1.00  0.00     0.000 HD 
HETATM    9  O   UNL     1     -10.026   8.520  66.512  1.00  0.00    -0.259 OA 
BRANCH   7  10
HETATM   10  C   UNL     1     -10.442   7.269  68.531  1.00  0.00    -0.215 A  
HETATM   11  C   UNL     1     -11.076   6.965  69.749  1.00  0.00    -0.316 A  
HETATM   12  C   UNL     1      -9.976   4.824  69.842  1.00  0.00    -0.236 A  
HETATM   13  C   UNL     1      -9.363   5.079  68.626  1.00  0.00    -0.173 A  
HETATM   14  O   UNL     1      -9.708   3.637  70.459  1.00  0.00    -0.186 OA 
HETATM   15  C   UNL     1     -10.836   5.755  70.409  1.00  0.00    -0.360 A  
HETATM   16  C   UNL     1      -9.600   6.290  67.970  1.00  0.00    -0.115 A  
HETATM   17  H   UNL     1      -9.119   3.000  70.070  1.00  0.00     0.000 HD 
ENDBRANCH   7  10
ENDBRANCH   5   7
ENDBRANCH   3   5
ENDBRANCH   2   3
BRANCH   2  18
HETATM   18  C   UNL     1      -8.601  13.011  67.446  1.00  0.00    -0.199 C  
BRANCH  18  19
HETATM   19  C   UNL     1      -9.769  13.953  67.763  1.00  0.00    -0.225 C  
BRANCH  19  20
HETATM   20  C   UNL     1     -10.605  14.139  66.515  1.00  0.00    -0.282 A  
HETATM   21  C   UNL     1     -10.413  15.260  65.695  1.00  0.00    -0.377 A  
HETATM   22  C   UNL     1     -11.260  15.496  64.610  1.00  0.00    -0.381 A  
HETATM   23  C   UNL     1     -12.496  13.490  65.135  1.00  0.00    -0.495 A  
HETATM   24  C   UNL     1     -11.650  13.253  66.220  1.00  0.00    -0.384 A  
HETATM   25  C   UNL     1     -12.304  14.615  64.334  1.00  0.00    -0.420 A  
ENDBRANCH  19  20
ENDBRANCH  18  19
ENDBRANCH   2  18
TORSDOF 7
ENDMDL
MODEL      230
REMARK 921   NORMALIZED FREE ENERGY PREDICTED BY IDOCK:   -3.51 KCAL/MOL
REMARK 922        TOTAL FREE ENERGY PREDICTED BY IDOCK:   -6.58 KCAL/MOL
REMARK 923 INTER-LIGAND FREE ENERGY PREDICTED BY IDOCK:   -6.40 KCAL/MOL
REMARK 924 INTRA-LIGAND FREE ENERGY PREDICTED BY IDOCK:   -0.18 KCAL/MOL
REMARK 927      BINDING AFFINITY PREDICTED BY RF-SCORE:    0.00 PKD
ROOT
HETATM    1  C   UNL     1     -10.843   7.422  70.408  1.00  0.00    -0.258 C  
HETATM    2  C   UNL     1     -10.739   8.566  69.388  1.00  0.00    -0.156 C  
ENDROOT
BRANCH   2   3
HETATM    3  N   UNL     1      -9.594   8.409  68.476  1.00  0.00    -0.147 NA 
HETATM    4  H   UNL     1      -8.724   8.407  69.008  1.00  0.00     0.000 HD 
BRANCH   3   5
HETATM    5  C   UNL     1      -9.641   7.225  67.576  1.00  0.00    -0.141 C  
HETATM    6  C   UNL     1     -11.069   6.963  67.084  1.00  0.00    -0.362 C  
BRANCH   5   7
HETATM    7  C   UNL     1      -8.677   7.447  66.358  1.00  0.00    -0.142 C  
HETATM    8  H   UNL     1      -8.211   6.452  64.743  1.00  0.00     0.000 HD 
HETATM    9  O   UNL     1      -8.795   6.318  65.481  1.00  0.00    -0.127 OA 
BRANCH   7  10
HETATM   10  C   UNL     1      -8.892   8.726  65.555  1.00  0.00    -0.229 A  
HETATM   11  C   UNL     1      -8.015   9.132  64.532  1.00  0.00    -0.127 A  
HETATM   12  C   UNL     1      -9.360  11.080  64.088  1.00  0.00    -0.210 A  
HETATM   13  C   UNL     1     -10.261  10.689  65.065  1.00  0.00    -0.380 A  
HETATM   14  O   UNL     1      -9.609  12.239  63.412  1.00  0.00    -0.663 OA 
HETATM   15  C   UNL     1      -8.240  10.308  63.809  1.00  0.00    -0.153 A  
HETATM   16  C   UNL     1     -10.033   9.516  65.788  1.00  0.00    -0.316 A  
HETATM   17  H   UNL     1     -10.376  12.767  63.603  1.00  0.00     0.000 HD 
ENDBRANCH   7  10
ENDBRANCH   5   7
ENDBRANCH   3   5
ENDBRANCH   2   3
BRANCH   2  18
HETATM   18  C   UNL     1     -10.598   9.879  70.184  1.00  0.00    -0.350 C  
BRANCH  18  19
HETATM   19  C   UNL     1     -11.901  10.654  70.414  1.00  0.00    -0.441 C  
BRANCH  19  20
HETATM   20  C   UNL     1     -11.859  11.938  69.614  1.00  0.00    -0.406 A  
HETATM   21  C   UNL     1     -11.919  13.180  70.263  1.00  0.00    -0.366 A  
HETATM   22  C   UNL     1     -12.000  14.361  69.524  1.00  0.00    -0.376 A  
HETATM   23  C   UNL     1     -11.948  13.086  67.475  1.00  0.00    -0.360 A  
HETATM   24  C   UNL     1     -11.867  11.903  68.213  1.00  0.00    -0.343 A  
HETATM   25  C   UNL     1     -12.020  14.314  68.131  1.00  0.00    -0.343 A  
ENDBRANCH  19  20
ENDBRANCH  18  19
ENDBRANCH   2  18
TORSDOF 7
ENDMDL
MODEL      231
REMARK 921   NORMALIZED FREE ENERGY PREDICTED BY IDOCK:   -3.46 KCAL/MOL
REMARK 922        TOTAL FREE ENERGY PREDICTED BY IDOCK:   -6.51 KCAL/MOL
REMARK 923 INTER-LIGAND FREE ENERGY PREDICTED BY IDOCK:   -5.63 KCAL/MOL
REMARK 924 INTRA-LIGAND FREE ENERGY PREDICTED BY IDOCK:   -0.87 KCAL/MOL
REMARK 927      BINDING AFFINITY PREDICTED BY RF-SCORE:    0.00 PKD
ROOT
HETATM    1  C   UNL     1     -11.200   6.441  69.220  1.00  0.00    -0.440 C  
HETATM    2  C   UNL     1     -10.257   7.485  68.605  1.00  0.00    -0.197 C  
ENDROOT
BRANCH   2   3
HETATM    3  N   UNL     1     -10.936   8.360  67.637  1.00  0.00    -0.483 NA 
HETATM    4  H   UNL     1     -11.926   8.433  67.869  1.00  0.00     0.000 HD 
BRANCH   3   5
HETATM    5  C   UNL     1     -10.352   9.720  67.473  1.00  0.00    -0.237 C  
HETATM    6  C   UNL     1      -9.997   9.994  66.007  1.00  0.00    -0.334 C  
BRANCH   5   7
HETATM    7  C   UNL     1     -11.364  10.798  67.999  1.00  0.00    -0.307 C  
HETATM    8  H   UNL     1     -11.975  11.406  69.751  1.00  0.00     0.000 HD 
HETATM    9  O   UNL     1     -11.362  10.754  69.432  1.00  0.00    -0.240 OA 
BRANCH   7  10
HETATM   10  C   UNL     1     -11.116  12.232  67.544  1.00  0.00    -0.326 A  
HETATM   11  C   UNL     1     -10.015  12.986  67.989  1.00  0.00    -0.233 A  
HETATM   12  C   UNL     1     -10.696  14.863  66.641  1.00  0.00    -0.312 A  
HETATM   13  C   UNL     1     -11.770  14.135  66.158  1.00  0.00    -0.402 A  
HETATM   14  O   UNL     1     -10.537  16.144  66.198  1.00  0.00    -0.313 OA 
HETATM   15  C   UNL     1      -9.811  14.299  67.551  1.00  0.00    -0.231 A  
HETATM   16  C   UNL     1     -11.975  12.825  66.599  1.00  0.00    -0.411 A  
HETATM   17  H   UNL     1     -11.143  16.530  65.576  1.00  0.00     0.000 HD 
ENDBRANCH   7  10
ENDBRANCH   5   7
ENDBRANCH   3   5
ENDBRANCH   2   3
BRANCH   2  18
HETATM   18  C   UNL     1      -9.116   6.717  67.906  1.00  0.00    -0.114 C  
BRANCH  18  19
HETATM   19  C   UNL     1      -9.368   6.354  66.439  1.00  0.00    -0.176 C  
BRANCH  19  20
HETATM   20  C   UNL     1      -9.327   4.848  66.288  1.00  0.00    -0.149 A  
HETATM   21  C   UNL     1      -8.973   4.037  67.376  1.00  0.00    -0.146 A  
HETATM   22  C   UNL     1      -8.820   2.659  67.210  1.00  0.00    -0.161 A  
HETATM   23  C   UNL     1      -9.384   2.875  64.874  1.00  0.00    -0.142 A  
HETATM   24  C   UNL     1      -9.538   4.253  65.037  1.00  0.00    -0.179 A  
HETATM   25  C   UNL     1      -9.020   2.080  65.959  1.00  0.00    -0.099 A  
ENDBRANCH  19  20
ENDBRANCH  18  19
ENDBRANCH   2  18
TORSDOF 7
ENDMDL
MODEL      232
REMARK 921   NORMALIZED FREE ENERGY PREDICTED BY IDOCK:   -3.46 KCAL/MOL
REMARK 922        TOTAL FREE ENERGY PREDICTED BY IDOCK:   -6.51 KCAL/MOL
REMARK 923 INTER-LIGAND FREE ENERGY PREDICTED BY IDOCK:   -5.12 KCAL/MOL
REMARK 924 INTRA-LIGAND FREE ENERGY PREDICTED BY IDOCK:   -1.38 KCAL/MOL
REMARK 927      BINDING AFFINITY PREDICTED BY RF-SCORE:    0.00 PKD
ROOT
HETATM    1  C   UNL     1     -11.903  12.039  64.592  1.00  0.00    -0.342 C  
HETATM    2  C   UNL     1     -10.987  12.595  65.692  1.00  0.00    -0.280 C  
ENDROOT
BRANCH   2   3
HETATM    3  N   UNL     1      -9.661  11.958  65.700  1.00  0.00    -0.292 NA 
HETATM    4  H   UNL     1      -8.993  12.550  66.194  1.00  0.00     0.000 HD 
BRANCH   3   5
HETATM    5  C   UNL     1      -9.611  10.574  66.247  1.00  0.00    -0.187 C  
HETATM    6  C   UNL     1      -9.111   9.582  65.191  1.00  0.00    -0.281 C  
BRANCH   5   7
HETATM    7  C   UNL     1      -8.684  10.537  67.512  1.00  0.00    -0.125 C  
HETATM    8  H   UNL     1      -7.667  11.850  68.539  1.00  0.00     0.000 HD 
HETATM    9  O   UNL     1      -8.229  11.872  67.773  1.00  0.00    -0.132 OA 
BRANCH   7  10
HETATM   10  C   UNL     1      -9.302   9.964  68.783  1.00  0.00    -0.157 A  
HETATM   11  C   UNL     1     -10.296  10.643  69.513  1.00  0.00    -0.214 A  
HETATM   12  C   UNL     1     -10.427   8.839  71.103  1.00  0.00    -0.245 A  
HETATM   13  C   UNL     1      -9.475   8.130  70.388  1.00  0.00    -0.163 A  
HETATM   14  O   UNL     1     -10.933   8.270  72.235  1.00  0.00    -0.298 OA 
HETATM   15  C   UNL     1     -10.848  10.090  70.673  1.00  0.00    -0.367 A  
HETATM   16  C   UNL     1      -8.922   8.686  69.231  1.00  0.00    -0.145 A  
HETATM   17  H   UNL     1     -10.645   7.414  72.530  1.00  0.00     0.000 HD 
ENDBRANCH   7  10
ENDBRANCH   5   7
ENDBRANCH   3   5
ENDBRANCH   2   3
BRANCH   2  18
HETATM   18  C   UNL     1     -11.692  12.355  67.042  1.00  0.00    -0.423 C  
BRANCH  18  19
HETATM   19  C   UNL     1     -12.514  13.534  67.576  1.00  0.00     0.140 C  
BRANCH  19  20
HETATM   20  C   UNL     1     -11.825  14.102  68.798  1.00  0.00    -0.384 A  
HETATM   21  C   UNL     1     -12.330  13.845  70.081  1.00  0.00    -0.400 A  
HETATM   22  C   UNL     1     -11.768  14.462  71.199  1.00  0.00    -0.225 A  
HETATM   23  C   UNL     1     -10.178  15.594  69.779  1.00  0.00    -0.303 A  
HETATM   24  C   UNL     1     -10.739  14.977  68.659  1.00  0.00    -0.244 A  
HETATM   25  C   UNL     1     -10.697  15.341  71.048  1.00  0.00    -0.058 A  
ENDBRANCH  19  20
ENDBRANCH  18  19
ENDBRANCH   2  18
TORSDOF 7
ENDMDL
MODEL      233
REMARK 921   NORMALIZED FREE ENERGY PREDICTED BY IDOCK:   -3.46 KCAL/MOL
REMARK 922        TOTAL FREE ENERGY PREDICTED BY IDOCK:   -6.50 KCAL/MOL
REMARK 923 INTER-LIGAND FREE ENERGY PREDICTED BY IDOCK:   -5.69 KCAL/MOL
REMARK 924 INTRA-LIGAND FREE ENERGY PREDICTED BY IDOCK:   -0.81 KCAL/MOL
REMARK 927      BINDING AFFINITY PREDICTED BY RF-SCORE:    0.00 PKD
ROOT
HETATM    1  C   UNL     1     -10.567   5.891  66.923  1.00  0.00    -0.384 C  
HETATM    2  C   UNL     1     -10.078   7.075  67.770  1.00  0.00    -0.165 C  
ENDROOT
BRANCH   2   3
HETATM    3  N   UNL     1     -11.160   7.698  68.549  1.00  0.00    -0.403 NA 
HETATM    4  H   UNL     1     -12.052   7.261  68.317  1.00  0.00     0.000 HD 
BRANCH   3   5
HETATM    5  C   UNL     1     -10.970   7.709  70.025  1.00  0.00    -0.228 C  
HETATM    6  C   UNL     1     -12.127   6.997  70.735  1.00  0.00    -0.374 C  
BRANCH   5   7
HETATM    7  C   UNL     1      -9.605   7.026  70.389  1.00  0.00    -0.169 C  
HETATM    8  H   UNL     1      -8.003   7.541  71.379  1.00  0.00     0.000 HD 
HETATM    9  O   UNL     1      -8.830   7.955  71.159  1.00  0.00    -0.132 OA 
BRANCH   7  10
HETATM   10  C   UNL     1      -9.695   5.704  71.145  1.00  0.00    -0.218 A  
HETATM   11  C   UNL     1      -9.654   4.457  70.495  1.00  0.00    -0.269 A  
HETATM   12  C   UNL     1      -9.832   3.301  72.601  1.00  0.00    -0.143 A  
HETATM   13  C   UNL     1      -9.840   4.512  73.273  1.00  0.00    -0.167 A  
HETATM   14  O   UNL     1      -9.922   2.157  73.339  1.00  0.00    -0.093 OA 
HETATM   15  C   UNL     1      -9.734   3.261  71.216  1.00  0.00    -0.222 A  
HETATM   16  C   UNL     1      -9.763   5.706  72.551  1.00  0.00    -0.171 A  
HETATM   17  H   UNL     1      -9.990   2.184  74.287  1.00  0.00     0.000 HD 
ENDBRANCH   7  10
ENDBRANCH   5   7
ENDBRANCH   3   5
ENDBRANCH   2   3
BRANCH   2  18
HETATM   18  C   UNL     1      -9.467   8.110  66.802  1.00  0.00    -0.256 C  
BRANCH  18  19
HETATM   19  C   UNL     1     -10.120   9.497  66.822  1.00  0.00    -0.312 C  
BRANCH  19  20
HETATM   20  C   UNL     1      -9.951  10.141  65.463  1.00  0.00    -0.363 A  
HETATM   21  C   UNL     1     -10.745  11.237  65.095  1.00  0.00    -0.312 A  
HETATM   22  C   UNL     1     -10.675  11.758  63.802  1.00  0.00    -0.480 A  
HETATM   23  C   UNL     1      -9.009  10.111  63.224  1.00  0.00    -0.262 A  
HETATM   24  C   UNL     1      -9.077   9.588  64.517  1.00  0.00    -0.250 A  
HETATM   25  C   UNL     1      -9.812  11.192  62.866  1.00  0.00    -0.323 A  
ENDBRANCH  19  20
ENDBRANCH  18  19
ENDBRANCH   2  18
TORSDOF 7
ENDMDL
MODEL      234
REMARK 921   NORMALIZED FREE ENERGY PREDICTED BY IDOCK:   -3.46 KCAL/MOL
REMARK 922        TOTAL FREE ENERGY PREDICTED BY IDOCK:   -6.50 KCAL/MOL
REMARK 923 INTER-LIGAND FREE ENERGY PREDICTED BY IDOCK:   -4.88 KCAL/MOL
REMARK 924 INTRA-LIGAND FREE ENERGY PREDICTED BY IDOCK:   -1.62 KCAL/MOL
REMARK 927      BINDING AFFINITY PREDICTED BY RF-SCORE:    0.00 PKD
ROOT
HETATM    1  C   UNL     1      -7.446   5.469  67.937  1.00  0.00    -0.080 C  
HETATM    2  C   UNL     1      -7.350   6.259  69.251  1.00  0.00    -0.092 C  
ENDROOT
BRANCH   2   3
HETATM    3  N   UNL     1      -8.597   6.212  70.031  1.00  0.00    -0.135 NA 
HETATM    4  H   UNL     1      -9.354   5.845  69.455  1.00  0.00     0.000 HD 
BRANCH   3   5
HETATM    5  C   UNL     1      -8.529   5.464  71.316  1.00  0.00    -0.126 C  
HETATM    6  C   UNL     1      -7.082   5.102  71.668  1.00  0.00    -0.066 C  
BRANCH   5   7
HETATM    7  C   UNL     1      -9.170   6.322  72.463  1.00  0.00    -0.140 C  
HETATM    8  H   UNL     1      -8.558   7.738  73.659  1.00  0.00     0.000 HD 
HETATM    9  O   UNL     1      -8.170   7.219  72.965  1.00  0.00    -0.105 OA 
BRANCH   7  10
HETATM   10  C   UNL     1     -10.414   7.121  72.090  1.00  0.00    -0.231 A  
HETATM   11  C   UNL     1     -10.396   8.520  71.939  1.00  0.00    -0.378 A  
HETATM   12  C   UNL     1     -12.736   8.535  71.368  1.00  0.00    -0.271 A  
HETATM   13  C   UNL     1     -12.779   7.155  71.475  1.00  0.00    -0.433 A  
HETATM   14  O   UNL     1     -13.888   9.189  71.037  1.00  0.00    -0.582 OA 
HETATM   15  C   UNL     1     -11.553   9.226  71.591  1.00  0.00    -0.463 A  
HETATM   16  C   UNL     1     -11.623   6.452  71.826  1.00  0.00    -0.367 A  
HETATM   17  H   UNL     1     -14.698   8.716  70.885  1.00  0.00     0.000 HD 
ENDBRANCH   7  10
ENDBRANCH   5   7
ENDBRANCH   3   5
ENDBRANCH   2   3
BRANCH   2  18
HETATM   18  C   UNL     1      -7.016   7.719  68.885  1.00  0.00    -0.066 C  
BRANCH  18  19
HETATM   19  C   UNL     1      -8.052   8.762  69.321  1.00  0.00    -0.110 C  
BRANCH  19  20
HETATM   20  C   UNL     1      -8.805   9.249  68.101  1.00  0.00    -0.129 A  
HETATM   21  C   UNL     1      -8.167   9.314  66.854  1.00  0.00    -0.119 A  
HETATM   22  C   UNL     1      -8.822   9.872  65.754  1.00  0.00    -0.171 A  
HETATM   23  C   UNL     1     -10.765  10.296  67.121  1.00  0.00    -0.303 A  
HETATM   24  C   UNL     1     -10.113   9.738  68.222  1.00  0.00    -0.189 A  
HETATM   25  C   UNL     1     -10.117  10.368  65.889  1.00  0.00    -0.326 A  
ENDBRANCH  19  20
ENDBRANCH  18  19
ENDBRANCH   2  18
TORSDOF 7
ENDMDL
MODEL      235
REMARK 921   NORMALIZED FREE ENERGY PREDICTED BY IDOCK:   -3.45 KCAL/MOL
REMARK 922        TOTAL FREE ENERGY PREDICTED BY IDOCK:   -6.50 KCAL/MOL
REMARK 923 INTER-LIGAND FREE ENERGY PREDICTED BY IDOCK:   -6.00 KCAL/MOL
REMARK 924 INTRA-LIGAND FREE ENERGY PREDICTED BY IDOCK:   -0.50 KCAL/MOL
REMARK 927      BINDING AFFINITY PREDICTED BY RF-SCORE:    0.00 PKD
ROOT
HETATM    1  C   UNL     1     -10.360   7.571  67.395  1.00  0.00    -0.346 C  
HETATM    2  C   UNL     1     -10.132   8.858  68.202  1.00  0.00    -0.189 C  
ENDROOT
BRANCH   2   3
HETATM    3  N   UNL     1     -11.390   9.471  68.656  1.00  0.00    -0.464 NA 
HETATM    4  H   UNL     1     -12.185   8.951  68.284  1.00  0.00     0.000 HD 
BRANCH   3   5
HETATM    5  C   UNL     1     -11.536   9.636  70.128  1.00  0.00    -0.189 C  
HETATM    6  C   UNL     1     -10.169   9.812  70.800  1.00  0.00    -0.251 C  
BRANCH   5   7
HETATM    7  C   UNL     1     -12.455  10.870  70.434  1.00  0.00    -0.327 C  
HETATM    8  H   UNL     1     -13.162  11.723  72.042  1.00  0.00     0.000 HD 
HETATM    9  O   UNL     1     -12.605  10.976  71.857  1.00  0.00    -0.284 OA 
BRANCH   7  10
HETATM   10  C   UNL     1     -11.987  12.212  69.881  1.00  0.00    -0.380 A  
HETATM   11  C   UNL     1     -12.734  13.395  70.034  1.00  0.00     0.045 A  
HETATM   12  C   UNL     1     -11.051  14.664  68.867  1.00  0.00    -0.254 A  
HETATM   13  C   UNL     1     -10.276  13.524  68.731  1.00  0.00    -0.139 A  
HETATM   14  O   UNL     1     -10.574  15.830  68.343  1.00  0.00    -0.247 OA 
HETATM   15  C   UNL     1     -12.276  14.613  69.520  1.00  0.00    -0.297 A  
HETATM   16  C   UNL     1     -10.737  12.308  69.242  1.00  0.00    -0.011 A  
HETATM   17  H   UNL     1      -9.737  15.865  67.896  1.00  0.00     0.000 HD 
ENDBRANCH   7  10
ENDBRANCH   5   7
ENDBRANCH   3   5
ENDBRANCH   2   3
BRANCH   2  18
HETATM   18  C   UNL     1      -9.369   9.841  67.291  1.00  0.00    -0.161 C  
BRANCH  18  19
HETATM   19  C   UNL     1      -9.528   9.604  65.785  1.00  0.00    -0.308 C  
BRANCH  19  20
HETATM   20  C   UNL     1     -10.145  10.834  65.154  1.00  0.00    -0.363 A  
HETATM   21  C   UNL     1     -11.123  11.568  65.840  1.00  0.00    -0.274 A  
HETATM   22  C   UNL     1     -11.777  12.632  65.215  1.00  0.00    -0.417 A  
HETATM   23  C   UNL     1     -10.480  12.258  63.214  1.00  0.00    -0.296 A  
HETATM   24  C   UNL     1      -9.824  11.194  63.838  1.00  0.00    -0.354 A  
HETATM   25  C   UNL     1     -11.460  12.972  63.901  1.00  0.00    -0.490 A  
ENDBRANCH  19  20
ENDBRANCH  18  19
ENDBRANCH   2  18
TORSDOF 7
ENDMDL
MODEL      236
REMARK 921   NORMALIZED FREE ENERGY PREDICTED BY IDOCK:   -3.42 KCAL/MOL
REMARK 922        TOTAL FREE ENERGY PREDICTED BY IDOCK:   -6.46 KCAL/MOL
REMARK 923 INTER-LIGAND FREE ENERGY PREDICTED BY IDOCK:   -5.55 KCAL/MOL
REMARK 924 INTRA-LIGAND FREE ENERGY PREDICTED BY IDOCK:   -0.90 KCAL/MOL
REMARK 927      BINDING AFFINITY PREDICTED BY RF-SCORE:    0.00 PKD
ROOT
HETATM    1  C   UNL     1      -9.566   9.057  68.470  1.00  0.00    -0.161 C  
HETATM    2  C   UNL     1     -10.471  10.025  69.246  1.00  0.00    -0.225 C  
ENDROOT
BRANCH   2   3
HETATM    3  N   UNL     1     -11.599   9.345  69.900  1.00  0.00    -0.443 NA 
HETATM    4  H   UNL     1     -11.813   8.476  69.410  1.00  0.00     0.000 HD 
BRANCH   3   5
HETATM    5  C   UNL     1     -11.440   9.080  71.356  1.00  0.00    -0.330 C  
HETATM    6  C   UNL     1     -12.427   9.914  72.179  1.00  0.00    -0.239 C  
BRANCH   5   7
HETATM    7  C   UNL     1     -11.648   7.551  71.641  1.00  0.00    -0.268 C  
HETATM    8  H   UNL     1     -13.014   6.222  71.216  1.00  0.00     0.000 HD 
HETATM    9  O   UNL     1     -12.888   7.148  71.042  1.00  0.00    -0.341 OA 
BRANCH   7  10
HETATM   10  C   UNL     1     -10.538   6.620  71.164  1.00  0.00    -0.263 A  
HETATM   11  C   UNL     1     -10.572   5.985  69.909  1.00  0.00    -0.345 A  
HETATM   12  C   UNL     1      -8.443   4.940  70.328  1.00  0.00    -0.091 A  
HETATM   13  C   UNL     1      -8.364   5.577  71.555  1.00  0.00    -0.123 A  
HETATM   14  O   UNL     1      -7.418   4.115  69.966  1.00  0.00    -0.045 OA 
HETATM   15  C   UNL     1      -9.537   5.140  69.496  1.00  0.00    -0.226 A  
HETATM   16  C   UNL     1      -9.400   6.419  71.967  1.00  0.00    -0.151 A  
HETATM   17  H   UNL     1      -6.670   3.978  70.535  1.00  0.00     0.000 HD 
ENDBRANCH   7  10
ENDBRANCH   5   7
ENDBRANCH   3   5
ENDBRANCH   2   3
BRANCH   2  18
HETATM   18  C   UNL     1     -11.000  11.066  68.237  1.00  0.00    -0.287 C  
BRANCH  18  19
HETATM   19  C   UNL     1     -10.840  12.532  68.658  1.00  0.00    -0.280 C  
BRANCH  19  20
HETATM   20  C   UNL     1     -10.899  13.408  67.425  1.00  0.00    -0.279 A  
HETATM   21  C   UNL     1     -11.086  14.792  67.548  1.00  0.00    -0.323 A  
HETATM   22  C   UNL     1     -11.258  15.586  66.412  1.00  0.00    -0.098 A  
HETATM   23  C   UNL     1     -11.046  13.633  65.011  1.00  0.00    -0.338 A  
HETATM   24  C   UNL     1     -10.874  12.837  66.145  1.00  0.00    -0.303 A  
HETATM   25  C   UNL     1     -11.244  15.006  65.145  1.00  0.00    -0.391 A  
ENDBRANCH  19  20
ENDBRANCH  18  19
ENDBRANCH   2  18
TORSDOF 7
ENDMDL
MODEL      237
REMARK 921   NORMALIZED FREE ENERGY PREDICTED BY IDOCK:   -3.42 KCAL/MOL
REMARK 922        TOTAL FREE ENERGY PREDICTED BY IDOCK:   -6.46 KCAL/MOL
REMARK 923 INTER-LIGAND FREE ENERGY PREDICTED BY IDOCK:   -5.79 KCAL/MOL
REMARK 924 INTRA-LIGAND FREE ENERGY PREDICTED BY IDOCK:   -0.66 KCAL/MOL
REMARK 927      BINDING AFFINITY PREDICTED BY RF-SCORE:    0.00 PKD
ROOT
HETATM    1  C   UNL     1      -8.723   7.417  66.129  1.00  0.00    -0.172 C  
HETATM    2  C   UNL     1      -8.708   8.080  67.514  1.00  0.00    -0.125 C  
ENDROOT
BRANCH   2   3
HETATM    3  N   UNL     1      -8.991   7.129  68.600  1.00  0.00    -0.132 NA 
HETATM    4  H   UNL     1      -8.166   7.019  69.190  1.00  0.00     0.000 HD 
BRANCH   3   5
HETATM    5  C   UNL     1     -10.178   7.442  69.442  1.00  0.00    -0.201 C  
HETATM    6  C   UNL     1     -11.316   6.449  69.182  1.00  0.00    -0.366 C  
BRANCH   5   7
HETATM    7  C   UNL     1      -9.773   7.421  70.958  1.00  0.00    -0.164 C  
HETATM    8  H   UNL     1     -10.153   8.525  72.523  1.00  0.00     0.000 HD 
HETATM    9  O   UNL     1     -10.399   8.538  71.605  1.00  0.00    -0.217 OA 
BRANCH   7  10
HETATM   10  C   UNL     1     -10.108   6.147  71.726  1.00  0.00    -0.214 A  
HETATM   11  C   UNL     1     -11.217   6.055  72.588  1.00  0.00    -0.326 A  
HETATM   12  C   UNL     1     -10.693   3.758  73.091  1.00  0.00    -0.176 A  
HETATM   13  C   UNL     1      -9.615   3.807  72.223  1.00  0.00    -0.205 A  
HETATM   14  O   UNL     1     -10.932   2.588  73.752  1.00  0.00    -0.179 OA 
HETATM   15  C   UNL     1     -11.503   4.871  73.277  1.00  0.00    -0.359 A  
HETATM   16  C   UNL     1      -9.329   4.991  71.539  1.00  0.00    -0.191 A  
HETATM   17  H   UNL     1     -10.378   1.827  73.625  1.00  0.00     0.000 HD 
ENDBRANCH   7  10
ENDBRANCH   5   7
ENDBRANCH   3   5
ENDBRANCH   2   3
BRANCH   2  18
HETATM   18  C   UNL     1      -9.776   9.194  67.501  1.00  0.00    -0.204 C  
BRANCH  18  19
HETATM   19  C   UNL     1      -9.942   9.932  66.168  1.00  0.00    -0.331 C  
BRANCH  19  20
HETATM   20  C   UNL     1     -10.783  11.171  66.392  1.00  0.00    -0.303 A  
HETATM   21  C   UNL     1     -11.119  12.002  65.314  1.00  0.00    -0.367 A  
HETATM   22  C   UNL     1     -11.793  13.206  65.533  1.00  0.00    -0.420 A  
HETATM   23  C   UNL     1     -11.817  12.764  67.905  1.00  0.00    -0.392 A  
HETATM   24  C   UNL     1     -11.144  11.560  67.689  1.00  0.00    -0.324 A  
HETATM   25  C   UNL     1     -12.136  13.589  66.828  1.00  0.00    -0.425 A  
ENDBRANCH  19  20
ENDBRANCH  18  19
ENDBRANCH   2  18
TORSDOF 7
ENDMDL
MODEL      238
REMARK 921   NORMALIZED FREE ENERGY PREDICTED BY IDOCK:   -3.39 KCAL/MOL
REMARK 922        TOTAL FREE ENERGY PREDICTED BY IDOCK:   -6.41 KCAL/MOL
REMARK 923 INTER-LIGAND FREE ENERGY PREDICTED BY IDOCK:   -5.24 KCAL/MOL
REMARK 924 INTRA-LIGAND FREE ENERGY PREDICTED BY IDOCK:   -1.16 KCAL/MOL
REMARK 927      BINDING AFFINITY PREDICTED BY RF-SCORE:    0.00 PKD
ROOT
HETATM    1  C   UNL     1     -10.530  11.225  66.648  1.00  0.00    -0.292 C  
HETATM    2  C   UNL     1      -9.643  10.695  67.784  1.00  0.00    -0.157 C  
ENDROOT
BRANCH   2   3
HETATM    3  N   UNL     1      -9.764   9.240  67.965  1.00  0.00    -0.147 NA 
HETATM    4  H   UNL     1     -10.749   8.972  67.978  1.00  0.00     0.000 HD 
BRANCH   3   5
HETATM    5  C   UNL     1      -9.023   8.401  66.985  1.00  0.00    -0.142 C  
HETATM    6  C   UNL     1      -7.581   8.159  67.446  1.00  0.00    -0.101 C  
BRANCH   5   7
HETATM    7  C   UNL     1      -9.768   7.034  66.788  1.00  0.00    -0.184 C  
HETATM    8  H   UNL     1      -9.593   5.507  65.583  1.00  0.00     0.000 HD 
HETATM    9  O   UNL     1      -9.142   6.335  65.703  1.00  0.00    -0.090 OA 
BRANCH   7  10
HETATM   10  C   UNL     1      -9.824   6.117  68.005  1.00  0.00    -0.134 A  
HETATM   11  C   UNL     1     -10.524   6.458  69.177  1.00  0.00    -0.274 A  
HETATM   12  C   UNL     1      -9.918   4.366  70.205  1.00  0.00    -0.177 A  
HETATM   13  C   UNL     1      -9.249   3.986  69.053  1.00  0.00    -0.215 A  
HETATM   14  O   UNL     1      -9.922   3.500  71.260  1.00  0.00    -0.166 OA 
HETATM   15  C   UNL     1     -10.562   5.594  70.277  1.00  0.00    -0.370 A  
HETATM   16  C   UNL     1      -9.209   4.852  67.957  1.00  0.00    -0.147 A  
HETATM   17  H   UNL     1      -9.481   2.660  71.211  1.00  0.00     0.000 HD 
ENDBRANCH   7  10
ENDBRANCH   5   7
ENDBRANCH   3   5
ENDBRANCH   2   3
BRANCH   2  18
HETATM   18  C   UNL     1     -10.069  11.422  69.076  1.00  0.00    -0.110 C  
BRANCH  18  19
HETATM   19  C   UNL     1     -11.575  11.432  69.361  1.00  0.00    -0.391 C  
BRANCH  19  20
HETATM   20  C   UNL     1     -11.894  10.345  70.364  1.00  0.00    -0.418 A  
HETATM   21  C   UNL     1     -13.225   9.977  70.612  1.00  0.00    -0.174 A  
HETATM   22  C   UNL     1     -13.530   9.060  71.619  1.00  0.00    -0.442 A  
HETATM   23  C   UNL     1     -11.183   8.851  72.142  1.00  0.00    -0.362 A  
HETATM   24  C   UNL     1     -10.876   9.767  71.135  1.00  0.00    -0.333 A  
HETATM   25  C   UNL     1     -12.510   8.502  72.388  1.00  0.00    -0.416 A  
ENDBRANCH  19  20
ENDBRANCH  18  19
ENDBRANCH   2  18
TORSDOF 7
ENDMDL
MODEL      239
REMARK 921   NORMALIZED FREE ENERGY PREDICTED BY IDOCK:   -3.38 KCAL/MOL
REMARK 922        TOTAL FREE ENERGY PREDICTED BY IDOCK:   -6.40 KCAL/MOL
REMARK 923 INTER-LIGAND FREE ENERGY PREDICTED BY IDOCK:   -5.71 KCAL/MOL
REMARK 924 INTRA-LIGAND FREE ENERGY PREDICTED BY IDOCK:   -0.69 KCAL/MOL
REMARK 927      BINDING AFFINITY PREDICTED BY RF-SCORE:    0.00 PKD
ROOT
HETATM    1  C   UNL     1     -13.193   8.275  71.846  1.00  0.00    -0.366 C  
HETATM    2  C   UNL     1     -12.256   9.096  70.948  1.00  0.00    -0.183 C  
ENDROOT
BRANCH   2   3
HETATM    3  N   UNL     1     -10.939   8.462  70.775  1.00  0.00    -0.242 NA 
HETATM    4  H   UNL     1     -10.970   7.499  71.110  1.00  0.00     0.000 HD 
BRANCH   3   5
HETATM    5  C   UNL     1     -10.378   8.501  69.396  1.00  0.00    -0.215 C  
HETATM    6  C   UNL     1      -9.697   9.845  69.117  1.00  0.00    -0.204 C  
BRANCH   5   7
HETATM    7  C   UNL     1      -9.358   7.324  69.207  1.00  0.00    -0.154 C  
HETATM    8  H   UNL     1      -9.467   5.375  69.145  1.00  0.00     0.000 HD 
HETATM    9  O   UNL     1     -10.084   6.088  69.260  1.00  0.00    -0.162 OA 
BRANCH   7  10
HETATM   10  C   UNL     1      -8.523   7.356  67.931  1.00  0.00    -0.122 A  
HETATM   11  C   UNL     1      -7.120   7.458  67.948  1.00  0.00    -0.085 A  
HETATM   12  C   UNL     1      -7.037   7.378  65.542  1.00  0.00    -0.061 A  
HETATM   13  C   UNL     1      -8.415   7.243  65.492  1.00  0.00    -0.119 A  
HETATM   14  O   UNL     1      -6.352   7.407  64.362  1.00  0.00    -0.040 OA 
HETATM   15  C   UNL     1      -6.380   7.481  66.761  1.00  0.00    -0.049 A  
HETATM   16  C   UNL     1      -9.152   7.224  66.679  1.00  0.00    -0.181 A  
HETATM   17  H   UNL     1      -6.802   7.338  63.528  1.00  0.00     0.000 HD 
ENDBRANCH   7  10
ENDBRANCH   5   7
ENDBRANCH   3   5
ENDBRANCH   2   3
BRANCH   2  18
HETATM   18  C   UNL     1     -12.088  10.481  71.605  1.00  0.00    -0.197 C  
BRANCH  18  19
HETATM   19  C   UNL     1     -13.387  11.261  71.840  1.00  0.00    -0.413 C  
BRANCH  19  20
HETATM   20  C   UNL     1     -13.136  12.730  71.574  1.00  0.00    -0.380 A  
HETATM   21  C   UNL     1     -13.751  13.709  72.367  1.00  0.00    -0.697 A  
HETATM   22  C   UNL     1     -13.616  15.062  72.051  1.00  0.00    -0.522 A  
HETATM   23  C   UNL     1     -12.240  14.485  70.155  1.00  0.00    -0.399 A  
HETATM   24  C   UNL     1     -12.373  13.132  70.469  1.00  0.00    -0.380 A  
HETATM   25  C   UNL     1     -12.866  15.450  70.943  1.00  0.00    -0.536 A  
ENDBRANCH  19  20
ENDBRANCH  18  19
ENDBRANCH   2  18
TORSDOF 7
ENDMDL
MODEL      240
REMARK 921   NORMALIZED FREE ENERGY PREDICTED BY IDOCK:   -3.37 KCAL/MOL
REMARK 922        TOTAL FREE ENERGY PREDICTED BY IDOCK:   -6.39 KCAL/MOL
REMARK 923 INTER-LIGAND FREE ENERGY PREDICTED BY IDOCK:   -5.39 KCAL/MOL
REMARK 924 INTRA-LIGAND FREE ENERGY PREDICTED BY IDOCK:   -1.00 KCAL/MOL
REMARK 927      BINDING AFFINITY PREDICTED BY RF-SCORE:    0.00 PKD
ROOT
HETATM    1  C   UNL     1     -12.486  15.093  70.055  1.00  0.00    -0.316 C  
HETATM    2  C   UNL     1     -11.730  14.967  68.724  1.00  0.00    -0.334 C  
ENDROOT
BRANCH   2   3
HETATM    3  N   UNL     1     -11.070  13.661  68.570  1.00  0.00    -0.262 NA 
HETATM    4  H   UNL     1     -11.252  13.080  69.388  1.00  0.00     0.000 HD 
BRANCH   3   5
HETATM    5  C   UNL     1     -11.405  12.909  67.330  1.00  0.00    -0.310 C  
HETATM    6  C   UNL     1     -12.297  13.743  66.404  1.00  0.00    -0.460 C  
BRANCH   5   7
HETATM    7  C   UNL     1     -10.085  12.496  66.588  1.00  0.00    -0.230 C  
HETATM    8  H   UNL     1      -8.843  13.364  65.357  1.00  0.00     0.000 HD 
HETATM    9  O   UNL     1      -9.642  13.614  65.806  1.00  0.00    -0.191 OA 
BRANCH   7  10
HETATM   10  C   UNL     1      -8.938  12.020  67.472  1.00  0.00    -0.174 A  
HETATM   11  C   UNL     1      -9.046  10.895  68.310  1.00  0.00    -0.158 A  
HETATM   12  C   UNL     1      -6.772  11.172  69.055  1.00  0.00    -0.085 A  
HETATM   13  C   UNL     1      -6.623  12.263  68.214  1.00  0.00    -0.058 A  
HETATM   14  O   UNL     1      -5.707  10.804  69.824  1.00  0.00    -0.043 OA 
HETATM   15  C   UNL     1      -7.974  10.479  69.107  1.00  0.00    -0.145 A  
HETATM   16  C   UNL     1      -7.695  12.679  67.422  1.00  0.00    -0.161 A  
HETATM   17  H   UNL     1      -4.884  11.279  69.789  1.00  0.00     0.000 HD 
ENDBRANCH   7  10
ENDBRANCH   5   7
ENDBRANCH   3   5
ENDBRANCH   2   3
BRANCH   2  18
HETATM   18  C   UNL     1     -10.676  16.094  68.687  1.00  0.00    -0.295 C  
BRANCH  18  19
HETATM   19  C   UNL     1     -10.859  17.131  67.574  1.00  0.00    -0.203 C  
BRANCH  19  20
HETATM   20  C   UNL     1      -9.644  18.032  67.534  1.00  0.00    -0.273 A  
HETATM   21  C   UNL     1      -8.801  18.135  68.650  1.00  0.00    -0.277 A  
HETATM   22  C   UNL     1      -7.748  19.052  68.659  1.00  0.00    -0.378 A  
HETATM   23  C   UNL     1      -8.352  19.771  66.435  1.00  0.00    -0.378 A  
HETATM   24  C   UNL     1      -9.404  18.854  66.424  1.00  0.00    -0.343 A  
HETATM   25  C   UNL     1      -7.527  19.873  67.555  1.00  0.00    -0.314 A  
ENDBRANCH  19  20
ENDBRANCH  18  19
ENDBRANCH   2  18
TORSDOF 7
ENDMDL
MODEL      241
REMARK 921   NORMALIZED FREE ENERGY PREDICTED BY IDOCK:   -3.37 KCAL/MOL
REMARK 922        TOTAL FREE ENERGY PREDICTED BY IDOCK:   -6.38 KCAL/MOL
REMARK 923 INTER-LIGAND FREE ENERGY PREDICTED BY IDOCK:   -5.90 KCAL/MOL
REMARK 924 INTRA-LIGAND FREE ENERGY PREDICTED BY IDOCK:   -0.48 KCAL/MOL
REMARK 927      BINDING AFFINITY PREDICTED BY RF-SCORE:    0.00 PKD
ROOT
HETATM    1  C   UNL     1     -11.120   4.496  73.299  1.00  0.00    -0.389 C  
HETATM    2  C   UNL     1     -10.675   5.697  72.451  1.00  0.00    -0.237 C  
ENDROOT
BRANCH   2   3
HETATM    3  N   UNL     1      -9.396   5.461  71.762  1.00  0.00    -0.145 NA 
HETATM    4  H   UNL     1      -9.184   4.464  71.755  1.00  0.00     0.000 HD 
BRANCH   3   5
HETATM    5  C   UNL     1      -9.292   6.012  70.383  1.00  0.00    -0.160 C  
HETATM    6  C   UNL     1      -7.895   5.776  69.800  1.00  0.00    -0.095 C  
BRANCH   5   7
HETATM    7  C   UNL     1     -10.383   5.353  69.467  1.00  0.00    -0.280 C  
HETATM    8  H   UNL     1     -12.050   5.938  68.635  1.00  0.00     0.000 HD 
HETATM    9  O   UNL     1     -11.389   6.337  69.190  1.00  0.00    -0.395 OA 
BRANCH   7  10
HETATM   10  C   UNL     1      -9.888   4.763  68.151  1.00  0.00    -0.182 A  
HETATM   11  C   UNL     1      -9.917   5.482  66.942  1.00  0.00    -0.204 A  
HETATM   12  C   UNL     1      -8.930   3.629  65.761  1.00  0.00    -0.137 A  
HETATM   13  C   UNL     1      -8.856   2.907  66.942  1.00  0.00    -0.157 A  
HETATM   14  O   UNL     1      -8.476   3.037  64.618  1.00  0.00    -0.092 OA 
HETATM   15  C   UNL     1      -9.452   4.915  65.750  1.00  0.00    -0.172 A  
HETATM   16  C   UNL     1      -9.325   3.473  68.130  1.00  0.00    -0.236 A  
HETATM   17  H   UNL     1      -8.119   2.156  64.626  1.00  0.00     0.000 HD 
ENDBRANCH   7  10
ENDBRANCH   5   7
ENDBRANCH   3   5
ENDBRANCH   2   3
BRANCH   2  18
HETATM   18  C   UNL     1     -10.544   6.905  73.401  1.00  0.00    -0.372 C  
BRANCH  18  19
HETATM   19  C   UNL     1      -9.948   8.172  72.777  1.00  0.00    -0.361 C  
BRANCH  19  20
HETATM   20  C   UNL     1     -11.053   8.956  72.100  1.00  0.00    -0.355 A  
HETATM   21  C   UNL     1     -12.377   8.843  72.546  1.00  0.00    -0.325 A  
HETATM   22  C   UNL     1     -13.413   9.471  71.853  1.00  0.00    -0.502 A  
HETATM   23  C   UNL     1     -11.821  10.347  70.264  1.00  0.00    -0.399 A  
HETATM   24  C   UNL     1     -10.784   9.720  70.957  1.00  0.00    -0.342 A  
HETATM   25  C   UNL     1     -13.136  10.218  70.709  1.00  0.00    -0.360 A  
ENDBRANCH  19  20
ENDBRANCH  18  19
ENDBRANCH   2  18
TORSDOF 7
ENDMDL
MODEL      242
REMARK 921   NORMALIZED FREE ENERGY PREDICTED BY IDOCK:   -3.35 KCAL/MOL
REMARK 922        TOTAL FREE ENERGY PREDICTED BY IDOCK:   -6.35 KCAL/MOL
REMARK 923 INTER-LIGAND FREE ENERGY PREDICTED BY IDOCK:   -4.65 KCAL/MOL
REMARK 924 INTRA-LIGAND FREE ENERGY PREDICTED BY IDOCK:   -1.70 KCAL/MOL
REMARK 927      BINDING AFFINITY PREDICTED BY RF-SCORE:    0.00 PKD
ROOT
HETATM    1  C   UNL     1      -5.926   7.801  63.939  1.00  0.00    -0.057 C  
HETATM    2  C   UNL     1      -6.809   8.321  65.083  1.00  0.00    -0.069 C  
ENDROOT
BRANCH   2   3
HETATM    3  N   UNL     1      -6.841   9.791  65.150  1.00  0.00    -0.103 NA 
HETATM    4  H   UNL     1      -6.139  10.183  64.522  1.00  0.00     0.000 HD 
BRANCH   3   5
HETATM    5  C   UNL     1      -8.163  10.422  64.890  1.00  0.00    -0.145 C  
HETATM    6  C   UNL     1      -9.127   9.430  64.229  1.00  0.00    -0.159 C  
BRANCH   5   7
HETATM    7  C   UNL     1      -8.769  10.956  66.235  1.00  0.00    -0.171 C  
HETATM    8  H   UNL     1      -8.121  12.027  67.734  1.00  0.00     0.000 HD 
HETATM    9  O   UNL     1      -7.754  11.703  66.919  1.00  0.00    -0.154 OA 
BRANCH   7  10
HETATM   10  C   UNL     1     -10.024  11.815  66.114  1.00  0.00    -0.254 A  
HETATM   11  C   UNL     1     -10.918  12.001  67.184  1.00  0.00    -0.320 A  
HETATM   12  C   UNL     1     -12.304  13.439  65.837  1.00  0.00    -0.437 A  
HETATM   13  C   UNL     1     -11.424  13.303  64.775  1.00  0.00    -0.355 A  
HETATM   14  O   UNL     1     -13.410  14.217  65.658  1.00  0.00    -0.697 OA 
HETATM   15  C   UNL     1     -12.059  12.799  67.045  1.00  0.00    -0.252 A  
HETATM   16  C   UNL     1     -10.287  12.503  64.915  1.00  0.00    -0.323 A  
HETATM   17  H   UNL     1     -13.578  14.654  64.831  1.00  0.00     0.000 HD 
ENDBRANCH   7  10
ENDBRANCH   5   7
ENDBRANCH   3   5
ENDBRANCH   2   3
BRANCH   2  18
HETATM   18  C   UNL     1      -6.239   7.749  66.398  1.00  0.00    -0.045 C  
BRANCH  18  19
HETATM   19  C   UNL     1      -7.103   6.684  67.082  1.00  0.00    -0.076 C  
BRANCH  19  20
HETATM   20  C   UNL     1      -8.290   7.356  67.738  1.00  0.00    -0.118 A  
HETATM   21  C   UNL     1      -9.574   7.217  67.192  1.00  0.00    -0.191 A  
HETATM   22  C   UNL     1     -10.650   7.929  67.725  1.00  0.00    -0.244 A  
HETATM   23  C   UNL     1      -9.183   8.923  69.364  1.00  0.00    -0.146 A  
HETATM   24  C   UNL     1      -8.106   8.211  68.833  1.00  0.00    -0.116 A  
HETATM   25  C   UNL     1     -10.453   8.786  68.806  1.00  0.00    -0.214 A  
ENDBRANCH  19  20
ENDBRANCH  18  19
ENDBRANCH   2  18
TORSDOF 7
ENDMDL
MODEL      243
REMARK 921   NORMALIZED FREE ENERGY PREDICTED BY IDOCK:   -3.35 KCAL/MOL
REMARK 922        TOTAL FREE ENERGY PREDICTED BY IDOCK:   -6.35 KCAL/MOL
REMARK 923 INTER-LIGAND FREE ENERGY PREDICTED BY IDOCK:   -4.55 KCAL/MOL
REMARK 924 INTRA-LIGAND FREE ENERGY PREDICTED BY IDOCK:   -1.79 KCAL/MOL
REMARK 927      BINDING AFFINITY PREDICTED BY RF-SCORE:    0.00 PKD
ROOT
HETATM    1  C   UNL     1      -6.927   3.739  70.013  1.00  0.00    -0.041 C  
HETATM    2  C   UNL     1      -7.168   5.071  69.287  1.00  0.00    -0.057 C  
ENDROOT
BRANCH   2   3
HETATM    3  N   UNL     1      -6.472   6.198  69.927  1.00  0.00    -0.041 NA 
HETATM    4  H   UNL     1      -6.155   6.859  69.218  1.00  0.00     0.000 HD 
BRANCH   3   5
HETATM    5  C   UNL     1      -7.238   6.916  70.983  1.00  0.00    -0.076 C  
HETATM    6  C   UNL     1      -6.526   6.827  72.337  1.00  0.00    -0.058 C  
BRANCH   5   7
HETATM    7  C   UNL     1      -7.432   8.417  70.568  1.00  0.00    -0.065 C  
HETATM    8  H   UNL     1      -6.906   9.528  69.050  1.00  0.00     0.000 HD 
HETATM    9  O   UNL     1      -6.789   8.619  69.301  1.00  0.00    -0.049 OA 
BRANCH   7  10
HETATM   10  C   UNL     1      -8.872   8.909  70.479  1.00  0.00    -0.221 A  
HETATM   11  C   UNL     1      -9.447   9.351  69.273  1.00  0.00    -0.164 A  
HETATM   12  C   UNL     1     -11.547   9.775  70.374  1.00  0.00    -0.258 A  
HETATM   13  C   UNL     1     -11.021   9.314  71.569  1.00  0.00    -0.446 A  
HETATM   14  O   UNL     1     -12.841  10.207  70.366  1.00  0.00    -0.537 OA 
HETATM   15  C   UNL     1     -10.773   9.793  69.221  1.00  0.00    -0.246 A  
HETATM   16  C   UNL     1      -9.695   8.876  71.620  1.00  0.00    -0.379 A  
HETATM   17  H   UNL     1     -13.371  10.195  71.155  1.00  0.00     0.000 HD 
ENDBRANCH   7  10
ENDBRANCH   5   7
ENDBRANCH   3   5
ENDBRANCH   2   3
BRANCH   2  18
HETATM   18  C   UNL     1      -8.689   5.325  69.289  1.00  0.00    -0.108 C  
BRANCH  18  19
HETATM   19  C   UNL     1      -9.559   4.119  69.660  1.00  0.00    -0.277 C  
BRANCH  19  20
HETATM   20  C   UNL     1     -10.187   4.361  71.016  1.00  0.00    -0.121 A  
HETATM   21  C   UNL     1     -10.912   5.536  71.261  1.00  0.00    -0.198 A  
HETATM   22  C   UNL     1     -11.392   5.817  72.542  1.00  0.00    -0.358 A  
HETATM   23  C   UNL     1     -10.444   3.751  73.353  1.00  0.00    -0.257 A  
HETATM   24  C   UNL     1      -9.964   3.468  72.072  1.00  0.00    -0.227 A  
HETATM   25  C   UNL     1     -11.152   4.928  73.588  1.00  0.00    -0.370 A  
ENDBRANCH  19  20
ENDBRANCH  18  19
ENDBRANCH   2  18
TORSDOF 7
ENDMDL
MODEL      244
REMARK 921   NORMALIZED FREE ENERGY PREDICTED BY IDOCK:   -3.34 KCAL/MOL
REMARK 922        TOTAL FREE ENERGY PREDICTED BY IDOCK:   -6.34 KCAL/MOL
REMARK 923 INTER-LIGAND FREE ENERGY PREDICTED BY IDOCK:   -5.42 KCAL/MOL
REMARK 924 INTRA-LIGAND FREE ENERGY PREDICTED BY IDOCK:   -0.92 KCAL/MOL
REMARK 927      BINDING AFFINITY PREDICTED BY RF-SCORE:    0.00 PKD
ROOT
HETATM    1  C   UNL     1     -12.679   7.302  71.570  1.00  0.00    -0.422 C  
HETATM    2  C   UNL     1     -11.471   7.937  70.865  1.00  0.00    -0.281 C  
ENDROOT
BRANCH   2   3
HETATM    3  N   UNL     1     -10.242   7.144  71.024  1.00  0.00    -0.196 NA 
HETATM    4  H   UNL     1     -10.436   6.308  71.576  1.00  0.00     0.000 HD 
BRANCH   3   5
HETATM    5  C   UNL     1      -9.546   6.768  69.763  1.00  0.00    -0.150 C  
HETATM    6  C   UNL     1      -8.163   7.423  69.680  1.00  0.00    -0.130 C  
BRANCH   5   7
HETATM    7  C   UNL     1      -9.416   5.206  69.676  1.00  0.00    -0.143 C  
HETATM    8  H   UNL     1     -10.295   3.680  70.518  1.00  0.00     0.000 HD 
HETATM    9  O   UNL     1     -10.374   4.626  70.571  1.00  0.00    -0.185 OA 
BRANCH   7  10
HETATM   10  C   UNL     1      -9.592   4.593  68.291  1.00  0.00    -0.207 A  
HETATM   11  C   UNL     1     -10.308   5.237  67.265  1.00  0.00    -0.254 A  
HETATM   12  C   UNL     1      -9.854   3.423  65.745  1.00  0.00     0.092 A  
HETATM   13  C   UNL     1      -9.114   2.780  66.724  1.00  0.00    -0.164 A  
HETATM   14  O   UNL     1      -9.978   2.815  64.530  1.00  0.00    -0.307 OA 
HETATM   15  C   UNL     1     -10.450   4.651  66.002  1.00  0.00    -0.303 A  
HETATM   16  C   UNL     1      -8.977   3.365  67.985  1.00  0.00    -0.180 A  
HETATM   17  H   UNL     1      -9.571   1.974  64.355  1.00  0.00     0.000 HD 
ENDBRANCH   7  10
ENDBRANCH   5   7
ENDBRANCH   3   5
ENDBRANCH   2   3
BRANCH   2  18
HETATM   18  C   UNL     1     -11.271   9.340  71.473  1.00  0.00    -0.457 C  
BRANCH  18  19
HETATM   19  C   UNL     1     -12.059  10.469  70.798  1.00  0.00    -0.470 C  
BRANCH  19  20
HETATM   20  C   UNL     1     -11.349  10.874  69.524  1.00  0.00    -0.351 A  
HETATM   21  C   UNL     1     -10.007  10.521  69.318  1.00  0.00    -0.233 A  
HETATM   22  C   UNL     1      -9.316  10.992  68.201  1.00  0.00    -0.173 A  
HETATM   23  C   UNL     1     -11.294  12.165  67.468  1.00  0.00    -0.392 A  
HETATM   24  C   UNL     1     -11.987  11.694  68.584  1.00  0.00    -0.311 A  
HETATM   25  C   UNL     1      -9.957  11.818  67.279  1.00  0.00    -0.208 A  
ENDBRANCH  19  20
ENDBRANCH  18  19
ENDBRANCH   2  18
TORSDOF 7
ENDMDL
MODEL      245
REMARK 921   NORMALIZED FREE ENERGY PREDICTED BY IDOCK:   -3.26 KCAL/MOL
REMARK 922        TOTAL FREE ENERGY PREDICTED BY IDOCK:   -6.23 KCAL/MOL
REMARK 923 INTER-LIGAND FREE ENERGY PREDICTED BY IDOCK:   -5.35 KCAL/MOL
REMARK 924 INTRA-LIGAND FREE ENERGY PREDICTED BY IDOCK:   -0.88 KCAL/MOL
REMARK 927      BINDING AFFINITY PREDICTED BY RF-SCORE:    0.00 PKD
ROOT
HETATM    1  C   UNL     1      -8.294  12.109  68.451  1.00  0.00    -0.143 C  
HETATM    2  C   UNL     1      -8.731  11.645  67.053  1.00  0.00    -0.173 C  
ENDROOT
BRANCH   2   3
HETATM    3  N   UNL     1      -7.590  11.325  66.181  1.00  0.00    -0.350 NA 
HETATM    4  H   UNL     1      -6.727  11.678  66.593  1.00  0.00     0.000 HD 
BRANCH   3   5
HETATM    5  C   UNL     1      -7.431   9.888  65.825  1.00  0.00    -0.110 C  
HETATM    6  C   UNL     1      -6.871   9.087  67.005  1.00  0.00    -0.077 C  
BRANCH   5   7
HETATM    7  C   UNL     1      -8.814   9.298  65.373  1.00  0.00    -0.192 C  
HETATM    8  H   UNL     1      -9.687   8.931  63.666  1.00  0.00     0.000 HD 
HETATM    9  O   UNL     1      -8.850   9.288  63.939  1.00  0.00    -0.204 OA 
BRANCH   7  10
HETATM   10  C   UNL     1      -9.151   7.904  65.891  1.00  0.00    -0.139 A  
HETATM   11  C   UNL     1     -10.106   7.683  66.900  1.00  0.00    -0.348 A  
HETATM   12  C   UNL     1      -9.753   5.303  66.778  1.00  0.00    -0.160 A  
HETATM   13  C   UNL     1      -8.832   5.485  65.759  1.00  0.00    -0.154 A  
HETATM   14  O   UNL     1     -10.002   4.029  67.198  1.00  0.00    -0.226 OA 
HETATM   15  C   UNL     1     -10.398   6.391  67.351  1.00  0.00    -0.257 A  
HETATM   16  C   UNL     1      -8.539   6.776  65.312  1.00  0.00    -0.017 A  
HETATM   17  H   UNL     1      -9.560   3.284  66.806  1.00  0.00     0.000 HD 
ENDBRANCH   7  10
ENDBRANCH   5   7
ENDBRANCH   3   5
ENDBRANCH   2   3
BRANCH   2  18
HETATM   18  C   UNL     1      -9.562  12.786  66.431  1.00  0.00    -0.254 C  
BRANCH  18  19
HETATM   19  C   UNL     1     -11.082  12.643  66.565  1.00  0.00    -0.320 C  
BRANCH  19  20
HETATM   20  C   UNL     1     -11.551  13.448  67.758  1.00  0.00    -0.375 A  
HETATM   21  C   UNL     1     -11.585  14.849  67.698  1.00  0.00    -0.357 A  
HETATM   22  C   UNL     1     -11.903  15.597  68.833  1.00  0.00    -0.368 A  
HETATM   23  C   UNL     1     -12.173  13.563  70.103  1.00  0.00    -0.400 A  
HETATM   24  C   UNL     1     -11.855  12.812  68.969  1.00  0.00    -0.344 A  
HETATM   25  C   UNL     1     -12.191  14.955  70.035  1.00  0.00    -0.381 A  
ENDBRANCH  19  20
ENDBRANCH  18  19
ENDBRANCH   2  18
TORSDOF 7
ENDMDL
MODEL      246
REMARK 921   NORMALIZED FREE ENERGY PREDICTED BY IDOCK:   -3.26 KCAL/MOL
REMARK 922        TOTAL FREE ENERGY PREDICTED BY IDOCK:   -6.22 KCAL/MOL
REMARK 923 INTER-LIGAND FREE ENERGY PREDICTED BY IDOCK:   -5.02 KCAL/MOL
REMARK 924 INTRA-LIGAND FREE ENERGY PREDICTED BY IDOCK:   -1.20 KCAL/MOL
REMARK 927      BINDING AFFINITY PREDICTED BY RF-SCORE:    0.00 PKD
ROOT
HETATM    1  C   UNL     1      -8.662  13.355  66.889  1.00  0.00    -0.154 C  
HETATM    2  C   UNL     1      -7.916  12.022  67.046  1.00  0.00    -0.150 C  
ENDROOT
BRANCH   2   3
HETATM    3  N   UNL     1      -7.925  11.219  65.813  1.00  0.00    -0.372 NA 
HETATM    4  H   UNL     1      -6.989  10.859  65.625  1.00  0.00     0.000 HD 
BRANCH   3   5
HETATM    5  C   UNL     1      -8.914  10.107  65.772  1.00  0.00    -0.160 C  
HETATM    6  C   UNL     1     -10.163  10.509  64.980  1.00  0.00    -0.365 C  
BRANCH   5   7
HETATM    7  C   UNL     1      -8.252   8.834  65.136  1.00  0.00    -0.148 C  
HETATM    8  H   UNL     1      -6.439   8.125  64.991  1.00  0.00     0.000 HD 
HETATM    9  O   UNL     1      -6.839   8.896  65.376  1.00  0.00    -0.071 OA 
BRANCH   7  10
HETATM   10  C   UNL     1      -8.781   7.488  65.621  1.00  0.00    -0.105 A  
HETATM   11  C   UNL     1      -8.241   6.263  65.187  1.00  0.00    -0.138 A  
HETATM   12  C   UNL     1      -9.780   5.038  66.577  1.00  0.00    -0.180 A  
HETATM   13  C   UNL     1     -10.310   6.228  67.050  1.00  0.00    -0.300 A  
HETATM   14  O   UNL     1     -10.305   3.870  67.048  1.00  0.00    -0.100 OA 
HETATM   15  C   UNL     1      -8.744   5.044  65.652  1.00  0.00    -0.139 A  
HETATM   16  C   UNL     1      -9.809   7.445  66.581  1.00  0.00    -0.263 A  
HETATM   17  H   UNL     1     -11.014   3.866  67.680  1.00  0.00     0.000 HD 
ENDBRANCH   7  10
ENDBRANCH   5   7
ENDBRANCH   3   5
ENDBRANCH   2   3
BRANCH   2  18
HETATM   18  C   UNL     1      -8.606  11.241  68.184  1.00  0.00    -0.150 C  
BRANCH  18  19
HETATM   19  C   UNL     1      -9.974  11.780  68.617  1.00  0.00    -0.181 C  
BRANCH  19  20
HETATM   20  C   UNL     1     -10.643  10.762  69.516  1.00  0.00    -0.235 A  
HETATM   21  C   UNL     1     -12.009  10.870  69.815  1.00  0.00    -0.423 A  
HETATM   22  C   UNL     1     -12.602  10.004  70.736  1.00  0.00    -0.372 A  
HETATM   23  C   UNL     1     -10.482   8.899  71.066  1.00  0.00    -0.316 A  
HETATM   24  C   UNL     1      -9.887   9.764  70.145  1.00  0.00    -0.306 A  
HETATM   25  C   UNL     1     -11.838   9.023  71.365  1.00  0.00    -0.395 A  
ENDBRANCH  19  20
ENDBRANCH  18  19
ENDBRANCH   2  18
TORSDOF 7
ENDMDL
MODEL      247
REMARK 921   NORMALIZED FREE ENERGY PREDICTED BY IDOCK:   -3.25 KCAL/MOL
REMARK 922        TOTAL FREE ENERGY PREDICTED BY IDOCK:   -6.21 KCAL/MOL
REMARK 923 INTER-LIGAND FREE ENERGY PREDICTED BY IDOCK:   -5.32 KCAL/MOL
REMARK 924 INTRA-LIGAND FREE ENERGY PREDICTED BY IDOCK:   -0.90 KCAL/MOL
REMARK 927      BINDING AFFINITY PREDICTED BY RF-SCORE:    0.00 PKD
ROOT
HETATM    1  C   UNL     1      -8.999   5.751  71.712  1.00  0.00    -0.143 C  
HETATM    2  C   UNL     1      -9.465   5.880  70.254  1.00  0.00    -0.162 C  
ENDROOT
BRANCH   2   3
HETATM    3  N   UNL     1      -8.581   6.738  69.451  1.00  0.00    -0.132 NA 
HETATM    4  H   UNL     1      -8.051   7.360  70.061  1.00  0.00     0.000 HD 
BRANCH   3   5
HETATM    5  C   UNL     1      -7.656   6.028  68.525  1.00  0.00    -0.091 C  
HETATM    6  C   UNL     1      -7.829   4.509  68.632  1.00  0.00    -0.075 C  
BRANCH   5   7
HETATM    7  C   UNL     1      -7.913   6.503  67.052  1.00  0.00    -0.112 C  
HETATM    8  H   UNL     1      -6.799   6.943  65.510  1.00  0.00     0.000 HD 
HETATM    9  O   UNL     1      -6.643   6.655  66.402  1.00  0.00    -0.042 OA 
BRANCH   7  10
HETATM   10  C   UNL     1      -8.804   5.605  66.201  1.00  0.00    -0.142 A  
HETATM   11  C   UNL     1      -8.289   4.747  65.212  1.00  0.00    -0.127 A  
HETATM   12  C   UNL     1     -10.499   3.946  64.687  1.00  0.00    -0.182 A  
HETATM   13  C   UNL     1     -11.034   4.754  65.677  1.00  0.00    -0.001 A  
HETATM   14  O   UNL     1     -11.354   3.172  63.959  1.00  0.00    -0.545 OA 
HETATM   15  C   UNL     1      -9.130   3.930  64.450  1.00  0.00    -0.137 A  
HETATM   16  C   UNL     1     -10.191   5.571  66.435  1.00  0.00    -0.247 A  
HETATM   17  H   UNL     1     -12.290   3.183  64.121  1.00  0.00     0.000 HD 
ENDBRANCH   7  10
ENDBRANCH   5   7
ENDBRANCH   3   5
ENDBRANCH   2   3
BRANCH   2  18
HETATM   18  C   UNL     1     -10.889   6.474  70.280  1.00  0.00    -0.333 C  
BRANCH  18  19
HETATM   19  C   UNL     1     -11.279   7.196  71.574  1.00  0.00    -0.273 C  
BRANCH  19  20
HETATM   20  C   UNL     1     -11.722   8.605  71.238  1.00  0.00    -0.341 A  
HETATM   21  C   UNL     1     -11.075   9.329  70.227  1.00  0.00    -0.289 A  
HETATM   22  C   UNL     1     -11.403  10.666  69.996  1.00  0.00    -0.400 A  
HETATM   23  C   UNL     1     -13.038  10.576  71.769  1.00  0.00    -0.570 A  
HETATM   24  C   UNL     1     -12.712   9.239  72.002  1.00  0.00    -0.479 A  
HETATM   25  C   UNL     1     -12.379  11.291  70.770  1.00  0.00    -0.495 A  
ENDBRANCH  19  20
ENDBRANCH  18  19
ENDBRANCH   2  18
TORSDOF 7
ENDMDL
MODEL      248
REMARK 921   NORMALIZED FREE ENERGY PREDICTED BY IDOCK:   -3.24 KCAL/MOL
REMARK 922        TOTAL FREE ENERGY PREDICTED BY IDOCK:   -6.20 KCAL/MOL
REMARK 923 INTER-LIGAND FREE ENERGY PREDICTED BY IDOCK:   -5.12 KCAL/MOL
REMARK 924 INTRA-LIGAND FREE ENERGY PREDICTED BY IDOCK:   -1.08 KCAL/MOL
REMARK 927      BINDING AFFINITY PREDICTED BY RF-SCORE:    0.00 PKD
ROOT
HETATM    1  C   UNL     1     -10.995   5.973  69.454  1.00  0.00    -0.455 C  
HETATM    2  C   UNL     1      -9.672   6.668  69.809  1.00  0.00    -0.159 C  
ENDROOT
BRANCH   2   3
HETATM    3  N   UNL     1      -8.495   5.908  69.360  1.00  0.00    -0.113 NA 
HETATM    4  H   UNL     1      -8.587   4.930  69.634  1.00  0.00     0.000 HD 
BRANCH   3   5
HETATM    5  C   UNL     1      -8.181   6.000  67.907  1.00  0.00    -0.112 C  
HETATM    6  C   UNL     1      -6.875   6.766  67.673  1.00  0.00    -0.080 C  
BRANCH   5   7
HETATM    7  C   UNL     1      -8.085   4.558  67.294  1.00  0.00    -0.101 C  
HETATM    8  H   UNL     1      -8.497   2.749  67.903  1.00  0.00     0.000 HD 
HETATM    9  O   UNL     1      -8.555   3.622  68.274  1.00  0.00    -0.090 OA 
BRANCH   7  10
HETATM   10  C   UNL     1      -8.838   4.332  65.988  1.00  0.00    -0.119 A  
HETATM   11  C   UNL     1     -10.243   4.268  65.926  1.00  0.00    -0.197 A  
HETATM   12  C   UNL     1     -10.171   3.944  63.540  1.00  0.00    -0.180 A  
HETATM   13  C   UNL     1      -8.789   4.036  63.563  1.00  0.00    -0.111 A  
HETATM   14  O   UNL     1     -10.780   3.733  62.338  1.00  0.00    -0.194 OA 
HETATM   15  C   UNL     1     -10.907   4.063  64.712  1.00  0.00    -0.093 A  
HETATM   16  C   UNL     1      -8.127   4.237  64.777  1.00  0.00    -0.094 A  
HETATM   17  H   UNL     1     -10.276   3.651  61.536  1.00  0.00     0.000 HD 
ENDBRANCH   7  10
ENDBRANCH   5   7
ENDBRANCH   3   5
ENDBRANCH   2   3
BRANCH   2  18
HETATM   18  C   UNL     1      -9.636   6.829  71.343  1.00  0.00    -0.170 C  
BRANCH  18  19
HETATM   19  C   UNL     1      -9.521   8.271  71.851  1.00  0.00    -0.287 C  
BRANCH  19  20
HETATM   20  C   UNL     1     -10.870   8.947  71.729  1.00  0.00    -0.436 A  
HETATM   21  C   UNL     1     -11.968   8.473  72.461  1.00  0.00    -0.401 A  
HETATM   22  C   UNL     1     -13.238   9.018  72.263  1.00  0.00    -0.519 A  
HETATM   23  C   UNL     1     -12.336  10.527  70.610  1.00  0.00    -0.449 A  
HETATM   24  C   UNL     1     -11.065   9.984  70.807  1.00  0.00    -0.407 A  
HETATM   25  C   UNL     1     -13.423  10.040  71.334  1.00  0.00    -0.355 A  
ENDBRANCH  19  20
ENDBRANCH  18  19
ENDBRANCH   2  18
TORSDOF 7
ENDMDL
MODEL      249
REMARK 921   NORMALIZED FREE ENERGY PREDICTED BY IDOCK:   -3.24 KCAL/MOL
REMARK 922        TOTAL FREE ENERGY PREDICTED BY IDOCK:   -6.20 KCAL/MOL
REMARK 923 INTER-LIGAND FREE ENERGY PREDICTED BY IDOCK:   -5.84 KCAL/MOL
REMARK 924 INTRA-LIGAND FREE ENERGY PREDICTED BY IDOCK:   -0.36 KCAL/MOL
REMARK 927      BINDING AFFINITY PREDICTED BY RF-SCORE:    0.00 PKD
ROOT
HETATM    1  C   UNL     1     -10.329  13.725  68.633  1.00  0.00    -0.225 C  
HETATM    2  C   UNL     1      -9.918  14.112  67.204  1.00  0.00    -0.255 C  
ENDROOT
BRANCH   2   3
HETATM    3  N   UNL     1      -8.532  13.731  66.892  1.00  0.00    -0.411 NA 
HETATM    4  H   UNL     1      -7.907  14.053  67.631  1.00  0.00     0.000 HD 
BRANCH   3   5
HETATM    5  C   UNL     1      -8.302  12.284  66.628  1.00  0.00    -0.014 C  
HETATM    6  C   UNL     1      -7.709  11.588  67.858  1.00  0.00    -0.120 C  
BRANCH   5   7
HETATM    7  C   UNL     1      -9.652  11.601  66.214  1.00  0.00    -0.221 C  
HETATM    8  H   UNL     1     -10.700  11.454  64.573  1.00  0.00     0.000 HD 
HETATM    9  O   UNL     1      -9.882  11.868  64.823  1.00  0.00    -0.248 OA 
BRANCH   7  10
HETATM   10  C   UNL     1      -9.747  10.097  66.454  1.00  0.00    -0.259 A  
HETATM   11  C   UNL     1     -10.528   9.545  67.486  1.00  0.00    -0.336 A  
HETATM   12  C   UNL     1      -9.906   7.313  66.824  1.00  0.00    -0.212 A  
HETATM   13  C   UNL     1      -9.156   7.825  65.778  1.00  0.00    -0.063 A  
HETATM   14  O   UNL     1      -9.941   5.959  66.986  1.00  0.00    -0.138 OA 
HETATM   15  C   UNL     1     -10.599   8.161  67.679  1.00  0.00    -0.258 A  
HETATM   16  C   UNL     1      -9.084   9.207  65.589  1.00  0.00    -0.273 A  
HETATM   17  H   UNL     1      -9.467   5.379  66.402  1.00  0.00     0.000 HD 
ENDBRANCH   7  10
ENDBRANCH   5   7
ENDBRANCH   3   5
ENDBRANCH   2   3
BRANCH   2  18
HETATM   18  C   UNL     1     -10.082  15.641  67.079  1.00  0.00    -0.253 C  
BRANCH  18  19
HETATM   19  C   UNL     1      -9.263  16.475  68.071  1.00  0.00    -0.214 C  
BRANCH  19  20
HETATM   20  C   UNL     1      -9.444  17.943  67.749  1.00  0.00    -0.263 A  
HETATM   21  C   UNL     1      -8.767  18.519  66.664  1.00  0.00    -0.294 A  
HETATM   22  C   UNL     1      -8.839  19.894  66.435  1.00  0.00    -0.420 A  
HETATM   23  C   UNL     1     -10.274  20.143  68.360  1.00  0.00    -0.438 A  
HETATM   24  C   UNL     1     -10.204  18.768  68.590  1.00  0.00    -0.366 A  
HETATM   25  C   UNL     1      -9.587  20.706  67.285  1.00  0.00    -0.558 A  
ENDBRANCH  19  20
ENDBRANCH  18  19
ENDBRANCH   2  18
TORSDOF 7
ENDMDL
MODEL      250
REMARK 921   NORMALIZED FREE ENERGY PREDICTED BY IDOCK:   -3.24 KCAL/MOL
REMARK 922        TOTAL FREE ENERGY PREDICTED BY IDOCK:   -6.19 KCAL/MOL
REMARK 923 INTER-LIGAND FREE ENERGY PREDICTED BY IDOCK:   -5.28 KCAL/MOL
REMARK 924 INTRA-LIGAND FREE ENERGY PREDICTED BY IDOCK:   -0.92 KCAL/MOL
REMARK 927      BINDING AFFINITY PREDICTED BY RF-SCORE:    0.00 PKD
ROOT
HETATM    1  C   UNL     1      -9.624  10.986  66.229  1.00  0.00    -0.231 C  
HETATM    2  C   UNL     1      -9.744  10.094  67.473  1.00  0.00    -0.162 C  
ENDROOT
BRANCH   2   3
HETATM    3  N   UNL     1     -10.740   9.023  67.308  1.00  0.00    -0.378 NA 
HETATM    4  H   UNL     1     -10.990   8.930  66.323  1.00  0.00     0.000 HD 
BRANCH   3   5
HETATM    5  C   UNL     1     -10.360   7.695  67.862  1.00  0.00    -0.212 C  
HETATM    6  C   UNL     1     -11.028   6.559  67.079  1.00  0.00    -0.466 C  
BRANCH   5   7
HETATM    7  C   UNL     1      -8.799   7.534  67.829  1.00  0.00    -0.132 C  
HETATM    8  H   UNL     1      -7.450   6.738  68.996  1.00  0.00     0.000 HD 
HETATM    9  O   UNL     1      -8.395   6.836  69.016  1.00  0.00    -0.122 OA 
BRANCH   7  10
HETATM   10  C   UNL     1      -8.222   6.821  66.611  1.00  0.00    -0.115 A  
HETATM   11  C   UNL     1      -8.118   7.440  65.352  1.00  0.00    -0.133 A  
HETATM   12  C   UNL     1      -7.116   5.463  64.409  1.00  0.00    -0.050 A  
HETATM   13  C   UNL     1      -7.173   4.838  65.644  1.00  0.00    -0.072 A  
HETATM   14  O   UNL     1      -6.594   4.764  63.360  1.00  0.00    -0.029 OA 
HETATM   15  C   UNL     1      -7.580   6.762  64.253  1.00  0.00    -0.105 A  
HETATM   16  C   UNL     1      -7.714   5.515  66.740  1.00  0.00    -0.100 A  
HETATM   17  H   UNL     1      -6.277   3.875  63.467  1.00  0.00     0.000 HD 
ENDBRANCH   7  10
ENDBRANCH   5   7
ENDBRANCH   3   5
ENDBRANCH   2   3
BRANCH   2  18
HETATM   18  C   UNL     1     -10.145  11.003  68.653  1.00  0.00    -0.207 C  
BRANCH  18  19
HETATM   19  C   UNL     1     -11.639  11.020  68.995  1.00  0.00    -0.392 C  
BRANCH  19  20
HETATM   20  C   UNL     1     -11.870  10.187  70.238  1.00  0.00    -0.342 A  
HETATM   21  C   UNL     1     -13.123  10.188  70.868  1.00  0.00    -0.412 A  
HETATM   22  C   UNL     1     -13.307   9.516  72.078  1.00  0.00    -0.535 A  
HETATM   23  C   UNL     1     -10.996   8.820  72.044  1.00  0.00    -0.438 A  
HETATM   24  C   UNL     1     -10.811   9.491  70.834  1.00  0.00    -0.407 A  
HETATM   25  C   UNL     1     -12.242   8.837  72.668  1.00  0.00    -0.239 A  
ENDBRANCH  19  20
ENDBRANCH  18  19
ENDBRANCH   2  18
TORSDOF 7
ENDMDL
MODEL      251
REMARK 921   NORMALIZED FREE ENERGY PREDICTED BY IDOCK:   -3.22 KCAL/MOL
REMARK 922        TOTAL FREE ENERGY PREDICTED BY IDOCK:   -6.17 KCAL/MOL
REMARK 923 INTER-LIGAND FREE ENERGY PREDICTED BY IDOCK:   -5.50 KCAL/MOL
REMARK 924 INTRA-LIGAND FREE ENERGY PREDICTED BY IDOCK:   -0.67 KCAL/MOL
REMARK 927      BINDING AFFINITY PREDICTED BY RF-SCORE:    0.00 PKD
ROOT
HETATM    1  C   UNL     1     -12.445  12.761  64.943  1.00  0.00    -0.563 C  
HETATM    2  C   UNL     1     -12.051  12.623  66.421  1.00  0.00    -0.260 C  
ENDROOT
BRANCH   2   3
HETATM    3  N   UNL     1     -11.505  13.870  66.980  1.00  0.00    -0.329 NA 
HETATM    4  H   UNL     1     -11.266  13.735  67.962  1.00  0.00     0.000 HD 
BRANCH   3   5
HETATM    5  C   UNL     1     -10.344  14.451  66.252  1.00  0.00    -0.295 C  
HETATM    6  C   UNL     1     -10.802  15.507  65.239  1.00  0.00    -0.425 C  
BRANCH   5   7
HETATM    7  C   UNL     1      -9.337  15.081  67.277  1.00  0.00    -0.202 C  
HETATM    8  H   UNL     1      -7.404  15.034  67.548  1.00  0.00     0.000 HD 
HETATM    9  O   UNL     1      -8.014  14.652  66.927  1.00  0.00    -0.139 OA 
BRANCH   7  10
HETATM   10  C   UNL     1      -9.355  16.602  67.390  1.00  0.00    -0.223 A  
HETATM   11  C   UNL     1      -8.383  17.416  66.780  1.00  0.00    -0.276 A  
HETATM   12  C   UNL     1      -9.461  19.404  67.608  1.00  0.00    -0.313 A  
HETATM   13  C   UNL     1     -10.452  18.632  68.191  1.00  0.00    -0.361 A  
HETATM   14  O   UNL     1      -9.534  20.759  67.754  1.00  0.00    -0.259 OA 
HETATM   15  C   UNL     1      -8.427  18.809  66.897  1.00  0.00    -0.285 A  
HETATM   16  C   UNL     1     -10.404  17.240  68.076  1.00  0.00    -0.353 A  
HETATM   17  H   UNL     1     -10.242  21.166  68.241  1.00  0.00     0.000 HD 
ENDBRANCH   7  10
ENDBRANCH   5   7
ENDBRANCH   3   5
ENDBRANCH   2   3
BRANCH   2  18
HETATM   18  C   UNL     1     -10.996  11.501  66.512  1.00  0.00    -0.346 C  
BRANCH  18  19
HETATM   19  C   UNL     1     -10.455  11.218  67.918  1.00  0.00    -0.218 C  
BRANCH  19  20
HETATM   20  C   UNL     1      -8.943  11.160  67.863  1.00  0.00    -0.143 A  
HETATM   21  C   UNL     1      -8.278  11.173  66.628  1.00  0.00    -0.158 A  
HETATM   22  C   UNL     1      -6.894  11.001  66.569  1.00  0.00    -0.132 A  
HETATM   23  C   UNL     1      -6.811  10.812  68.973  1.00  0.00    -0.075 A  
HETATM   24  C   UNL     1      -8.196  10.985  69.035  1.00  0.00    -0.101 A  
HETATM   25  C   UNL     1      -6.162  10.815  67.740  1.00  0.00    -0.047 A  
ENDBRANCH  19  20
ENDBRANCH  18  19
ENDBRANCH   2  18
TORSDOF 7
ENDMDL
MODEL      252
REMARK 921   NORMALIZED FREE ENERGY PREDICTED BY IDOCK:   -3.22 KCAL/MOL
REMARK 922        TOTAL FREE ENERGY PREDICTED BY IDOCK:   -6.17 KCAL/MOL
REMARK 923 INTER-LIGAND FREE ENERGY PREDICTED BY IDOCK:   -5.21 KCAL/MOL
REMARK 924 INTRA-LIGAND FREE ENERGY PREDICTED BY IDOCK:   -0.96 KCAL/MOL
REMARK 927      BINDING AFFINITY PREDICTED BY RF-SCORE:    0.00 PKD
ROOT
HETATM    1  C   UNL     1      -7.150   9.433  63.708  1.00  0.00    -0.098 C  
HETATM    2  C   UNL     1      -8.009   9.677  64.958  1.00  0.00    -0.122 C  
ENDROOT
BRANCH   2   3
HETATM    3  N   UNL     1      -8.539   8.430  65.532  1.00  0.00    -0.174 NA 
HETATM    4  H   UNL     1      -8.272   7.637  64.949  1.00  0.00     0.000 HD 
BRANCH   3   5
HETATM    5  C   UNL     1      -8.173   8.164  66.950  1.00  0.00    -0.111 C  
HETATM    6  C   UNL     1      -7.111   9.155  67.441  1.00  0.00    -0.079 C  
BRANCH   5   7
HETATM    7  C   UNL     1      -9.454   8.247  67.853  1.00  0.00    -0.146 C  
HETATM    8  H   UNL     1     -11.379   8.353  67.542  1.00  0.00     0.000 HD 
HETATM    9  O   UNL     1     -10.603   8.303  66.996  1.00  0.00    -0.321 OA 
BRANCH   7  10
HETATM   10  C   UNL     1      -9.640   7.119  68.862  1.00  0.00    -0.142 A  
HETATM   11  C   UNL     1      -8.613   6.209  69.176  1.00  0.00    -0.119 A  
HETATM   12  C   UNL     1     -10.035   5.079  70.759  1.00  0.00    -0.221 A  
HETATM   13  C   UNL     1     -11.054   5.980  70.497  1.00  0.00    -0.385 A  
HETATM   14  O   UNL     1     -10.271   4.090  71.668  1.00  0.00    -0.147 OA 
HETATM   15  C   UNL     1      -8.812   5.186  70.110  1.00  0.00    -0.139 A  
HETATM   16  C   UNL     1     -10.855   6.998  69.561  1.00  0.00    -0.265 A  
HETATM   17  H   UNL     1     -11.108   4.016  72.112  1.00  0.00     0.000 HD 
ENDBRANCH   7  10
ENDBRANCH   5   7
ENDBRANCH   3   5
ENDBRANCH   2   3
BRANCH   2  18
HETATM   18  C   UNL     1      -9.173  10.599  64.542  1.00  0.00    -0.264 C  
BRANCH  18  19
HETATM   19  C   UNL     1      -9.708  11.523  65.642  1.00  0.00    -0.261 C  
BRANCH  19  20
HETATM   20  C   UNL     1     -10.502  12.643  65.003  1.00  0.00    -0.331 A  
HETATM   21  C   UNL     1     -10.206  13.980  65.301  1.00  0.00    -0.383 A  
HETATM   22  C   UNL     1     -11.009  15.010  64.807  1.00  0.00    -0.389 A  
HETATM   23  C   UNL     1     -12.411  13.387  63.699  1.00  0.00    -0.422 A  
HETATM   24  C   UNL     1     -11.608  12.356  64.192  1.00  0.00    -0.458 A  
HETATM   25  C   UNL     1     -12.114  14.713  64.012  1.00  0.00    -0.229 A  
ENDBRANCH  19  20
ENDBRANCH  18  19
ENDBRANCH   2  18
TORSDOF 7
ENDMDL
MODEL      253
REMARK 921   NORMALIZED FREE ENERGY PREDICTED BY IDOCK:   -3.21 KCAL/MOL
REMARK 922        TOTAL FREE ENERGY PREDICTED BY IDOCK:   -6.16 KCAL/MOL
REMARK 923 INTER-LIGAND FREE ENERGY PREDICTED BY IDOCK:   -5.14 KCAL/MOL
REMARK 924 INTRA-LIGAND FREE ENERGY PREDICTED BY IDOCK:   -1.02 KCAL/MOL
REMARK 927      BINDING AFFINITY PREDICTED BY RF-SCORE:    0.00 PKD
ROOT
HETATM    1  C   UNL     1      -8.364  12.985  68.177  1.00  0.00    -0.164 C  
HETATM    2  C   UNL     1      -9.712  13.229  68.870  1.00  0.00     0.149 C  
ENDROOT
BRANCH   2   3
HETATM    3  N   UNL     1     -10.419  11.978  69.189  1.00  0.00    -0.425 NA 
HETATM    4  H   UNL     1     -11.354  11.993  68.782  1.00  0.00     0.000 HD 
BRANCH   3   5
HETATM    5  C   UNL     1      -9.718  10.722  68.804  1.00  0.00    -0.192 C  
HETATM    6  C   UNL     1      -9.276   9.936  70.043  1.00  0.00    -0.224 C  
BRANCH   5   7
HETATM    7  C   UNL     1     -10.660   9.844  67.908  1.00  0.00    -0.254 C  
HETATM    8  H   UNL     1     -12.003  10.188  66.533  1.00  0.00     0.000 HD 
HETATM    9  O   UNL     1     -11.433  10.720  67.076  1.00  0.00    -0.349 OA 
BRANCH   7  10
HETATM   10  C   UNL     1      -9.974   8.801  67.031  1.00  0.00    -0.307 A  
HETATM   11  C   UNL     1     -10.287   7.431  67.101  1.00  0.00    -0.377 A  
HETATM   12  C   UNL     1      -8.696   6.931  65.363  1.00  0.00     0.028 A  
HETATM   13  C   UNL     1      -8.390   8.277  65.246  1.00  0.00    -0.175 A  
HETATM   14  O   UNL     1      -8.040   6.051  64.553  1.00  0.00    -0.129 OA 
HETATM   15  C   UNL     1      -9.644   6.498  66.281  1.00  0.00    -0.096 A  
HETATM   16  C   UNL     1      -9.031   9.207  66.069  1.00  0.00    -0.221 A  
HETATM   17  H   UNL     1      -7.390   6.347  63.925  1.00  0.00     0.000 HD 
ENDBRANCH   7  10
ENDBRANCH   5   7
ENDBRANCH   3   5
ENDBRANCH   2   3
BRANCH   2  18
HETATM   18  C   UNL     1     -10.570  14.086  67.917  1.00  0.00    -0.246 C  
BRANCH  18  19
HETATM   19  C   UNL     1      -9.956  14.354  66.539  1.00  0.00    -0.291 C  
BRANCH  19  20
HETATM   20  C   UNL     1      -9.608  15.823  66.430  1.00  0.00    -0.311 A  
HETATM   21  C   UNL     1      -8.268  16.236  66.431  1.00  0.00    -0.354 A  
HETATM   22  C   UNL     1      -7.947  17.595  66.449  1.00  0.00    -0.309 A  
HETATM   23  C   UNL     1     -10.295  18.153  66.454  1.00  0.00    -0.404 A  
HETATM   24  C   UNL     1     -10.618  16.795  66.434  1.00  0.00    -0.192 A  
HETATM   25  C   UNL     1      -8.959  18.552  66.467  1.00  0.00    -0.300 A  
ENDBRANCH  19  20
ENDBRANCH  18  19
ENDBRANCH   2  18
TORSDOF 7
ENDMDL
MODEL      254
REMARK 921   NORMALIZED FREE ENERGY PREDICTED BY IDOCK:   -3.20 KCAL/MOL
REMARK 922        TOTAL FREE ENERGY PREDICTED BY IDOCK:   -6.14 KCAL/MOL
REMARK 923 INTER-LIGAND FREE ENERGY PREDICTED BY IDOCK:   -5.42 KCAL/MOL
REMARK 924 INTRA-LIGAND FREE ENERGY PREDICTED BY IDOCK:   -0.72 KCAL/MOL
REMARK 927      BINDING AFFINITY PREDICTED BY RF-SCORE:    0.00 PKD
ROOT
HETATM    1  C   UNL     1      -7.190  11.003  68.144  1.00  0.00    -0.083 C  
HETATM    2  C   UNL     1      -8.624  10.936  68.688  1.00  0.00    -0.153 C  
ENDROOT
BRANCH   2   3
HETATM    3  N   UNL     1      -9.223   9.600  68.543  1.00  0.00    -0.137 NA 
HETATM    4  H   UNL     1     -10.180   9.683  68.200  1.00  0.00     0.000 HD 
BRANCH   3   5
HETATM    5  C   UNL     1      -8.463   8.638  67.700  1.00  0.00    -0.125 C  
HETATM    6  C   UNL     1      -8.137   7.359  68.479  1.00  0.00    -0.125 C  
BRANCH   5   7
HETATM    7  C   UNL     1      -9.291   8.294  66.411  1.00  0.00    -0.213 C  
HETATM    8  H   UNL     1      -9.183   8.752  64.516  1.00  0.00     0.000 HD 
HETATM    9  O   UNL     1      -8.681   8.960  65.296  1.00  0.00    -0.174 OA 
BRANCH   7  10
HETATM   10  C   UNL     1      -9.442   6.812  66.085  1.00  0.00    -0.057 A  
HETATM   11  C   UNL     1      -8.638   6.163  65.130  1.00  0.00    -0.051 A  
HETATM   12  C   UNL     1      -9.749   4.067  65.551  1.00  0.00    -0.194 A  
HETATM   13  C   UNL     1     -10.532   4.670  66.521  1.00  0.00    -0.171 A  
HETATM   14  O   UNL     1      -9.942   2.739  65.304  1.00  0.00    -0.358 OA 
HETATM   15  C   UNL     1      -8.797   4.801  64.854  1.00  0.00    -0.153 A  
HETATM   16  C   UNL     1     -10.374   6.031  66.792  1.00  0.00    -0.296 A  
HETATM   17  H   UNL     1     -10.593   2.238  65.780  1.00  0.00     0.000 HD 
ENDBRANCH   7  10
ENDBRANCH   5   7
ENDBRANCH   3   5
ENDBRANCH   2   3
BRANCH   2  18
HETATM   18  C   UNL     1      -9.460  11.972  67.907  1.00  0.00    -0.196 C  
BRANCH  18  19
HETATM   19  C   UNL     1     -10.911  11.569  67.623  1.00  0.00    -0.296 C  
BRANCH  19  20
HETATM   20  C   UNL     1     -11.365  12.230  66.339  1.00  0.00    -0.405 A  
HETATM   21  C   UNL     1     -10.862  11.799  65.104  1.00  0.00    -0.351 A  
HETATM   22  C   UNL     1     -11.188  12.481  63.930  1.00  0.00    -0.496 A  
HETATM   23  C   UNL     1     -12.534  14.030  65.201  1.00  0.00    -0.472 A  
HETATM   24  C   UNL     1     -12.210  13.348  66.376  1.00  0.00    -0.435 A  
HETATM   25  C   UNL     1     -12.018  13.599  63.980  1.00  0.00    -0.478 A  
ENDBRANCH  19  20
ENDBRANCH  18  19
ENDBRANCH   2  18
TORSDOF 7
ENDMDL
MODEL      255
REMARK 921   NORMALIZED FREE ENERGY PREDICTED BY IDOCK:   -3.18 KCAL/MOL
REMARK 922        TOTAL FREE ENERGY PREDICTED BY IDOCK:   -6.12 KCAL/MOL
REMARK 923 INTER-LIGAND FREE ENERGY PREDICTED BY IDOCK:   -5.41 KCAL/MOL
REMARK 924 INTRA-LIGAND FREE ENERGY PREDICTED BY IDOCK:   -0.71 KCAL/MOL
REMARK 927      BINDING AFFINITY PREDICTED BY RF-SCORE:    0.00 PKD
ROOT
HETATM    1  C   UNL     1     -11.731  12.557  66.865  1.00  0.00    -0.447 C  
HETATM    2  C   UNL     1     -10.384  12.718  67.586  1.00  0.00    -0.221 C  
ENDROOT
BRANCH   2   3
HETATM    3  N   UNL     1      -9.796  11.428  67.981  1.00  0.00    -0.179 NA 
HETATM    4  H   UNL     1      -9.067  11.577  68.678  1.00  0.00     0.000 HD 
BRANCH   3   5
HETATM    5  C   UNL     1     -10.757  10.399  68.463  1.00  0.00    -0.221 C  
HETATM    6  C   UNL     1     -10.710   9.145  67.583  1.00  0.00    -0.257 C  
BRANCH   5   7
HETATM    7  C   UNL     1     -10.434  10.031  69.954  1.00  0.00    -0.274 C  
HETATM    8  H   UNL     1     -11.240   8.889  71.319  1.00  0.00     0.000 HD 
HETATM    9  O   UNL     1     -11.435   9.112  70.416  1.00  0.00    -0.259 OA 
BRANCH   7  10
HETATM   10  C   UNL     1      -9.054   9.437  70.216  1.00  0.00    -0.283 A  
HETATM   11  C   UNL     1      -7.978  10.208  70.694  1.00  0.00     0.648 A  
HETATM   12  C   UNL     1      -6.541   8.275  70.712  1.00  0.00    -0.038 A  
HETATM   13  C   UNL     1      -7.589   7.482  70.275  1.00  0.00    -0.090 A  
HETATM   14  O   UNL     1      -5.330   7.680  70.920  1.00  0.00    -0.026 OA 
HETATM   15  C   UNL     1      -6.724   9.634  70.929  1.00  0.00    -0.063 A  
HETATM   16  C   UNL     1      -8.840   8.058  70.037  1.00  0.00    -0.143 A  
HETATM   17  H   UNL     1      -5.205   6.750  70.771  1.00  0.00     0.000 HD 
ENDBRANCH   7  10
ENDBRANCH   5   7
ENDBRANCH   3   5
ENDBRANCH   2   3
BRANCH   2  18
HETATM   18  C   UNL     1     -10.635  13.584  68.837  1.00  0.00    -0.188 C  
BRANCH  18  19
HETATM   19  C   UNL     1     -12.102  13.923  69.122  1.00  0.00    -0.377 C  
BRANCH  19  20
HETATM   20  C   UNL     1     -12.220  14.464  70.531  1.00  0.00    -0.411 A  
HETATM   21  C   UNL     1     -13.084  13.856  71.453  1.00  0.00    -0.413 A  
HETATM   22  C   UNL     1     -13.283  14.421  72.714  1.00  0.00    -0.611 A  
HETATM   23  C   UNL     1     -11.752  16.203  72.161  1.00  0.00    -0.569 A  
HETATM   24  C   UNL     1     -11.551  15.639  70.899  1.00  0.00    -0.424 A  
HETATM   25  C   UNL     1     -12.622  15.597  73.065  1.00  0.00    -0.568 A  
ENDBRANCH  19  20
ENDBRANCH  18  19
ENDBRANCH   2  18
TORSDOF 7
ENDMDL
MODEL      256
REMARK 921   NORMALIZED FREE ENERGY PREDICTED BY IDOCK:   -3.17 KCAL/MOL
REMARK 922        TOTAL FREE ENERGY PREDICTED BY IDOCK:   -6.10 KCAL/MOL
REMARK 923 INTER-LIGAND FREE ENERGY PREDICTED BY IDOCK:   -4.84 KCAL/MOL
REMARK 924 INTRA-LIGAND FREE ENERGY PREDICTED BY IDOCK:   -1.26 KCAL/MOL
REMARK 927      BINDING AFFINITY PREDICTED BY RF-SCORE:    0.00 PKD
ROOT
HETATM    1  C   UNL     1      -9.599   2.940  70.265  1.00  0.00    -0.141 C  
HETATM    2  C   UNL     1      -9.801   4.406  70.674  1.00  0.00    -0.210 C  
ENDROOT
BRANCH   2   3
HETATM    3  N   UNL     1      -9.294   5.350  69.665  1.00  0.00    -0.130 NA 
HETATM    4  H   UNL     1      -9.023   4.845  68.822  1.00  0.00     0.000 HD 
BRANCH   3   5
HETATM    5  C   UNL     1     -10.206   6.472  69.312  1.00  0.00    -0.187 C  
HETATM    6  C   UNL     1     -11.546   6.344  70.044  1.00  0.00    -0.446 C  
BRANCH   5   7
HETATM    7  C   UNL     1      -9.522   7.840  69.664  1.00  0.00    -0.156 C  
HETATM    8  H   UNL     1      -7.778   8.656  69.340  1.00  0.00     0.000 HD 
HETATM    9  O   UNL     1      -8.192   7.828  69.127  1.00  0.00    -0.126 OA 
BRANCH   7  10
HETATM   10  C   UNL     1     -10.242   9.096  69.181  1.00  0.00    -0.215 A  
HETATM   11  C   UNL     1     -10.902   9.973  70.061  1.00  0.00    -0.352 A  
HETATM   12  C   UNL     1     -11.524  11.413  68.233  1.00  0.00    -0.299 A  
HETATM   13  C   UNL     1     -10.853  10.587  67.346  1.00  0.00    -0.349 A  
HETATM   14  O   UNL     1     -12.152  12.516  67.733  1.00  0.00    -0.409 OA 
HETATM   15  C   UNL     1     -11.551  11.120  69.590  1.00  0.00    -0.398 A  
HETATM   16  C   UNL     1     -10.209   9.441  67.818  1.00  0.00    -0.273 A  
HETATM   17  H   UNL     1     -12.134  12.716  66.804  1.00  0.00     0.000 HD 
ENDBRANCH   7  10
ENDBRANCH   5   7
ENDBRANCH   3   5
ENDBRANCH   2   3
BRANCH   2  18
HETATM   18  C   UNL     1      -9.058   4.617  72.009  1.00  0.00    -0.155 C  
BRANCH  18  19
HETATM   19  C   UNL     1      -7.601   5.078  71.886  1.00  0.00    -0.102 C  
BRANCH  19  20
HETATM   20  C   UNL     1      -7.406   6.326  72.722  1.00  0.00    -0.092 A  
HETATM   21  C   UNL     1      -6.136   6.659  73.212  1.00  0.00    -0.058 A  
HETATM   22  C   UNL     1      -5.973   7.741  74.079  1.00  0.00    -0.073 A  
HETATM   23  C   UNL     1      -8.343   8.186  73.971  1.00  0.00    -0.309 A  
HETATM   24  C   UNL     1      -8.507   7.104  73.104  1.00  0.00    -0.144 A  
HETATM   25  C   UNL     1      -7.077   8.501  74.463  1.00  0.00    -0.214 A  
ENDBRANCH  19  20
ENDBRANCH  18  19
ENDBRANCH   2  18
TORSDOF 7
ENDMDL
MODEL      257
REMARK 921   NORMALIZED FREE ENERGY PREDICTED BY IDOCK:   -3.17 KCAL/MOL
REMARK 922        TOTAL FREE ENERGY PREDICTED BY IDOCK:   -6.10 KCAL/MOL
REMARK 923 INTER-LIGAND FREE ENERGY PREDICTED BY IDOCK:   -5.35 KCAL/MOL
REMARK 924 INTRA-LIGAND FREE ENERGY PREDICTED BY IDOCK:   -0.75 KCAL/MOL
REMARK 927      BINDING AFFINITY PREDICTED BY RF-SCORE:    0.00 PKD
ROOT
HETATM    1  C   UNL     1      -8.475   7.593  65.799  1.00  0.00    -0.153 C  
HETATM    2  C   UNL     1      -9.297   8.178  66.957  1.00  0.00    -0.155 C  
ENDROOT
BRANCH   2   3
HETATM    3  N   UNL     1      -8.655   9.349  67.573  1.00  0.00    -0.122 NA 
HETATM    4  H   UNL     1      -7.767   9.543  67.110  1.00  0.00     0.000 HD 
BRANCH   3   5
HETATM    5  C   UNL     1      -9.480  10.587  67.626  1.00  0.00    -0.149 C  
HETATM    6  C   UNL     1     -10.650  10.428  68.603  1.00  0.00    -0.234 C  
BRANCH   5   7
HETATM    7  C   UNL     1      -8.583  11.804  68.044  1.00  0.00    -0.158 C  
HETATM    8  H   UNL     1      -6.716  12.319  67.789  1.00  0.00     0.000 HD 
HETATM    9  O   UNL     1      -7.260  11.582  67.536  1.00  0.00    -0.097 OA 
BRANCH   7  10
HETATM   10  C   UNL     1      -9.063  13.180  67.595  1.00  0.00    -0.201 A  
HETATM   11  C   UNL     1     -10.192  13.355  66.773  1.00  0.00    -0.259 A  
HETATM   12  C   UNL     1      -9.920  15.748  66.828  1.00  0.00    -0.252 A  
HETATM   13  C   UNL     1      -8.825  15.611  67.666  1.00  0.00    -0.181 A  
HETATM   14  O   UNL     1     -10.291  17.008  66.459  1.00  0.00    -0.309 OA 
HETATM   15  C   UNL     1     -10.612  14.631  66.381  1.00  0.00    -0.301 A  
HETATM   16  C   UNL     1      -8.405  14.336  68.054  1.00  0.00    -0.157 A  
HETATM   17  H   UNL     1      -9.817  17.773  66.765  1.00  0.00     0.000 HD 
ENDBRANCH   7  10
ENDBRANCH   5   7
ENDBRANCH   3   5
ENDBRANCH   2   3
BRANCH   2  18
HETATM   18  C   UNL     1      -9.468   7.061  68.008  1.00  0.00    -0.126 C  
BRANCH  18  19
HETATM   19  C   UNL     1     -10.908   6.593  68.244  1.00  0.00    -0.322 C  
BRANCH  19  20
HETATM   20  C   UNL     1     -11.076   6.231  69.705  1.00  0.00    -0.479 A  
HETATM   21  C   UNL     1     -11.981   6.937  70.510  1.00  0.00    -0.358 A  
HETATM   22  C   UNL     1     -12.053   6.685  71.881  1.00  0.00    -0.385 A  
HETATM   23  C   UNL     1     -10.330   5.009  71.667  1.00  0.00    -0.262 A  
HETATM   24  C   UNL     1     -10.256   5.259  70.295  1.00  0.00    -0.345 A  
HETATM   25  C   UNL     1     -11.224   5.726  72.460  1.00  0.00    -0.347 A  
ENDBRANCH  19  20
ENDBRANCH  18  19
ENDBRANCH   2  18
TORSDOF 7
ENDMDL
MODEL      258
REMARK 921   NORMALIZED FREE ENERGY PREDICTED BY IDOCK:   -3.16 KCAL/MOL
REMARK 922        TOTAL FREE ENERGY PREDICTED BY IDOCK:   -6.08 KCAL/MOL
REMARK 923 INTER-LIGAND FREE ENERGY PREDICTED BY IDOCK:   -5.19 KCAL/MOL
REMARK 924 INTRA-LIGAND FREE ENERGY PREDICTED BY IDOCK:   -0.89 KCAL/MOL
REMARK 927      BINDING AFFINITY PREDICTED BY RF-SCORE:    0.00 PKD
ROOT
HETATM    1  C   UNL     1     -10.155  14.533  68.883  1.00  0.00    -0.224 C  
HETATM    2  C   UNL     1     -10.072  14.324  67.363  1.00  0.00    -0.247 C  
ENDROOT
BRANCH   2   3
HETATM    3  N   UNL     1      -9.293  13.131  66.998  1.00  0.00    -0.230 NA 
HETATM    4  H   UNL     1      -8.548  12.980  67.679  1.00  0.00     0.000 HD 
BRANCH   3   5
HETATM    5  C   UNL     1     -10.075  11.878  66.815  1.00  0.00    -0.202 C  
HETATM    6  C   UNL     1     -10.454  11.674  65.344  1.00  0.00    -0.324 C  
BRANCH   5   7
HETATM    7  C   UNL     1      -9.244  10.654  67.338  1.00  0.00    -0.143 C  
HETATM    8  H   UNL     1      -7.400  10.357  67.910  1.00  0.00     0.000 HD 
HETATM    9  O   UNL     1      -7.904  11.098  67.594  1.00  0.00    -0.110 OA 
BRANCH   7  10
HETATM   10  C   UNL     1      -9.783   9.956  68.582  1.00  0.00    -0.163 A  
HETATM   11  C   UNL     1      -9.494   8.612  68.880  1.00  0.00    -0.146 A  
HETATM   12  C   UNL     1     -10.782   8.736  70.912  1.00  0.00    -0.227 A  
HETATM   13  C   UNL     1     -11.056  10.071  70.664  1.00  0.00    -0.408 A  
HETATM   14  O   UNL     1     -11.302   8.173  72.040  1.00  0.00    -0.274 OA 
HETATM   15  C   UNL     1     -10.000   8.000  70.032  1.00  0.00    -0.191 A  
HETATM   16  C   UNL     1     -10.553  10.679  69.511  1.00  0.00    -0.265 A  
HETATM   17  H   UNL     1     -11.838   8.676  72.642  1.00  0.00     0.000 HD 
ENDBRANCH   7  10
ENDBRANCH   5   7
ENDBRANCH   3   5
ENDBRANCH   2   3
BRANCH   2  18
HETATM   18  C   UNL     1      -9.415  15.584  66.762  1.00  0.00    -0.257 C  
BRANCH  18  19
HETATM   19  C   UNL     1      -9.857  16.916  67.378  1.00  0.00    -0.261 C  
BRANCH  19  20
HETATM   20  C   UNL     1      -8.687  17.876  67.370  1.00  0.00    -0.237 A  
HETATM   21  C   UNL     1      -7.381  17.401  67.180  1.00  0.00    -0.199 A  
HETATM   22  C   UNL     1      -6.291  18.266  67.288  1.00  0.00    -0.190 A  
HETATM   23  C   UNL     1      -7.788  20.097  67.767  1.00  0.00    -0.309 A  
HETATM   24  C   UNL     1      -8.880  19.234  67.658  1.00  0.00    -0.342 A  
HETATM   25  C   UNL     1      -6.494  19.612  67.588  1.00  0.00    -0.239 A  
ENDBRANCH  19  20
ENDBRANCH  18  19
ENDBRANCH   2  18
TORSDOF 7
ENDMDL
MODEL      259
REMARK 921   NORMALIZED FREE ENERGY PREDICTED BY IDOCK:   -3.15 KCAL/MOL
REMARK 922        TOTAL FREE ENERGY PREDICTED BY IDOCK:   -6.07 KCAL/MOL
REMARK 923 INTER-LIGAND FREE ENERGY PREDICTED BY IDOCK:   -5.21 KCAL/MOL
REMARK 924 INTRA-LIGAND FREE ENERGY PREDICTED BY IDOCK:   -0.86 KCAL/MOL
REMARK 927      BINDING AFFINITY PREDICTED BY RF-SCORE:    0.00 PKD
ROOT
HETATM    1  C   UNL     1      -7.736   9.320  69.437  1.00  0.00    -0.082 C  
HETATM    2  C   UNL     1      -9.203   9.673  69.149  1.00  0.00    -0.168 C  
ENDROOT
BRANCH   2   3
HETATM    3  N   UNL     1      -9.402  11.110  68.903  1.00  0.00    -0.335 NA 
HETATM    4  H   UNL     1      -8.625  11.641  69.297  1.00  0.00     0.000 HD 
BRANCH   3   5
HETATM    5  C   UNL     1      -9.613  11.501  67.482  1.00  0.00    -0.172 C  
HETATM    6  C   UNL     1      -9.938  10.278  66.617  1.00  0.00    -0.270 C  
BRANCH   5   7
HETATM    7  C   UNL     1     -10.770  12.557  67.390  1.00  0.00    -0.229 C  
HETATM    8  H   UNL     1     -12.513  12.799  68.236  1.00  0.00     0.000 HD 
HETATM    9  O   UNL     1     -11.812  12.160  68.292  1.00  0.00    -0.329 OA 
BRANCH   7  10
HETATM   10  C   UNL     1     -10.385  14.004  67.679  1.00  0.00    -0.242 A  
HETATM   11  C   UNL     1      -9.258  14.616  67.100  1.00  0.00    -0.231 A  
HETATM   12  C   UNL     1      -9.746  16.688  68.227  1.00  0.00    -0.244 A  
HETATM   13  C   UNL     1     -10.882  16.125  68.785  1.00  0.00    -0.310 A  
HETATM   14  O   UNL     1      -9.457  17.986  68.534  1.00  0.00    -0.300 OA 
HETATM   15  C   UNL     1      -8.932  15.947  67.381  1.00  0.00    -0.203 A  
HETATM   16  C   UNL     1     -11.204  14.794  68.507  1.00  0.00    -0.291 A  
HETATM   17  H   UNL     1     -10.014  18.493  69.113  1.00  0.00     0.000 HD 
ENDBRANCH   7  10
ENDBRANCH   5   7
ENDBRANCH   3   5
ENDBRANCH   2   3
BRANCH   2  18
HETATM   18  C   UNL     1     -10.030   9.232  70.374  1.00  0.00    -0.287 C  
BRANCH  18  19
HETATM   19  C   UNL     1      -9.217   8.856  71.618  1.00  0.00    -0.302 C  
BRANCH  19  20
HETATM   20  C   UNL     1      -9.653   7.488  72.097  1.00  0.00    -0.190 A  
HETATM   21  C   UNL     1      -8.965   6.850  73.139  1.00  0.00    -0.151 A  
HETATM   22  C   UNL     1      -9.288   5.542  73.504  1.00  0.00    -0.137 A  
HETATM   23  C   UNL     1     -11.000   5.488  71.803  1.00  0.00    -0.249 A  
HETATM   24  C   UNL     1     -10.678   6.797  71.437  1.00  0.00    -0.253 A  
HETATM   25  C   UNL     1     -10.301   4.860  72.832  1.00  0.00    -0.235 A  
ENDBRANCH  19  20
ENDBRANCH  18  19
ENDBRANCH   2  18
TORSDOF 7
ENDMDL
MODEL      260
REMARK 921   NORMALIZED FREE ENERGY PREDICTED BY IDOCK:   -3.10 KCAL/MOL
REMARK 922        TOTAL FREE ENERGY PREDICTED BY IDOCK:   -6.01 KCAL/MOL
REMARK 923 INTER-LIGAND FREE ENERGY PREDICTED BY IDOCK:   -4.99 KCAL/MOL
REMARK 924 INTRA-LIGAND FREE ENERGY PREDICTED BY IDOCK:   -1.02 KCAL/MOL
REMARK 927      BINDING AFFINITY PREDICTED BY RF-SCORE:    0.00 PKD
ROOT
HETATM    1  C   UNL     1     -11.137  11.380  67.310  1.00  0.00    -0.363 C  
HETATM    2  C   UNL     1     -10.174  11.908  68.384  1.00  0.00    -0.204 C  
ENDROOT
BRANCH   2   3
HETATM    3  N   UNL     1      -9.390  13.065  67.923  1.00  0.00    -0.204 NA 
HETATM    4  H   UNL     1      -9.793  13.437  67.064  1.00  0.00     0.000 HD 
BRANCH   3   5
HETATM    5  C   UNL     1      -9.209  14.160  68.915  1.00  0.00    -0.001 C  
HETATM    6  C   UNL     1      -7.957  14.986  68.600  1.00  0.00    -0.153 C  
BRANCH   5   7
HETATM    7  C   UNL     1     -10.480  15.080  68.926  1.00  0.00    -0.241 C  
HETATM    8  H   UNL     1     -11.419  16.153  70.260  1.00  0.00     0.000 HD 
HETATM    9  O   UNL     1     -10.649  15.595  70.254  1.00  0.00    -0.316 OA 
BRANCH   7  10
HETATM   10  C   UNL     1     -10.478  16.242  67.937  1.00  0.00    -0.295 A  
HETATM   11  C   UNL     1     -10.650  16.057  66.553  1.00  0.00    -0.284 A  
HETATM   12  C   UNL     1     -10.497  18.429  66.169  1.00  0.00    -0.395 A  
HETATM   13  C   UNL     1     -10.360  18.648  67.530  1.00  0.00    -0.453 A  
HETATM   14  O   UNL     1     -10.479  19.513  65.340  1.00  0.00    -0.439 OA 
HETATM   15  C   UNL     1     -10.648  17.142  65.671  1.00  0.00    -0.187 A  
HETATM   16  C   UNL     1     -10.358  17.562  68.409  1.00  0.00    -0.378 A  
HETATM   17  H   UNL     1     -10.376  20.394  65.681  1.00  0.00     0.000 HD 
ENDBRANCH   7  10
ENDBRANCH   5   7
ENDBRANCH   3   5
ENDBRANCH   2   3
BRANCH   2  18
HETATM   18  C   UNL     1      -9.226  10.749  68.759  1.00  0.00    -0.192 C  
BRANCH  18  19
HETATM   19  C   UNL     1      -7.833  10.805  68.122  1.00  0.00    -0.112 C  
BRANCH  19  20
HETATM   20  C   UNL     1      -7.808   9.900  66.909  1.00  0.00    -0.102 A  
HETATM   21  C   UNL     1      -7.321  10.373  65.682  1.00  0.00    -0.148 A  
HETATM   22  C   UNL     1      -7.405   9.581  64.536  1.00  0.00    -0.114 A  
HETATM   23  C   UNL     1      -8.450   7.826  65.821  1.00  0.00    -0.155 A  
HETATM   24  C   UNL     1      -8.367   8.616  66.969  1.00  0.00    -0.106 A  
HETATM   25  C   UNL     1      -7.975   8.311  64.603  1.00  0.00    -0.145 A  
ENDBRANCH  19  20
ENDBRANCH  18  19
ENDBRANCH   2  18
TORSDOF 7
ENDMDL
MODEL      261
REMARK 921   NORMALIZED FREE ENERGY PREDICTED BY IDOCK:   -3.06 KCAL/MOL
REMARK 922        TOTAL FREE ENERGY PREDICTED BY IDOCK:   -5.94 KCAL/MOL
REMARK 923 INTER-LIGAND FREE ENERGY PREDICTED BY IDOCK:   -5.90 KCAL/MOL
REMARK 924 INTRA-LIGAND FREE ENERGY PREDICTED BY IDOCK:   -0.05 KCAL/MOL
REMARK 927      BINDING AFFINITY PREDICTED BY RF-SCORE:    0.00 PKD
ROOT
HETATM    1  C   UNL     1      -7.757  11.242  68.283  1.00  0.00    -0.122 C  
HETATM    2  C   UNL     1      -9.093  11.365  69.032  1.00  0.00     0.084 C  
ENDROOT
BRANCH   2   3
HETATM    3  N   UNL     1      -9.764  10.067  69.210  1.00  0.00    -0.203 NA 
HETATM    4  H   UNL     1      -9.184   9.321  68.826  1.00  0.00     0.000 HD 
BRANCH   3   5
HETATM    5  C   UNL     1     -10.166   9.732  70.603  1.00  0.00    -0.220 C  
HETATM    6  C   UNL     1     -11.638   9.312  70.666  1.00  0.00    -0.305 C  
BRANCH   5   7
HETATM    7  C   UNL     1      -9.248   8.587  71.158  1.00  0.00    -0.197 C  
HETATM    8  H   UNL     1      -7.732   8.479  72.385  1.00  0.00     0.000 HD 
HETATM    9  O   UNL     1      -8.288   9.173  72.049  1.00  0.00    -0.321 OA 
BRANCH   7  10
HETATM   10  C   UNL     1      -9.959   7.443  71.875  1.00  0.00    -0.196 A  
HETATM   11  C   UNL     1      -9.731   7.143  73.230  1.00  0.00    -0.251 A  
HETATM   12  C   UNL     1     -11.327   5.341  73.148  1.00  0.00    -0.291 A  
HETATM   13  C   UNL     1     -11.599   5.633  71.822  1.00  0.00    -0.033 A  
HETATM   14  O   UNL     1     -11.994   4.299  73.726  1.00  0.00    -0.092 OA 
HETATM   15  C   UNL     1     -10.401   6.090  73.862  1.00  0.00    -0.293 A  
HETATM   16  C   UNL     1     -10.926   6.683  71.192  1.00  0.00    -0.302 A  
HETATM   17  H   UNL     1     -12.627   3.786  73.237  1.00  0.00     0.000 HD 
ENDBRANCH   7  10
ENDBRANCH   5   7
ENDBRANCH   3   5
ENDBRANCH   2   3
BRANCH   2  18
HETATM   18  C   UNL     1      -9.993  12.312  68.212  1.00  0.00    -0.216 C  
BRANCH  18  19
HETATM   19  C   UNL     1     -11.266  11.679  67.638  1.00  0.00    -0.345 C  
BRANCH  19  20
HETATM   20  C   UNL     1     -11.525  12.252  66.261  1.00  0.00    -0.435 A  
HETATM   21  C   UNL     1     -11.140  11.543  65.115  1.00  0.00    -0.260 A  
HETATM   22  C   UNL     1     -11.270  12.119  63.850  1.00  0.00    -0.485 A  
HETATM   23  C   UNL     1     -12.185  14.116  64.851  1.00  0.00    -0.451 A  
HETATM   24  C   UNL     1     -12.056  13.541  66.117  1.00  0.00    -0.482 A  
HETATM   25  C   UNL     1     -11.787  13.407  63.719  1.00  0.00    -0.483 A  
ENDBRANCH  19  20
ENDBRANCH  18  19
ENDBRANCH   2  18
TORSDOF 7
ENDMDL
MODEL      262
REMARK 921   NORMALIZED FREE ENERGY PREDICTED BY IDOCK:   -3.01 KCAL/MOL
REMARK 922        TOTAL FREE ENERGY PREDICTED BY IDOCK:   -5.88 KCAL/MOL
REMARK 923 INTER-LIGAND FREE ENERGY PREDICTED BY IDOCK:   -4.33 KCAL/MOL
REMARK 924 INTRA-LIGAND FREE ENERGY PREDICTED BY IDOCK:   -1.55 KCAL/MOL
REMARK 927      BINDING AFFINITY PREDICTED BY RF-SCORE:    0.00 PKD
ROOT
HETATM    1  C   UNL     1      -9.567   4.184  68.920  1.00  0.00    -0.222 C  
HETATM    2  C   UNL     1      -9.504   4.984  67.611  1.00  0.00    -0.132 C  
ENDROOT
BRANCH   2   3
HETATM    3  N   UNL     1      -8.282   5.796  67.503  1.00  0.00    -0.102 NA 
HETATM    4  H   UNL     1      -7.821   5.854  68.411  1.00  0.00     0.000 HD 
BRANCH   3   5
HETATM    5  C   UNL     1      -7.306   5.362  66.466  1.00  0.00    -0.086 C  
HETATM    6  C   UNL     1      -7.608   3.937  65.988  1.00  0.00    -0.089 C  
BRANCH   5   7
HETATM    7  C   UNL     1      -7.338   6.361  65.257  1.00  0.00    -0.077 C  
HETATM    8  H   UNL     1      -8.383   6.538  63.616  1.00  0.00     0.000 HD 
HETATM    9  O   UNL     1      -8.364   5.933  64.349  1.00  0.00    -0.122 OA 
BRANCH   7  10
HETATM   10  C   UNL     1      -7.560   7.829  65.603  1.00  0.00    -0.085 A  
HETATM   11  C   UNL     1      -6.802   8.498  66.582  1.00  0.00    -0.072 A  
HETATM   12  C   UNL     1      -7.996  10.550  66.173  1.00  0.00    -0.147 A  
HETATM   13  C   UNL     1      -8.735   9.929  65.180  1.00  0.00    -0.187 A  
HETATM   14  O   UNL     1      -8.251  11.864  66.437  1.00  0.00    -0.358 OA 
HETATM   15  C   UNL     1      -7.025   9.847  66.875  1.00  0.00    -0.088 A  
HETATM   16  C   UNL     1      -8.513   8.580  64.891  1.00  0.00    -0.166 A  
HETATM   17  H   UNL     1      -8.915  12.344  65.956  1.00  0.00     0.000 HD 
ENDBRANCH   7  10
ENDBRANCH   5   7
ENDBRANCH   3   5
ENDBRANCH   2   3
BRANCH   2  18
HETATM   18  C   UNL     1     -10.746   5.899  67.573  1.00  0.00    -0.359 C  
BRANCH  18  19
HETATM   19  C   UNL     1     -10.457   7.395  67.407  1.00  0.00    -0.366 C  
BRANCH  19  20
HETATM   20  C   UNL     1     -10.622   8.081  68.747  1.00  0.00    -0.145 A  
HETATM   21  C   UNL     1     -11.076   7.360  69.861  1.00  0.00    -0.208 A  
HETATM   22  C   UNL     1     -11.340   8.013  71.066  1.00  0.00    -0.294 A  
HETATM   23  C   UNL     1     -10.691  10.114  70.073  1.00  0.00    -0.356 A  
HETATM   24  C   UNL     1     -10.425   9.463  68.867  1.00  0.00    -0.236 A  
HETATM   25  C   UNL     1     -11.154   9.390  71.170  1.00  0.00    -0.432 A  
ENDBRANCH  19  20
ENDBRANCH  18  19
ENDBRANCH   2  18
TORSDOF 7
ENDMDL
MODEL      263
REMARK 921   NORMALIZED FREE ENERGY PREDICTED BY IDOCK:   -2.91 KCAL/MOL
REMARK 922        TOTAL FREE ENERGY PREDICTED BY IDOCK:   -5.74 KCAL/MOL
REMARK 923 INTER-LIGAND FREE ENERGY PREDICTED BY IDOCK:   -4.24 KCAL/MOL
REMARK 924 INTRA-LIGAND FREE ENERGY PREDICTED BY IDOCK:   -1.49 KCAL/MOL
REMARK 927      BINDING AFFINITY PREDICTED BY RF-SCORE:    0.00 PKD
ROOT
HETATM    1  C   UNL     1      -9.564   3.843  69.733  1.00  0.00    -0.271 C  
HETATM    2  C   UNL     1      -9.290   4.872  68.626  1.00  0.00    -0.135 C  
ENDROOT
BRANCH   2   3
HETATM    3  N   UNL     1      -8.007   5.568  68.805  1.00  0.00    -0.094 NA 
HETATM    4  H   UNL     1      -7.555   5.250  69.662  1.00  0.00     0.000 HD 
BRANCH   3   5
HETATM    5  C   UNL     1      -7.054   5.475  67.665  1.00  0.00    -0.071 C  
HETATM    6  C   UNL     1      -7.543   4.464  66.621  1.00  0.00    -0.089 C  
BRANCH   5   7
HETATM    7  C   UNL     1      -6.871   6.889  67.010  1.00  0.00    -0.065 C  
HETATM    8  H   UNL     1      -7.874   7.983  65.742  1.00  0.00     0.000 HD 
HETATM    9  O   UNL     1      -7.985   7.127  66.138  1.00  0.00    -0.103 OA 
BRANCH   7  10
HETATM   10  C   UNL     1      -6.733   8.063  67.974  1.00  0.00    -0.065 A  
HETATM   11  C   UNL     1      -5.692   8.149  68.916  1.00  0.00    -0.035 A  
HETATM   12  C   UNL     1      -6.513  10.272  69.701  1.00  0.00    -0.069 A  
HETATM   13  C   UNL     1      -7.530  10.234  68.761  1.00  0.00    -0.089 A  
HETATM   14  O   UNL     1      -6.452  11.350  70.537  1.00  0.00    -0.497 OA 
HETATM   15  C   UNL     1      -5.588   9.241  69.784  1.00  0.00    -0.033 A  
HETATM   16  C   UNL     1      -7.634   9.141  67.897  1.00  0.00    -0.085 A  
HETATM   17  H   UNL     1      -7.086  12.055  70.480  1.00  0.00     0.000 HD 
ENDBRANCH   7  10
ENDBRANCH   5   7
ENDBRANCH   3   5
ENDBRANCH   2   3
BRANCH   2  18
HETATM   18  C   UNL     1     -10.448   5.891  68.651  1.00  0.00    -0.302 C  
BRANCH  18  19
HETATM   19  C   UNL     1     -10.073   7.302  69.117  1.00  0.00    -0.183 C  
BRANCH  19  20
HETATM   20  C   UNL     1     -10.912   7.662  70.325  1.00  0.00    -0.261 A  
HETATM   21  C   UNL     1     -11.932   6.804  70.760  1.00  0.00    -0.433 A  
HETATM   22  C   UNL     1     -12.782   7.187  71.799  1.00  0.00    -0.374 A  
HETATM   23  C   UNL     1     -11.604   9.284  71.996  1.00  0.00    -0.305 A  
HETATM   24  C   UNL     1     -10.752   8.903  70.957  1.00  0.00    -0.315 A  
HETATM   25  C   UNL     1     -12.622   8.428  72.412  1.00  0.00    -0.372 A  
ENDBRANCH  19  20
ENDBRANCH  18  19
ENDBRANCH   2  18
TORSDOF 7
ENDMDL
MODEL      264
REMARK 921   NORMALIZED FREE ENERGY PREDICTED BY IDOCK:   -2.90 KCAL/MOL
REMARK 922        TOTAL FREE ENERGY PREDICTED BY IDOCK:   -5.72 KCAL/MOL
REMARK 923 INTER-LIGAND FREE ENERGY PREDICTED BY IDOCK:   -4.45 KCAL/MOL
REMARK 924 INTRA-LIGAND FREE ENERGY PREDICTED BY IDOCK:   -1.27 KCAL/MOL
REMARK 927      BINDING AFFINITY PREDICTED BY RF-SCORE:    0.00 PKD
ROOT
HETATM    1  C   UNL     1      -7.775   3.029  69.837  1.00  0.00    -0.044 C  
HETATM    2  C   UNL     1      -7.890   4.447  69.259  1.00  0.00    -0.058 C  
ENDROOT
BRANCH   2   3
HETATM    3  N   UNL     1      -7.440   5.481  70.204  1.00  0.00    -0.068 NA 
HETATM    4  H   UNL     1      -7.347   6.376  69.723  1.00  0.00     0.000 HD 
BRANCH   3   5
HETATM    5  C   UNL     1      -8.273   5.648  71.427  1.00  0.00    -0.122 C  
HETATM    6  C   UNL     1      -7.592   5.017  72.647  1.00  0.00    -0.096 C  
BRANCH   5   7
HETATM    7  C   UNL     1      -8.542   7.172  71.681  1.00  0.00    -0.114 C  
HETATM    8  H   UNL     1      -7.957   8.850  70.870  1.00  0.00     0.000 HD 
HETATM    9  O   UNL     1      -7.794   7.926  70.717  1.00  0.00    -0.087 OA 
BRANCH   7  10
HETATM   10  C   UNL     1     -10.001   7.614  71.635  1.00  0.00    -0.207 A  
HETATM   11  C   UNL     1     -10.380   8.969  71.614  1.00  0.00    -0.420 A  
HETATM   12  C   UNL     1     -12.710   8.365  71.517  1.00  0.00    -0.308 A  
HETATM   13  C   UNL     1     -12.368   7.023  71.502  1.00  0.00    -0.420 A  
HETATM   14  O   UNL     1     -14.035   8.690  71.481  1.00  0.00    -0.441 OA 
HETATM   15  C   UNL     1     -11.727   9.345  71.567  1.00  0.00    -0.465 A  
HETATM   16  C   UNL     1     -11.022   6.650  71.552  1.00  0.00    -0.287 A  
HETATM   17  H   UNL     1     -14.707   8.020  71.447  1.00  0.00     0.000 HD 
ENDBRANCH   7  10
ENDBRANCH   5   7
ENDBRANCH   3   5
ENDBRANCH   2   3
BRANCH   2  18
HETATM   18  C   UNL     1      -9.372   4.677  68.898  1.00  0.00    -0.200 C  
BRANCH  18  19
HETATM   19  C   UNL     1      -9.650   5.881  67.991  1.00  0.00    -0.122 C  
BRANCH  19  20
HETATM   20  C   UNL     1      -9.575   5.437  66.545  1.00  0.00    -0.167 A  
HETATM   21  C   UNL     1     -10.560   4.595  66.011  1.00  0.00    -0.244 A  
HETATM   22  C   UNL     1     -10.432   4.090  64.715  1.00  0.00    -0.194 A  
HETATM   23  C   UNL     1      -8.341   5.268  64.460  1.00  0.00    -0.138 A  
HETATM   24  C   UNL     1      -8.468   5.775  65.755  1.00  0.00    -0.143 A  
HETATM   25  C   UNL     1      -9.321   4.421  63.943  1.00  0.00    -0.109 A  
ENDBRANCH  19  20
ENDBRANCH  18  19
ENDBRANCH   2  18
TORSDOF 7
ENDMDL
MODEL      265
REMARK 921   NORMALIZED FREE ENERGY PREDICTED BY IDOCK:   -2.86 KCAL/MOL
REMARK 922        TOTAL FREE ENERGY PREDICTED BY IDOCK:   -5.66 KCAL/MOL
REMARK 923 INTER-LIGAND FREE ENERGY PREDICTED BY IDOCK:   -4.61 KCAL/MOL
REMARK 924 INTRA-LIGAND FREE ENERGY PREDICTED BY IDOCK:   -1.06 KCAL/MOL
REMARK 927      BINDING AFFINITY PREDICTED BY RF-SCORE:    0.00 PKD
ROOT
HETATM    1  C   UNL     1      -7.953   9.292  69.813  1.00  0.00    -0.103 C  
HETATM    2  C   UNL     1      -9.482   9.340  69.675  1.00  0.00    -0.179 C  
ENDROOT
BRANCH   2   3
HETATM    3  N   UNL     1     -10.014  10.711  69.742  1.00  0.00    -0.440 NA 
HETATM    4  H   UNL     1      -9.256  11.369  69.924  1.00  0.00     0.000 HD 
BRANCH   3   5
HETATM    5  C   UNL     1     -10.800  11.158  68.560  1.00  0.00    -0.203 C  
HETATM    6  C   UNL     1     -11.987  12.030  68.986  1.00  0.00    -0.321 C  
BRANCH   5   7
HETATM    7  C   UNL     1      -9.870  11.949  67.573  1.00  0.00    -0.188 C  
HETATM    8  H   UNL     1      -8.264  13.046  67.742  1.00  0.00     0.000 HD 
HETATM    9  O   UNL     1      -8.827  12.567  68.339  1.00  0.00    -0.181 OA 
BRANCH   7  10
HETATM   10  C   UNL     1      -9.245  11.138  66.443  1.00  0.00    -0.199 A  
HETATM   11  C   UNL     1      -9.959  10.777  65.286  1.00  0.00    -0.342 A  
HETATM   12  C   UNL     1      -8.023   9.668  64.379  1.00  0.00    -0.138 A  
HETATM   13  C   UNL     1      -7.283  10.037  65.490  1.00  0.00    -0.133 A  
HETATM   14  O   UNL     1      -7.403   8.936  63.408  1.00  0.00    -0.096 OA 
HETATM   15  C   UNL     1      -9.357  10.036  64.264  1.00  0.00    -0.345 A  
HETATM   16  C   UNL     1      -7.887  10.774  66.512  1.00  0.00    -0.145 A  
HETATM   17  H   UNL     1      -6.490   8.684  63.487  1.00  0.00     0.000 HD 
ENDBRANCH   7  10
ENDBRANCH   5   7
ENDBRANCH   3   5
ENDBRANCH   2   3
BRANCH   2  18
HETATM   18  C   UNL     1     -10.073   8.493  70.821  1.00  0.00    -0.237 C  
BRANCH  18  19
HETATM   19  C   UNL     1      -9.055   7.701  71.648  1.00  0.00    -0.157 C  
BRANCH  19  20
HETATM   20  C   UNL     1      -9.226   6.225  71.360  1.00  0.00    -0.153 A  
HETATM   21  C   UNL     1      -9.388   5.774  70.043  1.00  0.00    -0.175 A  
HETATM   22  C   UNL     1      -9.663   4.430  69.784  1.00  0.00    -0.291 A  
HETATM   23  C   UNL     1      -9.606   3.960  72.150  1.00  0.00    -0.209 A  
HETATM   24  C   UNL     1      -9.330   5.303  72.411  1.00  0.00    -0.157 A  
HETATM   25  C   UNL     1      -9.778   3.525  70.837  1.00  0.00    -0.213 A  
ENDBRANCH  19  20
ENDBRANCH  18  19
ENDBRANCH   2  18
TORSDOF 7
ENDMDL
MODEL      266
REMARK 921   NORMALIZED FREE ENERGY PREDICTED BY IDOCK:   -2.83 KCAL/MOL
REMARK 922        TOTAL FREE ENERGY PREDICTED BY IDOCK:   -5.62 KCAL/MOL
REMARK 923 INTER-LIGAND FREE ENERGY PREDICTED BY IDOCK:   -4.58 KCAL/MOL
REMARK 924 INTRA-LIGAND FREE ENERGY PREDICTED BY IDOCK:   -1.04 KCAL/MOL
REMARK 927      BINDING AFFINITY PREDICTED BY RF-SCORE:    0.00 PKD
ROOT
HETATM    1  C   UNL     1      -7.827   9.378  69.548  1.00  0.00    -0.091 C  
HETATM    2  C   UNL     1      -9.232   9.947  69.303  1.00  0.00    -0.200 C  
ENDROOT
BRANCH   2   3
HETATM    3  N   UNL     1      -9.226  11.406  69.111  1.00  0.00    -0.404 NA 
HETATM    4  H   UNL     1      -8.273  11.763  69.188  1.00  0.00     0.000 HD 
BRANCH   3   5
HETATM    5  C   UNL     1      -9.849  11.896  67.851  1.00  0.00    -0.190 C  
HETATM    6  C   UNL     1     -10.614  13.203  68.087  1.00  0.00    -0.257 C  
BRANCH   5   7
HETATM    7  C   UNL     1      -8.743  12.101  66.757  1.00  0.00    -0.183 C  
HETATM    8  H   UNL     1      -6.905  12.760  66.734  1.00  0.00     0.000 HD 
HETATM    9  O   UNL     1      -7.575  12.635  67.397  1.00  0.00    -0.144 OA 
BRANCH   7  10
HETATM   10  C   UNL     1      -8.351  10.864  65.956  1.00  0.00    -0.165 A  
HETATM   11  C   UNL     1      -9.298   9.933  65.492  1.00  0.00    -0.280 A  
HETATM   12  C   UNL     1      -7.566   8.619  64.454  1.00  0.00    -0.115 A  
HETATM   13  C   UNL     1      -6.613   9.536  64.867  1.00  0.00    -0.086 A  
HETATM   14  O   UNL     1      -7.145   7.530  63.747  1.00  0.00    -0.063 OA 
HETATM   15  C   UNL     1      -8.908   8.809  64.756  1.00  0.00    -0.089 A  
HETATM   16  C   UNL     1      -7.004  10.656  65.606  1.00  0.00    -0.078 A  
HETATM   17  H   UNL     1      -6.227   7.400  63.541  1.00  0.00     0.000 HD 
ENDBRANCH   7  10
ENDBRANCH   5   7
ENDBRANCH   3   5
ENDBRANCH   2   3
BRANCH   2  18
HETATM   18  C   UNL     1     -10.094   9.584  70.530  1.00  0.00    -0.347 C  
BRANCH  18  19
HETATM   19  C   UNL     1      -9.340   8.937  71.697  1.00  0.00    -0.328 C  
BRANCH  19  20
HETATM   20  C   UNL     1     -10.160   7.783  72.234  1.00  0.00    -0.277 A  
HETATM   21  C   UNL     1      -9.633   6.939  73.223  1.00  0.00    -0.193 A  
HETATM   22  C   UNL     1     -10.338   5.807  73.635  1.00  0.00    -0.258 A  
HETATM   23  C   UNL     1     -12.113   6.347  72.093  1.00  0.00    -0.316 A  
HETATM   24  C   UNL     1     -11.410   7.480  71.679  1.00  0.00    -0.283 A  
HETATM   25  C   UNL     1     -11.574   5.508  73.067  1.00  0.00    -0.233 A  
ENDBRANCH  19  20
ENDBRANCH  18  19
ENDBRANCH   2  18
TORSDOF 7
ENDMDL
MODEL      267
REMARK 921   NORMALIZED FREE ENERGY PREDICTED BY IDOCK:   -2.77 KCAL/MOL
REMARK 922        TOTAL FREE ENERGY PREDICTED BY IDOCK:   -5.53 KCAL/MOL
REMARK 923 INTER-LIGAND FREE ENERGY PREDICTED BY IDOCK:   -3.72 KCAL/MOL
REMARK 924 INTRA-LIGAND FREE ENERGY PREDICTED BY IDOCK:   -1.81 KCAL/MOL
REMARK 927      BINDING AFFINITY PREDICTED BY RF-SCORE:    0.00 PKD
ROOT
HETATM    1  C   UNL     1      -7.084   1.506  72.664  1.00  0.00    -0.023 C  
HETATM    2  C   UNL     1      -7.450   2.979  72.430  1.00  0.00    -0.052 C  
ENDROOT
BRANCH   2   3
HETATM    3  N   UNL     1      -7.939   3.231  71.065  1.00  0.00    -0.053 NA 
HETATM    4  H   UNL     1      -7.824   2.393  70.495  1.00  0.00     0.000 HD 
BRANCH   3   5
HETATM    5  C   UNL     1      -9.338   3.729  70.960  1.00  0.00    -0.148 C  
HETATM    6  C   UNL     1     -10.064   3.618  72.305  1.00  0.00    -0.225 C  
BRANCH   5   7
HETATM    7  C   UNL     1      -9.334   5.218  70.465  1.00  0.00    -0.157 C  
HETATM    8  H   UNL     1      -9.655   6.127  68.767  1.00  0.00     0.000 HD 
HETATM    9  O   UNL     1      -9.657   5.226  69.067  1.00  0.00    -0.126 OA 
BRANCH   7  10
HETATM   10  C   UNL     1     -10.270   6.173  71.198  1.00  0.00    -0.245 A  
HETATM   11  C   UNL     1      -9.862   6.920  72.318  1.00  0.00    -0.163 A  
HETATM   12  C   UNL     1     -12.036   7.944  72.486  1.00  0.00    -0.295 A  
HETATM   13  C   UNL     1     -12.457   7.249  71.364  1.00  0.00    -0.418 A  
HETATM   14  O   UNL     1     -12.927   8.777  73.097  1.00  0.00    -0.710 OA 
HETATM   15  C   UNL     1     -10.742   7.792  72.968  1.00  0.00    -0.446 A  
HETATM   16  C   UNL     1     -11.578   6.376  70.719  1.00  0.00    -0.402 A  
HETATM   17  H   UNL     1     -13.812   8.880  72.768  1.00  0.00     0.000 HD 
ENDBRANCH   7  10
ENDBRANCH   5   7
ENDBRANCH   3   5
ENDBRANCH   2   3
BRANCH   2  18
HETATM   18  C   UNL     1      -6.180   3.815  72.694  1.00  0.00    -0.012 C  
BRANCH  18  19
HETATM   19  C   UNL     1      -5.849   4.865  71.628  1.00  0.00    -0.013 C  
BRANCH  19  20
HETATM   20  C   UNL     1      -6.108   6.244  72.195  1.00  0.00    -0.042 A  
HETATM   21  C   UNL     1      -6.277   6.422  73.576  1.00  0.00    -0.064 A  
HETATM   22  C   UNL     1      -6.632   7.671  74.090  1.00  0.00    -0.096 A  
HETATM   23  C   UNL     1      -6.643   8.589  71.858  1.00  0.00    -0.077 A  
HETATM   24  C   UNL     1      -6.287   7.341  71.342  1.00  0.00    -0.036 A  
HETATM   25  C   UNL     1      -6.820   8.752  73.231  1.00  0.00     0.086 A  
ENDBRANCH  19  20
ENDBRANCH  18  19
ENDBRANCH   2  18
TORSDOF 7
ENDMDL
MODEL      268
REMARK 921   NORMALIZED FREE ENERGY PREDICTED BY IDOCK:   -2.74 KCAL/MOL
REMARK 922        TOTAL FREE ENERGY PREDICTED BY IDOCK:   -5.50 KCAL/MOL
REMARK 923 INTER-LIGAND FREE ENERGY PREDICTED BY IDOCK:   -4.51 KCAL/MOL
REMARK 924 INTRA-LIGAND FREE ENERGY PREDICTED BY IDOCK:   -0.99 KCAL/MOL
REMARK 927      BINDING AFFINITY PREDICTED BY RF-SCORE:    0.00 PKD
ROOT
HETATM    1  C   UNL     1     -10.181   3.272  71.233  1.00  0.00     0.257 C  
HETATM    2  C   UNL     1     -10.013   4.779  71.480  1.00  0.00    -0.194 C  
ENDROOT
BRANCH   2   3
HETATM    3  N   UNL     1      -9.229   5.441  70.426  1.00  0.00    -0.149 NA 
HETATM    4  H   UNL     1      -8.907   4.752  69.747  1.00  0.00     0.000 HD 
BRANCH   3   5
HETATM    5  C   UNL     1      -9.906   6.566  69.725  1.00  0.00    -0.165 C  
HETATM    6  C   UNL     1     -11.422   6.349  69.671  1.00  0.00    -0.446 C  
BRANCH   5   7
HETATM    7  C   UNL     1      -9.576   7.918  70.451  1.00  0.00    -0.171 C  
HETATM    8  H   UNL     1      -8.632   9.562  69.983  1.00  0.00     0.000 HD 
HETATM    9  O   UNL     1      -8.832   8.744  69.544  1.00  0.00    -0.139 OA 
BRANCH   7  10
HETATM   10  C   UNL     1     -10.769   8.707  70.979  1.00  0.00    -0.284 A  
HETATM   11  C   UNL     1     -11.578   8.240  72.032  1.00  0.00    -0.403 A  
HETATM   12  C   UNL     1     -12.937  10.226  71.931  1.00  0.00    -0.449 A  
HETATM   13  C   UNL     1     -12.139  10.729  70.917  1.00  0.00    -0.475 A  
HETATM   14  O   UNL     1     -13.993  10.981  72.351  1.00  0.00    -0.232 OA 
HETATM   15  C   UNL     1     -12.664   8.988  72.499  1.00  0.00    -0.373 A  
HETATM   16  C   UNL     1     -11.057   9.978  70.450  1.00  0.00    -0.393 A  
HETATM   17  H   UNL     1     -14.181  11.827  71.963  1.00  0.00     0.000 HD 
ENDBRANCH   7  10
ENDBRANCH   5   7
ENDBRANCH   3   5
ENDBRANCH   2   3
BRANCH   2  18
HETATM   18  C   UNL     1      -9.307   4.944  72.841  1.00  0.00    -0.145 C  
BRANCH  18  19
HETATM   19  C   UNL     1      -7.776   4.877  72.802  1.00  0.00    -0.093 C  
BRANCH  19  20
HETATM   20  C   UNL     1      -7.212   6.195  73.286  1.00  0.00    -0.088 A  
HETATM   21  C   UNL     1      -8.023   7.100  73.985  1.00  0.00    -0.138 A  
HETATM   22  C   UNL     1      -7.540   8.364  74.330  1.00  0.00    -0.242 A  
HETATM   23  C   UNL     1      -5.423   7.839  73.297  1.00  0.00    -0.044 A  
HETATM   24  C   UNL     1      -5.904   6.574  72.952  1.00  0.00    -0.042 A  
HETATM   25  C   UNL     1      -6.243   8.735  73.980  1.00  0.00    -0.099 A  
ENDBRANCH  19  20
ENDBRANCH  18  19
ENDBRANCH   2  18
TORSDOF 7
ENDMDL
MODEL      269
REMARK 921   NORMALIZED FREE ENERGY PREDICTED BY IDOCK:   -2.55 KCAL/MOL
REMARK 922        TOTAL FREE ENERGY PREDICTED BY IDOCK:   -5.22 KCAL/MOL
REMARK 923 INTER-LIGAND FREE ENERGY PREDICTED BY IDOCK:   -3.91 KCAL/MOL
REMARK 924 INTRA-LIGAND FREE ENERGY PREDICTED BY IDOCK:   -1.31 KCAL/MOL
REMARK 927      BINDING AFFINITY PREDICTED BY RF-SCORE:    0.00 PKD
ROOT
HETATM    1  C   UNL     1      -8.182   6.622  64.213  1.00  0.00     0.028 C  
HETATM    2  C   UNL     1      -8.568   6.706  65.697  1.00  0.00    -0.123 C  
ENDROOT
BRANCH   2   3
HETATM    3  N   UNL     1      -7.534   7.360  66.514  1.00  0.00    -0.083 NA 
HETATM    4  H   UNL     1      -7.002   8.016  65.942  1.00  0.00     0.000 HD 
BRANCH   3   5
HETATM    5  C   UNL     1      -8.018   8.040  67.747  1.00  0.00    -0.127 C  
HETATM    6  C   UNL     1      -7.282   7.520  68.987  1.00  0.00    -0.085 C  
BRANCH   5   7
HETATM    7  C   UNL     1      -7.823   9.591  67.608  1.00  0.00    -0.102 C  
HETATM    8  H   UNL     1      -7.424  10.825  66.148  1.00  0.00     0.000 HD 
HETATM    9  O   UNL     1      -7.543   9.886  66.232  1.00  0.00    -0.098 OA 
BRANCH   7  10
HETATM   10  C   UNL     1      -8.985  10.460  68.077  1.00  0.00    -0.129 A  
HETATM   11  C   UNL     1      -9.662  10.226  69.288  1.00  0.00    -0.240 A  
HETATM   12  C   UNL     1     -11.100  12.120  68.903  1.00  0.00    -0.243 A  
HETATM   13  C   UNL     1     -10.431  12.397  67.722  1.00  0.00    -0.231 A  
HETATM   14  O   UNL     1     -12.136  12.934  69.260  1.00  0.00    -0.268 OA 
HETATM   15  C   UNL     1     -10.723  11.043  69.695  1.00  0.00    -0.193 A  
HETATM   16  C   UNL     1      -9.375  11.577  67.316  1.00  0.00    -0.170 A  
HETATM   17  H   UNL     1     -12.395  13.670  68.718  1.00  0.00     0.000 HD 
ENDBRANCH   7  10
ENDBRANCH   5   7
ENDBRANCH   3   5
ENDBRANCH   2   3
BRANCH   2  18
HETATM   18  C   UNL     1      -8.794   5.263  66.194  1.00  0.00    -0.135 C  
BRANCH  18  19
HETATM   19  C   UNL     1     -10.171   4.986  66.807  1.00  0.00    -0.286 C  
BRANCH  19  20
HETATM   20  C   UNL     1     -10.089   5.165  68.308  1.00  0.00    -0.199 A  
HETATM   21  C   UNL     1     -10.608   6.317  68.914  1.00  0.00    -0.321 A  
HETATM   22  C   UNL     1     -10.430   6.540  70.281  1.00  0.00    -0.261 A  
HETATM   23  C   UNL     1      -9.222   4.459  70.465  1.00  0.00    -0.192 A  
HETATM   24  C   UNL     1      -9.400   4.234  69.098  1.00  0.00    -0.229 A  
HETATM   25  C   UNL     1      -9.732   5.614  71.054  1.00  0.00    -0.221 A  
ENDBRANCH  19  20
ENDBRANCH  18  19
ENDBRANCH   2  18
TORSDOF 7
ENDMDL
MODEL      270
REMARK 921   NORMALIZED FREE ENERGY PREDICTED BY IDOCK:   -2.48 KCAL/MOL
REMARK 922        TOTAL FREE ENERGY PREDICTED BY IDOCK:   -5.12 KCAL/MOL
REMARK 923 INTER-LIGAND FREE ENERGY PREDICTED BY IDOCK:   -4.64 KCAL/MOL
REMARK 924 INTRA-LIGAND FREE ENERGY PREDICTED BY IDOCK:   -0.48 KCAL/MOL
REMARK 927      BINDING AFFINITY PREDICTED BY RF-SCORE:    0.00 PKD
ROOT
HETATM    1  C   UNL     1      -7.879  13.110  67.001  1.00  0.00     0.034 C  
HETATM    2  C   UNL     1      -8.683  11.810  67.145  1.00  0.00    -0.169 C  
ENDROOT
BRANCH   2   3
HETATM    3  N   UNL     1      -7.855  10.608  66.957  1.00  0.00    -0.114 NA 
HETATM    4  H   UNL     1      -7.428  10.338  67.843  1.00  0.00     0.000 HD 
BRANCH   3   5
HETATM    5  C   UNL     1      -8.543   9.437  66.347  1.00  0.00    -0.134 C  
HETATM    6  C   UNL     1      -8.052   9.195  64.915  1.00  0.00    -0.133 C  
BRANCH   5   7
HETATM    7  C   UNL     1      -8.300   8.162  67.229  1.00  0.00    -0.121 C  
HETATM    8  H   UNL     1      -6.825   6.914  67.507  1.00  0.00     0.000 HD 
HETATM    9  O   UNL     1      -6.972   7.686  66.972  1.00  0.00    -0.075 OA 
BRANCH   7  10
HETATM   10  C   UNL     1      -8.484   8.340  68.732  1.00  0.00    -0.125 A  
HETATM   11  C   UNL     1      -9.491   7.672  69.454  1.00  0.00    -0.152 A  
HETATM   12  C   UNL     1      -8.751   8.684  71.512  1.00  0.00    -0.202 A  
HETATM   13  C   UNL     1      -7.729   9.328  70.835  1.00  0.00    -0.134 A  
HETATM   14  O   UNL     1      -8.863   8.893  72.855  1.00  0.00    -0.288 OA 
HETATM   15  C   UNL     1      -9.633   7.851  70.835  1.00  0.00    -0.172 A  
HETATM   16  C   UNL     1      -7.591   9.151  69.456  1.00  0.00    -0.079 A  
HETATM   17  H   UNL     1      -8.260   9.463  73.319  1.00  0.00     0.000 HD 
ENDBRANCH   7  10
ENDBRANCH   5   7
ENDBRANCH   3   5
ENDBRANCH   2   3
BRANCH   2  18
HETATM   18  C   UNL     1      -9.805  11.844  66.087  1.00  0.00    -0.254 C  
BRANCH  18  19
HETATM   19  C   UNL     1     -10.902  12.888  66.323  1.00  0.00    -0.295 C  
BRANCH  19  20
HETATM   20  C   UNL     1     -11.426  12.742  67.736  1.00  0.00    -0.376 A  
HETATM   21  C   UNL     1     -11.506  13.859  68.581  1.00  0.00    -0.333 A  
HETATM   22  C   UNL     1     -11.876  13.709  69.918  1.00  0.00    -0.389 A  
HETATM   23  C   UNL     1     -12.105  11.329  69.591  1.00  0.00    -0.391 A  
HETATM   24  C   UNL     1     -11.736  11.477  68.252  1.00  0.00    -0.371 A  
HETATM   25  C   UNL     1     -12.170  12.444  70.424  1.00  0.00    -0.370 A  
ENDBRANCH  19  20
ENDBRANCH  18  19
ENDBRANCH   2  18
TORSDOF 7
ENDMDL
MODEL      271
REMARK 921   NORMALIZED FREE ENERGY PREDICTED BY IDOCK:   -2.46 KCAL/MOL
REMARK 922        TOTAL FREE ENERGY PREDICTED BY IDOCK:   -5.10 KCAL/MOL
REMARK 923 INTER-LIGAND FREE ENERGY PREDICTED BY IDOCK:   -3.34 KCAL/MOL
REMARK 924 INTRA-LIGAND FREE ENERGY PREDICTED BY IDOCK:   -1.76 KCAL/MOL
REMARK 927      BINDING AFFINITY PREDICTED BY RF-SCORE:    0.00 PKD
ROOT
HETATM    1  C   UNL     1      -7.008  20.348  66.627  1.00  0.00    -0.306 C  
HETATM    2  C   UNL     1      -6.308  19.979  67.943  1.00  0.00    -0.234 C  
ENDROOT
BRANCH   2   3
HETATM    3  N   UNL     1      -5.631  18.675  67.878  1.00  0.00    -0.175 NA 
HETATM    4  H   UNL     1      -5.711  18.196  68.775  1.00  0.00     0.000 HD 
BRANCH   3   5
HETATM    5  C   UNL     1      -6.071  17.771  66.779  1.00  0.00    -0.159 C  
HETATM    6  C   UNL     1      -5.193  17.949  65.535  1.00  0.00    -0.169 C  
BRANCH   5   7
HETATM    7  C   UNL     1      -6.026  16.281  67.269  1.00  0.00    -0.140 C  
HETATM    8  H   UNL     1      -5.651  15.375  68.958  1.00  0.00     0.000 HD 
HETATM    9  O   UNL     1      -5.678  16.277  68.661  1.00  0.00    -0.103 OA 
BRANCH   7  10
HETATM   10  C   UNL     1      -7.303  15.470  67.073  1.00  0.00    -0.172 A  
HETATM   11  C   UNL     1      -7.626  14.364  67.880  1.00  0.00    -0.158 A  
HETATM   12  C   UNL     1      -9.690  14.034  66.682  1.00  0.00    -0.289 A  
HETATM   13  C   UNL     1      -9.416  15.140  65.893  1.00  0.00    -0.334 A  
HETATM   14  O   UNL     1     -10.847  13.350  66.448  1.00  0.00    -0.286 OA 
HETATM   15  C   UNL     1      -8.807  13.641  67.679  1.00  0.00    -0.194 A  
HETATM   16  C   UNL     1      -8.235  15.858  66.093  1.00  0.00     0.037 A  
HETATM   17  H   UNL     1     -11.451  13.619  65.765  1.00  0.00     0.000 HD 
ENDBRANCH   7  10
ENDBRANCH   5   7
ENDBRANCH   3   5
ENDBRANCH   2   3
BRANCH   2  18
HETATM   18  C   UNL     1      -7.388  19.954  69.045  1.00  0.00    -0.242 C  
BRANCH  18  19
HETATM   19  C   UNL     1      -7.756  18.564  69.576  1.00  0.00     0.331 C  
BRANCH  19  20
HETATM   20  C   UNL     1      -9.071  18.134  68.963  1.00  0.00    -0.055 A  
HETATM   21  C   UNL     1      -9.742  17.002  69.447  1.00  0.00     0.020 A  
HETATM   22  C   UNL     1     -10.893  16.535  68.809  1.00  0.00    -0.342 A  
HETATM   23  C   UNL     1     -10.732  18.328  67.202  1.00  0.00    -0.334 A  
HETATM   24  C   UNL     1      -9.582  18.797  67.838  1.00  0.00    -0.345 A  
HETATM   25  C   UNL     1     -11.384  17.194  67.684  1.00  0.00     0.309 A  
ENDBRANCH  19  20
ENDBRANCH  18  19
ENDBRANCH   2  18
TORSDOF 7
ENDMDL
MODEL      272
REMARK 921   NORMALIZED FREE ENERGY PREDICTED BY IDOCK:   -2.44 KCAL/MOL
REMARK 922        TOTAL FREE ENERGY PREDICTED BY IDOCK:   -5.07 KCAL/MOL
REMARK 923 INTER-LIGAND FREE ENERGY PREDICTED BY IDOCK:   -3.78 KCAL/MOL
REMARK 924 INTRA-LIGAND FREE ENERGY PREDICTED BY IDOCK:   -1.29 KCAL/MOL
REMARK 927      BINDING AFFINITY PREDICTED BY RF-SCORE:    0.00 PKD
ROOT
HETATM    1  C   UNL     1     -11.449   6.261  69.856  1.00  0.00    -0.459 C  
HETATM    2  C   UNL     1     -10.060   6.916  69.809  1.00  0.00    -0.184 C  
ENDROOT
BRANCH   2   3
HETATM    3  N   UNL     1      -8.979   5.937  69.615  1.00  0.00    -0.129 NA 
HETATM    4  H   UNL     1      -9.278   5.019  69.943  1.00  0.00     0.000 HD 
BRANCH   3   5
HETATM    5  C   UNL     1      -8.443   5.831  68.230  1.00  0.00    -0.113 C  
HETATM    6  C   UNL     1      -7.017   6.386  68.148  1.00  0.00    -0.080 C  
BRANCH   5   7
HETATM    7  C   UNL     1      -8.472   4.332  67.765  1.00  0.00    -0.098 C  
HETATM    8  H   UNL     1      -9.158   2.655  68.492  1.00  0.00     0.000 HD 
HETATM    9  O   UNL     1      -9.140   3.562  68.774  1.00  0.00    -0.118 OA 
BRANCH   7  10
HETATM   10  C   UNL     1      -9.128   4.060  66.415  1.00  0.00    -0.140 A  
HETATM   11  C   UNL     1     -10.334   4.670  66.024  1.00  0.00    -0.318 A  
HETATM   12  C   UNL     1     -10.270   3.541  63.897  1.00  0.00    -0.222 A  
HETATM   13  C   UNL     1      -9.065   2.951  64.239  1.00  0.00    -0.116 A  
HETATM   14  O   UNL     1     -10.805   3.248  62.676  1.00  0.00    -0.179 OA 
HETATM   15  C   UNL     1     -10.910   4.405  64.777  1.00  0.00    -0.059 A  
HETATM   16  C   UNL     1      -8.493   3.215  65.486  1.00  0.00    -0.103 A  
HETATM   17  H   UNL     1     -10.367   2.657  62.075  1.00  0.00     0.000 HD 
ENDBRANCH   7  10
ENDBRANCH   5   7
ENDBRANCH   3   5
ENDBRANCH   2   3
BRANCH   2  18
HETATM   18  C   UNL     1      -9.859   7.660  71.145  1.00  0.00    -0.184 C  
BRANCH  18  19
HETATM   19  C   UNL     1     -10.028   9.183  71.083  1.00  0.00    -0.377 C  
BRANCH  19  20
HETATM   20  C   UNL     1      -9.064   9.745  70.060  1.00  0.00    -0.258 A  
HETATM   21  C   UNL     1      -9.546  10.357  68.894  1.00  0.00    -0.197 A  
HETATM   22  C   UNL     1      -8.662  10.771  67.896  1.00  0.00    -0.129 A  
HETATM   23  C   UNL     1      -6.800   9.981  69.213  1.00  0.00    -0.059 A  
HETATM   24  C   UNL     1      -7.682   9.567  70.213  1.00  0.00    -0.170 A  
HETATM   25  C   UNL     1      -7.291  10.577  68.052  1.00  0.00    -0.089 A  
ENDBRANCH  19  20
ENDBRANCH  18  19
ENDBRANCH   2  18
TORSDOF 7
ENDMDL
MODEL      273
REMARK 921   NORMALIZED FREE ENERGY PREDICTED BY IDOCK:   -2.39 KCAL/MOL
REMARK 922        TOTAL FREE ENERGY PREDICTED BY IDOCK:   -4.99 KCAL/MOL
REMARK 923 INTER-LIGAND FREE ENERGY PREDICTED BY IDOCK:   -3.62 KCAL/MOL
REMARK 924 INTRA-LIGAND FREE ENERGY PREDICTED BY IDOCK:   -1.37 KCAL/MOL
REMARK 927      BINDING AFFINITY PREDICTED BY RF-SCORE:    0.00 PKD
ROOT
HETATM    1  C   UNL     1      -7.455  20.875  65.808  1.00  0.00     0.348 C  
HETATM    2  C   UNL     1      -6.016  20.822  66.344  1.00  0.00    -0.223 C  
ENDROOT
BRANCH   2   3
HETATM    3  N   UNL     1      -5.438  19.471  66.280  1.00  0.00    -0.160 NA 
HETATM    4  H   UNL     1      -5.411  19.060  67.214  1.00  0.00     0.000 HD 
BRANCH   3   5
HETATM    5  C   UNL     1      -6.093  18.530  65.331  1.00  0.00    -0.266 C  
HETATM    6  C   UNL     1      -5.313  18.445  64.014  1.00  0.00     0.092 C  
BRANCH   5   7
HETATM    7  C   UNL     1      -6.209  17.110  65.988  1.00  0.00     0.185 C  
HETATM    8  H   UNL     1      -5.301  16.158  67.431  1.00  0.00     0.000 HD 
HETATM    9  O   UNL     1      -5.231  17.018  67.033  1.00  0.00    -0.132 OA 
BRANCH   7  10
HETATM   10  C   UNL     1      -7.577  16.739  66.552  1.00  0.00    -0.334 A  
HETATM   11  C   UNL     1      -7.912  15.423  66.918  1.00  0.00    -0.230 A  
HETATM   12  C   UNL     1     -10.106  16.126  67.618  1.00  0.00    -0.248 A  
HETATM   13  C   UNL     1      -9.795  17.437  67.300  1.00  0.00    -0.278 A  
HETATM   14  O   UNL     1     -11.351  15.863  68.112  1.00  0.00    -0.345 OA 
HETATM   15  C   UNL     1      -9.173  15.113  67.437  1.00  0.00    -0.199 A  
HETATM   16  C   UNL     1      -8.536  17.744  66.778  1.00  0.00    -0.269 A  
HETATM   17  H   UNL     1     -11.990  16.556  68.236  1.00  0.00     0.000 HD 
ENDBRANCH   7  10
ENDBRANCH   5   7
ENDBRANCH   3   5
ENDBRANCH   2   3
BRANCH   2  18
HETATM   18  C   UNL     1      -6.053  21.308  67.807  1.00  0.00    -0.402 C  
BRANCH  18  19
HETATM   19  C   UNL     1      -7.063  20.595  68.713  1.00  0.00     0.163 C  
BRANCH  19  20
HETATM   20  C   UNL     1      -6.312  19.766  69.733  1.00  0.00    -0.387 A  
HETATM   21  C   UNL     1      -6.132  18.390  69.534  1.00  0.00    -0.260 A  
HETATM   22  C   UNL     1      -5.544  17.603  70.526  1.00  0.00    -0.173 A  
HETATM   23  C   UNL     1      -5.294  19.551  71.928  1.00  0.00    -0.345 A  
HETATM   24  C   UNL     1      -5.881  20.340  70.937  1.00  0.00    -0.324 A  
HETATM   25  C   UNL     1      -5.131  18.182  71.724  1.00  0.00     0.167 A  
ENDBRANCH  19  20
ENDBRANCH  18  19
ENDBRANCH   2  18
TORSDOF 7
ENDMDL
MODEL      274
REMARK 921   NORMALIZED FREE ENERGY PREDICTED BY IDOCK:   -2.37 KCAL/MOL
REMARK 922        TOTAL FREE ENERGY PREDICTED BY IDOCK:   -4.97 KCAL/MOL
REMARK 923 INTER-LIGAND FREE ENERGY PREDICTED BY IDOCK:   -4.12 KCAL/MOL
REMARK 924 INTRA-LIGAND FREE ENERGY PREDICTED BY IDOCK:   -0.86 KCAL/MOL
REMARK 927      BINDING AFFINITY PREDICTED BY RF-SCORE:    0.00 PKD
ROOT
HETATM    1  C   UNL     1     -10.991   6.460  68.520  1.00  0.00    -0.396 C  
HETATM    2  C   UNL     1      -9.827   7.406  68.848  1.00  0.00    -0.157 C  
ENDROOT
BRANCH   2   3
HETATM    3  N   UNL     1      -8.581   7.030  68.161  1.00  0.00    -0.128 NA 
HETATM    4  H   UNL     1      -8.255   6.126  68.501  1.00  0.00     0.000 HD 
BRANCH   3   5
HETATM    5  C   UNL     1      -8.640   7.022  66.673  1.00  0.00    -0.124 C  
HETATM    6  C   UNL     1      -8.080   8.324  66.092  1.00  0.00    -0.111 C  
BRANCH   5   7
HETATM    7  C   UNL     1      -7.842   5.790  66.119  1.00  0.00    -0.101 C  
HETATM    8  H   UNL     1      -6.873   4.285  66.900  1.00  0.00     0.000 HD 
HETATM    9  O   UNL     1      -7.356   5.031  67.236  1.00  0.00    -0.079 OA 
BRANCH   7  10
HETATM   10  C   UNL     1      -8.604   4.861  65.180  1.00  0.00    -0.144 A  
HETATM   11  C   UNL     1      -7.955   4.025  64.253  1.00  0.00    -0.086 A  
HETATM   12  C   UNL     1     -10.067   3.146  63.496  1.00  0.00    -0.169 A  
HETATM   13  C   UNL     1     -10.733   3.932  64.422  1.00  0.00    -0.200 A  
HETATM   14  O   UNL     1     -10.811   2.344  62.682  1.00  0.00    -0.149 OA 
HETATM   15  C   UNL     1      -8.681   3.180  63.407  1.00  0.00    -0.089 A  
HETATM   16  C   UNL     1     -10.006   4.778  65.264  1.00  0.00    -0.065 A  
HETATM   17  H   UNL     1     -11.759   2.321  62.743  1.00  0.00     0.000 HD 
ENDBRANCH   7  10
ENDBRANCH   5   7
ENDBRANCH   3   5
ENDBRANCH   2   3
BRANCH   2  18
HETATM   18  C   UNL     1      -9.616   7.360  70.376  1.00  0.00    -0.165 C  
BRANCH  18  19
HETATM   19  C   UNL     1      -9.271   8.701  71.034  1.00  0.00    -0.253 C  
BRANCH  19  20
HETATM   20  C   UNL     1      -9.810   9.825  70.176  1.00  0.00    -0.306 A  
HETATM   21  C   UNL     1      -8.982  10.460  69.238  1.00  0.00    -0.176 A  
HETATM   22  C   UNL     1      -9.440  11.573  68.530  1.00  0.00    -0.175 A  
HETATM   23  C   UNL     1     -11.562  11.429  69.670  1.00  0.00    -0.399 A  
HETATM   24  C   UNL     1     -11.106  10.316  70.379  1.00  0.00    -0.391 A  
HETATM   25  C   UNL     1     -10.726  12.060  68.750  1.00  0.00    -0.252 A  
ENDBRANCH  19  20
ENDBRANCH  18  19
ENDBRANCH   2  18
TORSDOF 7
ENDMDL
MODEL      275
REMARK 921   NORMALIZED FREE ENERGY PREDICTED BY IDOCK:   -2.33 KCAL/MOL
REMARK 922        TOTAL FREE ENERGY PREDICTED BY IDOCK:   -4.92 KCAL/MOL
REMARK 923 INTER-LIGAND FREE ENERGY PREDICTED BY IDOCK:   -5.27 KCAL/MOL
REMARK 924 INTRA-LIGAND FREE ENERGY PREDICTED BY IDOCK:    0.35 KCAL/MOL
REMARK 927      BINDING AFFINITY PREDICTED BY RF-SCORE:    0.00 PKD
ROOT
HETATM    1  C   UNL     1      -8.091  10.045  67.342  1.00  0.00    -0.114 C  
HETATM    2  C   UNL     1      -9.494  10.458  67.809  1.00  0.00    -0.145 C  
ENDROOT
BRANCH   2   3
HETATM    3  N   UNL     1      -9.466  11.568  68.774  1.00  0.00    -0.362 NA 
HETATM    4  H   UNL     1      -8.868  11.326  69.565  1.00  0.00     0.000 HD 
BRANCH   3   5
HETATM    5  C   UNL     1      -9.070  12.893  68.225  1.00  0.00    -0.180 C  
HETATM    6  C   UNL     1      -7.933  12.750  67.207  1.00  0.00    -0.156 C  
BRANCH   5   7
HETATM    7  C   UNL     1     -10.313  13.584  67.560  1.00  0.00    -0.237 C  
HETATM    8  H   UNL     1     -12.250  13.496  67.789  1.00  0.00     0.000 HD 
HETATM    9  O   UNL     1     -11.497  13.078  68.192  1.00  0.00    -0.277 OA 
BRANCH   7  10
HETATM   10  C   UNL     1     -10.338  15.108  67.602  1.00  0.00    -0.248 A  
HETATM   11  C   UNL     1      -9.550  15.900  66.746  1.00  0.00    -0.252 A  
HETATM   12  C   UNL     1     -10.454  17.917  67.705  1.00  0.00    -0.400 A  
HETATM   13  C   UNL     1     -11.267  17.165  68.537  1.00  0.00     0.055 A  
HETATM   14  O   UNL     1     -10.521  19.276  67.800  1.00  0.00    -0.404 OA 
HETATM   15  C   UNL     1      -9.598  17.297  66.804  1.00  0.00    -0.279 A  
HETATM   16  C   UNL     1     -11.215  15.770  68.480  1.00  0.00    -0.354 A  
HETATM   17  H   UNL     1     -11.107  19.700  68.417  1.00  0.00     0.000 HD 
ENDBRANCH   7  10
ENDBRANCH   5   7
ENDBRANCH   3   5
ENDBRANCH   2   3
BRANCH   2  18
HETATM   18  C   UNL     1     -10.146   9.218  68.456  1.00  0.00    -0.211 C  
BRANCH  18  19
HETATM   19  C   UNL     1     -10.619   8.136  67.478  1.00  0.00    -0.291 C  
BRANCH  19  20
HETATM   20  C   UNL     1     -10.347   6.774  68.080  1.00  0.00    -0.219 A  
HETATM   21  C   UNL     1     -10.896   6.426  69.323  1.00  0.00    -0.387 A  
HETATM   22  C   UNL     1     -10.553   5.219  69.934  1.00  0.00    -0.292 A  
HETATM   23  C   UNL     1      -9.119   4.678  68.070  1.00  0.00    -0.144 A  
HETATM   24  C   UNL     1      -9.461   5.885  67.456  1.00  0.00    -0.110 A  
HETATM   25  C   UNL     1      -9.661   4.348  69.311  1.00  0.00    -0.261 A  
ENDBRANCH  19  20
ENDBRANCH  18  19
ENDBRANCH   2  18
TORSDOF 7
ENDMDL
MODEL      276
REMARK 921   NORMALIZED FREE ENERGY PREDICTED BY IDOCK:   -2.30 KCAL/MOL
REMARK 922        TOTAL FREE ENERGY PREDICTED BY IDOCK:   -4.87 KCAL/MOL
REMARK 923 INTER-LIGAND FREE ENERGY PREDICTED BY IDOCK:   -4.43 KCAL/MOL
REMARK 924 INTRA-LIGAND FREE ENERGY PREDICTED BY IDOCK:   -0.44 KCAL/MOL
REMARK 927      BINDING AFFINITY PREDICTED BY RF-SCORE:    0.00 PKD
ROOT
HETATM    1  C   UNL     1      -7.817  13.113  66.928  1.00  0.00     0.172 C  
HETATM    2  C   UNL     1      -8.555  11.766  66.976  1.00  0.00    -0.173 C  
ENDROOT
BRANCH   2   3
HETATM    3  N   UNL     1      -7.665  10.624  66.714  1.00  0.00    -0.121 NA 
HETATM    4  H   UNL     1      -7.214  10.329  67.580  1.00  0.00     0.000 HD 
BRANCH   3   5
HETATM    5  C   UNL     1      -8.296   9.452  66.046  1.00  0.00    -0.119 C  
HETATM    6  C   UNL     1      -7.996   9.448  64.543  1.00  0.00    -0.126 C  
BRANCH   5   7
HETATM    7  C   UNL     1      -7.781   8.126  66.708  1.00  0.00    -0.095 C  
HETATM    8  H   UNL     1      -7.535   7.477  68.533  1.00  0.00     0.000 HD 
HETATM    9  O   UNL     1      -7.847   8.280  68.132  1.00  0.00    -0.114 OA 
BRANCH   7  10
HETATM   10  C   UNL     1      -8.514   6.848  66.311  1.00  0.00    -0.131 A  
HETATM   11  C   UNL     1      -7.872   5.780  65.658  1.00  0.00    -0.100 A  
HETATM   12  C   UNL     1      -9.915   4.504  65.636  1.00  0.00    -0.231 A  
HETATM   13  C   UNL     1     -10.568   5.524  66.309  1.00  0.00    -0.222 A  
HETATM   14  O   UNL     1     -10.633   3.392  65.305  1.00  0.00    -0.227 OA 
HETATM   15  C   UNL     1      -8.570   4.618  65.311  1.00  0.00    -0.133 A  
HETATM   16  C   UNL     1      -9.870   6.685  66.652  1.00  0.00    -0.208 A  
HETATM   17  H   UNL     1     -11.554   3.314  65.527  1.00  0.00     0.000 HD 
ENDBRANCH   7  10
ENDBRANCH   5   7
ENDBRANCH   3   5
ENDBRANCH   2   3
BRANCH   2  18
HETATM   18  C   UNL     1      -9.671  11.816  65.913  1.00  0.00    -0.259 C  
BRANCH  18  19
HETATM   19  C   UNL     1     -10.743  12.889  66.132  1.00  0.00    -0.290 C  
BRANCH  19  20
HETATM   20  C   UNL     1     -11.215  12.829  67.570  1.00  0.00    -0.332 A  
HETATM   21  C   UNL     1     -11.236  13.988  68.358  1.00  0.00    -0.292 A  
HETATM   22  C   UNL     1     -11.557  13.916  69.714  1.00  0.00    -0.335 A  
HETATM   23  C   UNL     1     -11.854  11.529  69.519  1.00  0.00    -0.419 A  
HETATM   24  C   UNL     1     -11.534  11.599  68.162  1.00  0.00    -0.382 A  
HETATM   25  C   UNL     1     -11.860  12.686  70.296  1.00  0.00    -0.295 A  
ENDBRANCH  19  20
ENDBRANCH  18  19
ENDBRANCH   2  18
TORSDOF 7
ENDMDL
MODEL      277
REMARK 921   NORMALIZED FREE ENERGY PREDICTED BY IDOCK:   -1.98 KCAL/MOL
REMARK 922        TOTAL FREE ENERGY PREDICTED BY IDOCK:   -4.43 KCAL/MOL
REMARK 923 INTER-LIGAND FREE ENERGY PREDICTED BY IDOCK:   -5.47 KCAL/MOL
REMARK 924 INTRA-LIGAND FREE ENERGY PREDICTED BY IDOCK:    1.05 KCAL/MOL
REMARK 927      BINDING AFFINITY PREDICTED BY RF-SCORE:    0.00 PKD
ROOT
HETATM    1  C   UNL     1      -8.463   9.158  70.505  1.00  0.00    -0.236 C  
HETATM    2  C   UNL     1      -9.873   8.943  69.934  1.00  0.00    -0.182 C  
ENDROOT
BRANCH   2   3
HETATM    3  N   UNL     1     -10.409  10.149  69.282  1.00  0.00    -0.208 NA 
HETATM    4  H   UNL     1     -10.734  10.810  69.988  1.00  0.00     0.000 HD 
BRANCH   3   5
HETATM    5  C   UNL     1      -9.492  10.833  68.330  1.00  0.00    -0.174 C  
HETATM    6  C   UNL     1      -8.174  10.062  68.185  1.00  0.00    -0.109 C  
BRANCH   5   7
HETATM    7  C   UNL     1     -10.192  10.982  66.934  1.00  0.00    -0.222 C  
HETATM    8  H   UNL     1     -11.924  10.488  66.178  1.00  0.00     0.000 HD 
HETATM    9  O   UNL     1     -11.499  10.398  67.024  1.00  0.00    -0.189 OA 
BRANCH   7  10
HETATM   10  C   UNL     1     -10.318  12.402  66.393  1.00  0.00    -0.255 A  
HETATM   11  C   UNL     1     -11.330  12.781  65.493  1.00  0.00    -0.347 A  
HETATM   12  C   UNL     1     -10.516  15.048  65.457  1.00  0.00    -0.365 A  
HETATM   13  C   UNL     1      -9.528  14.715  66.370  1.00  0.00    -0.325 A  
HETATM   14  O   UNL     1     -10.566  16.336  65.009  1.00  0.00    -0.620 OA 
HETATM   15  C   UNL     1     -11.423  14.094  65.017  1.00  0.00    -0.352 A  
HETATM   16  C   UNL     1      -9.435  13.403  66.841  1.00  0.00    -0.253 A  
HETATM   17  H   UNL     1      -9.945  16.988  65.310  1.00  0.00     0.000 HD 
ENDBRANCH   7  10
ENDBRANCH   5   7
ENDBRANCH   3   5
ENDBRANCH   2   3
BRANCH   2  18
HETATM   18  C   UNL     1     -10.785   8.533  71.108  1.00  0.00    -0.290 C  
BRANCH  18  19
HETATM   19  C   UNL     1     -10.236   7.423  72.012  1.00  0.00    -0.221 C  
BRANCH  19  20
HETATM   20  C   UNL     1      -9.749   6.279  71.148  1.00  0.00    -0.194 A  
HETATM   21  C   UNL     1     -10.543   5.795  70.099  1.00  0.00    -0.377 A  
HETATM   22  C   UNL     1     -10.149   4.666  69.377  1.00  0.00    -0.194 A  
HETATM   23  C   UNL     1      -8.157   4.493  70.728  1.00  0.00    -0.068 A  
HETATM   24  C   UNL     1      -8.548   5.622  71.451  1.00  0.00    -0.132 A  
HETATM   25  C   UNL     1      -8.960   4.013  69.695  1.00  0.00    -0.163 A  
ENDBRANCH  19  20
ENDBRANCH  18  19
ENDBRANCH   2  18
TORSDOF 7
ENDMDL
MODEL      278
REMARK 921   NORMALIZED FREE ENERGY PREDICTED BY IDOCK:   -1.96 KCAL/MOL
REMARK 922        TOTAL FREE ENERGY PREDICTED BY IDOCK:   -4.39 KCAL/MOL
REMARK 923 INTER-LIGAND FREE ENERGY PREDICTED BY IDOCK:   -3.64 KCAL/MOL
REMARK 924 INTRA-LIGAND FREE ENERGY PREDICTED BY IDOCK:   -0.75 KCAL/MOL
REMARK 927      BINDING AFFINITY PREDICTED BY RF-SCORE:    0.00 PKD
ROOT
HETATM    1  C   UNL     1     -10.998  12.712  69.654  1.00  0.00     0.147 C  
HETATM    2  C   UNL     1     -10.355  12.355  68.305  1.00  0.00    -0.227 C  
ENDROOT
BRANCH   2   3
HETATM    3  N   UNL     1     -11.326  12.347  67.200  1.00  0.00    -0.308 NA 
HETATM    4  H   UNL     1     -12.253  12.111  67.553  1.00  0.00     0.000 HD 
BRANCH   3   5
HETATM    5  C   UNL     1     -11.394  13.593  66.388  1.00  0.00    -0.316 C  
HETATM    6  C   UNL     1     -12.523  14.507  66.876  1.00  0.00     0.099 C  
BRANCH   5   7
HETATM    7  C   UNL     1     -10.017  14.343  66.455  1.00  0.00    -0.294 C  
HETATM    8  H   UNL     1      -8.487  14.567  65.263  1.00  0.00     0.000 HD 
HETATM    9  O   UNL     1      -9.321  14.112  65.222  1.00  0.00     0.190 OA 
BRANCH   7  10
HETATM   10  C   UNL     1     -10.082  15.844  66.717  1.00  0.00    -0.276 A  
HETATM   11  C   UNL     1     -10.386  16.775  65.706  1.00  0.00    -0.322 A  
HETATM   12  C   UNL     1     -10.219  18.599  67.271  1.00  0.00    -0.376 A  
HETATM   13  C   UNL     1      -9.951  17.705  68.294  1.00  0.00    -0.339 A  
HETATM   14  O   UNL     1     -10.255  19.929  67.573  1.00  0.00    -0.388 OA 
HETATM   15  C   UNL     1     -10.443  18.147  65.977  1.00  0.00    -0.346 A  
HETATM   16  C   UNL     1      -9.891  16.336  68.021  1.00  0.00    -0.236 A  
HETATM   17  H   UNL     1     -10.101  20.239  68.459  1.00  0.00     0.000 HD 
ENDBRANCH   7  10
ENDBRANCH   5   7
ENDBRANCH   3   5
ENDBRANCH   2   3
BRANCH   2  18
HETATM   18  C   UNL     1      -9.720  10.957  68.456  1.00  0.00    -0.183 C  
BRANCH  18  19
HETATM   19  C   UNL     1      -8.370  10.768  67.756  1.00  0.00    -0.113 C  
BRANCH  19  20
HETATM   20  C   UNL     1      -7.415  10.075  68.704  1.00  0.00    -0.083 A  
HETATM   21  C   UNL     1      -6.044  10.022  68.416  1.00  0.00    -0.045 A  
HETATM   22  C   UNL     1      -5.179   9.284  69.227  1.00  0.00    -0.036 A  
HETATM   23  C   UNL     1      -7.034   8.649  70.634  1.00  0.00    -0.047 A  
HETATM   24  C   UNL     1      -7.901   9.387  69.825  1.00  0.00    -0.115 A  
HETATM   25  C   UNL     1      -5.674   8.593  70.331  1.00  0.00    -0.027 A  
ENDBRANCH  19  20
ENDBRANCH  18  19
ENDBRANCH   2  18
TORSDOF 7
ENDMDL
MODEL      279
REMARK 921   NORMALIZED FREE ENERGY PREDICTED BY IDOCK:   -1.77 KCAL/MOL
REMARK 922        TOTAL FREE ENERGY PREDICTED BY IDOCK:   -4.13 KCAL/MOL
REMARK 923 INTER-LIGAND FREE ENERGY PREDICTED BY IDOCK:   -5.08 KCAL/MOL
REMARK 924 INTRA-LIGAND FREE ENERGY PREDICTED BY IDOCK:    0.95 KCAL/MOL
REMARK 927      BINDING AFFINITY PREDICTED BY RF-SCORE:    0.00 PKD
ROOT
HETATM    1  C   UNL     1     -10.262  18.632  68.719  1.00  0.00    -0.316 C  
HETATM    2  C   UNL     1     -10.537  17.279  68.047  1.00  0.00    -0.394 C  
ENDROOT
BRANCH   2   3
HETATM    3  N   UNL     1     -11.425  16.420  68.845  1.00  0.00    -0.276 NA 
HETATM    4  H   UNL     1     -12.273  16.930  69.092  1.00  0.00     0.000 HD 
BRANCH   3   5
HETATM    5  C   UNL     1     -11.782  15.110  68.234  1.00  0.00    -0.314 C  
HETATM    6  C   UNL     1     -10.913  14.822  67.005  1.00  0.00    -0.324 C  
BRANCH   5   7
HETATM    7  C   UNL     1     -11.620  13.968  69.296  1.00  0.00    -0.309 C  
HETATM    8  H   UNL     1     -12.680  13.283  70.787  1.00  0.00     0.000 HD 
HETATM    9  O   UNL     1     -12.778  13.975  70.143  1.00  0.00    -0.302 OA 
BRANCH   7  10
HETATM   10  C   UNL     1     -11.415  12.560  68.745  1.00  0.00    -0.353 A  
HETATM   11  C   UNL     1     -11.564  12.255  67.380  1.00  0.00    -0.425 A  
HETATM   12  C   UNL     1     -10.990   9.951  67.785  1.00  0.00    -0.217 A  
HETATM   13  C   UNL     1     -10.802  10.227  69.129  1.00  0.00    -0.270 A  
HETATM   14  O   UNL     1     -10.797   8.668  67.360  1.00  0.00    -0.461 OA 
HETATM   15  C   UNL     1     -11.365  10.955  66.902  1.00  0.00    -0.044 A  
HETATM   16  C   UNL     1     -11.005  11.525  69.605  1.00  0.00    -0.129 A  
HETATM   17  H   UNL     1     -10.541   7.981  67.964  1.00  0.00     0.000 HD 
ENDBRANCH   7  10
ENDBRANCH   5   7
ENDBRANCH   3   5
ENDBRANCH   2   3
BRANCH   2  18
HETATM   18  C   UNL     1      -9.176  16.581  67.846  1.00  0.00    -0.211 C  
BRANCH  18  19
HETATM   19  C   UNL     1      -8.338  16.393  69.115  1.00  0.00    -0.182 C  
BRANCH  19  20
HETATM   20  C   UNL     1      -7.255  15.370  68.845  1.00  0.00    -0.139 A  
HETATM   21  C   UNL     1      -7.142  14.775  67.581  1.00  0.00    -0.206 A  
HETATM   22  C   UNL     1      -6.222  13.748  67.362  1.00  0.00     0.130 A  
HETATM   23  C   UNL     1      -5.502  13.900  69.661  1.00  0.00    -0.088 A  
HETATM   24  C   UNL     1      -6.421  14.928  69.881  1.00  0.00    -0.171 A  
HETATM   25  C   UNL     1      -5.407  13.307  68.403  1.00  0.00    -0.083 A  
ENDBRANCH  19  20
ENDBRANCH  18  19
ENDBRANCH   2  18
TORSDOF 7
ENDMDL
MODEL      280
REMARK 921   NORMALIZED FREE ENERGY PREDICTED BY IDOCK:   -1.76 KCAL/MOL
REMARK 922        TOTAL FREE ENERGY PREDICTED BY IDOCK:   -4.11 KCAL/MOL
REMARK 923 INTER-LIGAND FREE ENERGY PREDICTED BY IDOCK:   -5.47 KCAL/MOL
REMARK 924 INTRA-LIGAND FREE ENERGY PREDICTED BY IDOCK:    1.36 KCAL/MOL
REMARK 927      BINDING AFFINITY PREDICTED BY RF-SCORE:    0.00 PKD
ROOT
HETATM    1  C   UNL     1      -9.709  19.562  69.241  1.00  0.00    -0.322 C  
HETATM    2  C   UNL     1      -9.311  19.266  67.788  1.00  0.00    -0.312 C  
ENDROOT
BRANCH   2   3
HETATM    3  N   UNL     1     -10.444  18.792  66.976  1.00  0.00    -0.398 NA 
HETATM    4  H   UNL     1     -10.772  19.541  66.366  1.00  0.00     0.000 HD 
BRANCH   3   5
HETATM    5  C   UNL     1     -10.197  17.560  66.178  1.00  0.00    -0.335 C  
HETATM    6  C   UNL     1      -8.741  17.492  65.705  1.00  0.00     0.257 C  
BRANCH   5   7
HETATM    7  C   UNL     1     -10.551  16.294  67.036  1.00  0.00    -0.284 C  
HETATM    8  H   UNL     1     -11.692  15.923  68.576  1.00  0.00     0.000 HD 
HETATM    9  O   UNL     1     -11.478  16.689  68.056  1.00  0.00    -0.167 OA 
BRANCH   7  10
HETATM   10  C   UNL     1     -11.126  15.105  66.274  1.00  0.00    -0.309 A  
HETATM   11  C   UNL     1     -11.356  13.857  66.882  1.00  0.00    -0.343 A  
HETATM   12  C   UNL     1     -12.220  12.958  64.821  1.00  0.00    -0.445 A  
HETATM   13  C   UNL     1     -12.037  14.184  64.202  1.00  0.00    -0.437 A  
HETATM   14  O   UNL     1     -12.732  11.934  64.079  1.00  0.00    -0.400 OA 
HETATM   15  C   UNL     1     -11.889  12.785  66.159  1.00  0.00    -0.484 A  
HETATM   16  C   UNL     1     -11.501  15.252  64.925  1.00  0.00    -0.343 A  
HETATM   17  H   UNL     1     -12.958  12.053  63.163  1.00  0.00     0.000 HD 
ENDBRANCH   7  10
ENDBRANCH   5   7
ENDBRANCH   3   5
ENDBRANCH   2   3
BRANCH   2  18
HETATM   18  C   UNL     1      -8.207  18.190  67.825  1.00  0.00    -0.245 C  
BRANCH  18  19
HETATM   19  C   UNL     1      -8.191  17.305  69.076  1.00  0.00    -0.096 C  
BRANCH  19  20
HETATM   20  C   UNL     1      -7.126  16.241  68.915  1.00  0.00    -0.182 A  
HETATM   21  C   UNL     1      -6.074  16.423  68.005  1.00  0.00    -0.128 A  
HETATM   22  C   UNL     1      -5.158  15.397  67.769  1.00  0.00    -0.088 A  
HETATM   23  C   UNL     1      -6.317  13.993  69.354  1.00  0.00    -0.115 A  
HETATM   24  C   UNL     1      -7.234  15.019  69.593  1.00  0.00    -0.192 A  
HETATM   25  C   UNL     1      -5.283  14.181  68.438  1.00  0.00    -0.104 A  
ENDBRANCH  19  20
ENDBRANCH  18  19
ENDBRANCH   2  18
TORSDOF 7
ENDMDL
MODEL      281
REMARK 921   NORMALIZED FREE ENERGY PREDICTED BY IDOCK:   -1.38 KCAL/MOL
REMARK 922        TOTAL FREE ENERGY PREDICTED BY IDOCK:   -3.58 KCAL/MOL
REMARK 923 INTER-LIGAND FREE ENERGY PREDICTED BY IDOCK:   -3.90 KCAL/MOL
REMARK 924 INTRA-LIGAND FREE ENERGY PREDICTED BY IDOCK:    0.33 KCAL/MOL
REMARK 927      BINDING AFFINITY PREDICTED BY RF-SCORE:    0.00 PKD
ROOT
HETATM    1  C   UNL     1      -7.043  20.380  65.962  1.00  0.00    -0.255 C  
HETATM    2  C   UNL     1      -6.279  20.671  67.262  1.00  0.00    -0.238 C  
ENDROOT
BRANCH   2   3
HETATM    3  N   UNL     1      -5.333  19.601  67.614  1.00  0.00    -0.179 NA 
HETATM    4  H   UNL     1      -5.088  19.665  68.602  1.00  0.00     0.000 HD 
BRANCH   3   5
HETATM    5  C   UNL     1      -5.771  18.216  67.289  1.00  0.00    -0.137 C  
HETATM    6  C   UNL     1      -5.343  17.822  65.871  1.00  0.00    -0.226 C  
BRANCH   5   7
HETATM    7  C   UNL     1      -5.174  17.213  68.337  1.00  0.00    -0.128 C  
HETATM    8  H   UNL     1      -4.768  17.261  70.247  1.00  0.00     0.000 HD 
HETATM    9  O   UNL     1      -5.129  17.869  69.612  1.00  0.00    -0.173 OA 
BRANCH   7  10
HETATM   10  C   UNL     1      -5.906  15.883  68.487  1.00  0.00    -0.103 A  
HETATM   11  C   UNL     1      -5.547  14.928  69.457  1.00  0.00    -0.097 A  
HETATM   12  C   UNL     1      -7.318  13.462  68.736  1.00  0.00    -0.076 A  
HETATM   13  C   UNL     1      -7.717  14.396  67.794  1.00  0.00    -0.172 A  
HETATM   14  O   UNL     1      -8.012  12.290  68.812  1.00  0.00    -0.289 OA 
HETATM   15  C   UNL     1      -6.240  13.719  69.574  1.00  0.00    -0.116 A  
HETATM   16  C   UNL     1      -7.021  15.602  67.676  1.00  0.00    -0.197 A  
HETATM   17  H   UNL     1      -8.749  12.115  68.238  1.00  0.00     0.000 HD 
ENDBRANCH   7  10
ENDBRANCH   5   7
ENDBRANCH   3   5
ENDBRANCH   2   3
BRANCH   2  18
HETATM   18  C   UNL     1      -7.327  20.834  68.383  1.00  0.00     0.186 C  
BRANCH  18  19
HETATM   19  C   UNL     1      -7.598  19.578  69.218  1.00  0.00    -0.237 C  
BRANCH  19  20
HETATM   20  C   UNL     1      -8.771  18.830  68.621  1.00  0.00    -0.360 A  
HETATM   21  C   UNL     1      -9.521  19.402  67.582  1.00  0.00    -0.395 A  
HETATM   22  C   UNL     1     -10.671  18.769  67.109  1.00  0.00    -0.469 A  
HETATM   23  C   UNL     1     -10.339  16.977  68.692  1.00  0.00    -0.351 A  
HETATM   24  C   UNL     1      -9.188  17.608  69.166  1.00  0.00     0.070 A  
HETATM   25  C   UNL     1     -11.084  17.560  67.668  1.00  0.00     0.042 A  
ENDBRANCH  19  20
ENDBRANCH  18  19
ENDBRANCH   2  18
TORSDOF 7
ENDMDL
MODEL      282
REMARK 921   NORMALIZED FREE ENERGY PREDICTED BY IDOCK:    0.87 KCAL/MOL
REMARK 922        TOTAL FREE ENERGY PREDICTED BY IDOCK:   -0.41 KCAL/MOL
REMARK 923 INTER-LIGAND FREE ENERGY PREDICTED BY IDOCK:   -2.52 KCAL/MOL
REMARK 924 INTRA-LIGAND FREE ENERGY PREDICTED BY IDOCK:    2.11 KCAL/MOL
REMARK 927      BINDING AFFINITY PREDICTED BY RF-SCORE:    0.00 PKD
ROOT
HETATM    1  C   UNL     1      -9.436  11.135  67.932  1.00  0.00    -0.178 C  
HETATM    2  C   UNL     1     -10.300  11.751  66.821  1.00  0.00    -0.219 C  
ENDROOT
BRANCH   2   3
HETATM    3  N   UNL     1      -9.888  11.318  65.477  1.00  0.00    -0.220 NA 
HETATM    4  H   UNL     1      -8.911  11.565  65.317  1.00  0.00     0.000 HD 
BRANCH   3   5
HETATM    5  C   UNL     1     -10.105   9.878  65.166  1.00  0.00    -0.107 C  
HETATM    6  C   UNL     1      -9.250   9.438  63.973  1.00  0.00    -0.010 C  
BRANCH   5   7
HETATM    7  C   UNL     1      -9.768   9.008  66.428  1.00  0.00    -0.268 C  
HETATM    8  H   UNL     1     -10.799   8.099  67.815  1.00  0.00     0.000 HD 
HETATM    9  O   UNL     1     -11.003   8.626  67.051  1.00  0.00    -0.085 OA 
BRANCH   7  10
HETATM   10  C   UNL     1      -8.929   7.759  66.179  1.00  0.00    -0.201 A  
HETATM   11  C   UNL     1      -8.184   7.135  67.196  1.00  0.00    -0.118 A  
HETATM   12  C   UNL     1      -7.426   5.438  65.664  1.00  0.00    -0.081 A  
HETATM   13  C   UNL     1      -8.176   6.009  64.650  1.00  0.00    -0.108 A  
HETATM   14  O   UNL     1      -6.692   4.325  65.371  1.00  0.00    -0.049 OA 
HETATM   15  C   UNL     1      -7.426   5.987  66.940  1.00  0.00    -0.084 A  
HETATM   16  C   UNL     1      -8.929   7.157  64.907  1.00  0.00     0.562 A  
HETATM   17  H   UNL     1      -6.691   3.950  64.498  1.00  0.00     0.000 HD 
ENDBRANCH   7  10
ENDBRANCH   5   7
ENDBRANCH   3   5
ENDBRANCH   2   3
BRANCH   2  18
HETATM   18  C   UNL     1     -10.174  13.284  66.939  1.00  0.00    -0.250 C  
BRANCH  18  19
HETATM   19  C   UNL     1      -8.754  13.812  67.176  1.00  0.00    -0.231 C  
BRANCH  19  20
HETATM   20  C   UNL     1      -8.768  15.323  67.089  1.00  0.00    -0.234 A  
HETATM   21  C   UNL     1      -8.806  15.961  65.841  1.00  0.00    -0.168 A  
HETATM   22  C   UNL     1      -8.701  17.350  65.753  1.00  0.00     0.233 A  
HETATM   23  C   UNL     1      -8.531  17.492  68.156  1.00  0.00    -0.254 A  
HETATM   24  C   UNL     1      -8.637  16.103  68.246  1.00  0.00    -0.182 A  
HETATM   25  C   UNL     1      -8.557  18.115  66.909  1.00  0.00    -0.268 A  
ENDBRANCH  19  20
ENDBRANCH  18  19
ENDBRANCH   2  18
TORSDOF 7
ENDMDL
MODEL      283
REMARK 921   NORMALIZED FREE ENERGY PREDICTED BY IDOCK:    2.34 KCAL/MOL
REMARK 922        TOTAL FREE ENERGY PREDICTED BY IDOCK:    1.66 KCAL/MOL
REMARK 923 INTER-LIGAND FREE ENERGY PREDICTED BY IDOCK:   -1.38 KCAL/MOL
REMARK 924 INTRA-LIGAND FREE ENERGY PREDICTED BY IDOCK:    3.04 KCAL/MOL
REMARK 927      BINDING AFFINITY PREDICTED BY RF-SCORE:    0.00 PKD
ROOT
HETATM    1  C   UNL     1      -9.423  11.115  68.015  1.00  0.00    -0.174 C  
HETATM    2  C   UNL     1      -9.954  12.073  66.939  1.00  0.00    -0.202 C  
ENDROOT
BRANCH   2   3
HETATM    3  N   UNL     1      -9.636  11.624  65.574  1.00  0.00    -0.228 NA 
HETATM    4  H   UNL     1      -8.625  11.560  65.456  1.00  0.00     0.000 HD 
BRANCH   3   5
HETATM    5  C   UNL     1     -10.278  10.352  65.145  1.00  0.00    -0.256 C  
HETATM    6  C   UNL     1      -9.534   9.733  63.957  1.00  0.00    -0.131 C  
BRANCH   5   7
HETATM    7  C   UNL     1     -10.316   9.346  66.348  1.00  0.00    -0.167 C  
HETATM    8  H   UNL     1     -11.179   7.632  66.712  1.00  0.00     0.000 HD 
HETATM    9  O   UNL     1     -11.156   8.242  65.983  1.00  0.00     1.851 OA 
BRANCH   7  10
HETATM   10  C   UNL     1      -8.968   8.811  66.820  1.00  0.00    -0.161 A  
HETATM   11  C   UNL     1      -8.787   8.235  68.091  1.00  0.00    -0.139 A  
HETATM   12  C   UNL     1      -6.463   7.812  67.620  1.00  0.00    -0.055 A  
HETATM   13  C   UNL     1      -6.617   8.342  66.349  1.00  0.00    -0.055 A  
HETATM   14  O   UNL     1      -5.227   7.358  67.980  1.00  0.00    -0.022 OA 
HETATM   15  C   UNL     1      -7.539   7.749  68.495  1.00  0.00    -0.105 A  
HETATM   16  C   UNL     1      -7.863   8.830  65.949  1.00  0.00    -0.102 A  
HETATM   17  H   UNL     1      -4.491   7.402  67.381  1.00  0.00     0.000 HD 
ENDBRANCH   7  10
ENDBRANCH   5   7
ENDBRANCH   3   5
ENDBRANCH   2   3
BRANCH   2  18
HETATM   18  C   UNL     1      -9.316  13.453  67.199  1.00  0.00    -0.240 C  
BRANCH  18  19
HETATM   19  C   UNL     1      -7.838  13.430  67.606  1.00  0.00    -0.174 C  
BRANCH  19  20
HETATM   20  C   UNL     1      -7.426  14.818  68.047  1.00  0.00    -0.135 A  
HETATM   21  C   UNL     1      -6.161  15.035  68.613  1.00  0.00    -0.085 A  
HETATM   22  C   UNL     1      -5.822  16.288  69.128  1.00  0.00    -0.133 A  
HETATM   23  C   UNL     1      -7.997  17.133  68.510  1.00  0.00    -0.259 A  
HETATM   24  C   UNL     1      -8.338  15.881  67.994  1.00  0.00    -0.161 A  
HETATM   25  C   UNL     1      -6.742  17.334  69.082  1.00  0.00    -0.243 A  
ENDBRANCH  19  20
ENDBRANCH  18  19
ENDBRANCH   2  18
TORSDOF 7
ENDMDL
MODEL      284
REMARK 921   NORMALIZED FREE ENERGY PREDICTED BY IDOCK:    2.56 KCAL/MOL
REMARK 922        TOTAL FREE ENERGY PREDICTED BY IDOCK:    1.97 KCAL/MOL
REMARK 923 INTER-LIGAND FREE ENERGY PREDICTED BY IDOCK:    1.49 KCAL/MOL
REMARK 924 INTRA-LIGAND FREE ENERGY PREDICTED BY IDOCK:    0.48 KCAL/MOL
REMARK 927      BINDING AFFINITY PREDICTED BY RF-SCORE:    0.00 PKD
ROOT
HETATM    1  C   UNL     1     -10.502  14.914  68.717  1.00  0.00    -0.242 C  
HETATM    2  C   UNL     1      -9.487  14.677  67.589  1.00  0.00    -0.205 C  
ENDROOT
BRANCH   2   3
HETATM    3  N   UNL     1     -10.057  14.921  66.254  1.00  0.00    -0.269 NA 
HETATM    4  H   UNL     1     -11.027  14.607  66.228  1.00  0.00     0.000 HD 
BRANCH   3   5
HETATM    5  C   UNL     1      -9.962  16.320  65.756  1.00  0.00    -0.323 C  
HETATM    6  C   UNL     1     -11.171  17.148  66.206  1.00  0.00     0.661 C  
BRANCH   5   7
HETATM    7  C   UNL     1      -8.632  16.976  66.268  1.00  0.00    -0.262 C  
HETATM    8  H   UNL     1      -7.082  17.827  65.438  1.00  0.00     0.000 HD 
HETATM    9  O   UNL     1      -7.888  17.430  65.128  1.00  0.00     0.857 OA 
BRANCH   7  10
HETATM   10  C   UNL     1      -8.786  18.130  67.253  1.00  0.00    -0.251 A  
HETATM   11  C   UNL     1      -8.051  19.324  67.140  1.00  0.00    -0.290 A  
HETATM   12  C   UNL     1      -9.141  20.235  69.085  1.00  0.00     0.560 A  
HETATM   13  C   UNL     1      -9.905  19.085  69.204  1.00  0.00    -0.323 A  
HETATM   14  O   UNL     1      -9.325  21.225  70.005  1.00  0.00     2.762 OA 
HETATM   15  C   UNL     1      -8.218  20.368  68.056  1.00  0.00    -0.063 A  
HETATM   16  C   UNL     1      -9.734  18.043  68.289  1.00  0.00    -0.332 A  
HETATM   17  H   UNL     1      -9.957  21.134  70.710  1.00  0.00     0.000 HD 
ENDBRANCH   7  10
ENDBRANCH   5   7
ENDBRANCH   3   5
ENDBRANCH   2   3
BRANCH   2  18
HETATM   18  C   UNL     1      -9.014  13.213  67.697  1.00  0.00    -0.192 C  
BRANCH  18  19
HETATM   19  C   UNL     1      -7.501  12.998  67.580  1.00  0.00    -0.158 C  
BRANCH  19  20
HETATM   20  C   UNL     1      -7.170  11.580  67.994  1.00  0.00    -0.085 A  
HETATM   21  C   UNL     1      -5.837  11.145  68.031  1.00  0.00    -0.042 A  
HETATM   22  C   UNL     1      -5.537   9.809  68.298  1.00  0.00    -0.039 A  
HETATM   23  C   UNL     1      -7.890   9.318  68.508  1.00  0.00    -0.090 A  
HETATM   24  C   UNL     1      -8.193  10.655  68.242  1.00  0.00    -0.120 A  
HETATM   25  C   UNL     1      -6.563   8.894  68.530  1.00  0.00    -0.059 A  
ENDBRANCH  19  20
ENDBRANCH  18  19
ENDBRANCH   2  18
TORSDOF 7
ENDMDL
MODEL      285
REMARK 921   NORMALIZED FREE ENERGY PREDICTED BY IDOCK:    4.15 KCAL/MOL
REMARK 922        TOTAL FREE ENERGY PREDICTED BY IDOCK:    4.22 KCAL/MOL
REMARK 923 INTER-LIGAND FREE ENERGY PREDICTED BY IDOCK:   -0.94 KCAL/MOL
REMARK 924 INTRA-LIGAND FREE ENERGY PREDICTED BY IDOCK:    5.16 KCAL/MOL
REMARK 927      BINDING AFFINITY PREDICTED BY RF-SCORE:    0.00 PKD
ROOT
HETATM    1  C   UNL     1      -9.645  11.180  67.970  1.00  0.00    -0.181 C  
HETATM    2  C   UNL     1     -10.741  11.794  67.087  1.00  0.00    -0.241 C  
ENDROOT
BRANCH   2   3
HETATM    3  N   UNL     1     -10.436  11.689  65.651  1.00  0.00    -0.259 NA 
HETATM    4  H   UNL     1      -9.509  12.071  65.464  1.00  0.00     0.000 HD 
BRANCH   3   5
HETATM    5  C   UNL     1     -10.551  10.326  65.063  1.00  0.00     0.197 C  
HETATM    6  C   UNL     1      -9.569  10.143  63.901  1.00  0.00    -0.302 C  
BRANCH   5   7
HETATM    7  C   UNL     1     -10.289   9.247  66.173  1.00  0.00    -0.048 C  
HETATM    8  H   UNL     1     -10.316   7.297  66.260  1.00  0.00     0.000 HD 
HETATM    9  O   UNL     1     -10.474   7.950  65.589  1.00  0.00     1.460 OA 
BRANCH   7  10
HETATM   10  C   UNL     1      -8.925   9.298  66.852  1.00  0.00    -0.149 A  
HETATM   11  C   UNL     1      -8.677   8.688  68.095  1.00  0.00    -0.142 A  
HETATM   12  C   UNL     1      -6.376   9.400  68.038  1.00  0.00    -0.057 A  
HETATM   13  C   UNL     1      -6.580   9.981  66.797  1.00  0.00    -0.072 A  
HETATM   14  O   UNL     1      -5.132   9.488  68.592  1.00  0.00    -0.034 OA 
HETATM   15  C   UNL     1      -7.413   8.748  68.693  1.00  0.00    -0.092 A  
HETATM   16  C   UNL     1      -7.843   9.923  66.204  1.00  0.00    -0.110 A  
HETATM   17  H   UNL     1      -4.423   9.935  68.144  1.00  0.00     0.000 HD 
ENDBRANCH   7  10
ENDBRANCH   5   7
ENDBRANCH   3   5
ENDBRANCH   2   3
BRANCH   2  18
HETATM   18  C   UNL     1     -10.874  13.278  67.487  1.00  0.00    -0.276 C  
BRANCH  18  19
HETATM   19  C   UNL     1     -10.106  13.693  68.747  1.00  0.00    -0.129 C  
BRANCH  19  20
HETATM   20  C   UNL     1     -10.163  15.199  68.887  1.00  0.00    -0.236 A  
HETATM   21  C   UNL     1     -11.283  15.911  68.434  1.00  0.00    -0.368 A  
HETATM   22  C   UNL     1     -11.290  17.307  68.454  1.00  0.00     0.327 A  
HETATM   23  C   UNL     1      -9.066  17.306  69.391  1.00  0.00     0.311 A  
HETATM   24  C   UNL     1      -9.057  15.910  69.372  1.00  0.00    -0.222 A  
HETATM   25  C   UNL     1     -10.180  18.004  68.927  1.00  0.00    -0.320 A  
ENDBRANCH  19  20
ENDBRANCH  18  19
ENDBRANCH   2  18
TORSDOF 7
ENDMDL
