MODEL        1
REMARK 921   NORMALIZED FREE ENERGY PREDICTED BY IDOCK:   -7.44 KCAL/MOL
REMARK 922        TOTAL FREE ENERGY PREDICTED BY IDOCK:   -8.50 KCAL/MOL
REMARK 923 INTER-LIGAND FREE ENERGY PREDICTED BY IDOCK:   -8.31 KCAL/MOL
REMARK 924 INTRA-LIGAND FREE ENERGY PREDICTED BY IDOCK:   -0.19 KCAL/MOL
REMARK 927      BINDING AFFINITY PREDICTED BY RF-SCORE:    0.00 PKD
ROOT
HETATM    1  C   UNL     1     -10.361  15.156  65.844  1.00  0.00    -0.344 C  
HETATM    2  C   UNL     1     -11.238  15.487  64.588  1.00  0.00    -0.381 C  
HETATM    3  C   UNL     1      -9.341  13.663  65.728  1.00  0.00     0.133 C  
HETATM    4  C   UNL     1      -9.591  16.491  66.186  1.00  0.00    -0.344 C  
HETATM    5  C   UNL     1      -7.861  11.115  66.664  1.00  0.00    -0.155 C  
HETATM    6  C   UNL     1     -10.541  12.780  65.428  1.00  0.00    -0.309 C  
HETATM    7  C   UNL     1     -11.135  12.452  66.782  1.00  0.00    -0.333 C  
HETATM    8  C   UNL     1      -7.772  10.098  68.001  1.00  0.00    -0.089 C  
HETATM    9  C   UNL     1      -8.741   7.259  69.520  1.00  0.00    -0.134 C  
HETATM   10  C   UNL     1      -9.167   9.704  68.671  1.00  0.00    -0.136 C  
HETATM   11  C   UNL     1     -10.017  11.682  67.365  1.00  0.00    -0.200 C  
HETATM   12  C   UNL     1     -10.087  10.981  68.714  1.00  0.00    -0.214 C  
HETATM   13  C   UNL     1     -11.534  10.531  68.934  1.00  0.00    -0.226 C  
HETATM   14  O   UNL     1     -12.462  11.588  68.846  1.00  0.00    -0.331 OA 
HETATM   15  C   UNL     1     -11.626   9.851  70.288  1.00  0.00    -0.319 C  
HETATM   16  C   UNL     1     -11.024   8.431  70.043  1.00  0.00    -0.194 C  
HETATM   17  C   UNL     1      -7.772  13.198  67.914  1.00  0.00    -0.147 C  
HETATM   18  H   UNL     1     -13.360  11.309  68.983  1.00  0.00     0.000 HD 
HETATM   19  C   UNL     1     -11.557   7.348  70.974  1.00  0.00    -0.315 C  
HETATM   20  C   UNL     1      -8.736  12.437  66.959  1.00  0.00    -0.207 C  
HETATM   21  C   UNL     1     -10.953   7.291  72.359  1.00  0.00    -0.267 C  
HETATM   22  O   UNL     1     -11.852   7.826  73.331  1.00  0.00    -0.555 OA 
HETATM   23  C   UNL     1      -9.542   7.877  72.507  1.00  0.00    -0.278 C  
HETATM   24  C   UNL     1      -8.956   8.851  71.409  1.00  0.00    -0.300 C  
HETATM   25  H   UNL     1     -11.472   7.790  74.201  1.00  0.00     0.000 HD 
HETATM   26  C   UNL     1      -9.432   8.588  69.933  1.00  0.00    -0.163 C  
ENDROOT
BRANCH   4  27
HETATM   27  C   UNL     1     -10.531  17.673  66.552  1.00  0.00    -0.283 C  
HETATM   28  O   UNL     1     -10.764  20.042  66.601  1.00  0.00    -0.429 OA 
HETATM   29  C   UNL     1      -9.903  19.034  66.334  1.00  0.00    -0.378 C  
HETATM   30  O   UNL     1      -8.762  19.218  65.966  1.00  0.00    -0.431 OA 
ENDBRANCH   4  27
BRANCH  15  31
HETATM   31  C   UNL     1     -12.978  10.122  70.964  1.00  0.00    -0.473 C  
HETATM   32  C   UNL     1     -13.069  11.279  71.938  1.00  0.00    -0.510 C  
ENDBRANCH  15  31
TORSDOF 2
ENDMDL
MODEL        2
REMARK 921   NORMALIZED FREE ENERGY PREDICTED BY IDOCK:   -7.42 KCAL/MOL
REMARK 922        TOTAL FREE ENERGY PREDICTED BY IDOCK:   -8.47 KCAL/MOL
REMARK 923 INTER-LIGAND FREE ENERGY PREDICTED BY IDOCK:   -8.45 KCAL/MOL
REMARK 924 INTRA-LIGAND FREE ENERGY PREDICTED BY IDOCK:   -0.02 KCAL/MOL
REMARK 927      BINDING AFFINITY PREDICTED BY RF-SCORE:    0.00 PKD
ROOT
HETATM    1  C   UNL     1     -10.400  14.325  66.350  1.00  0.00    -0.287 C  
HETATM    2  C   UNL     1     -11.534  15.122  65.618  1.00  0.00    -0.192 C  
HETATM    3  C   UNL     1     -10.127  12.628  65.779  1.00  0.00    -0.284 C  
HETATM    4  C   UNL     1      -9.137  15.271  66.327  1.00  0.00    -0.337 C  
HETATM    5  C   UNL     1      -9.412   9.624  65.934  1.00  0.00    -0.296 C  
HETATM    6  C   UNL     1     -11.572  12.233  66.034  1.00  0.00    -0.451 C  
HETATM    7  C   UNL     1     -11.630  11.888  67.507  1.00  0.00    -0.374 C  
HETATM    8  C   UNL     1      -9.151   8.422  67.082  1.00  0.00    -0.162 C  
HETATM    9  C   UNL     1     -10.353   5.824  68.845  1.00  0.00    -0.295 C  
HETATM   10  C   UNL     1     -10.186   8.384  68.298  1.00  0.00    -0.244 C  
HETATM   11  C   UNL     1     -10.728  10.718  67.525  1.00  0.00    -0.312 C  
HETATM   12  C   UNL     1     -10.482   9.860  68.757  1.00  0.00    -0.234 C  
HETATM   13  C   UNL     1     -11.766   9.861  69.593  1.00  0.00     0.034 C  
HETATM   14  O   UNL     1     -12.202  11.156  69.937  1.00  0.00    -0.314 OA 
HETATM   15  C   UNL     1     -11.528   9.028  70.840  1.00  0.00    -0.347 C  
HETATM   16  C   UNL     1     -11.632   7.553  70.339  1.00  0.00    -0.172 C  
HETATM   17  C   UNL     1      -8.078  11.333  67.035  1.00  0.00    -0.149 C  
HETATM   18  H   UNL     1     -12.998  11.156  70.456  1.00  0.00     0.000 HD 
HETATM   19  C   UNL     1     -12.083   6.554  71.399  1.00  0.00    -0.344 C  
HETATM   20  C   UNL     1      -9.552  11.086  66.600  1.00  0.00    -0.216 C  
HETATM   21  C   UNL     1     -11.027   6.079  72.371  1.00  0.00    -0.260 C  
HETATM   22  O   UNL     1     -11.190   6.701  73.646  1.00  0.00    -0.443 OA 
HETATM   23  C   UNL     1      -9.574   6.155  71.883  1.00  0.00    -0.166 C  
HETATM   24  C   UNL     1      -9.187   7.063  70.649  1.00  0.00    -0.158 C  
HETATM   25  H   UNL     1     -10.526   6.401  74.257  1.00  0.00     0.000 HD 
HETATM   26  C   UNL     1     -10.287   7.214  69.535  1.00  0.00    -0.224 C  
ENDROOT
BRANCH   4  27
HETATM   27  C   UNL     1      -9.351  16.611  67.085  1.00  0.00    -0.236 C  
HETATM   28  O   UNL     1      -8.774  18.919  67.176  1.00  0.00    -0.276 OA 
HETATM   29  C   UNL     1      -8.520  17.754  66.539  1.00  0.00    -0.260 C  
HETATM   30  O   UNL     1      -7.713  17.653  65.638  1.00  0.00    -0.527 OA 
ENDBRANCH   4  27
BRANCH  15  31
HETATM   31  C   UNL     1     -12.287   9.596  72.049  1.00  0.00    -0.376 C  
HETATM   32  C   UNL     1     -13.742   9.213  72.222  1.00  0.00    -0.548 C  
ENDBRANCH  15  31
TORSDOF 2
ENDMDL
MODEL        3
REMARK 921   NORMALIZED FREE ENERGY PREDICTED BY IDOCK:   -7.40 KCAL/MOL
REMARK 922        TOTAL FREE ENERGY PREDICTED BY IDOCK:   -8.45 KCAL/MOL
REMARK 923 INTER-LIGAND FREE ENERGY PREDICTED BY IDOCK:   -8.10 KCAL/MOL
REMARK 924 INTRA-LIGAND FREE ENERGY PREDICTED BY IDOCK:   -0.35 KCAL/MOL
REMARK 927      BINDING AFFINITY PREDICTED BY RF-SCORE:    0.00 PKD
ROOT
HETATM    1  C   UNL     1     -10.110  15.505  66.175  1.00  0.00    -0.329 C  
HETATM    2  C   UNL     1     -10.911  15.903  64.888  1.00  0.00    -0.427 C  
HETATM    3  C   UNL     1      -9.089  14.014  66.044  1.00  0.00     0.160 C  
HETATM    4  C   UNL     1      -9.356  16.817  66.626  1.00  0.00    -0.274 C  
HETATM    5  C   UNL     1      -7.673  11.414  66.936  1.00  0.00    -0.155 C  
HETATM    6  C   UNL     1     -10.272  13.154  65.631  1.00  0.00    -0.294 C  
HETATM    7  C   UNL     1     -10.944  12.763  66.931  1.00  0.00    -0.291 C  
HETATM    8  C   UNL     1      -7.665  10.332  68.223  1.00  0.00    -0.092 C  
HETATM    9  C   UNL     1      -8.729   7.427  69.541  1.00  0.00    -0.137 C  
HETATM   10  C   UNL     1      -9.098   9.913  68.791  1.00  0.00    -0.147 C  
HETATM   11  C   UNL     1      -9.865  11.958  67.538  1.00  0.00    -0.194 C  
HETATM   12  C   UNL     1     -10.015  11.193  68.845  1.00  0.00    -0.188 C  
HETATM   13  C   UNL     1     -11.474  10.740  68.958  1.00  0.00    -0.298 C  
HETATM   14  O   UNL     1     -12.391  11.806  68.870  1.00  0.00    -0.293 OA 
HETATM   15  C   UNL     1     -11.645   9.995  70.269  1.00  0.00    -0.354 C  
HETATM   16  C   UNL     1     -11.035   8.586  69.989  1.00  0.00    -0.197 C  
HETATM   17  C   UNL     1      -7.651  13.433  68.291  1.00  0.00    -0.135 C  
HETATM   18  H   UNL     1     -13.297  11.525  68.940  1.00  0.00     0.000 HD 
HETATM   19  C   UNL     1     -11.624   7.460  70.833  1.00  0.00    -0.318 C  
HETATM   20  C   UNL     1      -8.560  12.725  67.245  1.00  0.00    -0.197 C  
HETATM   21  C   UNL     1     -11.102   7.332  72.246  1.00  0.00    -0.260 C  
HETATM   22  O   UNL     1     -12.054   7.824  73.189  1.00  0.00    -0.607 OA 
HETATM   23  C   UNL     1      -9.700   7.902  72.504  1.00  0.00    -0.290 C  
HETATM   24  C   UNL     1      -9.049   8.925  71.491  1.00  0.00    -0.299 C  
HETATM   25  H   UNL     1     -11.725   7.743  74.078  1.00  0.00     0.000 HD 
HETATM   26  C   UNL     1      -9.439   8.738  69.979  1.00  0.00    -0.176 C  
ENDROOT
BRANCH   4  27
HETATM   27  C   UNL     1     -10.313  17.985  66.996  1.00  0.00    -0.377 C  
HETATM   28  O   UNL     1     -10.627  19.883  68.399  1.00  0.00    -0.366 OA 
HETATM   29  C   UNL     1      -9.808  18.839  68.141  1.00  0.00    -0.352 C  
HETATM   30  O   UNL     1      -8.790  18.626  68.766  1.00  0.00    -0.319 OA 
ENDBRANCH   4  27
BRANCH  15  31
HETATM   31  C   UNL     1     -13.034  10.240  70.879  1.00  0.00    -0.456 C  
HETATM   32  C   UNL     1     -13.134  11.163  72.076  1.00  0.00    -0.433 C  
ENDBRANCH  15  31
TORSDOF 2
ENDMDL
MODEL        4
REMARK 921   NORMALIZED FREE ENERGY PREDICTED BY IDOCK:   -7.31 KCAL/MOL
REMARK 922        TOTAL FREE ENERGY PREDICTED BY IDOCK:   -8.35 KCAL/MOL
REMARK 923 INTER-LIGAND FREE ENERGY PREDICTED BY IDOCK:   -8.33 KCAL/MOL
REMARK 924 INTRA-LIGAND FREE ENERGY PREDICTED BY IDOCK:   -0.02 KCAL/MOL
REMARK 927      BINDING AFFINITY PREDICTED BY RF-SCORE:    0.00 PKD
ROOT
HETATM    1  C   UNL     1     -10.732  14.457  66.203  1.00  0.00    -0.304 C  
HETATM    2  C   UNL     1     -11.839  14.789  65.144  1.00  0.00    -0.313 C  
HETATM    3  C   UNL     1      -9.818  12.916  65.937  1.00  0.00    -0.239 C  
HETATM    4  C   UNL     1      -9.856  15.766  66.322  1.00  0.00    -0.320 C  
HETATM    5  C   UNL     1      -8.274  10.333  66.646  1.00  0.00    -0.125 C  
HETATM    6  C   UNL     1     -11.088  12.080  65.929  1.00  0.00    -0.369 C  
HETATM    7  C   UNL     1     -11.396  11.823  67.388  1.00  0.00    -0.376 C  
HETATM    8  C   UNL     1      -7.947   9.355  67.974  1.00  0.00    -0.092 C  
HETATM    9  C   UNL     1      -8.685   6.612  69.774  1.00  0.00    -0.140 C  
HETATM   10  C   UNL     1      -9.185   9.047  68.935  1.00  0.00    -0.140 C  
HETATM   11  C   UNL     1     -10.212  11.020  67.757  1.00  0.00    -0.210 C  
HETATM   12  C   UNL     1     -10.025  10.366  69.117  1.00  0.00    -0.237 C  
HETATM   13  C   UNL     1     -11.410   9.990  69.652  1.00  0.00    -0.202 C  
HETATM   14  O   UNL     1     -12.294  11.086  69.716  1.00  0.00    -0.321 OA 
HETATM   15  C   UNL     1     -11.242   9.358  71.021  1.00  0.00    -0.412 C  
HETATM   16  C   UNL     1     -10.760   7.905  70.714  1.00  0.00    -0.230 C  
HETATM   17  C   UNL     1      -7.845  12.448  67.765  1.00  0.00    -0.154 C  
HETATM   18  H   UNL     1     -13.153  10.853  70.048  1.00  0.00     0.000 HD 
HETATM   19  C   UNL     1     -11.128   6.877  71.778  1.00  0.00    -0.275 C  
HETATM   20  C   UNL     1      -9.017  11.703  67.063  1.00  0.00    -0.182 C  
HETATM   21  C   UNL     1     -10.250   6.835  73.008  1.00  0.00    -0.214 C  
HETATM   22  O   UNL     1     -10.904   7.442  74.123  1.00  0.00    -0.505 OA 
HETATM   23  C   UNL     1      -8.818   7.360  72.836  1.00  0.00    -0.173 C  
HETATM   24  C   UNL     1      -8.438   8.271  71.602  1.00  0.00    -0.193 C  
HETATM   25  H   UNL     1     -10.352   7.415  74.897  1.00  0.00     0.000 HD 
HETATM   26  C   UNL     1      -9.222   7.984  70.269  1.00  0.00    -0.155 C  
ENDROOT
BRANCH   4  27
HETATM   27  C   UNL     1     -10.652  17.000  66.829  1.00  0.00    -0.191 C  
HETATM   28  O   UNL     1     -10.697  19.378  66.959  1.00  0.00    -0.455 OA 
HETATM   29  C   UNL     1      -9.954  18.319  66.565  1.00  0.00    -0.373 C  
HETATM   30  O   UNL     1      -8.855  18.431  66.064  1.00  0.00    -0.498 OA 
ENDBRANCH   4  27
BRANCH  15  31
HETATM   31  C   UNL     1     -12.411   9.712  71.953  1.00  0.00    -0.459 C  
HETATM   32  C   UNL     1     -13.697   8.924  71.815  1.00  0.00    -0.471 C  
ENDBRANCH  15  31
TORSDOF 2
ENDMDL
MODEL        5
REMARK 921   NORMALIZED FREE ENERGY PREDICTED BY IDOCK:   -7.22 KCAL/MOL
REMARK 922        TOTAL FREE ENERGY PREDICTED BY IDOCK:   -8.25 KCAL/MOL
REMARK 923 INTER-LIGAND FREE ENERGY PREDICTED BY IDOCK:   -7.87 KCAL/MOL
REMARK 924 INTRA-LIGAND FREE ENERGY PREDICTED BY IDOCK:   -0.38 KCAL/MOL
REMARK 927      BINDING AFFINITY PREDICTED BY RF-SCORE:    0.00 PKD
ROOT
HETATM    1  C   UNL     1      -9.780  15.067  67.644  1.00  0.00    -0.215 C  
HETATM    2  C   UNL     1     -10.868  16.191  67.739  1.00  0.00    -0.318 C  
HETATM    3  C   UNL     1     -10.151  13.697  66.518  1.00  0.00    -0.286 C  
HETATM    4  C   UNL     1      -8.416  15.820  67.388  1.00  0.00    -0.191 C  
HETATM    5  C   UNL     1     -10.184  10.806  65.424  1.00  0.00    -0.341 C  
HETATM    6  C   UNL     1     -11.461  13.381  67.218  1.00  0.00    -0.374 C  
HETATM    7  C   UNL     1     -11.076  12.509  68.394  1.00  0.00    -0.293 C  
HETATM    8  C   UNL     1      -9.835   9.238  65.924  1.00  0.00    -0.335 C  
HETATM    9  C   UNL     1     -10.931   6.297  67.131  1.00  0.00    -0.453 C  
HETATM   10  C   UNL     1     -10.348   8.843  67.384  1.00  0.00    -0.337 C  
HETATM   11  C   UNL     1     -10.541  11.336  67.671  1.00  0.00    -0.252 C  
HETATM   12  C   UNL     1     -10.092  10.054  68.356  1.00  0.00    -0.186 C  
HETATM   13  C   UNL     1     -10.955   9.863  69.608  1.00  0.00    -0.252 C  
HETATM   14  O   UNL     1     -10.910  10.966  70.483  1.00  0.00    -0.380 OA 
HETATM   15  C   UNL     1     -10.503   8.600  70.316  1.00  0.00    -0.229 C  
HETATM   16  C   UNL     1     -11.134   7.445  69.476  1.00  0.00    -0.092 C  
HETATM   17  C   UNL     1      -8.172  11.825  66.333  1.00  0.00    -0.006 C  
HETATM   18  H   UNL     1     -11.446  10.848  71.260  1.00  0.00     0.000 HD 
HETATM   19  C   UNL     1     -11.410   6.168  70.263  1.00  0.00    -0.414 C  
HETATM   20  C   UNL     1      -9.717  11.910  66.503  1.00  0.00    -0.226 C  
HETATM   21  C   UNL     1     -10.229   5.256  70.504  1.00  0.00    -0.264 C  
HETATM   22  O   UNL     1      -9.772   5.358  71.853  1.00  0.00    -0.158 OA 
HETATM   23  C   UNL     1      -9.071   5.367  69.502  1.00  0.00    -0.140 C  
HETATM   24  C   UNL     1      -8.937   6.633  68.566  1.00  0.00    -0.120 C  
HETATM   25  H   UNL     1      -9.029   4.784  72.004  1.00  0.00     0.000 HD 
HETATM   26  C   UNL     1     -10.287   7.306  68.122  1.00  0.00    -0.234 C  
ENDROOT
BRANCH   4  27
HETATM   27  C   UNL     1      -8.015  16.784  68.539  1.00  0.00    -0.235 C  
HETATM   28  O   UNL     1      -7.613  19.054  69.136  1.00  0.00    -0.302 OA 
HETATM   29  C   UNL     1      -7.902  18.231  68.103  1.00  0.00    -0.288 C  
HETATM   30  O   UNL     1      -8.046  18.623  66.964  1.00  0.00    -0.242 OA 
ENDBRANCH   4  27
BRANCH  15  31
HETATM   31  C   UNL     1     -10.620   8.737  71.842  1.00  0.00    -0.425 C  
HETATM   32  C   UNL     1      -9.368   8.546  72.673  1.00  0.00    -0.284 C  
ENDBRANCH  15  31
TORSDOF 2
ENDMDL
MODEL        6
REMARK 921   NORMALIZED FREE ENERGY PREDICTED BY IDOCK:   -7.16 KCAL/MOL
REMARK 922        TOTAL FREE ENERGY PREDICTED BY IDOCK:   -8.19 KCAL/MOL
REMARK 923 INTER-LIGAND FREE ENERGY PREDICTED BY IDOCK:   -7.80 KCAL/MOL
REMARK 924 INTRA-LIGAND FREE ENERGY PREDICTED BY IDOCK:   -0.39 KCAL/MOL
REMARK 927      BINDING AFFINITY PREDICTED BY RF-SCORE:    0.00 PKD
ROOT
HETATM    1  C   UNL     1      -9.729   9.639  69.578  1.00  0.00    -0.216 C  
HETATM    2  C   UNL     1      -9.054   8.328  69.045  1.00  0.00    -0.147 C  
HETATM    3  C   UNL     1     -10.728  10.559  68.379  1.00  0.00    -0.262 C  
HETATM    4  C   UNL     1     -10.464   9.222  70.912  1.00  0.00    -0.372 C  
HETATM    5  C   UNL     1     -12.010  13.000  66.979  1.00  0.00    -0.409 C  
HETATM    6  C   UNL     1      -9.571  10.685  67.403  1.00  0.00    -0.180 C  
HETATM    7  C   UNL     1      -8.778  11.881  67.888  1.00  0.00    -0.167 C  
HETATM    8  C   UNL     1     -11.882  14.677  66.948  1.00  0.00    -0.345 C  
HETATM    9  C   UNL     1     -10.650  17.437  65.475  1.00  0.00    -0.115 C  
HETATM   10  C   UNL     1     -10.397  15.262  66.920  1.00  0.00    -0.278 C  
HETATM   11  C   UNL     1      -9.784  12.945  67.690  1.00  0.00    -0.212 C  
HETATM   12  C   UNL     1      -9.503  14.424  67.909  1.00  0.00    -0.214 C  
HETATM   13  C   UNL     1      -8.031  14.678  67.569  1.00  0.00    -0.190 C  
HETATM   14  O   UNL     1      -7.146  13.864  68.303  1.00  0.00    -0.086 OA 
HETATM   15  C   UNL     1      -7.729  16.146  67.807  1.00  0.00    -0.155 C  
HETATM   16  C   UNL     1      -8.336  16.866  66.561  1.00  0.00    -0.315 C  
HETATM   17  C   UNL     1     -11.949  12.778  69.400  1.00  0.00    -0.321 C  
HETATM   18  H   UNL     1      -6.233  14.021  68.092  1.00  0.00     0.000 HD 
HETATM   19  C   UNL     1      -7.652  18.179  66.193  1.00  0.00    -0.278 C  
HETATM   20  C   UNL     1     -11.123  12.341  68.155  1.00  0.00    -0.285 C  
HETATM   21  C   UNL     1      -8.044  19.394  67.002  1.00  0.00    -0.266 C  
HETATM   22  O   UNL     1      -7.021  19.736  67.938  1.00  0.00    -0.248 OA 
HETATM   23  C   UNL     1      -9.428  19.349  67.665  1.00  0.00    -0.395 C  
HETATM   24  C   UNL     1     -10.186  17.975  67.851  1.00  0.00    -0.386 C  
HETATM   25  H   UNL     1      -7.267  20.500  68.447  1.00  0.00     0.000 HD 
HETATM   26  C   UNL     1      -9.929  16.893  66.739  1.00  0.00    -0.291 C  
ENDROOT
BRANCH   4  27
HETATM   27  C   UNL     1      -9.501   8.696  72.012  1.00  0.00    -0.370 C  
HETATM   28  O   UNL     1      -9.319   7.357  73.973  1.00  0.00    -0.250 OA 
HETATM   29  C   UNL     1     -10.190   7.853  73.065  1.00  0.00    -0.327 C  
HETATM   30  O   UNL     1     -11.384   7.640  73.108  1.00  0.00    -0.360 OA 
ENDBRANCH   4  27
BRANCH  15  31
HETATM   31  C   UNL     1      -6.297  16.350  68.323  1.00  0.00    -0.129 C  
HETATM   32  C   UNL     1      -6.115  16.922  69.714  1.00  0.00    -0.229 C  
ENDBRANCH  15  31
TORSDOF 2
ENDMDL
MODEL        7
REMARK 921   NORMALIZED FREE ENERGY PREDICTED BY IDOCK:   -7.07 KCAL/MOL
REMARK 922        TOTAL FREE ENERGY PREDICTED BY IDOCK:   -8.09 KCAL/MOL
REMARK 923 INTER-LIGAND FREE ENERGY PREDICTED BY IDOCK:   -8.03 KCAL/MOL
REMARK 924 INTRA-LIGAND FREE ENERGY PREDICTED BY IDOCK:   -0.06 KCAL/MOL
REMARK 927      BINDING AFFINITY PREDICTED BY RF-SCORE:    0.00 PKD
ROOT
HETATM    1  C   UNL     1      -9.990  14.567  66.893  1.00  0.00    -0.259 C  
HETATM    2  C   UNL     1     -11.140  15.618  66.722  1.00  0.00    -0.169 C  
HETATM    3  C   UNL     1     -10.183  13.023  65.965  1.00  0.00    -0.292 C  
HETATM    4  C   UNL     1      -8.650  15.361  66.637  1.00  0.00    -0.318 C  
HETATM    5  C   UNL     1      -9.964  10.005  65.332  1.00  0.00    -0.364 C  
HETATM    6  C   UNL     1     -11.534  12.729  66.595  1.00  0.00    -0.404 C  
HETATM    7  C   UNL     1     -11.213  12.070  67.919  1.00  0.00    -0.323 C  
HETATM    8  C   UNL     1      -9.581   8.556  66.095  1.00  0.00    -0.276 C  
HETATM    9  C   UNL     1     -10.628   5.763  67.647  1.00  0.00    -0.313 C  
HETATM   10  C   UNL     1     -10.205   8.350  67.551  1.00  0.00    -0.308 C  
HETATM   11  C   UNL     1     -10.554  10.840  67.433  1.00  0.00    -0.287 C  
HETATM   12  C   UNL     1     -10.103   9.707  68.343  1.00  0.00    -0.199 C  
HETATM   13  C   UNL     1     -11.066   9.649  69.533  1.00  0.00    -0.168 C  
HETATM   14  O   UNL     1     -11.160  10.871  70.228  1.00  0.00    -0.441 OA 
HETATM   15  C   UNL     1     -10.615   8.538  70.463  1.00  0.00    -0.238 C  
HETATM   16  C   UNL     1     -11.105   7.232  69.763  1.00  0.00    -0.203 C  
HETATM   17  C   UNL     1      -8.101  11.278  66.237  1.00  0.00    -0.108 C  
HETATM   18  H   UNL     1     -11.757  10.835  70.966  1.00  0.00     0.000 HD 
HETATM   19  C   UNL     1     -11.385   6.071  70.711  1.00  0.00    -0.295 C  
HETATM   20  C   UNL     1      -9.657  11.286  66.262  1.00  0.00    -0.235 C  
HETATM   21  C   UNL     1     -10.185   5.285  71.187  1.00  0.00    -0.224 C  
HETATM   22  O   UNL     1      -9.860   5.617  72.538  1.00  0.00    -0.161 OA 
HETATM   23  C   UNL     1      -8.947   5.322  70.280  1.00  0.00    -0.153 C  
HETATM   24  C   UNL     1      -8.794   6.440  69.174  1.00  0.00    -0.126 C  
HETATM   25  H   UNL     1      -9.105   5.122  72.837  1.00  0.00     0.000 HD 
HETATM   26  C   UNL     1     -10.132   6.948  68.521  1.00  0.00    -0.165 C  
ENDROOT
BRANCH   4  27
HETATM   27  C   UNL     1      -8.407  16.511  67.654  1.00  0.00    -0.175 C  
HETATM   28  O   UNL     1      -8.140  18.862  67.918  1.00  0.00    -0.262 OA 
HETATM   29  C   UNL     1      -8.288  17.875  67.006  1.00  0.00    -0.234 C  
HETATM   30  O   UNL     1      -8.316  18.078  65.810  1.00  0.00    -0.508 OA 
ENDBRANCH   4  27
BRANCH  15  31
HETATM   31  C   UNL     1     -10.879   8.893  71.934  1.00  0.00    -0.433 C  
HETATM   32  C   UNL     1     -12.313   8.888  72.422  1.00  0.00    -0.385 C  
ENDBRANCH  15  31
TORSDOF 2
ENDMDL
MODEL        8
REMARK 921   NORMALIZED FREE ENERGY PREDICTED BY IDOCK:   -7.05 KCAL/MOL
REMARK 922        TOTAL FREE ENERGY PREDICTED BY IDOCK:   -8.06 KCAL/MOL
REMARK 923 INTER-LIGAND FREE ENERGY PREDICTED BY IDOCK:   -7.63 KCAL/MOL
REMARK 924 INTRA-LIGAND FREE ENERGY PREDICTED BY IDOCK:   -0.43 KCAL/MOL
REMARK 927      BINDING AFFINITY PREDICTED BY RF-SCORE:    0.00 PKD
ROOT
HETATM    1  C   UNL     1     -10.141   9.654  67.817  1.00  0.00    -0.232 C  
HETATM    2  C   UNL     1      -9.854   8.499  66.797  1.00  0.00    -0.327 C  
HETATM    3  C   UNL     1     -11.131  11.037  67.192  1.00  0.00    -0.333 C  
HETATM    4  C   UNL     1     -10.691   8.944  69.115  1.00  0.00    -0.162 C  
HETATM    5  C   UNL     1     -12.119  13.949  66.871  1.00  0.00    -0.467 C  
HETATM    6  C   UNL     1     -10.168  11.303  66.047  1.00  0.00    -0.295 C  
HETATM    7  C   UNL     1      -9.074  12.160  66.647  1.00  0.00    -0.206 C  
HETATM    8  C   UNL     1     -11.661  15.514  67.280  1.00  0.00    -0.012 C  
HETATM    9  C   UNL     1     -10.178  18.398  66.391  1.00  0.00    -0.431 C  
HETATM   10  C   UNL     1     -10.117  15.865  67.070  1.00  0.00    -0.268 C  
HETATM   11  C   UNL     1      -9.861  13.362  66.995  1.00  0.00    -0.250 C  
HETATM   12  C   UNL     1      -9.249  14.641  67.547  1.00  0.00    -0.192 C  
HETATM   13  C   UNL     1      -7.843  14.782  66.956  1.00  0.00    -0.054 C  
HETATM   14  O   UNL     1      -7.024  13.662  67.204  1.00  0.00    -0.392 OA 
HETATM   15  C   UNL     1      -7.210  16.042  67.517  1.00  0.00    -0.196 C  
HETATM   16  C   UNL     1      -7.872  17.197  66.701  1.00  0.00    -0.297 C  
HETATM   17  C   UNL     1     -11.668  12.965  69.049  1.00  0.00    -0.375 C  
HETATM   18  H   UNL     1      -6.152  13.749  66.838  1.00  0.00     0.000 HD 
HETATM   19  C   UNL     1      -7.013  18.449  66.564  1.00  0.00    -0.247 C  
HETATM   20  C   UNL     1     -11.188  12.835  67.574  1.00  0.00    -0.332 C  
HETATM   21  C   UNL     1      -6.995  19.388  67.749  1.00  0.00    -0.242 C  
HETATM   22  O   UNL     1      -5.771  19.270  68.476  1.00  0.00    -0.206 OA 
HETATM   23  C   UNL     1      -8.215  19.328  68.678  1.00  0.00    -0.408 C  
HETATM   24  C   UNL     1      -9.192  18.086  68.645  1.00  0.00    -0.276 C  
HETATM   25  H   UNL     1      -5.761  19.860  69.221  1.00  0.00     0.000 HD 
HETATM   26  C   UNL     1      -9.367  17.387  67.247  1.00  0.00    -0.238 C  
ENDROOT
BRANCH   4  27
HETATM   27  C   UNL     1      -9.672   7.967  69.766  1.00  0.00    -0.176 C  
HETATM   28  O   UNL     1      -9.290   5.723  70.465  1.00  0.00    -0.157 OA 
HETATM   29  C   UNL     1     -10.216   6.566  69.956  1.00  0.00    -0.184 C  
HETATM   30  O   UNL     1     -11.350   6.222  69.691  1.00  0.00    -0.405 OA 
ENDBRANCH   4  27
BRANCH  15  31
HETATM   31  C   UNL     1      -5.697  15.870  67.718  1.00  0.00    -0.164 C  
HETATM   32  C   UNL     1      -5.153  15.943  69.130  1.00  0.00    -0.104 C  
ENDBRANCH  15  31
TORSDOF 2
ENDMDL
MODEL        9
REMARK 921   NORMALIZED FREE ENERGY PREDICTED BY IDOCK:   -6.91 KCAL/MOL
REMARK 922        TOTAL FREE ENERGY PREDICTED BY IDOCK:   -7.90 KCAL/MOL
REMARK 923 INTER-LIGAND FREE ENERGY PREDICTED BY IDOCK:   -7.49 KCAL/MOL
REMARK 924 INTRA-LIGAND FREE ENERGY PREDICTED BY IDOCK:   -0.41 KCAL/MOL
REMARK 927      BINDING AFFINITY PREDICTED BY RF-SCORE:    0.00 PKD
ROOT
HETATM    1  C   UNL     1      -9.735   9.441  67.692  1.00  0.00    -0.191 C  
HETATM    2  C   UNL     1      -9.078   8.331  66.802  1.00  0.00    -0.190 C  
HETATM    3  C   UNL     1     -10.707  10.691  66.812  1.00  0.00    -0.272 C  
HETATM    4  C   UNL     1     -10.489   8.667  68.844  1.00  0.00    -0.211 C  
HETATM    5  C   UNL     1     -11.932  13.459  66.183  1.00  0.00    -0.460 C  
HETATM    6  C   UNL     1      -9.539  11.075  65.919  1.00  0.00    -0.255 C  
HETATM    7  C   UNL     1      -8.730  12.060  66.735  1.00  0.00    -0.192 C  
HETATM    8  C   UNL     1     -11.775  15.069  66.644  1.00  0.00    -0.144 C  
HETATM    9  C   UNL     1     -10.481  18.115  66.047  1.00  0.00    -0.346 C  
HETATM   10  C   UNL     1     -10.279  15.608  66.793  1.00  0.00    -0.278 C  
HETATM   11  C   UNL     1      -9.714  13.155  66.853  1.00  0.00    -0.243 C  
HETATM   12  C   UNL     1      -9.410  14.500  67.497  1.00  0.00    -0.193 C  
HETATM   13  C   UNL     1      -7.930  14.813  67.250  1.00  0.00    -0.205 C  
HETATM   14  O   UNL     1      -7.066  13.803  67.717  1.00  0.00    -0.134 OA 
HETATM   15  C   UNL     1      -7.604  16.142  67.908  1.00  0.00    -0.146 C  
HETATM   16  C   UNL     1      -8.187  17.207  66.926  1.00  0.00    -0.251 C  
HETATM   17  C   UNL     1     -11.897  12.538  68.433  1.00  0.00    -0.353 C  
HETATM   18  H   UNL     1      -6.148  13.998  67.564  1.00  0.00     0.000 HD 
HETATM   19  C   UNL     1      -7.477  18.556  66.960  1.00  0.00    -0.228 C  
HETATM   20  C   UNL     1     -11.069  12.468  67.118  1.00  0.00    -0.321 C  
HETATM   21  C   UNL     1      -7.854  19.488  68.088  1.00  0.00    -0.312 C  
HETATM   22  O   UNL     1      -6.833  19.522  69.086  1.00  0.00    -0.321 OA 
HETATM   23  C   UNL     1      -9.244  19.278  68.704  1.00  0.00    -0.436 C  
HETATM   24  C   UNL     1     -10.028  17.926  68.478  1.00  0.00    -0.379 C  
HETATM   25  H   UNL     1      -7.070  20.109  69.795  1.00  0.00     0.000 HD 
HETATM   26  C   UNL     1      -9.781  17.211  67.099  1.00  0.00    -0.261 C  
ENDROOT
BRANCH   4  27
HETATM   27  C   UNL     1      -9.544   7.824  69.745  1.00  0.00    -0.167 C  
HETATM   28  O   UNL     1      -9.225   5.716  70.807  1.00  0.00    -0.148 OA 
HETATM   29  C   UNL     1     -10.093   6.451  70.075  1.00  0.00    -0.172 C  
HETATM   30  O   UNL     1     -11.184   6.042  69.736  1.00  0.00    -0.394 OA 
ENDBRANCH   4  27
BRANCH  15  31
HETATM   31  C   UNL     1      -6.173  16.158  68.466  1.00  0.00    -0.115 C  
HETATM   32  C   UNL     1      -5.993  16.294  69.963  1.00  0.00    -0.167 C  
ENDBRANCH  15  31
TORSDOF 2
ENDMDL
MODEL       10
REMARK 921   NORMALIZED FREE ENERGY PREDICTED BY IDOCK:   -6.87 KCAL/MOL
REMARK 922        TOTAL FREE ENERGY PREDICTED BY IDOCK:   -7.87 KCAL/MOL
REMARK 923 INTER-LIGAND FREE ENERGY PREDICTED BY IDOCK:   -7.43 KCAL/MOL
REMARK 924 INTRA-LIGAND FREE ENERGY PREDICTED BY IDOCK:   -0.44 KCAL/MOL
REMARK 927      BINDING AFFINITY PREDICTED BY RF-SCORE:    0.00 PKD
ROOT
HETATM    1  C   UNL     1     -10.053   9.543  67.783  1.00  0.00    -0.244 C  
HETATM    2  C   UNL     1      -9.785   8.398  66.747  1.00  0.00    -0.309 C  
HETATM    3  C   UNL     1     -11.107  10.901  67.209  1.00  0.00    -0.350 C  
HETATM    4  C   UNL     1     -10.524   8.816  69.103  1.00  0.00    -0.230 C  
HETATM    5  C   UNL     1     -12.183  13.787  66.942  1.00  0.00    -0.408 C  
HETATM    6  C   UNL     1     -10.205  11.194  66.021  1.00  0.00    -0.300 C  
HETATM    7  C   UNL     1      -9.107  12.078  66.572  1.00  0.00    -0.202 C  
HETATM    8  C   UNL     1     -11.747  15.363  67.334  1.00  0.00    -0.040 C  
HETATM    9  C   UNL     1     -10.382  18.286  66.386  1.00  0.00    -0.418 C  
HETATM   10  C   UNL     1     -10.224  15.754  67.054  1.00  0.00    -0.280 C  
HETATM   11  C   UNL     1      -9.907  13.258  66.960  1.00  0.00    -0.242 C  
HETATM   12  C   UNL     1      -9.304  14.552  67.487  1.00  0.00    -0.193 C  
HETATM   13  C   UNL     1      -7.930  14.730  66.831  1.00  0.00     0.013 C  
HETATM   14  O   UNL     1      -7.073  13.632  67.038  1.00  0.00    -0.381 OA 
HETATM   15  C   UNL     1      -7.305  16.005  67.366  1.00  0.00    -0.216 C  
HETATM   16  C   UNL     1      -8.033  17.144  66.585  1.00  0.00    -0.300 C  
HETATM   17  C   UNL     1     -11.607  12.812  69.093  1.00  0.00    -0.373 C  
HETATM   18  H   UNL     1      -6.221  13.742  66.632  1.00  0.00     0.000 HD 
HETATM   19  C   UNL     1      -7.214  18.419  66.412  1.00  0.00    -0.276 C  
HETATM   20  C   UNL     1     -11.192  12.696  67.598  1.00  0.00    -0.329 C  
HETATM   21  C   UNL     1      -7.165  19.355  67.598  1.00  0.00    -0.233 C  
HETATM   22  O   UNL     1      -5.907  19.267  68.267  1.00  0.00    -0.208 OA 
HETATM   23  C   UNL     1      -8.339  19.262  68.583  1.00  0.00    -0.407 C  
HETATM   24  C   UNL     1      -9.284  17.996  68.591  1.00  0.00    -0.276 C  
HETATM   25  H   UNL     1      -5.877  19.856  69.012  1.00  0.00     0.000 HD 
HETATM   26  C   UNL     1      -9.506  17.294  67.201  1.00  0.00    -0.256 C  
ENDROOT
BRANCH   4  27
HETATM   27  C   UNL     1      -9.452   7.865  69.703  1.00  0.00    -0.160 C  
HETATM   28  O   UNL     1      -8.194   7.320  71.650  1.00  0.00    -0.104 OA 
HETATM   29  C   UNL     1      -9.081   8.200  71.133  1.00  0.00    -0.154 C  
HETATM   30  O   UNL     1      -9.515   9.146  71.757  1.00  0.00    -0.312 OA 
ENDBRANCH   4  27
BRANCH  15  31
HETATM   31  C   UNL     1      -5.780  15.872  67.497  1.00  0.00    -0.139 C  
HETATM   32  C   UNL     1      -5.175  15.933  68.885  1.00  0.00    -0.103 C  
ENDBRANCH  15  31
TORSDOF 2
ENDMDL
MODEL       11
REMARK 921   NORMALIZED FREE ENERGY PREDICTED BY IDOCK:   -6.81 KCAL/MOL
REMARK 922        TOTAL FREE ENERGY PREDICTED BY IDOCK:   -7.79 KCAL/MOL
REMARK 923 INTER-LIGAND FREE ENERGY PREDICTED BY IDOCK:   -7.33 KCAL/MOL
REMARK 924 INTRA-LIGAND FREE ENERGY PREDICTED BY IDOCK:   -0.46 KCAL/MOL
REMARK 927      BINDING AFFINITY PREDICTED BY RF-SCORE:    0.00 PKD
ROOT
HETATM    1  C   UNL     1      -9.927  11.284  65.055  1.00  0.00    -0.323 C  
HETATM    2  C   UNL     1     -10.152  10.854  63.564  1.00  0.00    -0.406 C  
HETATM    3  C   UNL     1      -8.417  10.664  65.840  1.00  0.00    -0.167 C  
HETATM    4  C   UNL     1     -10.120  12.851  65.075  1.00  0.00    -0.235 C  
HETATM    5  C   UNL     1      -6.567   9.623  68.088  1.00  0.00    -0.061 C  
HETATM    6  C   UNL     1      -8.775   9.216  65.550  1.00  0.00    -0.210 C  
HETATM    7  C   UNL     1      -9.707   8.810  66.672  1.00  0.00    -0.309 C  
HETATM    8  C   UNL     1      -6.659   9.059  69.670  1.00  0.00    -0.043 C  
HETATM    9  C   UNL     1      -6.796   6.450  71.786  1.00  0.00    -0.064 C  
HETATM   10  C   UNL     1      -7.844   8.034  69.977  1.00  0.00    -0.104 C  
HETATM   11  C   UNL     1      -8.783   8.929  67.819  1.00  0.00    -0.125 C  
HETATM   12  C   UNL     1      -9.145   8.529  69.241  1.00  0.00    -0.153 C  
HETATM   13  C   UNL     1     -10.133   7.360  69.162  1.00  0.00    -0.189 C  
HETATM   14  O   UNL     1     -11.278   7.655  68.395  1.00  0.00    -0.389 OA 
HETATM   15  C   UNL     1     -10.524   6.965  70.574  1.00  0.00    -0.234 C  
HETATM   16  C   UNL     1      -9.303   6.141  71.091  1.00  0.00    -0.175 C  
HETATM   17  C   UNL     1      -8.045  11.528  68.403  1.00  0.00    -0.149 C  
HETATM   18  H   UNL     1     -11.891   6.931  68.346  1.00  0.00     0.000 HD 
HETATM   19  C   UNL     1      -9.643   5.102  72.155  1.00  0.00    -0.189 C  
HETATM   20  C   UNL     1      -7.974  10.217  67.568  1.00  0.00    -0.106 C  
HETATM   21  C   UNL     1      -9.810   5.614  73.567  1.00  0.00    -0.167 C  
HETATM   22  O   UNL     1     -11.190   5.665  73.932  1.00  0.00    -0.374 OA 
HETATM   23  C   UNL     1      -9.085   6.924  73.904  1.00  0.00    -0.211 C  
HETATM   24  C   UNL     1      -8.576   7.880  72.753  1.00  0.00    -0.225 C  
HETATM   25  H   UNL     1     -11.295   5.986  74.820  1.00  0.00     0.000 HD 
HETATM   26  C   UNL     1      -8.122   7.174  71.424  1.00  0.00    -0.106 C  
ENDROOT
BRANCH   4  27
HETATM   27  C   UNL     1     -11.545  13.306  64.652  1.00  0.00    -0.385 C  
HETATM   28  O   UNL     1     -13.655  14.091  65.425  1.00  0.00    -0.593 OA 
HETATM   29  C   UNL     1     -12.445  13.639  65.824  1.00  0.00    -0.477 C  
HETATM   30  O   UNL     1     -12.135  13.517  66.991  1.00  0.00    -0.384 OA 
ENDBRANCH   4  27
BRANCH  15  31
HETATM   31  C   UNL     1     -11.986   6.497  70.644  1.00  0.00    -0.345 C  
HETATM   32  C   UNL     1     -12.939   7.268  71.533  1.00  0.00    -0.434 C  
ENDBRANCH  15  31
TORSDOF 2
ENDMDL
MODEL       12
REMARK 921   NORMALIZED FREE ENERGY PREDICTED BY IDOCK:   -6.75 KCAL/MOL
REMARK 922        TOTAL FREE ENERGY PREDICTED BY IDOCK:   -7.73 KCAL/MOL
REMARK 923 INTER-LIGAND FREE ENERGY PREDICTED BY IDOCK:   -7.34 KCAL/MOL
REMARK 924 INTRA-LIGAND FREE ENERGY PREDICTED BY IDOCK:   -0.39 KCAL/MOL
REMARK 927      BINDING AFFINITY PREDICTED BY RF-SCORE:    0.00 PKD
ROOT
HETATM    1  C   UNL     1     -10.248   7.113  68.225  1.00  0.00    -0.210 C  
HETATM    2  C   UNL     1     -11.224   6.270  69.116  1.00  0.00    -0.439 C  
HETATM    3  C   UNL     1      -9.176   8.277  69.107  1.00  0.00    -0.151 C  
HETATM    4  C   UNL     1      -9.513   6.068  67.298  1.00  0.00    -0.119 C  
HETATM    5  C   UNL     1      -7.526  10.842  69.618  1.00  0.00    -0.082 C  
HETATM    6  C   UNL     1     -10.355   8.981  69.758  1.00  0.00    -0.219 C  
HETATM    7  C   UNL     1     -10.837   9.975  68.723  1.00  0.00    -0.252 C  
HETATM    8  C   UNL     1      -7.300  12.376  68.967  1.00  0.00     0.031 C  
HETATM    9  C   UNL     1      -8.038  15.656  69.019  1.00  0.00    -0.222 C  
HETATM   10  C   UNL     1      -8.627  13.148  68.526  1.00  0.00    -0.056 C  
HETATM   11  C   UNL     1      -9.650  10.850  68.644  1.00  0.00    -0.192 C  
HETATM   12  C   UNL     1      -9.595  12.127  67.818  1.00  0.00    -0.195 C  
HETATM   13  C   UNL     1     -11.003  12.731  67.793  1.00  0.00    -0.237 C  
HETATM   14  O   UNL     1     -11.978  11.837  67.308  1.00  0.00    -0.618 OA 
HETATM   15  C   UNL     1     -10.970  13.993  66.952  1.00  0.00    -0.301 C  
HETATM   16  C   UNL     1     -10.326  15.061  67.893  1.00  0.00    -0.241 C  
HETATM   17  C   UNL     1      -7.439   9.644  67.504  1.00  0.00    -0.091 C  
HETATM   18  H   UNL     1     -12.852  12.211  67.292  1.00  0.00     0.000 HD 
HETATM   19  C   UNL     1     -10.746  16.498  67.602  1.00  0.00    -0.311 C  
HETATM   20  C   UNL     1      -8.434   9.903  68.672  1.00  0.00    -0.114 C  
HETATM   21  C   UNL     1     -10.045  17.186  66.453  1.00  0.00    -0.320 C  
HETATM   22  O   UNL     1     -10.896  17.265  65.309  1.00  0.00    -0.576 OA 
HETATM   23  C   UNL     1      -8.653  16.649  66.090  1.00  0.00    -0.324 C  
HETATM   24  C   UNL     1      -8.188  15.222  66.583  1.00  0.00    -0.140 C  
HETATM   25  H   UNL     1     -10.455  17.698  64.586  1.00  0.00     0.000 HD 
HETATM   26  C   UNL     1      -8.754  14.757  67.974  1.00  0.00    -0.168 C  
ENDROOT
BRANCH   4  27
HETATM   27  C   UNL     1     -10.475   5.291  66.356  1.00  0.00    -0.347 C  
HETATM   28  O   UNL     1     -10.615   3.775  64.525  1.00  0.00    -0.224 OA 
HETATM   29  C   UNL     1      -9.758   4.489  65.289  1.00  0.00    -0.172 C  
HETATM   30  O   UNL     1      -8.556   4.479  65.122  1.00  0.00    -0.121 OA 
ENDBRANCH   4  27
BRANCH  15  31
HETATM   31  C   UNL     1     -12.282  14.188  66.177  1.00  0.00    -0.465 C  
HETATM   32  C   UNL     1     -12.236  14.104  64.666  1.00  0.00    -0.465 C  
ENDBRANCH  15  31
TORSDOF 2
ENDMDL
MODEL       13
REMARK 921   NORMALIZED FREE ENERGY PREDICTED BY IDOCK:   -6.72 KCAL/MOL
REMARK 922        TOTAL FREE ENERGY PREDICTED BY IDOCK:   -7.69 KCAL/MOL
REMARK 923 INTER-LIGAND FREE ENERGY PREDICTED BY IDOCK:   -7.27 KCAL/MOL
REMARK 924 INTRA-LIGAND FREE ENERGY PREDICTED BY IDOCK:   -0.42 KCAL/MOL
REMARK 927      BINDING AFFINITY PREDICTED BY RF-SCORE:    0.00 PKD
ROOT
HETATM    1  C   UNL     1      -9.555   8.962  67.426  1.00  0.00    -0.201 C  
HETATM    2  C   UNL     1      -8.817   7.905  66.535  1.00  0.00    -0.175 C  
HETATM    3  C   UNL     1     -10.578  10.168  66.542  1.00  0.00    -0.179 C  
HETATM    4  C   UNL     1     -10.288   8.129  68.549  1.00  0.00    -0.230 C  
HETATM    5  C   UNL     1     -11.946  12.872  65.924  1.00  0.00    -0.504 C  
HETATM    6  C   UNL     1      -9.415  10.631  65.680  1.00  0.00    -0.257 C  
HETATM    7  C   UNL     1      -8.681  11.648  66.528  1.00  0.00    -0.182 C  
HETATM    8  C   UNL     1     -11.891  14.480  66.410  1.00  0.00    -0.361 C  
HETATM    9  C   UNL     1     -10.760  17.603  65.885  1.00  0.00    -0.113 C  
HETATM   10  C   UNL     1     -10.431  15.101  66.601  1.00  0.00    -0.287 C  
HETATM   11  C   UNL     1      -9.729  12.684  66.639  1.00  0.00    -0.249 C  
HETATM   12  C   UNL     1      -9.515  14.033  67.308  1.00  0.00    -0.231 C  
HETATM   13  C   UNL     1      -8.051  14.434  67.099  1.00  0.00    -0.145 C  
HETATM   14  O   UNL     1      -7.141  13.468  67.571  1.00  0.00    -0.161 OA 
HETATM   15  C   UNL     1      -7.816  15.769  67.783  1.00  0.00    -0.155 C  
HETATM   16  C   UNL     1      -8.437  16.814  66.803  1.00  0.00    -0.268 C  
HETATM   17  C   UNL     1     -11.906  11.920  68.161  1.00  0.00    -0.338 C  
HETATM   18  H   UNL     1      -6.233  13.716  67.442  1.00  0.00     0.000 HD 
HETATM   19  C   UNL     1      -7.806  18.200  66.871  1.00  0.00    -0.249 C  
HETATM   20  C   UNL     1     -11.047  11.917  66.864  1.00  0.00    -0.356 C  
HETATM   21  C   UNL     1      -8.260  19.093  68.004  1.00  0.00    -0.304 C  
HETATM   22  O   UNL     1      -7.265  19.169  69.025  1.00  0.00    -0.331 OA 
HETATM   23  C   UNL     1      -9.649  18.795  68.586  1.00  0.00    -0.432 C  
HETATM   24  C   UNL     1     -10.350  17.403  68.322  1.00  0.00    -0.374 C  
HETATM   25  H   UNL     1      -7.550  19.731  69.736  1.00  0.00     0.000 HD 
HETATM   26  C   UNL     1     -10.032  16.725  66.940  1.00  0.00    -0.274 C  
ENDROOT
BRANCH   4  27
HETATM   27  C   UNL     1      -9.317   7.327  69.459  1.00  0.00    -0.152 C  
HETATM   28  O   UNL     1      -8.196   7.282  71.560  1.00  0.00    -0.104 OA 
HETATM   29  C   UNL     1      -8.991   8.029  70.762  1.00  0.00    -0.144 C  
HETATM   30  O   UNL     1      -9.386   9.135  71.069  1.00  0.00    -0.248 OA 
ENDBRANCH   4  27
BRANCH  15  31
HETATM   31  C   UNL     1      -6.400  15.857  68.373  1.00  0.00    -0.110 C  
HETATM   32  C   UNL     1      -6.245  15.735  69.874  1.00  0.00    -0.157 C  
ENDBRANCH  15  31
TORSDOF 2
ENDMDL
MODEL       14
REMARK 921   NORMALIZED FREE ENERGY PREDICTED BY IDOCK:   -6.64 KCAL/MOL
REMARK 922        TOTAL FREE ENERGY PREDICTED BY IDOCK:   -7.61 KCAL/MOL
REMARK 923 INTER-LIGAND FREE ENERGY PREDICTED BY IDOCK:   -7.17 KCAL/MOL
REMARK 924 INTRA-LIGAND FREE ENERGY PREDICTED BY IDOCK:   -0.44 KCAL/MOL
REMARK 927      BINDING AFFINITY PREDICTED BY RF-SCORE:    0.00 PKD
ROOT
HETATM    1  C   UNL     1      -9.188   5.115  70.359  1.00  0.00    -0.193 C  
HETATM    2  C   UNL     1      -9.908   3.728  70.254  1.00  0.00    -0.131 C  
HETATM    3  C   UNL     1     -10.218   6.505  70.899  1.00  0.00    -0.220 C  
HETATM    4  C   UNL     1      -7.885   4.851  71.212  1.00  0.00    -0.092 C  
HETATM    5  C   UNL     1     -11.246   9.414  71.092  1.00  0.00    -0.427 C  
HETATM    6  C   UNL     1     -11.220   6.291  69.777  1.00  0.00    -0.499 C  
HETATM    7  C   UNL     1     -10.625   7.001  68.580  1.00  0.00    -0.235 C  
HETATM    8  C   UNL     1     -11.074  10.893  70.309  1.00  0.00    -0.173 C  
HETATM    9  C   UNL     1     -12.244  13.110  68.068  1.00  0.00    -0.091 C  
HETATM   10  C   UNL     1     -11.093  10.842  68.713  1.00  0.00    -0.310 C  
HETATM   11  C   UNL     1     -10.646   8.392  69.078  1.00  0.00    -0.172 C  
HETATM   12  C   UNL     1     -10.256   9.597  68.236  1.00  0.00    -0.216 C  
HETATM   13  C   UNL     1     -10.625   9.292  66.781  1.00  0.00    -0.137 C  
HETATM   14  O   UNL     1     -10.038   8.105  66.298  1.00  0.00    -0.466 OA 
HETATM   15  C   UNL     1     -10.220  10.476  65.923  1.00  0.00    -0.311 C  
HETATM   16  C   UNL     1     -11.338  11.534  66.181  1.00  0.00    -0.200 C  
HETATM   17  C   UNL     1      -8.877   8.870  71.148  1.00  0.00    -0.297 C  
HETATM   18  H   UNL     1     -10.267   7.916  65.396  1.00  0.00     0.000 HD 
HETATM   19  C   UNL     1     -11.570  12.506  65.029  1.00  0.00    -0.392 C  
HETATM   20  C   UNL     1     -10.201   8.310  70.552  1.00  0.00    -0.213 C  
HETATM   21  C   UNL     1     -10.599  13.659  64.914  1.00  0.00    -0.408 C  
HETATM   22  O   UNL     1      -9.673  13.443  63.848  1.00  0.00    -0.560 OA 
HETATM   23  C   UNL     1      -9.887  14.077  66.208  1.00  0.00    -0.318 C  
HETATM   24  C   UNL     1      -9.842  13.103  67.451  1.00  0.00    -0.226 C  
HETATM   25  H   UNL     1      -9.063  14.169  63.776  1.00  0.00     0.000 HD 
HETATM   26  C   UNL     1     -11.089  12.164  67.635  1.00  0.00    -0.320 C  
ENDROOT
BRANCH   4  27
HETATM   27  C   UNL     1      -6.903   3.848  70.547  1.00  0.00    -0.033 C  
HETATM   28  O   UNL     1      -5.150   3.592  68.955  1.00  0.00    -0.009 OA 
HETATM   29  C   UNL     1      -6.038   4.472  69.471  1.00  0.00    -0.026 C  
HETATM   30  O   UNL     1      -6.120   5.624  69.100  1.00  0.00    -0.022 OA 
ENDBRANCH   4  27
BRANCH  15  31
HETATM   31  C   UNL     1      -9.745  10.028  64.532  1.00  0.00    -0.310 C  
HETATM   32  C   UNL     1      -8.291  10.250  64.170  1.00  0.00    -0.161 C  
ENDBRANCH  15  31
TORSDOF 2
ENDMDL
MODEL       15
REMARK 921   NORMALIZED FREE ENERGY PREDICTED BY IDOCK:   -6.53 KCAL/MOL
REMARK 922        TOTAL FREE ENERGY PREDICTED BY IDOCK:   -7.48 KCAL/MOL
REMARK 923 INTER-LIGAND FREE ENERGY PREDICTED BY IDOCK:   -7.01 KCAL/MOL
REMARK 924 INTRA-LIGAND FREE ENERGY PREDICTED BY IDOCK:   -0.46 KCAL/MOL
REMARK 927      BINDING AFFINITY PREDICTED BY RF-SCORE:    0.00 PKD
ROOT
HETATM    1  C   UNL     1      -9.754  18.222  67.726  1.00  0.00    -0.305 C  
HETATM    2  C   UNL     1      -9.792  19.097  69.026  1.00  0.00    -0.437 C  
HETATM    3  C   UNL     1     -11.016  16.927  67.605  1.00  0.00    -0.165 C  
HETATM    4  C   UNL     1      -9.703  19.248  66.527  1.00  0.00    -0.432 C  
HETATM    5  C   UNL     1     -12.280  14.210  66.845  1.00  0.00    -0.400 C  
HETATM    6  C   UNL     1     -10.593  16.292  68.919  1.00  0.00    -0.284 C  
HETATM    7  C   UNL     1      -9.424  15.398  68.564  1.00  0.00    -0.202 C  
HETATM    8  C   UNL     1     -11.825  12.698  66.265  1.00  0.00    -0.471 C  
HETATM    9  C   UNL     1     -11.035   9.493  66.908  1.00  0.00     0.064 C  
HETATM   10  C   UNL     1     -10.515  12.065  66.923  1.00  0.00    -0.251 C  
HETATM   11  C   UNL     1     -10.109  14.431  67.681  1.00  0.00    -0.222 C  
HETATM   12  C   UNL     1      -9.436  13.198  67.095  1.00  0.00    -0.239 C  
HETATM   13  C   UNL     1      -8.382  12.718  68.098  1.00  0.00    -0.172 C  
HETATM   14  O   UNL     1      -7.444  13.715  68.435  1.00  0.00    -0.107 OA 
HETATM   15  C   UNL     1      -7.684  11.502  67.517  1.00  0.00    -0.132 C  
HETATM   16  C   UNL     1      -8.699  10.337  67.741  1.00  0.00    -0.121 C  
HETATM   17  C   UNL     1     -10.948  15.504  65.276  1.00  0.00    -0.391 C  
HETATM   18  H   UNL     1      -6.790  13.417  69.056  1.00  0.00     0.000 HD 
HETATM   19  C   UNL     1      -8.062   8.958  67.872  1.00  0.00    -0.106 C  
HETATM   20  C   UNL     1     -11.064  15.270  66.809  1.00  0.00    -0.278 C  
HETATM   21  C   UNL     1      -7.664   8.274  66.584  1.00  0.00    -0.093 C  
HETATM   22  O   UNL     1      -6.249   8.326  66.393  1.00  0.00    -0.048 OA 
HETATM   23  C   UNL     1      -8.423   8.709  65.323  1.00  0.00    -0.196 C  
HETATM   24  C   UNL     1      -9.235  10.065  65.301  1.00  0.00    -0.268 C  
HETATM   25  H   UNL     1      -5.999   7.896  65.584  1.00  0.00     0.000 HD 
HETATM   26  C   UNL     1      -9.878  10.503  66.667  1.00  0.00    -0.246 C  
ENDROOT
BRANCH   4  27
HETATM   27  C   UNL     1      -8.438  20.151  66.537  1.00  0.00    -0.314 C  
HETATM   28  O   UNL     1      -6.187  20.367  65.793  1.00  0.00    -0.198 OA 
HETATM   29  C   UNL     1      -7.252  19.536  65.823  1.00  0.00    -0.295 C  
HETATM   30  O   UNL     1      -7.240  18.426  65.333  1.00  0.00    -0.534 OA 
ENDBRANCH   4  27
BRANCH  15  31
HETATM   31  C   UNL     1      -6.202  11.459  67.917  1.00  0.00    -0.051 C  
HETATM   32  C   UNL     1      -5.164  11.684  66.836  1.00  0.00    -0.119 C  
ENDBRANCH  15  31
TORSDOF 2
ENDMDL
MODEL       16
REMARK 921   NORMALIZED FREE ENERGY PREDICTED BY IDOCK:   -6.48 KCAL/MOL
REMARK 922        TOTAL FREE ENERGY PREDICTED BY IDOCK:   -7.43 KCAL/MOL
REMARK 923 INTER-LIGAND FREE ENERGY PREDICTED BY IDOCK:   -7.11 KCAL/MOL
REMARK 924 INTRA-LIGAND FREE ENERGY PREDICTED BY IDOCK:   -0.32 KCAL/MOL
REMARK 927      BINDING AFFINITY PREDICTED BY RF-SCORE:    0.00 PKD
ROOT
HETATM    1  C   UNL     1     -10.594  14.018  66.296  1.00  0.00    -0.281 C  
HETATM    2  C   UNL     1     -11.869  14.662  65.651  1.00  0.00    -0.273 C  
HETATM    3  C   UNL     1      -9.934  12.554  65.457  1.00  0.00    -0.248 C  
HETATM    4  C   UNL     1      -9.579  15.209  66.505  1.00  0.00    -0.293 C  
HETATM    5  C   UNL     1      -8.556   9.805  65.133  1.00  0.00    -0.173 C  
HETATM    6  C   UNL     1     -11.255  11.810  65.561  1.00  0.00    -0.316 C  
HETATM    7  C   UNL     1     -11.253  11.202  66.948  1.00  0.00    -0.258 C  
HETATM    8  C   UNL     1      -8.044   8.506  66.070  1.00  0.00    -0.110 C  
HETATM    9  C   UNL     1      -8.648   5.432  67.292  1.00  0.00    -0.108 C  
HETATM   10  C   UNL     1      -9.060   8.021  67.203  1.00  0.00    -0.159 C  
HETATM   11  C   UNL     1     -10.109  10.277  66.814  1.00  0.00    -0.272 C  
HETATM   12  C   UNL     1      -9.691   9.288  67.893  1.00  0.00    -0.180 C  
HETATM   13  C   UNL     1     -10.953   8.854  68.645  1.00  0.00     0.114 C  
HETATM   14  O   UNL     1     -11.677   9.937  69.182  1.00  0.00    -0.471 OA 
HETATM   15  C   UNL     1     -10.550   7.885  69.741  1.00  0.00    -0.242 C  
HETATM   16  C   UNL     1     -10.308   6.538  68.990  1.00  0.00    -0.226 C  
HETATM   17  C   UNL     1      -7.662  11.541  66.582  1.00  0.00    -0.101 C  
HETATM   18  H   UNL     1     -12.460   9.668  69.649  1.00  0.00     0.000 HD 
HETATM   19  C   UNL     1     -10.535   5.290  69.836  1.00  0.00    -0.351 C  
HETATM   20  C   UNL     1      -9.034  11.057  66.032  1.00  0.00    -0.209 C  
HETATM   21  C   UNL     1      -9.413   4.893  70.768  1.00  0.00    -0.169 C  
HETATM   22  O   UNL     1      -9.730   5.224  72.120  1.00  0.00    -0.158 OA 
HETATM   23  C   UNL     1      -8.008   5.376  70.380  1.00  0.00    -0.100 C  
HETATM   24  C   UNL     1      -7.820   6.553  69.343  1.00  0.00    -0.106 C  
HETATM   25  H   UNL     1      -9.024   4.975  72.706  1.00  0.00     0.000 HD 
HETATM   26  C   UNL     1      -8.910   6.655  68.214  1.00  0.00    -0.124 C  
ENDROOT
BRANCH   4  27
HETATM   27  C   UNL     1     -10.104  16.309  67.469  1.00  0.00    -0.258 C  
HETATM   28  O   UNL     1     -10.895  18.549  67.632  1.00  0.00    -0.412 OA 
HETATM   29  C   UNL     1     -10.380  17.631  66.783  1.00  0.00    -0.331 C  
HETATM   30  O   UNL     1     -10.168  17.859  65.610  1.00  0.00    -0.589 OA 
ENDBRANCH   4  27
BRANCH  15  31
HETATM   31  C   UNL     1     -11.435   8.044  70.987  1.00  0.00    -0.300 C  
HETATM   32  C   UNL     1     -10.843   8.735  72.198  1.00  0.00    -0.400 C  
ENDBRANCH  15  31
TORSDOF 2
ENDMDL
MODEL       17
REMARK 921   NORMALIZED FREE ENERGY PREDICTED BY IDOCK:   -6.41 KCAL/MOL
REMARK 922        TOTAL FREE ENERGY PREDICTED BY IDOCK:   -7.35 KCAL/MOL
REMARK 923 INTER-LIGAND FREE ENERGY PREDICTED BY IDOCK:   -7.23 KCAL/MOL
REMARK 924 INTRA-LIGAND FREE ENERGY PREDICTED BY IDOCK:   -0.12 KCAL/MOL
REMARK 927      BINDING AFFINITY PREDICTED BY RF-SCORE:    0.00 PKD
ROOT
HETATM    1  C   UNL     1      -9.669  18.278  67.704  1.00  0.00    -0.306 C  
HETATM    2  C   UNL     1      -9.886  19.224  68.935  1.00  0.00    -0.512 C  
HETATM    3  C   UNL     1     -10.896  16.963  67.488  1.00  0.00    -0.207 C  
HETATM    4  C   UNL     1      -9.461  19.237  66.467  1.00  0.00    -0.407 C  
HETATM    5  C   UNL     1     -12.033  14.193  66.720  1.00  0.00    -0.475 C  
HETATM    6  C   UNL     1     -10.652  16.408  68.881  1.00  0.00    -0.307 C  
HETATM    7  C   UNL     1      -9.441  15.509  68.738  1.00  0.00    -0.210 C  
HETATM    8  C   UNL     1     -11.497  12.657  66.294  1.00  0.00    -0.415 C  
HETATM    9  C   UNL     1     -10.786   9.503  67.217  1.00  0.00    -0.269 C  
HETATM   10  C   UNL     1     -10.285  12.077  67.157  1.00  0.00    -0.221 C  
HETATM   11  C   UNL     1      -9.996  14.487  67.827  1.00  0.00    -0.225 C  
HETATM   12  C   UNL     1      -9.244  13.232  67.408  1.00  0.00    -0.216 C  
HETATM   13  C   UNL     1      -8.333  12.821  68.569  1.00  0.00    -0.054 C  
HETATM   14  O   UNL     1      -7.454  13.846  68.972  1.00  0.00    -0.204 OA 
HETATM   15  C   UNL     1      -7.558  11.583  68.157  1.00  0.00    -0.113 C  
HETATM   16  C   UNL     1      -8.588  10.420  68.308  1.00  0.00    -0.128 C  
HETATM   17  C   UNL     1     -10.508  15.414  65.274  1.00  0.00    -0.440 C  
HETATM   18  H   UNL     1      -6.889  13.592  69.692  1.00  0.00     0.000 HD 
HETATM   19  C   UNL     1      -7.967   9.058  68.601  1.00  0.00    -0.102 C  
HETATM   20  C   UNL     1     -10.829  15.264  66.789  1.00  0.00    -0.312 C  
HETATM   21  C   UNL     1      -7.396   8.309  67.419  1.00  0.00    -0.092 C  
HETATM   22  O   UNL     1      -5.969   8.368  67.418  1.00  0.00    -0.045 OA 
HETATM   23  C   UNL     1      -7.980   8.664  66.045  1.00  0.00    -0.107 C  
HETATM   24  C   UNL     1      -8.788  10.006  65.837  1.00  0.00    -0.164 C  
HETATM   25  H   UNL     1      -5.610   7.896  66.675  1.00  0.00     0.000 HD 
HETATM   26  C   UNL     1      -9.612  10.511  67.078  1.00  0.00    -0.202 C  
ENDROOT
BRANCH   4  27
HETATM   27  C   UNL     1      -8.213  20.154  66.596  1.00  0.00    -0.328 C  
HETATM   28  O   UNL     1      -5.931  20.445  65.983  1.00  0.00    -0.175 OA 
HETATM   29  C   UNL     1      -6.982  19.599  65.909  1.00  0.00    -0.280 C  
HETATM   30  O   UNL     1      -6.927  18.521  65.355  1.00  0.00    -0.514 OA 
ENDBRANCH   4  27
BRANCH  15  31
HETATM   31  C   UNL     1      -6.142  11.581  68.755  1.00  0.00    -0.049 C  
HETATM   32  C   UNL     1      -5.987  11.225  70.219  1.00  0.00    -0.154 C  
ENDBRANCH  15  31
TORSDOF 2
ENDMDL
MODEL       18
REMARK 921   NORMALIZED FREE ENERGY PREDICTED BY IDOCK:   -6.40 KCAL/MOL
REMARK 922        TOTAL FREE ENERGY PREDICTED BY IDOCK:   -7.33 KCAL/MOL
REMARK 923 INTER-LIGAND FREE ENERGY PREDICTED BY IDOCK:   -7.30 KCAL/MOL
REMARK 924 INTRA-LIGAND FREE ENERGY PREDICTED BY IDOCK:   -0.03 KCAL/MOL
REMARK 927      BINDING AFFINITY PREDICTED BY RF-SCORE:    0.00 PKD
ROOT
HETATM    1  C   UNL     1      -9.301   6.849  70.645  1.00  0.00    -0.162 C  
HETATM    2  C   UNL     1      -8.260   6.862  71.817  1.00  0.00    -0.105 C  
HETATM    3  C   UNL     1      -8.620   7.028  68.977  1.00  0.00    -0.129 C  
HETATM    4  C   UNL     1     -10.197   5.572  70.891  1.00  0.00    -0.293 C  
HETATM    5  C   UNL     1      -8.477   7.878  66.007  1.00  0.00    -0.145 C  
HETATM    6  C   UNL     1      -7.931   8.338  69.320  1.00  0.00    -0.114 C  
HETATM    7  C   UNL     1      -9.001   9.397  69.160  1.00  0.00    -0.147 C  
HETATM    8  C   UNL     1      -9.274   8.881  64.918  1.00  0.00     0.031 C  
HETATM    9  C   UNL     1      -9.439  11.838  63.325  1.00  0.00    -0.194 C  
HETATM   10  C   UNL     1      -9.662  10.332  65.461  1.00  0.00    -0.326 C  
HETATM   11  C   UNL     1      -9.259   9.274  67.710  1.00  0.00    -0.141 C  
HETATM   12  C   UNL     1     -10.192  10.194  66.938  1.00  0.00    -0.295 C  
HETATM   13  C   UNL     1     -10.146  11.575  67.601  1.00  0.00    -0.184 C  
HETATM   14  O   UNL     1     -10.465  11.539  68.973  1.00  0.00    -0.273 OA 
HETATM   15  C   UNL     1     -11.091  12.498  66.856  1.00  0.00    -0.323 C  
HETATM   16  C   UNL     1     -10.306  12.886  65.564  1.00  0.00    -0.304 C  
HETATM   17  C   UNL     1     -10.480   6.904  66.982  1.00  0.00    -0.374 C  
HETATM   18  H   UNL     1     -10.436  12.395  69.385  1.00  0.00     0.000 HD 
HETATM   19  C   UNL     1     -10.681  14.243  64.977  1.00  0.00    -0.435 C  
HETATM   20  C   UNL     1      -9.256   7.762  67.415  1.00  0.00    -0.156 C  
HETATM   21  C   UNL     1     -11.941  14.292  64.144  1.00  0.00    -0.373 C  
HETATM   22  O   UNL     1     -13.009  14.903  64.869  1.00  0.00    -0.257 OA 
HETATM   23  C   UNL     1     -12.378  12.970  63.497  1.00  0.00    -0.500 C  
HETATM   24  C   UNL     1     -11.807  11.592  64.019  1.00  0.00    -0.307 C  
HETATM   25  H   UNL     1     -13.802  14.934  64.345  1.00  0.00     0.000 HD 
HETATM   26  C   UNL     1     -10.336  11.624  64.575  1.00  0.00    -0.349 C  
ENDROOT
BRANCH   4  27
HETATM   27  C   UNL     1     -10.981   5.613  72.232  1.00  0.00    -0.312 C  
HETATM   28  O   UNL     1     -11.196   4.650  74.399  1.00  0.00    -0.141 OA 
HETATM   29  C   UNL     1     -10.542   4.551  73.220  1.00  0.00    -0.216 C  
HETATM   30  O   UNL     1      -9.706   3.701  72.996  1.00  0.00    -0.119 OA 
ENDBRANCH   4  27
BRANCH  15  31
HETATM   31  C   UNL     1     -11.762  13.503  67.805  1.00  0.00    -0.394 C  
HETATM   32  C   UNL     1     -10.972  14.725  68.224  1.00  0.00    -0.264 C  
ENDBRANCH  15  31
TORSDOF 2
ENDMDL
MODEL       19
REMARK 921   NORMALIZED FREE ENERGY PREDICTED BY IDOCK:   -6.35 KCAL/MOL
REMARK 922        TOTAL FREE ENERGY PREDICTED BY IDOCK:   -7.27 KCAL/MOL
REMARK 923 INTER-LIGAND FREE ENERGY PREDICTED BY IDOCK:   -7.21 KCAL/MOL
REMARK 924 INTRA-LIGAND FREE ENERGY PREDICTED BY IDOCK:   -0.07 KCAL/MOL
REMARK 927      BINDING AFFINITY PREDICTED BY RF-SCORE:    0.00 PKD
ROOT
HETATM    1  C   UNL     1      -8.816   5.265  67.497  1.00  0.00    -0.105 C  
HETATM    2  C   UNL     1      -9.550   4.006  66.920  1.00  0.00    -0.232 C  
HETATM    3  C   UNL     1      -9.747   6.241  68.706  1.00  0.00    -0.141 C  
HETATM    4  C   UNL     1      -7.401   4.749  67.971  1.00  0.00    -0.070 C  
HETATM    5  C   UNL     1     -10.722   8.742  70.242  1.00  0.00    -0.249 C  
HETATM    6  C   UNL     1     -10.908   6.454  67.749  1.00  0.00    -0.418 C  
HETATM    7  C   UNL     1     -10.496   7.631  66.890  1.00  0.00    -0.388 C  
HETATM    8  C   UNL     1     -10.663  10.419  70.136  1.00  0.00    -0.292 C  
HETATM    9  C   UNL     1     -12.147  13.293  69.217  1.00  0.00    -0.291 C  
HETATM   10  C   UNL     1     -10.922  11.035  68.685  1.00  0.00    -0.271 C  
HETATM   11  C   UNL     1     -10.435   8.685  67.923  1.00  0.00    -0.269 C  
HETATM   12  C   UNL     1     -10.171  10.152  67.619  1.00  0.00    -0.246 C  
HETATM   13  C   UNL     1     -10.757  10.457  66.237  1.00  0.00    -0.037 C  
HETATM   14  O   UNL     1     -10.254   9.615  65.225  1.00  0.00    -0.315 OA 
HETATM   15  C   UNL     1     -10.480  11.913  65.908  1.00  0.00    -0.296 C  
HETATM   16  C   UNL     1     -11.542  12.700  66.738  1.00  0.00    -0.438 C  
HETATM   17  C   UNL     1      -8.374   8.364  69.737  1.00  0.00    -0.125 C  
HETATM   18  H   UNL     1     -10.617   9.805  64.367  1.00  0.00     0.000 HD 
HETATM   19  C   UNL     1     -11.940  14.047  66.144  1.00  0.00    -0.440 C  
HETATM   20  C   UNL     1      -9.774   8.026  69.150  1.00  0.00    -0.163 C  
HETATM   21  C   UNL     1     -10.993  15.199  66.390  1.00  0.00    -0.329 C  
HETATM   22  O   UNL     1     -10.239  15.500  65.215  1.00  0.00    -0.360 OA 
HETATM   23  C   UNL     1     -10.093  15.083  67.628  1.00  0.00    -0.231 C  
HETATM   24  C   UNL     1      -9.865  13.685  68.329  1.00  0.00    -0.232 C  
HETATM   25  H   UNL     1      -9.643  16.225  65.370  1.00  0.00     0.000 HD 
HETATM   26  C   UNL     1     -11.075  12.683  68.271  1.00  0.00    -0.295 C  
ENDROOT
BRANCH   4  27
HETATM   27  C   UNL     1      -6.534   4.172  66.818  1.00  0.00    -0.041 C  
HETATM   28  O   UNL     1      -5.407   2.240  65.999  1.00  0.00    -0.005 OA 
HETATM   29  C   UNL     1      -6.106   2.736  67.045  1.00  0.00    -0.024 C  
HETATM   30  O   UNL     1      -6.350   2.091  68.043  1.00  0.00    -0.027 OA 
ENDBRANCH   4  27
BRANCH  15  31
HETATM   31  C   UNL     1     -10.222  12.111  64.406  1.00  0.00    -0.333 C  
HETATM   32  C   UNL     1     -11.412  12.095  63.470  1.00  0.00    -0.544 C  
ENDBRANCH  15  31
TORSDOF 2
ENDMDL
MODEL       20
REMARK 921   NORMALIZED FREE ENERGY PREDICTED BY IDOCK:   -6.25 KCAL/MOL
REMARK 922        TOTAL FREE ENERGY PREDICTED BY IDOCK:   -7.17 KCAL/MOL
REMARK 923 INTER-LIGAND FREE ENERGY PREDICTED BY IDOCK:   -6.88 KCAL/MOL
REMARK 924 INTRA-LIGAND FREE ENERGY PREDICTED BY IDOCK:   -0.29 KCAL/MOL
REMARK 927      BINDING AFFINITY PREDICTED BY RF-SCORE:    0.00 PKD
ROOT
HETATM    1  C   UNL     1     -11.228  13.655  67.426  1.00  0.00    -0.323 C  
HETATM    2  C   UNL     1     -12.411  13.960  66.445  1.00  0.00    -0.468 C  
HETATM    3  C   UNL     1      -9.910  12.595  66.775  1.00  0.00    -0.236 C  
HETATM    4  C   UNL     1     -10.769  15.059  67.984  1.00  0.00    -0.262 C  
HETATM    5  C   UNL     1      -7.661  10.474  66.785  1.00  0.00    -0.118 C  
HETATM    6  C   UNL     1     -10.880  11.475  66.438  1.00  0.00    -0.334 C  
HETATM    7  C   UNL     1     -11.062  10.711  67.733  1.00  0.00    -0.385 C  
HETATM    8  C   UNL     1      -7.027   9.277  67.782  1.00  0.00    -0.081 C  
HETATM    9  C   UNL     1      -6.885   6.028  68.637  1.00  0.00    -0.070 C  
HETATM   10  C   UNL     1      -8.096   8.352  68.527  1.00  0.00    -0.123 C  
HETATM   11  C   UNL     1      -9.686  10.209  67.922  1.00  0.00    -0.166 C  
HETATM   12  C   UNL     1      -9.280   9.257  69.037  1.00  0.00    -0.144 C  
HETATM   13  C   UNL     1     -10.481   8.357  69.346  1.00  0.00    -0.217 C  
HETATM   14  O   UNL     1     -11.644   9.081  69.675  1.00  0.00    -0.429 OA 
HETATM   15  C   UNL     1     -10.099   7.416  70.474  1.00  0.00    -0.192 C  
HETATM   16  C   UNL     1      -9.223   6.326  69.782  1.00  0.00    -0.150 C  
HETATM   17  C   UNL     1      -7.839  12.182  68.506  1.00  0.00    -0.122 C  
HETATM   18  H   UNL     1     -12.389   8.523  69.866  1.00  0.00     0.000 HD 
HETATM   19  C   UNL     1      -9.246   4.964  70.468  1.00  0.00    -0.196 C  
HETATM   20  C   UNL     1      -8.760  11.381  67.541  1.00  0.00    -0.140 C  
HETATM   21  C   UNL     1      -8.362   4.806  71.684  1.00  0.00    -0.110 C  
HETATM   22  O   UNL     1      -9.136   4.833  72.884  1.00  0.00    -0.118 OA 
HETATM   23  C   UNL     1      -7.151   5.745  71.767  1.00  0.00    -0.082 C  
HETATM   24  C   UNL     1      -7.086   7.055  70.886  1.00  0.00    -0.070 C  
HETATM   25  H   UNL     1      -8.580   4.734  73.649  1.00  0.00     0.000 HD 
HETATM   26  C   UNL     1      -7.787   6.972  69.480  1.00  0.00    -0.119 C  
ENDROOT
BRANCH   4  27
HETATM   27  C   UNL     1     -11.878  15.801  68.782  1.00  0.00    -0.321 C  
HETATM   28  O   UNL     1     -13.173  15.811  70.780  1.00  0.00    -0.542 OA 
HETATM   29  C   UNL     1     -12.253  15.112  70.078  1.00  0.00    -0.338 C  
HETATM   30  O   UNL     1     -11.795  14.054  70.456  1.00  0.00    -0.306 OA 
ENDBRANCH   4  27
BRANCH  15  31
HETATM   31  C   UNL     1     -11.296   7.123  71.391  1.00  0.00    -0.288 C  
HETATM   32  C   UNL     1     -11.246   7.636  72.816  1.00  0.00    -0.431 C  
ENDBRANCH  15  31
TORSDOF 2
ENDMDL
MODEL       21
REMARK 921   NORMALIZED FREE ENERGY PREDICTED BY IDOCK:   -6.06 KCAL/MOL
REMARK 922        TOTAL FREE ENERGY PREDICTED BY IDOCK:   -6.95 KCAL/MOL
REMARK 923 INTER-LIGAND FREE ENERGY PREDICTED BY IDOCK:   -7.38 KCAL/MOL
REMARK 924 INTRA-LIGAND FREE ENERGY PREDICTED BY IDOCK:    0.42 KCAL/MOL
REMARK 927      BINDING AFFINITY PREDICTED BY RF-SCORE:    0.00 PKD
ROOT
HETATM    1  C   UNL     1      -8.546  16.336  67.277  1.00  0.00    -0.199 C  
HETATM    2  C   UNL     1      -9.119  17.256  66.144  1.00  0.00    -0.193 C  
HETATM    3  C   UNL     1      -8.302  14.596  66.838  1.00  0.00    -0.159 C  
HETATM    4  C   UNL     1      -7.276  17.092  67.832  1.00  0.00    -0.162 C  
HETATM    5  C   UNL     1      -8.170  11.529  67.211  1.00  0.00    -0.155 C  
HETATM    6  C   UNL     1      -9.754  14.421  66.427  1.00  0.00    -0.320 C  
HETATM    7  C   UNL     1     -10.496  14.147  67.718  1.00  0.00    -0.246 C  
HETATM    8  C   UNL     1      -8.612  10.350  68.326  1.00  0.00    -0.128 C  
HETATM    9  C   UNL     1     -10.825   8.022  69.320  1.00  0.00    -0.072 C  
HETATM   10  C   UNL     1     -10.066  10.508  68.968  1.00  0.00    -0.230 C  
HETATM   11  C   UNL     1      -9.873  12.862  68.097  1.00  0.00    -0.227 C  
HETATM   12  C   UNL     1     -10.315  12.029  69.291  1.00  0.00     0.163 C  
HETATM   13  C   UNL     1     -11.820  12.245  69.483  1.00  0.00    -0.315 C  
HETATM   14  O   UNL     1     -12.168  13.602  69.635  1.00  0.00    -0.314 OA 
HETATM   15  C   UNL     1     -12.272  11.439  70.686  1.00  0.00    -0.484 C  
HETATM   16  C   UNL     1     -12.360   9.974  70.152  1.00  0.00    -0.068 C  
HETATM   17  C   UNL     1      -7.216  13.074  68.828  1.00  0.00    -0.082 C  
HETATM   18  H   UNL     1     -13.101  13.736  69.755  1.00  0.00     0.000 HD 
HETATM   19  C   UNL     1     -13.368   9.093  70.883  1.00  0.00     0.042 C  
HETATM   20  C   UNL     1      -8.372  13.023  67.788  1.00  0.00    -0.175 C  
HETATM   21  C   UNL     1     -12.921   8.512  72.205  1.00  0.00    -0.363 C  
HETATM   22  O   UNL     1     -13.530   9.201  73.297  1.00  0.00    -0.879 OA 
HETATM   23  C   UNL     1     -11.407   8.361  72.401  1.00  0.00    -0.448 C  
HETATM   24  C   UNL     1     -10.394   9.154  71.484  1.00  0.00    -0.414 C  
HETATM   25  H   UNL     1     -13.249   8.836  74.128  1.00  0.00     0.000 HD 
HETATM   26  C   UNL     1     -10.865   9.415  70.006  1.00  0.00    -0.271 C  
ENDROOT
BRANCH   4  27
HETATM   27  C   UNL     1      -7.602  18.477  68.455  1.00  0.00    -0.328 C  
HETATM   28  O   UNL     1      -6.832  20.193  69.917  1.00  0.00    -0.269 OA 
HETATM   29  C   UNL     1      -6.555  18.959  69.439  1.00  0.00    -0.264 C  
HETATM   30  O   UNL     1      -5.577  18.323  69.774  1.00  0.00    -0.205 OA 
ENDBRANCH   4  27
BRANCH  15  31
HETATM   31  C   UNL     1     -13.389  12.157  71.458  1.00  0.00    -0.126 C  
HETATM   32  C   UNL     1     -13.049  13.455  72.161  1.00  0.00    -0.487 C  
ENDBRANCH  15  31
TORSDOF 2
ENDMDL
MODEL       22
REMARK 921   NORMALIZED FREE ENERGY PREDICTED BY IDOCK:   -5.87 KCAL/MOL
REMARK 922        TOTAL FREE ENERGY PREDICTED BY IDOCK:   -6.75 KCAL/MOL
REMARK 923 INTER-LIGAND FREE ENERGY PREDICTED BY IDOCK:   -6.53 KCAL/MOL
REMARK 924 INTRA-LIGAND FREE ENERGY PREDICTED BY IDOCK:   -0.22 KCAL/MOL
REMARK 927      BINDING AFFINITY PREDICTED BY RF-SCORE:    0.00 PKD
ROOT
HETATM    1  C   UNL     1     -10.614  13.529  66.538  1.00  0.00    -0.281 C  
HETATM    2  C   UNL     1     -11.970  14.232  66.187  1.00  0.00    -0.422 C  
HETATM    3  C   UNL     1     -10.194  12.075  65.543  1.00  0.00    -0.290 C  
HETATM    4  C   UNL     1      -9.535  14.682  66.562  1.00  0.00    -0.319 C  
HETATM    5  C   UNL     1      -9.013   9.298  64.869  1.00  0.00    -0.229 C  
HETATM    6  C   UNL     1     -11.491  11.368  65.899  1.00  0.00     0.027 C  
HETATM    7  C   UNL     1     -11.226  10.715  67.239  1.00  0.00    -0.237 C  
HETATM    8  C   UNL     1      -8.367   7.953  65.646  1.00  0.00    -0.146 C  
HETATM    9  C   UNL     1      -8.818   4.861  66.886  1.00  0.00    -0.106 C  
HETATM   10  C   UNL     1      -9.145   7.462  66.952  1.00  0.00    -0.164 C  
HETATM   11  C   UNL     1     -10.168   9.760  66.847  1.00  0.00    -0.310 C  
HETATM   12  C   UNL     1      -9.574   8.725  67.790  1.00  0.00    -0.177 C  
HETATM   13  C   UNL     1     -10.669   8.304  68.776  1.00  0.00    -0.042 C  
HETATM   14  O   UNL     1     -11.226   9.390  69.478  1.00  0.00    -0.403 OA 
HETATM   15  C   UNL     1     -10.084   7.288  69.739  1.00  0.00    -0.196 C  
HETATM   16  C   UNL     1     -10.051   5.960  68.919  1.00  0.00    -0.231 C  
HETATM   17  C   UNL     1      -7.777  10.957  66.146  1.00  0.00    -0.133 C  
HETATM   18  H   UNL     1     -11.905   9.130  70.090  1.00  0.00     0.000 HD 
HETATM   19  C   UNL     1     -10.144   4.692  69.762  1.00  0.00    -0.243 C  
HETATM   20  C   UNL     1      -9.250  10.533  65.880  1.00  0.00    -0.210 C  
HETATM   21  C   UNL     1      -8.868   4.232  70.430  1.00  0.00    -0.085 C  
HETATM   22  O   UNL     1      -8.888   4.527  71.827  1.00  0.00    -0.114 OA 
HETATM   23  C   UNL     1      -7.557   4.684  69.772  1.00  0.00    -0.055 C  
HETATM   24  C   UNL     1      -7.545   5.889  68.750  1.00  0.00    -0.090 C  
HETATM   25  H   UNL     1      -8.086   4.238  72.247  1.00  0.00     0.000 HD 
HETATM   26  C   UNL     1      -8.839   6.060  67.874  1.00  0.00    -0.110 C  
ENDROOT
BRANCH   4  27
HETATM   27  C   UNL     1      -9.809  15.765  67.642  1.00  0.00    -0.232 C  
HETATM   28  O   UNL     1     -10.294  18.065  68.024  1.00  0.00    -0.355 OA 
HETATM   29  C   UNL     1      -9.994  17.155  67.070  1.00  0.00    -0.287 C  
HETATM   30  O   UNL     1      -9.886  17.439  65.895  1.00  0.00    -0.501 OA 
ENDBRANCH   4  27
BRANCH  15  31
HETATM   31  C   UNL     1     -10.686   7.433  71.145  1.00  0.00    -0.246 C  
HETATM   32  C   UNL     1      -9.941   8.279  72.156  1.00  0.00    -0.343 C  
ENDBRANCH  15  31
TORSDOF 2
ENDMDL
MODEL       23
REMARK 921   NORMALIZED FREE ENERGY PREDICTED BY IDOCK:   -5.83 KCAL/MOL
REMARK 922        TOTAL FREE ENERGY PREDICTED BY IDOCK:   -6.70 KCAL/MOL
REMARK 923 INTER-LIGAND FREE ENERGY PREDICTED BY IDOCK:   -6.29 KCAL/MOL
REMARK 924 INTRA-LIGAND FREE ENERGY PREDICTED BY IDOCK:   -0.41 KCAL/MOL
REMARK 927      BINDING AFFINITY PREDICTED BY RF-SCORE:    0.00 PKD
ROOT
HETATM    1  C   UNL     1      -7.566   7.171  70.519  1.00  0.00    -0.089 C  
HETATM    2  C   UNL     1      -6.268   7.282  71.390  1.00  0.00    -0.036 C  
HETATM    3  C   UNL     1      -7.324   7.223  68.725  1.00  0.00    -0.096 C  
HETATM    4  C   UNL     1      -8.339   5.911  71.073  1.00  0.00    -0.123 C  
HETATM    5  C   UNL     1      -7.943   7.841  65.759  1.00  0.00    -0.114 C  
HETATM    6  C   UNL     1      -6.606   8.561  68.788  1.00  0.00    -0.054 C  
HETATM    7  C   UNL     1      -7.710   9.597  68.822  1.00  0.00    -0.080 C  
HETATM    8  C   UNL     1      -9.012   8.750  64.831  1.00  0.00    -0.065 C  
HETATM    9  C   UNL     1      -9.643  11.572  63.116  1.00  0.00    -0.381 C  
HETATM   10  C   UNL     1      -9.290  10.236  65.346  1.00  0.00    -0.258 C  
HETATM   11  C   UNL     1      -8.315   9.360  67.495  1.00  0.00    -0.122 C  
HETATM   12  C   UNL     1      -9.435  10.211  66.914  1.00  0.00    -0.203 C  
HETATM   13  C   UNL     1      -9.261  11.639  67.441  1.00  0.00    -0.168 C  
HETATM   14  O   UNL     1      -9.229  11.709  68.847  1.00  0.00    -0.385 OA 
HETATM   15  C   UNL     1     -10.385  12.495  66.888  1.00  0.00    -0.242 C  
HETATM   16  C   UNL     1      -9.955  12.786  65.416  1.00  0.00    -0.215 C  
HETATM   17  C   UNL     1      -9.617   6.932  67.271  1.00  0.00    -0.173 C  
HETATM   18  H   UNL     1      -9.122  12.594  69.175  1.00  0.00     0.000 HD 
HETATM   19  C   UNL     1     -10.499  14.090  64.842  1.00  0.00    -0.453 C  
HETATM   20  C   UNL     1      -8.346   7.829  67.321  1.00  0.00    -0.118 C  
HETATM   21  C   UNL     1     -11.928  14.066  64.348  1.00  0.00    -0.454 C  
HETATM   22  O   UNL     1     -12.798  14.724  65.269  1.00  0.00    -0.228 OA 
HETATM   23  C   UNL     1     -12.476  12.694  63.930  1.00  0.00    -0.498 C  
HETATM   24  C   UNL     1     -11.758  11.365  64.394  1.00  0.00     0.002 C  
HETATM   25  H   UNL     1     -13.696  14.708  64.958  1.00  0.00     0.000 HD 
HETATM   26  C   UNL     1     -10.197  11.451  64.563  1.00  0.00    -0.352 C  
ENDROOT
BRANCH   4  27
HETATM   27  C   UNL     1      -8.767   6.051  72.561  1.00  0.00    -0.122 C  
HETATM   28  O   UNL     1     -10.560   6.577  74.037  1.00  0.00    -0.310 OA 
HETATM   29  C   UNL     1     -10.196   6.525  72.736  1.00  0.00    -0.186 C  
HETATM   30  O   UNL     1     -10.939   6.830  71.827  1.00  0.00    -0.226 OA 
ENDBRANCH   4  27
BRANCH  15  31
HETATM   31  C   UNL     1     -10.826  13.566  67.898  1.00  0.00    -0.262 C  
HETATM   32  C   UNL     1     -12.125  13.348  68.647  1.00  0.00    -0.281 C  
ENDBRANCH  15  31
TORSDOF 2
ENDMDL
MODEL       24
REMARK 921   NORMALIZED FREE ENERGY PREDICTED BY IDOCK:   -5.83 KCAL/MOL
REMARK 922        TOTAL FREE ENERGY PREDICTED BY IDOCK:   -6.70 KCAL/MOL
REMARK 923 INTER-LIGAND FREE ENERGY PREDICTED BY IDOCK:   -6.31 KCAL/MOL
REMARK 924 INTRA-LIGAND FREE ENERGY PREDICTED BY IDOCK:   -0.38 KCAL/MOL
REMARK 927      BINDING AFFINITY PREDICTED BY RF-SCORE:    0.00 PKD
ROOT
HETATM    1  C   UNL     1     -11.121  11.989  65.808  1.00  0.00    -0.371 C  
HETATM    2  C   UNL     1     -11.977  11.626  64.545  1.00  0.00    -0.091 C  
HETATM    3  C   UNL     1     -11.827  13.241  66.911  1.00  0.00    -0.446 C  
HETATM    4  C   UNL     1     -10.753  10.608  66.479  1.00  0.00    -0.218 C  
HETATM    5  C   UNL     1     -11.896  15.600  68.908  1.00  0.00    -0.368 C  
HETATM    6  C   UNL     1     -11.942  14.264  65.794  1.00  0.00    -0.399 C  
HETATM    7  C   UNL     1     -10.570  14.899  65.703  1.00  0.00    -0.358 C  
HETATM    8  C   UNL     1     -10.878  16.781  69.537  1.00  0.00    -0.225 C  
HETATM    9  C   UNL     1      -9.754  19.949  69.449  1.00  0.00    -0.099 C  
HETATM   10  C   UNL     1      -9.929  17.516  68.484  1.00  0.00    -0.344 C  
HETATM   11  C   UNL     1     -10.504  15.541  67.032  1.00  0.00    -0.304 C  
HETATM   12  C   UNL     1      -9.364  16.444  67.478  1.00  0.00    -0.214 C  
HETATM   13  C   UNL     1      -8.831  17.173  66.240  1.00  0.00    -0.231 C  
HETATM   14  O   UNL     1      -8.431  16.297  65.212  1.00  0.00     0.574 OA 
HETATM   15  C   UNL     1      -7.676  18.061  66.665  1.00  0.00    -0.268 C  
HETATM   16  C   UNL     1      -8.367  19.296  67.325  1.00  0.00    -0.309 C  
HETATM   17  C   UNL     1     -10.330  13.755  69.135  1.00  0.00     0.010 C  
HETATM   18  H   UNL     1      -8.101  16.749  64.444  1.00  0.00     0.000 HD 
HETATM   19  C   UNL     1      -7.562  20.589  67.249  1.00  0.00    -0.386 C  
HETATM   20  C   UNL     1     -11.099  14.516  68.017  1.00  0.00    -0.289 C  
HETATM   21  C   UNL     1      -6.452  20.753  68.262  1.00  0.00    -0.264 C  
HETATM   22  O   UNL     1      -5.175  20.545  67.659  1.00  0.00    -0.176 OA 
HETATM   23  C   UNL     1      -6.602  19.957  69.565  1.00  0.00    -0.372 C  
HETATM   24  C   UNL     1      -7.601  18.735  69.652  1.00  0.00     0.342 C  
HETATM   25  H   UNL     1      -4.477  20.648  68.296  1.00  0.00     0.000 HD 
HETATM   26  C   UNL     1      -8.898  18.845  68.769  1.00  0.00    -0.331 C  
ENDROOT
BRANCH   4  27
HETATM   27  C   UNL     1      -9.899   9.684  65.568  1.00  0.00    -0.352 C  
HETATM   28  O   UNL     1      -8.279   7.938  65.524  1.00  0.00    -0.125 OA 
HETATM   29  C   UNL     1      -8.963   8.774  66.338  1.00  0.00    -0.158 C  
HETATM   30  O   UNL     1      -8.828   8.782  67.544  1.00  0.00    -0.133 OA 
ENDBRANCH   4  27
BRANCH  15  31
HETATM   31  C   UNL     1      -6.598  18.143  65.573  1.00  0.00    -0.210 C  
HETATM   32  C   UNL     1      -5.200  17.669  65.915  1.00  0.00    -0.200 C  
ENDBRANCH  15  31
TORSDOF 2
ENDMDL
MODEL       25
REMARK 921   NORMALIZED FREE ENERGY PREDICTED BY IDOCK:   -5.80 KCAL/MOL
REMARK 922        TOTAL FREE ENERGY PREDICTED BY IDOCK:   -6.66 KCAL/MOL
REMARK 923 INTER-LIGAND FREE ENERGY PREDICTED BY IDOCK:   -6.32 KCAL/MOL
REMARK 924 INTRA-LIGAND FREE ENERGY PREDICTED BY IDOCK:   -0.34 KCAL/MOL
REMARK 927      BINDING AFFINITY PREDICTED BY RF-SCORE:    0.00 PKD
ROOT
HETATM    1  C   UNL     1      -9.349  14.037  67.184  1.00  0.00    -0.244 C  
HETATM    2  C   UNL     1      -8.227  15.102  67.438  1.00  0.00    -0.215 C  
HETATM    3  C   UNL     1      -9.478  12.713  68.415  1.00  0.00    -0.163 C  
HETATM    4  C   UNL     1     -10.667  14.866  66.924  1.00  0.00    -0.308 C  
HETATM    5  C   UNL     1     -10.007   9.885  69.547  1.00  0.00    -0.240 C  
HETATM    6  C   UNL     1      -8.028  12.298  68.226  1.00  0.00    -0.163 C  
HETATM    7  C   UNL     1      -8.036  11.384  67.019  1.00  0.00    -0.157 C  
HETATM    8  C   UNL     1     -10.258   8.312  69.010  1.00  0.00    -0.226 C  
HETATM    9  C   UNL     1      -8.998   5.262  68.360  1.00  0.00    -0.116 C  
HETATM   10  C   UNL     1      -9.297   7.815  67.835  1.00  0.00    -0.148 C  
HETATM   11  C   UNL     1      -8.860  10.278  67.549  1.00  0.00    -0.128 C  
HETATM   12  C   UNL     1      -9.124   8.984  66.794  1.00  0.00    -0.178 C  
HETATM   13  C   UNL     1      -7.895   8.687  65.929  1.00  0.00    -0.102 C  
HETATM   14  O   UNL     1      -7.564   9.742  65.057  1.00  0.00    -0.115 OA 
HETATM   15  C   UNL     1      -8.152   7.410  65.150  1.00  0.00    -0.129 C  
HETATM   16  C   UNL     1      -7.924   6.273  66.195  1.00  0.00    -0.112 C  
HETATM   17  C   UNL     1     -11.511  10.948  67.960  1.00  0.00    -0.356 C  
HETATM   18  H   UNL     1      -6.802   9.558  64.520  1.00  0.00     0.000 HD 
HETATM   19  C   UNL     1      -7.474   4.944  65.598  1.00  0.00    -0.078 C  
HETATM   20  C   UNL     1     -10.001  10.952  68.337  1.00  0.00    -0.188 C  
HETATM   21  C   UNL     1      -8.553   4.077  64.991  1.00  0.00    -0.115 C  
HETATM   22  O   UNL     1      -8.507   4.128  63.564  1.00  0.00    -0.092 OA 
HETATM   23  C   UNL     1      -9.976   4.296  65.521  1.00  0.00    -0.233 C  
HETATM   24  C   UNL     1     -10.347   5.615  66.309  1.00  0.00    -0.174 C  
HETATM   25  H   UNL     1      -9.185   3.583  63.183  1.00  0.00     0.000 HD 
HETATM   26  C   UNL     1      -9.195   6.246  67.173  1.00  0.00    -0.125 C  
ENDROOT
BRANCH   4  27
HETATM   27  C   UNL     1     -10.584  15.785  65.674  1.00  0.00    -0.393 C  
HETATM   28  O   UNL     1     -11.636  16.400  63.628  1.00  0.00    -0.926 OA 
HETATM   29  C   UNL     1     -11.697  15.546  64.673  1.00  0.00    -0.226 C  
HETATM   30  O   UNL     1     -12.550  14.689  64.780  1.00  0.00    -0.514 OA 
ENDBRANCH   4  27
BRANCH  15  31
HETATM   31  C   UNL     1      -7.505   7.460  63.758  1.00  0.00    -0.104 C  
HETATM   32  C   UNL     1      -8.396   7.750  62.567  1.00  0.00    -0.052 C  
ENDBRANCH  15  31
TORSDOF 2
ENDMDL
MODEL       26
REMARK 921   NORMALIZED FREE ENERGY PREDICTED BY IDOCK:   -5.77 KCAL/MOL
REMARK 922        TOTAL FREE ENERGY PREDICTED BY IDOCK:   -6.63 KCAL/MOL
REMARK 923 INTER-LIGAND FREE ENERGY PREDICTED BY IDOCK:   -6.24 KCAL/MOL
REMARK 924 INTRA-LIGAND FREE ENERGY PREDICTED BY IDOCK:   -0.39 KCAL/MOL
REMARK 927      BINDING AFFINITY PREDICTED BY RF-SCORE:    0.00 PKD
ROOT
HETATM    1  C   UNL     1      -9.983  16.537  67.325  1.00  0.00    -0.264 C  
HETATM    2  C   UNL     1     -10.478  17.490  68.467  1.00  0.00    -0.361 C  
HETATM    3  C   UNL     1     -11.090  15.167  66.901  1.00  0.00    -0.314 C  
HETATM    4  C   UNL     1      -9.573  17.486  66.132  1.00  0.00    -0.201 C  
HETATM    5  C   UNL     1     -11.940  12.338  65.988  1.00  0.00    -0.342 C  
HETATM    6  C   UNL     1     -11.105  14.643  68.328  1.00  0.00    -0.283 C  
HETATM    7  C   UNL     1      -9.855  13.796  68.447  1.00  0.00    -0.227 C  
HETATM    8  C   UNL     1     -11.269  10.821  65.712  1.00  0.00     0.285 C  
HETATM    9  C   UNL     1     -10.630   7.715  66.831  1.00  0.00    -0.359 C  
HETATM   10  C   UNL     1     -10.231  10.307  66.811  1.00  0.00    -0.286 C  
HETATM   11  C   UNL     1     -10.177  12.737  67.469  1.00  0.00    -0.216 C  
HETATM   12  C   UNL     1      -9.307  11.510  67.236  1.00  0.00    -0.170 C  
HETATM   13  C   UNL     1      -8.629  11.157  68.564  1.00  0.00    -0.157 C  
HETATM   14  O   UNL     1      -7.890  12.225  69.108  1.00  0.00    -0.333 OA 
HETATM   15  C   UNL     1      -7.739   9.948  68.342  1.00  0.00    -0.084 C  
HETATM   16  C   UNL     1      -8.731   8.743  68.313  1.00  0.00    -0.135 C  
HETATM   17  C   UNL     1     -10.208  13.603  64.844  1.00  0.00    -0.363 C  
HETATM   18  H   UNL     1      -7.469  12.006  69.932  1.00  0.00     0.000 HD 
HETATM   19  C   UNL     1      -8.128   7.414  68.755  1.00  0.00    -0.128 C  
HETATM   20  C   UNL     1     -10.817  13.462  66.269  1.00  0.00    -0.294 C  
HETATM   21  C   UNL     1      -7.304   6.673  67.727  1.00  0.00    -0.096 C  
HETATM   22  O   UNL     1      -5.909   6.794  68.007  1.00  0.00    -0.021 OA 
HETATM   23  C   UNL     1      -7.617   6.982  66.257  1.00  0.00    -0.092 C  
HETATM   24  C   UNL     1      -8.420   8.285  65.862  1.00  0.00    -0.151 C  
HETATM   25  H   UNL     1      -5.391   6.328  67.361  1.00  0.00     0.000 HD 
HETATM   26  C   UNL     1      -9.493   8.772  66.903  1.00  0.00    -0.231 C  
ENDROOT
BRANCH   4  27
HETATM   27  C   UNL     1      -8.413  18.458  66.484  1.00  0.00    -0.287 C  
HETATM   28  O   UNL     1      -7.815  20.734  66.852  1.00  0.00    -0.252 OA 
HETATM   29  C   UNL     1      -8.826  19.916  66.482  1.00  0.00    -0.365 C  
HETATM   30  O   UNL     1      -9.929  20.322  66.182  1.00  0.00    -0.429 OA 
ENDBRANCH   4  27
BRANCH  15  31
HETATM   31  C   UNL     1      -6.472  10.016  69.208  1.00  0.00    -0.049 C  
HETATM   32  C   UNL     1      -5.132  10.107  68.506  1.00  0.00    -0.035 C  
ENDBRANCH  15  31
TORSDOF 2
ENDMDL
MODEL       27
REMARK 921   NORMALIZED FREE ENERGY PREDICTED BY IDOCK:   -5.66 KCAL/MOL
REMARK 922        TOTAL FREE ENERGY PREDICTED BY IDOCK:   -6.51 KCAL/MOL
REMARK 923 INTER-LIGAND FREE ENERGY PREDICTED BY IDOCK:   -6.06 KCAL/MOL
REMARK 924 INTRA-LIGAND FREE ENERGY PREDICTED BY IDOCK:   -0.45 KCAL/MOL
REMARK 927      BINDING AFFINITY PREDICTED BY RF-SCORE:    0.00 PKD
ROOT
HETATM    1  C   UNL     1      -9.521   4.421  73.227  1.00  0.00    -0.135 C  
HETATM    2  C   UNL     1     -10.172   2.996  73.282  1.00  0.00    -0.215 C  
HETATM    3  C   UNL     1     -10.669   5.812  73.053  1.00  0.00    -0.290 C  
HETATM    4  C   UNL     1      -8.543   4.486  74.465  1.00  0.00    -0.102 C  
HETATM    5  C   UNL     1     -11.711   8.583  72.161  1.00  0.00    -0.448 C  
HETATM    6  C   UNL     1     -11.277   5.243  71.782  1.00  0.00     0.000 C  
HETATM    7  C   UNL     1     -10.344   5.678  70.672  1.00  0.00    -0.320 C  
HETATM    8  C   UNL     1     -11.308   9.828  71.105  1.00  0.00    -0.459 C  
HETATM    9  C   UNL     1     -11.735  11.311  68.117  1.00  0.00    -0.323 C  
HETATM   10  C   UNL     1     -10.836   9.379  69.647  1.00  0.00    -0.245 C  
HETATM   11  C   UNL     1     -10.519   7.143  70.758  1.00  0.00    -0.227 C  
HETATM   12  C   UNL     1      -9.890   8.127  69.783  1.00  0.00    -0.187 C  
HETATM   13  C   UNL     1      -9.794   7.439  68.418  1.00  0.00    -0.158 C  
HETATM   14  O   UNL     1      -9.085   6.222  68.461  1.00  0.00    -0.126 OA 
HETATM   15  C   UNL     1      -9.147   8.401  67.439  1.00  0.00    -0.152 C  
HETATM   16  C   UNL     1     -10.292   9.395  67.067  1.00  0.00    -0.322 C  
HETATM   17  C   UNL     1      -9.473   8.266  73.057  1.00  0.00    -0.298 C  
HETATM   18  H   UNL     1      -9.026   5.795  67.614  1.00  0.00     0.000 HD 
HETATM   19  C   UNL     1     -10.159  10.026  65.685  1.00  0.00    -0.321 C  
HETATM   20  C   UNL     1     -10.548   7.469  72.265  1.00  0.00    -0.280 C  
HETATM   21  C   UNL     1      -9.202  11.189  65.564  1.00  0.00    -0.216 C  
HETATM   22  O   UNL     1      -7.993  10.791  64.916  1.00  0.00    -0.341 OA 
HETATM   23  C   UNL     1      -8.923  11.974  66.853  1.00  0.00    -0.199 C  
HETATM   24  C   UNL     1      -9.260  11.348  68.265  1.00  0.00    -0.183 C  
HETATM   25  H   UNL     1      -7.391  11.523  64.840  1.00  0.00     0.000 HD 
HETATM   26  C   UNL     1     -10.502  10.385  68.310  1.00  0.00    -0.221 C  
ENDROOT
BRANCH   4  27
HETATM   27  C   UNL     1      -7.402   3.432  74.410  1.00  0.00    -0.053 C  
HETATM   28  O   UNL     1      -5.220   2.957  73.584  1.00  0.00     0.000 OA 
HETATM   29  C   UNL     1      -6.223   3.863  73.563  1.00  0.00    -0.027 C  
HETATM   30  O   UNL     1      -6.167   4.897  72.929  1.00  0.00    -0.034 OA 
ENDBRANCH   4  27
BRANCH  15  31
HETATM   31  C   UNL     1      -8.267   7.660  66.421  1.00  0.00    -0.124 C  
HETATM   32  C   UNL     1      -6.778   7.942  66.426  1.00  0.00    -0.054 C  
ENDBRANCH  15  31
TORSDOF 2
ENDMDL
MODEL       28
REMARK 921   NORMALIZED FREE ENERGY PREDICTED BY IDOCK:   -5.64 KCAL/MOL
REMARK 922        TOTAL FREE ENERGY PREDICTED BY IDOCK:   -6.49 KCAL/MOL
REMARK 923 INTER-LIGAND FREE ENERGY PREDICTED BY IDOCK:   -6.04 KCAL/MOL
REMARK 924 INTRA-LIGAND FREE ENERGY PREDICTED BY IDOCK:   -0.45 KCAL/MOL
REMARK 927      BINDING AFFINITY PREDICTED BY RF-SCORE:    0.00 PKD
ROOT
HETATM    1  C   UNL     1      -9.929  13.083  66.969  1.00  0.00    -0.242 C  
HETATM    2  C   UNL     1      -8.970  14.311  66.797  1.00  0.00    -0.249 C  
HETATM    3  C   UNL     1      -9.774  12.168  68.526  1.00  0.00    -0.153 C  
HETATM    4  C   UNL     1     -11.372  13.623  66.628  1.00  0.00    -0.343 C  
HETATM    5  C   UNL     1      -9.788   9.748  70.450  1.00  0.00    -0.269 C  
HETATM    6  C   UNL     1      -8.292  11.908  68.309  1.00  0.00    -0.159 C  
HETATM    7  C   UNL     1      -8.236  10.689  67.412  1.00  0.00    -0.115 C  
HETATM    8  C   UNL     1      -9.827   8.067  70.401  1.00  0.00    -0.183 C  
HETATM    9  C   UNL     1      -8.157   5.151  70.496  1.00  0.00    -0.095 C  
HETATM   10  C   UNL     1      -8.878   7.380  69.316  1.00  0.00    -0.136 C  
HETATM   11  C   UNL     1      -8.845   9.688  68.312  1.00  0.00    -0.120 C  
HETATM   12  C   UNL     1      -8.954   8.208  67.979  1.00  0.00    -0.134 C  
HETATM   13  C   UNL     1      -7.751   7.834  67.107  1.00  0.00    -0.105 C  
HETATM   14  O   UNL     1      -7.643   8.624  65.945  1.00  0.00    -0.086 OA 
HETATM   15  C   UNL     1      -7.857   6.364  66.745  1.00  0.00    -0.104 C  
HETATM   16  C   UNL     1      -7.391   5.619  68.036  1.00  0.00    -0.073 C  
HETATM   17  C   UNL     1     -11.535  10.100  68.796  1.00  0.00    -0.110 C  
HETATM   18  H   UNL     1      -6.897   8.392  65.404  1.00  0.00     0.000 HD 
HETATM   19  C   UNL     1      -6.780   4.244  67.788  1.00  0.00    -0.051 C  
HETATM   20  C   UNL     1     -10.023  10.408  68.997  1.00  0.00    -0.224 C  
HETATM   21  C   UNL     1      -7.749   3.106  67.563  1.00  0.00    -0.076 C  
HETATM   22  O   UNL     1      -7.803   2.746  66.182  1.00  0.00    -0.079 OA 
HETATM   23  C   UNL     1      -9.153   3.283  68.158  1.00  0.00    -0.214 C  
HETATM   24  C   UNL     1      -9.671   4.715  68.582  1.00  0.00    -0.217 C  
HETATM   25  H   UNL     1      -8.412   2.030  66.040  1.00  0.00     0.000 HD 
HETATM   26  C   UNL     1      -8.577   5.713  69.110  1.00  0.00    -0.105 C  
ENDROOT
BRANCH   4  27
HETATM   27  C   UNL     1     -11.512  14.142  65.170  1.00  0.00    -0.336 C  
HETATM   28  O   UNL     1     -12.638  13.851  63.092  1.00  0.00    -0.775 OA 
HETATM   29  C   UNL     1     -12.489  13.340  64.335  1.00  0.00    -0.290 C  
HETATM   30  O   UNL     1     -13.077  12.350  64.718  1.00  0.00    -0.806 OA 
ENDBRANCH   4  27
BRANCH  15  31
HETATM   31  C   UNL     1      -7.316   6.090  65.334  1.00  0.00    -0.076 C  
HETATM   32  C   UNL     1      -8.285   5.593  64.282  1.00  0.00    -0.117 C  
ENDBRANCH  15  31
TORSDOF 2
ENDMDL
MODEL       29
REMARK 921   NORMALIZED FREE ENERGY PREDICTED BY IDOCK:   -5.62 KCAL/MOL
REMARK 922        TOTAL FREE ENERGY PREDICTED BY IDOCK:   -6.47 KCAL/MOL
REMARK 923 INTER-LIGAND FREE ENERGY PREDICTED BY IDOCK:   -6.09 KCAL/MOL
REMARK 924 INTRA-LIGAND FREE ENERGY PREDICTED BY IDOCK:   -0.38 KCAL/MOL
REMARK 927      BINDING AFFINITY PREDICTED BY RF-SCORE:    0.00 PKD
ROOT
HETATM    1  C   UNL     1     -10.546  10.823  68.986  1.00  0.00    -0.250 C  
HETATM    2  C   UNL     1     -10.813   9.635  68.000  1.00  0.00    -0.250 C  
HETATM    3  C   UNL     1     -11.644  12.254  68.819  1.00  0.00    -0.380 C  
HETATM    4  C   UNL     1     -10.477  10.172  70.423  1.00  0.00    -0.237 C  
HETATM    5  C   UNL     1     -12.528  15.217  68.852  1.00  0.00     0.146 C  
HETATM    6  C   UNL     1     -11.298  12.439  67.351  1.00  0.00    -0.381 C  
HETATM    7  C   UNL     1     -10.011  13.236  67.349  1.00  0.00    -0.233 C  
HETATM    8  C   UNL     1     -11.859  16.757  68.938  1.00  0.00     0.642 C  
HETATM    9  C   UNL     1     -10.808  19.526  67.345  1.00  0.00    -0.536 C  
HETATM   10  C   UNL     1     -10.566  17.006  68.034  1.00  0.00    -0.373 C  
HETATM   11  C   UNL     1     -10.493  14.491  67.963  1.00  0.00    -0.236 C  
HETATM   12  C   UNL     1      -9.636  15.738  68.119  1.00  0.00    -0.199 C  
HETATM   13  C   UNL     1      -8.650  15.779  66.948  1.00  0.00    -0.247 C  
HETATM   14  O   UNL     1      -7.863  14.615  66.847  1.00  0.00    -0.342 OA 
HETATM   15  C   UNL     1      -7.771  17.007  67.103  1.00  0.00    -0.205 C  
HETATM   16  C   UNL     1      -8.675  18.186  66.626  1.00  0.00    -0.279 C  
HETATM   17  C   UNL     1     -11.182  14.246  70.628  1.00  0.00     0.108 C  
HETATM   18  H   UNL     1      -7.250  14.640  66.120  1.00  0.00     0.000 HD 
HETATM   19  C   UNL     1      -7.914  19.380  66.059  1.00  0.00    -0.280 C  
HETATM   20  C   UNL     1     -11.434  14.059  69.105  1.00  0.00    -0.340 C  
HETATM   21  C   UNL     1      -7.313  20.336  67.063  1.00  0.00    -0.284 C  
HETATM   22  O   UNL     1      -5.899  20.154  67.159  1.00  0.00    -0.167 OA 
HETATM   23  C   UNL     1      -7.976  20.370  68.447  1.00  0.00     0.123 C  
HETATM   24  C   UNL     1      -8.919  19.192  68.916  1.00  0.00    -0.327 C  
HETATM   25  H   UNL     1      -5.521  20.755  67.791  1.00  0.00     0.000 HD 
HETATM   26  C   UNL     1      -9.745  18.481  67.783  1.00  0.00    -0.327 C  
ENDROOT
BRANCH   4  27
HETATM   27  C   UNL     1      -9.322   9.145  70.583  1.00  0.00    -0.312 C  
HETATM   28  O   UNL     1      -8.477   7.344  71.891  1.00  0.00    -0.106 OA 
HETATM   29  C   UNL     1      -9.460   8.268  71.811  1.00  0.00    -0.209 C  
HETATM   30  O   UNL     1     -10.340   8.372  72.639  1.00  0.00    -0.310 OA 
ENDBRANCH   4  27
BRANCH  15  31
HETATM   31  C   UNL     1      -6.342  16.743  66.603  1.00  0.00    -0.153 C  
HETATM   32  C   UNL     1      -5.206  16.857  67.598  1.00  0.00    -0.143 C  
ENDBRANCH  15  31
TORSDOF 2
ENDMDL
MODEL       30
REMARK 921   NORMALIZED FREE ENERGY PREDICTED BY IDOCK:   -5.62 KCAL/MOL
REMARK 922        TOTAL FREE ENERGY PREDICTED BY IDOCK:   -6.46 KCAL/MOL
REMARK 923 INTER-LIGAND FREE ENERGY PREDICTED BY IDOCK:   -6.43 KCAL/MOL
REMARK 924 INTRA-LIGAND FREE ENERGY PREDICTED BY IDOCK:   -0.04 KCAL/MOL
REMARK 927      BINDING AFFINITY PREDICTED BY RF-SCORE:    0.00 PKD
ROOT
HETATM    1  C   UNL     1      -7.529   6.073  66.314  1.00  0.00    -0.086 C  
HETATM    2  C   UNL     1      -8.323   4.722  66.279  1.00  0.00    -0.111 C  
HETATM    3  C   UNL     1      -7.880   7.163  67.718  1.00  0.00    -0.114 C  
HETATM    4  C   UNL     1      -6.014   5.678  66.109  1.00  0.00    -0.022 C  
HETATM    5  C   UNL     1      -8.262   9.804  69.280  1.00  0.00    -0.132 C  
HETATM    6  C   UNL     1      -9.367   7.203  67.409  1.00  0.00    -0.144 C  
HETATM    7  C   UNL     1      -9.517   8.273  66.347  1.00  0.00    -0.287 C  
HETATM    8  C   UNL     1      -8.420  11.453  68.996  1.00  0.00     0.051 C  
HETATM    9  C   UNL     1     -10.429  14.123  68.614  1.00  0.00    -0.250 C  
HETATM   10  C   UNL     1      -9.382  11.864  67.789  1.00  0.00    -0.184 C  
HETATM   11  C   UNL     1      -9.083   9.455  67.120  1.00  0.00    -0.148 C  
HETATM   12  C   UNL     1      -9.133  10.878  66.586  1.00  0.00    -0.175 C  
HETATM   13  C   UNL     1     -10.321  10.977  65.623  1.00  0.00    -0.251 C  
HETATM   14  O   UNL     1     -10.268  10.030  64.582  1.00  0.00    -0.335 OA 
HETATM   15  C   UNL     1     -10.370  12.386  65.062  1.00  0.00    -0.319 C  
HETATM   16  C   UNL     1     -10.993  13.234  66.215  1.00  0.00    -0.296 C  
HETATM   17  C   UNL     1      -6.395   9.454  67.763  1.00  0.00    -0.058 C  
HETATM   18  H   UNL     1     -11.005  10.091  63.984  1.00  0.00     0.000 HD 
HETATM   19  C   UNL     1     -11.749  14.475  65.752  1.00  0.00    -0.344 C  
HETATM   20  C   UNL     1      -7.868   8.988  67.945  1.00  0.00    -0.101 C  
HETATM   21  C   UNL     1     -10.911  15.685  65.407  1.00  0.00    -0.381 C  
HETATM   22  O   UNL     1     -10.823  15.859  63.992  1.00  0.00    -0.653 OA 
HETATM   23  C   UNL     1      -9.532  15.767  66.076  1.00  0.00    -0.392 C  
HETATM   24  C   UNL     1      -8.871  14.483  66.718  1.00  0.00    -0.248 C  
HETATM   25  H   UNL     1     -10.296  16.620  63.775  1.00  0.00     0.000 HD 
HETATM   26  C   UNL     1      -9.867  13.436  67.338  1.00  0.00    -0.227 C  
ENDROOT
BRANCH   4  27
HETATM   27  C   UNL     1      -5.732   4.989  64.746  1.00  0.00    -0.017 C  
HETATM   28  O   UNL     1      -5.381   5.336  62.416  1.00  0.00    -0.012 OA 
HETATM   29  C   UNL     1      -5.690   5.954  63.578  1.00  0.00    -0.021 C  
HETATM   30  O   UNL     1      -5.909   7.145  63.658  1.00  0.00    -0.036 OA 
ENDBRANCH   4  27
BRANCH  15  31
HETATM   31  C   UNL     1     -10.860  12.396  63.606  1.00  0.00    -0.509 C  
HETATM   32  C   UNL     1     -12.351  12.309  63.355  1.00  0.00    -0.624 C  
ENDBRANCH  15  31
TORSDOF 2
ENDMDL
MODEL       31
REMARK 921   NORMALIZED FREE ENERGY PREDICTED BY IDOCK:   -5.49 KCAL/MOL
REMARK 922        TOTAL FREE ENERGY PREDICTED BY IDOCK:   -6.31 KCAL/MOL
REMARK 923 INTER-LIGAND FREE ENERGY PREDICTED BY IDOCK:   -5.90 KCAL/MOL
REMARK 924 INTRA-LIGAND FREE ENERGY PREDICTED BY IDOCK:   -0.41 KCAL/MOL
REMARK 927      BINDING AFFINITY PREDICTED BY RF-SCORE:    0.00 PKD
ROOT
HETATM    1  C   UNL     1      -8.661   7.795  68.454  1.00  0.00    -0.128 C  
HETATM    2  C   UNL     1      -9.488   6.847  69.389  1.00  0.00    -0.148 C  
HETATM    3  C   UNL     1      -7.756   9.130  69.279  1.00  0.00    -0.080 C  
HETATM    4  C   UNL     1      -7.797   6.838  67.542  1.00  0.00    -0.111 C  
HETATM    5  C   UNL     1      -6.489  11.922  69.680  1.00  0.00    -0.101 C  
HETATM    6  C   UNL     1      -9.014   9.675  69.934  1.00  0.00    -0.243 C  
HETATM    7  C   UNL     1      -9.654  10.555  68.881  1.00  0.00    -0.199 C  
HETATM    8  C   UNL     1      -6.501  13.451  68.980  1.00  0.00    -0.105 C  
HETATM    9  C   UNL     1      -7.709  16.589  68.954  1.00  0.00    -0.236 C  
HETATM   10  C   UNL     1      -7.933  14.007  68.546  1.00  0.00    -0.141 C  
HETATM   11  C   UNL     1      -8.608  11.590  68.751  1.00  0.00    -0.055 C  
HETATM   12  C   UNL     1      -8.754  12.835  67.888  1.00  0.00    -0.185 C  
HETATM   13  C   UNL     1     -10.235  13.226  67.876  1.00  0.00    -0.233 C  
HETATM   14  O   UNL     1     -11.078  12.185  67.438  1.00  0.00    -0.246 OA 
HETATM   15  C   UNL     1     -10.401  14.453  66.999  1.00  0.00    -0.263 C  
HETATM   16  C   UNL     1      -9.905  15.632  67.894  1.00  0.00    -0.217 C  
HETATM   17  C   UNL     1      -6.264  10.683  67.600  1.00  0.00    -0.055 C  
HETATM   18  H   UNL     1     -11.997  12.428  67.430  1.00  0.00     0.000 HD 
HETATM   19  C   UNL     1     -10.535  16.983  67.571  1.00  0.00    -0.334 C  
HETATM   20  C   UNL     1      -7.267  10.831  68.781  1.00  0.00    -0.091 C  
HETATM   21  C   UNL     1      -9.961  17.728  66.388  1.00  0.00    -0.344 C  
HETATM   22  O   UNL     1     -10.834  17.647  65.260  1.00  0.00    -0.600 OA 
HETATM   23  C   UNL     1      -8.513  17.389  66.010  1.00  0.00    -0.127 C  
HETATM   24  C   UNL     1      -7.836  16.060  66.534  1.00  0.00    -0.226 C  
HETATM   25  H   UNL     1     -10.473  18.116  64.516  1.00  0.00     0.000 HD 
HETATM   26  C   UNL     1      -8.304  15.562  67.950  1.00  0.00    -0.148 C  
ENDROOT
BRANCH   4  27
HETATM   27  C   UNL     1      -8.652   5.901  66.643  1.00  0.00    -0.119 C  
HETATM   28  O   UNL     1      -8.893   4.968  64.466  1.00  0.00    -0.151 OA 
HETATM   29  C   UNL     1      -8.172   5.838  65.208  1.00  0.00    -0.139 C  
HETATM   30  O   UNL     1      -7.251   6.488  64.757  1.00  0.00    -0.061 OA 
ENDBRANCH   4  27
BRANCH  15  31
HETATM   31  C   UNL     1     -11.741  14.431  66.247  1.00  0.00    -0.394 C  
HETATM   32  C   UNL     1     -11.710  14.296  64.738  1.00  0.00    -0.420 C  
ENDBRANCH  15  31
TORSDOF 2
ENDMDL
MODEL       32
REMARK 921   NORMALIZED FREE ENERGY PREDICTED BY IDOCK:   -5.45 KCAL/MOL
REMARK 922        TOTAL FREE ENERGY PREDICTED BY IDOCK:   -6.28 KCAL/MOL
REMARK 923 INTER-LIGAND FREE ENERGY PREDICTED BY IDOCK:   -5.85 KCAL/MOL
REMARK 924 INTRA-LIGAND FREE ENERGY PREDICTED BY IDOCK:   -0.43 KCAL/MOL
REMARK 927      BINDING AFFINITY PREDICTED BY RF-SCORE:    0.00 PKD
ROOT
HETATM    1  C   UNL     1      -9.582   5.452  70.701  1.00  0.00    -0.228 C  
HETATM    2  C   UNL     1      -9.858   4.095  69.967  1.00  0.00    -0.245 C  
HETATM    3  C   UNL     1     -10.962   6.625  70.745  1.00  0.00    -0.318 C  
HETATM    4  C   UNL     1      -8.969   5.057  72.102  1.00  0.00    -0.144 C  
HETATM    5  C   UNL     1     -12.413   9.355  70.763  1.00  0.00    -0.144 C  
HETATM    6  C   UNL     1     -11.097   6.634  69.232  1.00  0.00    -0.345 C  
HETATM    7  C   UNL     1     -10.065   7.633  68.753  1.00  0.00    -0.202 C  
HETATM    8  C   UNL     1     -12.092  10.983  70.487  1.00  0.00    -0.470 C  
HETATM    9  C   UNL     1     -12.157  13.607  68.385  1.00  0.00    -0.312 C  
HETATM   10  C   UNL     1     -11.195  11.308  69.206  1.00  0.00    -0.336 C  
HETATM   11  C   UNL     1     -10.609   8.865  69.361  1.00  0.00    -0.226 C  
HETATM   12  C   UNL     1     -10.031  10.251  69.121  1.00  0.00    -0.235 C  
HETATM   13  C   UNL     1      -9.452  10.280  67.703  1.00  0.00    -0.151 C  
HETATM   14  O   UNL     1      -8.496   9.270  67.476  1.00  0.00    -0.115 OA 
HETATM   15  C   UNL     1      -8.849  11.651  67.458  1.00  0.00    -0.158 C  
HETATM   16  C   UNL     1     -10.082  12.564  67.173  1.00  0.00    -0.219 C  
HETATM   17  C   UNL     1     -10.441   8.926  72.119  1.00  0.00    -0.320 C  
HETATM   18  H   UNL     1      -8.136   9.287  66.597  1.00  0.00     0.000 HD 
HETATM   19  C   UNL     1      -9.788  13.768  66.284  1.00  0.00    -0.314 C  
HETATM   20  C   UNL     1     -11.070   8.460  70.775  1.00  0.00    -0.286 C  
HETATM   21  C   UNL     1      -9.145  14.960  66.954  1.00  0.00    -0.250 C  
HETATM   22  O   UNL     1      -7.758  15.045  66.624  1.00  0.00    -0.262 OA 
HETATM   23  C   UNL     1      -9.378  15.095  68.465  1.00  0.00    -0.192 C  
HETATM   24  C   UNL     1      -9.873  13.859  69.316  1.00  0.00     0.291 C  
HETATM   25  H   UNL     1      -7.354  15.795  67.045  1.00  0.00     0.000 HD 
HETATM   26  C   UNL     1     -10.815  12.845  68.571  1.00  0.00    -0.283 C  
ENDROOT
BRANCH   4  27
HETATM   27  C   UNL     1      -7.624   4.285  71.994  1.00  0.00    -0.075 C  
HETATM   28  O   UNL     1      -5.340   4.237  72.665  1.00  0.00    -0.003 OA 
HETATM   29  C   UNL     1      -6.480   4.961  72.722  1.00  0.00    -0.043 C  
HETATM   30  O   UNL     1      -6.559   6.030  73.293  1.00  0.00    -0.071 OA 
ENDBRANCH   4  27
BRANCH  15  31
HETATM   31  C   UNL     1      -7.600  11.565  66.567  1.00  0.00    -0.036 C  
HETATM   32  C   UNL     1      -6.257  11.890  67.188  1.00  0.00    -0.154 C  
ENDBRANCH  15  31
TORSDOF 2
ENDMDL
MODEL       33
REMARK 921   NORMALIZED FREE ENERGY PREDICTED BY IDOCK:   -5.38 KCAL/MOL
REMARK 922        TOTAL FREE ENERGY PREDICTED BY IDOCK:   -6.19 KCAL/MOL
REMARK 923 INTER-LIGAND FREE ENERGY PREDICTED BY IDOCK:   -5.78 KCAL/MOL
REMARK 924 INTRA-LIGAND FREE ENERGY PREDICTED BY IDOCK:   -0.41 KCAL/MOL
REMARK 927      BINDING AFFINITY PREDICTED BY RF-SCORE:    0.00 PKD
ROOT
HETATM    1  C   UNL     1     -10.061  11.745  67.049  1.00  0.00    -0.232 C  
HETATM    2  C   UNL     1      -9.131  12.927  66.609  1.00  0.00    -0.181 C  
HETATM    3  C   UNL     1      -9.913  11.220  68.777  1.00  0.00    -0.203 C  
HETATM    4  C   UNL     1     -11.512  12.150  66.575  1.00  0.00    -0.430 C  
HETATM    5  C   UNL     1      -9.902   9.310  71.209  1.00  0.00    -0.318 C  
HETATM    6  C   UNL     1      -8.421  10.959  68.644  1.00  0.00    -0.152 C  
HETATM    7  C   UNL     1      -8.319   9.568  68.055  1.00  0.00    -0.118 C  
HETATM    8  C   UNL     1      -9.899   7.664  71.550  1.00  0.00    -0.192 C  
HETATM    9  C   UNL     1      -8.158   4.897  72.339  1.00  0.00    -0.111 C  
HETATM   10  C   UNL     1      -8.913   6.771  70.666  1.00  0.00    -0.151 C  
HETATM   11  C   UNL     1      -8.919   8.785  69.155  1.00  0.00    -0.137 C  
HETATM   12  C   UNL     1      -8.984   7.265  69.172  1.00  0.00    -0.135 C  
HETATM   13  C   UNL     1      -7.756   6.734  68.425  1.00  0.00    -0.106 C  
HETATM   14  O   UNL     1      -7.647   7.237  67.114  1.00  0.00    -0.099 OA 
HETATM   15  C   UNL     1      -7.820   5.218  68.413  1.00  0.00    -0.087 C  
HETATM   16  C   UNL     1      -7.359   4.805  69.846  1.00  0.00    -0.055 C  
HETATM   17  C   UNL     1     -11.627   9.221  69.498  1.00  0.00     0.308 C  
HETATM   18  H   UNL     1      -6.886   6.908  66.650  1.00  0.00     0.000 HD 
HETATM   19  C   UNL     1      -6.710   3.428  69.931  1.00  0.00    -0.034 C  
HETATM   20  C   UNL     1     -10.127   9.610  69.640  1.00  0.00    -0.242 C  
HETATM   21  C   UNL     1      -7.646   2.241  69.964  1.00  0.00    -0.043 C  
HETATM   22  O   UNL     1      -7.665   1.571  68.703  1.00  0.00    -0.046 OA 
HETATM   23  C   UNL     1      -9.064   2.512  70.484  1.00  0.00    -0.181 C  
HETATM   24  C   UNL     1      -9.626   3.987  70.559  1.00  0.00    -0.261 C  
HETATM   25  H   UNL     1      -8.253   0.825  68.724  1.00  0.00     0.000 HD 
HETATM   26  C   UNL     1      -8.567   5.111  70.855  1.00  0.00    -0.129 C  
ENDROOT
BRANCH   4  27
HETATM   27  C   UNL     1     -11.637  12.313  65.035  1.00  0.00    -0.394 C  
HETATM   28  O   UNL     1     -12.548  13.638  63.278  1.00  0.00    -0.816 OA 
HETATM   29  C   UNL     1     -12.508  13.482  64.620  1.00  0.00    -0.323 C  
HETATM   30  O   UNL     1     -13.110  14.203  65.389  1.00  0.00    -0.743 OA 
ENDBRANCH   4  27
BRANCH  15  31
HETATM   31  C   UNL     1      -7.246   4.641  67.110  1.00  0.00    -0.073 C  
HETATM   32  C   UNL     1      -8.188   3.903  66.181  1.00  0.00    -0.101 C  
ENDBRANCH  15  31
TORSDOF 2
ENDMDL
MODEL       34
REMARK 921   NORMALIZED FREE ENERGY PREDICTED BY IDOCK:   -5.25 KCAL/MOL
REMARK 922        TOTAL FREE ENERGY PREDICTED BY IDOCK:   -6.05 KCAL/MOL
REMARK 923 INTER-LIGAND FREE ENERGY PREDICTED BY IDOCK:   -5.63 KCAL/MOL
REMARK 924 INTRA-LIGAND FREE ENERGY PREDICTED BY IDOCK:   -0.42 KCAL/MOL
REMARK 927      BINDING AFFINITY PREDICTED BY RF-SCORE:    0.00 PKD
ROOT
HETATM    1  C   UNL     1      -7.921   7.550  67.171  1.00  0.00    -0.117 C  
HETATM    2  C   UNL     1      -6.830   6.699  66.435  1.00  0.00    -0.061 C  
HETATM    3  C   UNL     1      -9.033   8.506  66.107  1.00  0.00    -0.220 C  
HETATM    4  C   UNL     1      -8.619   6.559  68.183  1.00  0.00    -0.118 C  
HETATM    5  C   UNL     1     -10.857  10.838  65.215  1.00  0.00    -0.064 C  
HETATM    6  C   UNL     1      -7.881   9.231  65.432  1.00  0.00    -0.100 C  
HETATM    7  C   UNL     1      -7.541  10.376  66.361  1.00  0.00    -0.123 C  
HETATM    8  C   UNL     1     -11.244  12.411  65.666  1.00  0.00    -0.360 C  
HETATM    9  C   UNL     1     -10.776  15.715  65.254  1.00  0.00    -0.444 C  
HETATM   10  C   UNL     1     -10.012  13.343  66.072  1.00  0.00    -0.300 C  
HETATM   11  C   UNL     1      -8.799  11.147  66.279  1.00  0.00    -0.190 C  
HETATM   12  C   UNL     1      -9.006  12.501  66.942  1.00  0.00    -0.212 C  
HETATM   13  C   UNL     1      -7.655  13.225  66.960  1.00  0.00     0.177 C  
HETATM   14  O   UNL     1      -6.639  12.483  67.593  1.00  0.00    -0.104 OA 
HETATM   15  C   UNL     1      -7.840  14.569  67.640  1.00  0.00    -0.194 C  
HETATM   16  C   UNL     1      -8.514  15.459  66.549  1.00  0.00    -0.248 C  
HETATM   17  C   UNL     1     -10.965   9.890  67.451  1.00  0.00    -0.214 C  
HETATM   18  H   UNL     1      -5.801  12.932  67.605  1.00  0.00     0.000 HD 
HETATM   19  C   UNL     1      -8.231  16.951  66.685  1.00  0.00    -0.292 C  
HETATM   20  C   UNL     1      -9.929  10.099  66.309  1.00  0.00    -0.304 C  
HETATM   21  C   UNL     1      -9.050  17.703  67.708  1.00  0.00    -0.247 C  
HETATM   22  O   UNL     1      -8.275  17.989  68.873  1.00  0.00    -0.251 OA 
HETATM   23  C   UNL     1     -10.411  17.091  68.068  1.00  0.00    -0.353 C  
HETATM   24  C   UNL     1     -10.729  15.581  67.729  1.00  0.00    -0.297 C  
HETATM   25  H   UNL     1      -8.791  18.462  69.517  1.00  0.00     0.000 HD 
HETATM   26  C   UNL     1     -10.049  15.010  66.432  1.00  0.00    -0.289 C  
ENDROOT
BRANCH   4  27
HETATM   27  C   UNL     1      -7.651   5.985  69.255  1.00  0.00    -0.094 C  
HETATM   28  O   UNL     1      -7.260   5.711  71.588  1.00  0.00    -0.077 OA 
HETATM   29  C   UNL     1      -8.085   6.276  70.677  1.00  0.00    -0.113 C  
HETATM   30  O   UNL     1      -9.054   6.939  70.983  1.00  0.00    -0.154 OA 
ENDBRANCH   4  27
BRANCH  15  31
HETATM   31  C   UNL     1      -6.594  14.967  68.446  1.00  0.00    -0.102 C  
HETATM   32  C   UNL     1      -6.747  15.174  69.939  1.00  0.00    -0.165 C  
ENDBRANCH  15  31
TORSDOF 2
ENDMDL
MODEL       35
REMARK 921   NORMALIZED FREE ENERGY PREDICTED BY IDOCK:   -5.14 KCAL/MOL
REMARK 922        TOTAL FREE ENERGY PREDICTED BY IDOCK:   -5.93 KCAL/MOL
REMARK 923 INTER-LIGAND FREE ENERGY PREDICTED BY IDOCK:   -5.67 KCAL/MOL
REMARK 924 INTRA-LIGAND FREE ENERGY PREDICTED BY IDOCK:   -0.25 KCAL/MOL
REMARK 927      BINDING AFFINITY PREDICTED BY RF-SCORE:    0.00 PKD
ROOT
HETATM    1  C   UNL     1      -8.049  17.605  67.935  1.00  0.00    -0.233 C  
HETATM    2  C   UNL     1      -7.105  18.469  68.840  1.00  0.00    -0.302 C  
HETATM    3  C   UNL     1      -9.317  16.644  68.802  1.00  0.00    -0.256 C  
HETATM    4  C   UNL     1      -8.573  18.587  66.815  1.00  0.00    -0.290 C  
HETATM    5  C   UNL     1     -11.246  14.300  69.385  1.00  0.00    -0.313 C  
HETATM    6  C   UNL     1      -8.290  15.932  69.665  1.00  0.00     0.064 C  
HETATM    7  C   UNL     1      -7.789  14.786  68.813  1.00  0.00    -0.146 C  
HETATM    8  C   UNL     1     -11.540  12.722  68.884  1.00  0.00    -0.362 C  
HETATM    9  C   UNL     1     -11.122   9.423  69.387  1.00  0.00    -0.098 C  
HETATM   10  C   UNL     1     -10.250  11.799  68.697  1.00  0.00    -0.211 C  
HETATM   11  C   UNL     1      -9.036  14.005  68.685  1.00  0.00    -0.107 C  
HETATM   12  C   UNL     1      -9.117  12.647  68.005  1.00  0.00    -0.207 C  
HETATM   13  C   UNL     1      -7.778  11.934  68.219  1.00  0.00    -0.127 C  
HETATM   14  O   UNL     1      -6.675  12.682  67.762  1.00  0.00    -0.096 OA 
HETATM   15  C   UNL     1      -7.834  10.586  67.525  1.00  0.00    -0.106 C  
HETATM   16  C   UNL     1      -8.676   9.694  68.491  1.00  0.00    -0.120 C  
HETATM   17  C   UNL     1     -10.983  15.238  67.158  1.00  0.00    -0.331 C  
HETATM   18  H   UNL     1      -5.844  12.240  67.894  1.00  0.00     0.000 HD 
HETATM   19  C   UNL     1      -8.362   8.204  68.413  1.00  0.00    -0.126 C  
HETATM   20  C   UNL     1     -10.154  15.043  68.460  1.00  0.00    -0.225 C  
HETATM   21  C   UNL     1      -8.991   7.441  67.269  1.00  0.00    -0.124 C  
HETATM   22  O   UNL     1      -8.028   7.157  66.254  1.00  0.00    -0.103 OA 
HETATM   23  C   UNL     1     -10.277   8.039  66.682  1.00  0.00    -0.315 C  
HETATM   24  C   UNL     1     -10.659   9.548  66.954  1.00  0.00    -0.241 C  
HETATM   25  H   UNL     1      -8.424   6.677  65.535  1.00  0.00     0.000 HD 
HETATM   26  C   UNL     1     -10.212  10.130  68.345  1.00  0.00    -0.192 C  
ENDROOT
BRANCH   4  27
HETATM   27  C   UNL     1      -7.443  19.165  65.919  1.00  0.00    -0.263 C  
HETATM   28  O   UNL     1      -6.081  21.067  65.476  1.00  0.00    -0.247 OA 
HETATM   29  C   UNL     1      -7.109  20.610  66.226  1.00  0.00    -0.154 C  
HETATM   30  O   UNL     1      -7.687  21.295  67.044  1.00  0.00    -0.259 OA 
ENDBRANCH   4  27
BRANCH  15  31
HETATM   31  C   UNL     1      -6.467  10.195  66.942  1.00  0.00    -0.070 C  
HETATM   32  C   UNL     1      -6.320  10.152  65.435  1.00  0.00    -0.116 C  
ENDBRANCH  15  31
TORSDOF 2
ENDMDL
MODEL       36
REMARK 921   NORMALIZED FREE ENERGY PREDICTED BY IDOCK:   -5.13 KCAL/MOL
REMARK 922        TOTAL FREE ENERGY PREDICTED BY IDOCK:   -5.92 KCAL/MOL
REMARK 923 INTER-LIGAND FREE ENERGY PREDICTED BY IDOCK:   -5.55 KCAL/MOL
REMARK 924 INTRA-LIGAND FREE ENERGY PREDICTED BY IDOCK:   -0.37 KCAL/MOL
REMARK 927      BINDING AFFINITY PREDICTED BY RF-SCORE:    0.00 PKD
ROOT
HETATM    1  C   UNL     1      -9.819  16.390  67.797  1.00  0.00    -0.239 C  
HETATM    2  C   UNL     1      -8.899  17.466  68.470  1.00  0.00    -0.277 C  
HETATM    3  C   UNL     1     -10.491  15.119  68.900  1.00  0.00    -0.241 C  
HETATM    4  C   UNL     1     -10.881  17.207  66.961  1.00  0.00    -0.044 C  
HETATM    5  C   UNL     1     -11.506  12.341  69.800  1.00  0.00    -0.237 C  
HETATM    6  C   UNL     1      -9.109  14.698  69.374  1.00  0.00     0.126 C  
HETATM    7  C   UNL     1      -8.611  13.734  68.318  1.00  0.00    -0.175 C  
HETATM    8  C   UNL     1     -11.528  10.746  69.267  1.00  0.00    -0.369 C  
HETATM    9  C   UNL     1     -10.164   7.673  69.344  1.00  0.00    -0.206 C  
HETATM   10  C   UNL     1     -10.162  10.201  68.644  1.00  0.00    -0.193 C  
HETATM   11  C   UNL     1      -9.602  12.651  68.481  1.00  0.00    -0.112 C  
HETATM   12  C   UNL     1      -9.535  11.326  67.736  1.00  0.00    -0.173 C  
HETATM   13  C   UNL     1      -8.058  10.994  67.501  1.00  0.00    -0.117 C  
HETATM   14  O   UNL     1      -7.365  12.012  66.818  1.00  0.00    -0.335 OA 
HETATM   15  C   UNL     1      -7.976   9.685  66.737  1.00  0.00    -0.105 C  
HETATM   16  C   UNL     1      -8.242   8.593  67.820  1.00  0.00    -0.118 C  
HETATM   17  C   UNL     1     -12.157  13.335  67.678  1.00  0.00    -0.295 C  
HETATM   18  H   UNL     1      -6.449  11.806  66.671  1.00  0.00     0.000 HD 
HETATM   19  C   UNL     1      -7.600   7.241  67.528  1.00  0.00    -0.109 C  
HETATM   20  C   UNL     1     -10.959  13.356  68.671  1.00  0.00    -0.288 C  
HETATM   21  C   UNL     1      -8.326   6.348  66.548  1.00  0.00    -0.115 C  
HETATM   22  O   UNL     1      -7.666   6.340  65.281  1.00  0.00    -0.085 OA 
HETATM   23  C   UNL     1      -9.835   6.588  66.401  1.00  0.00    -0.112 C  
HETATM   24  C   UNL     1     -10.486   7.938  66.899  1.00  0.00    -0.388 C  
HETATM   25  H   UNL     1      -8.122   5.778  64.664  1.00  0.00     0.000 HD 
HETATM   26  C   UNL     1      -9.810   8.606  68.152  1.00  0.00    -0.192 C  
ENDROOT
BRANCH   4  27
HETATM   27  C   UNL     1     -10.249  18.072  65.835  1.00  0.00    -0.231 C  
HETATM   28  O   UNL     1      -9.779  20.290  65.107  1.00  0.00     0.087 OA 
HETATM   29  C   UNL     1     -10.391  19.563  66.068  1.00  0.00    -0.511 C  
HETATM   30  O   UNL     1     -10.985  20.063  67.001  1.00  0.00    -0.292 OA 
ENDBRANCH   4  27
BRANCH  15  31
HETATM   31  C   UNL     1      -6.789   9.677  65.761  1.00  0.00    -0.093 C  
HETATM   32  C   UNL     1      -7.084   9.542  64.281  1.00  0.00    -0.108 C  
ENDBRANCH  15  31
TORSDOF 2
ENDMDL
MODEL       37
REMARK 921   NORMALIZED FREE ENERGY PREDICTED BY IDOCK:   -5.06 KCAL/MOL
REMARK 922        TOTAL FREE ENERGY PREDICTED BY IDOCK:   -5.84 KCAL/MOL
REMARK 923 INTER-LIGAND FREE ENERGY PREDICTED BY IDOCK:   -5.38 KCAL/MOL
REMARK 924 INTRA-LIGAND FREE ENERGY PREDICTED BY IDOCK:   -0.46 KCAL/MOL
REMARK 927      BINDING AFFINITY PREDICTED BY RF-SCORE:    0.00 PKD
ROOT
HETATM    1  C   UNL     1      -8.557   4.753  64.050  1.00  0.00    -0.137 C  
HETATM    2  C   UNL     1      -9.495   4.201  62.923  1.00  0.00    -0.136 C  
HETATM    3  C   UNL     1      -8.083   3.570  65.338  1.00  0.00    -0.097 C  
HETATM    4  C   UNL     1      -7.365   5.465  63.297  1.00  0.00    -0.051 C  
HETATM    5  C   UNL     1      -7.319   2.538  68.151  1.00  0.00    -0.048 C  
HETATM    6  C   UNL     1      -9.530   3.260  65.686  1.00  0.00    -0.097 C  
HETATM    7  C   UNL     1      -9.948   4.361  66.638  1.00  0.00    -0.234 C  
HETATM    8  C   UNL     1      -7.315   3.054  69.752  1.00  0.00    -0.044 C  
HETATM    9  C   UNL     1      -8.829   3.118  72.753  1.00  0.00    -0.096 C  
HETATM   10  C   UNL     1      -8.623   3.830  70.237  1.00  0.00    -0.103 C  
HETATM   11  C   UNL     1      -9.038   4.074  67.766  1.00  0.00    -0.175 C  
HETATM   12  C   UNL     1      -9.082   4.813  69.095  1.00  0.00    -0.155 C  
HETATM   13  C   UNL     1     -10.536   5.219  69.359  1.00  0.00    -0.214 C  
HETATM   14  O   UNL     1     -11.093   5.986  68.316  1.00  0.00    -0.309 OA 
HETATM   15  C   UNL     1     -10.593   5.978  70.671  1.00  0.00    -0.322 C  
HETATM   16  C   UNL     1     -10.510   4.864  71.761  1.00  0.00    -0.214 C  
HETATM   17  C   UNL     1      -6.375   4.575  67.217  1.00  0.00    -0.041 C  
HETATM   18  H   UNL     1     -11.995   6.238  68.480  1.00  0.00     0.000 HD 
HETATM   19  C   UNL     1     -11.179   5.220  73.084  1.00  0.00    -0.382 C  
HETATM   20  C   UNL     1      -7.679   3.730  67.125  1.00  0.00    -0.080 C  
HETATM   21  C   UNL     1     -10.389   6.102  74.023  1.00  0.00    -0.300 C  
HETATM   22  O   UNL     1     -10.894   7.438  74.016  1.00  0.00    -0.558 OA 
HETATM   23  C   UNL     1      -8.863   6.072  73.859  1.00  0.00    -0.126 C  
HETATM   24  C   UNL     1      -8.208   5.509  72.535  1.00  0.00    -0.114 C  
HETATM   25  H   UNL     1     -10.397   7.993  74.607  1.00  0.00     0.000 HD 
HETATM   26  C   UNL     1      -8.993   4.349  71.820  1.00  0.00    -0.157 C  
ENDROOT
BRANCH   4  27
HETATM   27  C   UNL     1      -7.816   6.663  62.416  1.00  0.00    -0.103 C  
HETATM   28  O   UNL     1      -8.287   8.997  62.384  1.00  0.00    -0.163 OA 
HETATM   29  C   UNL     1      -7.956   7.960  63.186  1.00  0.00    -0.130 C  
HETATM   30  O   UNL     1      -7.796   8.074  64.384  1.00  0.00    -0.126 OA 
ENDBRANCH   4  27
BRANCH  15  31
HETATM   31  C   UNL     1     -11.655   7.087  70.634  1.00  0.00    -0.379 C  
HETATM   32  C   UNL     1     -11.189   8.525  70.743  1.00  0.00    -0.289 C  
ENDBRANCH  15  31
TORSDOF 2
ENDMDL
MODEL       38
REMARK 921   NORMALIZED FREE ENERGY PREDICTED BY IDOCK:   -5.00 KCAL/MOL
REMARK 922        TOTAL FREE ENERGY PREDICTED BY IDOCK:   -5.77 KCAL/MOL
REMARK 923 INTER-LIGAND FREE ENERGY PREDICTED BY IDOCK:   -5.35 KCAL/MOL
REMARK 924 INTRA-LIGAND FREE ENERGY PREDICTED BY IDOCK:   -0.42 KCAL/MOL
REMARK 927      BINDING AFFINITY PREDICTED BY RF-SCORE:    0.00 PKD
ROOT
HETATM    1  C   UNL     1      -8.947   7.662  67.687  1.00  0.00    -0.127 C  
HETATM    2  C   UNL     1      -9.176   6.726  66.451  1.00  0.00    -0.185 C  
HETATM    3  C   UNL     1     -10.434   8.412  68.400  1.00  0.00    -0.208 C  
HETATM    4  C   UNL     1      -8.048   6.831  68.685  1.00  0.00    -0.120 C  
HETATM    5  C   UNL     1     -12.191  10.534  69.802  1.00  0.00    -0.252 C  
HETATM    6  C   UNL     1     -10.837   9.043  67.077  1.00  0.00    -0.044 C  
HETATM    7  C   UNL     1     -10.042  10.329  66.999  1.00  0.00    -0.268 C  
HETATM    8  C   UNL     1     -12.133  12.151  70.261  1.00  0.00    -0.385 C  
HETATM    9  C   UNL     1     -12.903  15.356  69.594  1.00  0.00     0.184 C  
HETATM   10  C   UNL     1     -11.528  13.161  69.181  1.00  0.00    -0.358 C  
HETATM   11  C   UNL     1     -10.620  11.051  68.151  1.00  0.00    -0.226 C  
HETATM   12  C   UNL     1     -10.274  12.489  68.507  1.00  0.00    -0.210 C  
HETATM   13  C   UNL     1      -9.965  13.233  67.204  1.00  0.00    -0.238 C  
HETATM   14  O   UNL     1      -8.946  12.623  66.447  1.00  0.00    -0.383 OA 
HETATM   15  C   UNL     1      -9.594  14.665  67.544  1.00  0.00    -0.206 C  
HETATM   16  C   UNL     1     -10.964  15.355  67.834  1.00  0.00    -0.310 C  
HETATM   17  C   UNL     1      -9.970   9.955  70.604  1.00  0.00    -0.094 C  
HETATM   18  H   UNL     1      -8.754  13.085  65.638  1.00  0.00     0.000 HD 
HETATM   19  C   UNL     1     -10.988  16.856  67.561  1.00  0.00    -0.120 C  
HETATM   20  C   UNL     1     -10.766   9.999  69.268  1.00  0.00    -0.249 C  
HETATM   21  C   UNL     1     -10.391  17.745  68.627  1.00  0.00    -0.350 C  
HETATM   22  O   UNL     1      -9.108  18.229  68.229  1.00  0.00    -0.289 OA 
HETATM   23  C   UNL     1     -10.365  17.172  70.051  1.00  0.00     0.365 C  
HETATM   24  C   UNL     1     -10.540  15.620  70.297  1.00  0.00    -0.329 C  
HETATM   25  H   UNL     1      -8.733  18.788  68.900  1.00  0.00     0.000 HD 
HETATM   26  C   UNL     1     -11.465  14.863  69.275  1.00  0.00    -0.324 C  
ENDROOT
BRANCH   4  27
HETATM   27  C   UNL     1      -6.658   6.455  68.101  1.00  0.00    -0.066 C  
HETATM   28  O   UNL     1      -5.201   4.662  67.524  1.00  0.00    -0.010 OA 
HETATM   29  C   UNL     1      -6.389   4.964  68.094  1.00  0.00    -0.036 C  
HETATM   30  O   UNL     1      -7.139   4.124  68.546  1.00  0.00    -0.053 OA 
ENDBRANCH   4  27
BRANCH  15  31
HETATM   31  C   UNL     1      -8.524  15.212  66.587  1.00  0.00    -0.230 C  
HETATM   32  C   UNL     1      -7.184  15.611  67.169  1.00  0.00    -0.230 C  
ENDBRANCH  15  31
TORSDOF 2
ENDMDL
MODEL       39
REMARK 921   NORMALIZED FREE ENERGY PREDICTED BY IDOCK:   -4.99 KCAL/MOL
REMARK 922        TOTAL FREE ENERGY PREDICTED BY IDOCK:   -5.76 KCAL/MOL
REMARK 923 INTER-LIGAND FREE ENERGY PREDICTED BY IDOCK:   -5.72 KCAL/MOL
REMARK 924 INTRA-LIGAND FREE ENERGY PREDICTED BY IDOCK:   -0.04 KCAL/MOL
REMARK 927      BINDING AFFINITY PREDICTED BY RF-SCORE:    0.00 PKD
ROOT
HETATM    1  C   UNL     1      -9.579  13.960  67.827  1.00  0.00    -0.222 C  
HETATM    2  C   UNL     1     -10.675  15.044  68.110  1.00  0.00    -0.256 C  
HETATM    3  C   UNL     1     -10.122  12.508  66.890  1.00  0.00    -0.232 C  
HETATM    4  C   UNL     1      -8.351  14.749  67.225  1.00  0.00    -0.234 C  
HETATM    5  C   UNL     1     -10.249   9.554  65.987  1.00  0.00    -0.242 C  
HETATM    6  C   UNL     1     -11.221  12.185  67.889  1.00  0.00    -0.329 C  
HETATM    7  C   UNL     1     -10.533  11.405  68.989  1.00  0.00    -0.196 C  
HETATM    8  C   UNL     1      -9.713   8.037  66.476  1.00  0.00    -0.297 C  
HETATM    9  C   UNL     1     -10.349   5.137  68.056  1.00  0.00    -0.142 C  
HETATM   10  C   UNL     1      -9.860   7.714  68.034  1.00  0.00    -0.188 C  
HETATM   11  C   UNL     1     -10.115  10.212  68.226  1.00  0.00    -0.179 C  
HETATM   12  C   UNL     1      -9.454   8.995  68.856  1.00  0.00    -0.151 C  
HETATM   13  C   UNL     1     -10.000   8.850  70.280  1.00  0.00    -0.186 C  
HETATM   14  O   UNL     1      -9.816  10.007  71.063  1.00  0.00    -0.194 OA 
HETATM   15  C   UNL     1      -9.332   7.653  70.932  1.00  0.00    -0.158 C  
HETATM   16  C   UNL     1     -10.075   6.423  70.322  1.00  0.00    -0.216 C  
HETATM   17  C   UNL     1      -8.140  10.708  66.356  1.00  0.00    -0.148 C  
HETATM   18  H   UNL     1     -10.154   9.918  71.946  1.00  0.00     0.000 HD 
HETATM   19  C   UNL     1     -10.097   5.188  71.217  1.00  0.00    -0.278 C  
HETATM   20  C   UNL     1      -9.608  10.743  66.870  1.00  0.00    -0.198 C  
HETATM   21  C   UNL     1      -8.845   4.341  71.228  1.00  0.00    -0.111 C  
HETATM   22  O   UNL     1      -8.100   4.546  72.429  1.00  0.00    -0.094 OA 
HETATM   23  C   UNL     1      -7.952   4.434  69.983  1.00  0.00    -0.059 C  
HETATM   24  C   UNL     1      -8.102   5.642  68.975  1.00  0.00    -0.097 C  
HETATM   25  H   UNL     1      -7.313   4.013  72.436  1.00  0.00     0.000 HD 
HETATM   26  C   UNL     1      -9.551   6.231  68.818  1.00  0.00    -0.128 C  
ENDROOT
BRANCH   4  27
HETATM   27  C   UNL     1      -7.750  15.799  68.200  1.00  0.00    -0.131 C  
HETATM   28  O   UNL     1      -6.224  16.152  69.994  1.00  0.00    -0.192 OA 
HETATM   29  C   UNL     1      -6.778  15.208  69.201  1.00  0.00    -0.130 C  
HETATM   30  O   UNL     1      -6.517  14.027  69.296  1.00  0.00    -0.103 OA 
ENDBRANCH   4  27
BRANCH  15  31
HETATM   31  C   UNL     1      -9.107   7.882  72.434  1.00  0.00    -0.229 C  
HETATM   32  C   UNL     1     -10.221   7.501  73.388  1.00  0.00    -0.399 C  
ENDBRANCH  15  31
TORSDOF 2
ENDMDL
MODEL       40
REMARK 921   NORMALIZED FREE ENERGY PREDICTED BY IDOCK:   -4.95 KCAL/MOL
REMARK 922        TOTAL FREE ENERGY PREDICTED BY IDOCK:   -5.72 KCAL/MOL
REMARK 923 INTER-LIGAND FREE ENERGY PREDICTED BY IDOCK:   -5.67 KCAL/MOL
REMARK 924 INTRA-LIGAND FREE ENERGY PREDICTED BY IDOCK:   -0.04 KCAL/MOL
REMARK 927      BINDING AFFINITY PREDICTED BY RF-SCORE:    0.00 PKD
ROOT
HETATM    1  C   UNL     1      -8.370   5.152  66.254  1.00  0.00    -0.113 C  
HETATM    2  C   UNL     1      -8.061   3.975  67.242  1.00  0.00    -0.095 C  
HETATM    3  C   UNL     1      -7.214   6.547  66.297  1.00  0.00    -0.072 C  
HETATM    4  C   UNL     1      -8.580   4.475  64.843  1.00  0.00    -0.135 C  
HETATM    5  C   UNL     1      -6.238   9.475  66.123  1.00  0.00    -0.068 C  
HETATM    6  C   UNL     1      -7.430   6.773  67.784  1.00  0.00    -0.098 C  
HETATM    7  C   UNL     1      -8.685   7.614  67.874  1.00  0.00    -0.124 C  
HETATM    8  C   UNL     1      -6.861  11.036  66.057  1.00  0.00    -0.017 C  
HETATM    9  C   UNL     1      -7.683  13.871  67.667  1.00  0.00    -0.193 C  
HETATM   10  C   UNL     1      -8.065  11.348  67.059  1.00  0.00    -0.157 C  
HETATM   11  C   UNL     1      -8.215   8.839  67.194  1.00  0.00    -0.104 C  
HETATM   12  C   UNL     1      -9.040  10.112  67.080  1.00  0.00    -0.149 C  
HETATM   13  C   UNL     1      -9.924  10.211  68.328  1.00  0.00    -0.148 C  
HETATM   14  O   UNL     1     -10.737   9.077  68.521  1.00  0.00    -0.355 OA 
HETATM   15  C   UNL     1     -10.771  11.465  68.218  1.00  0.00    -0.240 C  
HETATM   16  C   UNL     1      -9.792  12.622  68.591  1.00  0.00    -0.077 C  
HETATM   17  C   UNL     1      -7.760   8.516  64.487  1.00  0.00    -0.126 C  
HETATM   18  H   UNL     1     -11.286   9.139  69.294  1.00  0.00     0.000 HD 
HETATM   19  C   UNL     1     -10.463  13.852  69.192  1.00  0.00    -0.074 C  
HETATM   20  C   UNL     1      -7.388   8.351  65.988  1.00  0.00    -0.073 C  
HETATM   21  C   UNL     1     -11.114  14.808  68.219  1.00  0.00    -0.274 C  
HETATM   22  O   UNL     1     -12.535  14.674  68.245  1.00  0.00    -0.589 OA 
HETATM   23  C   UNL     1     -10.567  14.792  66.785  1.00  0.00    -0.302 C  
HETATM   24  C   UNL     1      -9.707  13.572  66.266  1.00  0.00    -0.287 C  
HETATM   25  H   UNL     1     -12.944  15.276  67.633  1.00  0.00     0.000 HD 
HETATM   26  C   UNL     1      -8.813  12.855  67.343  1.00  0.00    -0.199 C  
ENDROOT
BRANCH   4  27
HETATM   27  C   UNL     1      -9.778   3.485  64.803  1.00  0.00    -0.165 C  
HETATM   28  O   UNL     1     -11.394   2.430  63.409  1.00  0.00    -0.321 OA 
HETATM   29  C   UNL     1     -10.397   3.343  63.428  1.00  0.00    -0.220 C  
HETATM   30  O   UNL     1     -10.054   3.969  62.446  1.00  0.00    -0.150 OA 
ENDBRANCH   4  27
BRANCH  15  31
HETATM   31  C   UNL     1     -12.161  11.262  68.841  1.00  0.00    -0.292 C  
HETATM   32  C   UNL     1     -12.265  11.213  70.351  1.00  0.00    -0.457 C  
ENDBRANCH  15  31
TORSDOF 2
ENDMDL
MODEL       41
REMARK 921   NORMALIZED FREE ENERGY PREDICTED BY IDOCK:   -4.68 KCAL/MOL
REMARK 922        TOTAL FREE ENERGY PREDICTED BY IDOCK:   -5.41 KCAL/MOL
REMARK 923 INTER-LIGAND FREE ENERGY PREDICTED BY IDOCK:   -4.99 KCAL/MOL
REMARK 924 INTRA-LIGAND FREE ENERGY PREDICTED BY IDOCK:   -0.42 KCAL/MOL
REMARK 927      BINDING AFFINITY PREDICTED BY RF-SCORE:    0.00 PKD
ROOT
HETATM    1  C   UNL     1      -9.496   9.713  67.524  1.00  0.00    -0.157 C  
HETATM    2  C   UNL     1      -9.057  11.218  67.489  1.00  0.00    -0.151 C  
HETATM    3  C   UNL     1     -10.562   9.231  68.907  1.00  0.00    -0.222 C  
HETATM    4  C   UNL     1     -10.056   9.403  66.081  1.00  0.00    -0.324 C  
HETATM    5  C   UNL     1     -11.771   7.430  71.110  1.00  0.00    -0.322 C  
HETATM    6  C   UNL     1      -9.563   9.720  69.942  1.00  0.00    -0.269 C  
HETATM    7  C   UNL     1      -8.580   8.581  70.106  1.00  0.00    -0.132 C  
HETATM    8  C   UNL     1     -11.469   5.968  71.885  1.00  0.00    -0.328 C  
HETATM    9  C   UNL     1     -10.186   4.329  74.526  1.00  0.00    -0.275 C  
HETATM   10  C   UNL     1      -9.951   5.703  72.304  1.00  0.00    -0.204 C  
HETATM   11  C   UNL     1      -9.482   7.549  70.657  1.00  0.00    -0.164 C  
HETATM   12  C   UNL     1      -9.011   6.183  71.135  1.00  0.00    -0.144 C  
HETATM   13  C   UNL     1      -7.591   6.343  71.687  1.00  0.00    -0.095 C  
HETATM   14  O   UNL     1      -6.697   6.907  70.756  1.00  0.00    -0.051 OA 
HETATM   15  C   UNL     1      -7.098   4.983  72.146  1.00  0.00    -0.075 C  
HETATM   16  C   UNL     1      -7.808   4.763  73.519  1.00  0.00    -0.095 C  
HETATM   17  C   UNL     1     -11.361   6.621  68.855  1.00  0.00    -0.209 C  
HETATM   18  H   UNL     1      -5.816   7.006  71.098  1.00  0.00     0.000 HD 
HETATM   19  C   UNL     1      -7.051   3.860  74.487  1.00  0.00    -0.060 C  
HETATM   20  C   UNL     1     -10.791   7.670  69.852  1.00  0.00    -0.241 C  
HETATM   21  C   UNL     1      -7.178   2.371  74.260  1.00  0.00    -0.036 C  
HETATM   22  O   UNL     1      -5.991   1.842  73.668  1.00  0.00     0.000 OA 
HETATM   23  C   UNL     1      -8.438   1.904  73.519  1.00  0.00    -0.058 C  
HETATM   24  C   UNL     1      -9.304   2.927  72.681  1.00  0.00    -0.148 C  
HETATM   25  H   UNL     1      -6.071   0.906  73.525  1.00  0.00     0.000 HD 
HETATM   26  C   UNL     1      -9.342   4.402  73.224  1.00  0.00    -0.132 C  
ENDROOT
BRANCH   4  27
HETATM   27  C   UNL     1      -8.997   9.569  64.956  1.00  0.00    -0.258 C  
HETATM   28  O   UNL     1      -8.485  10.655  62.900  1.00  0.00    -0.175 OA 
HETATM   29  C   UNL     1      -9.448  10.479  63.832  1.00  0.00    -0.292 C  
HETATM   30  O   UNL     1     -10.544  10.995  63.757  1.00  0.00    -0.369 OA 
ENDBRANCH   4  27
BRANCH  15  31
HETATM   31  C   UNL     1      -5.589   4.821  71.906  1.00  0.00    -0.008 C  
HETATM   32  C   UNL     1      -5.137   3.841  70.843  1.00  0.00     0.000 C  
ENDBRANCH  15  31
TORSDOF 2
ENDMDL
MODEL       42
REMARK 921   NORMALIZED FREE ENERGY PREDICTED BY IDOCK:   -4.64 KCAL/MOL
REMARK 922        TOTAL FREE ENERGY PREDICTED BY IDOCK:   -5.37 KCAL/MOL
REMARK 923 INTER-LIGAND FREE ENERGY PREDICTED BY IDOCK:   -5.18 KCAL/MOL
REMARK 924 INTRA-LIGAND FREE ENERGY PREDICTED BY IDOCK:   -0.19 KCAL/MOL
REMARK 927      BINDING AFFINITY PREDICTED BY RF-SCORE:    0.00 PKD
ROOT
HETATM    1  C   UNL     1      -6.694  10.170  65.143  1.00  0.00    -0.131 C  
HETATM    2  C   UNL     1      -5.129  10.178  65.220  1.00  0.00    -0.063 C  
HETATM    3  C   UNL     1      -7.541  11.461  66.091  1.00  0.00     0.104 C  
HETATM    4  C   UNL     1      -7.040  10.108  63.603  1.00  0.00    -0.110 C  
HETATM    5  C   UNL     1      -9.752  12.790  67.796  1.00  0.00    -0.207 C  
HETATM    6  C   UNL     1      -6.878  11.041  67.392  1.00  0.00    -0.082 C  
HETATM    7  C   UNL     1      -7.721   9.895  67.910  1.00  0.00    -0.090 C  
HETATM    8  C   UNL     1     -11.130  12.374  68.664  1.00  0.00    -0.297 C  
HETATM    9  C   UNL     1     -12.551  11.648  71.624  1.00  0.00    -0.278 C  
HETATM   10  C   UNL     1     -11.009  11.072  69.582  1.00  0.00    -0.286 C  
HETATM   11  C   UNL     1      -8.993  10.608  68.146  1.00  0.00    -0.141 C  
HETATM   12  C   UNL     1     -10.214   9.967  68.790  1.00  0.00    -0.205 C  
HETATM   13  C   UNL     1      -9.720   8.915  69.789  1.00  0.00    -0.175 C  
HETATM   14  O   UNL     1      -8.872   7.953  69.204  1.00  0.00    -0.141 OA 
HETATM   15  C   UNL     1     -10.927   8.249  70.422  1.00  0.00    -0.244 C  
HETATM   16  C   UNL     1     -11.425   9.287  71.477  1.00  0.00    -0.454 C  
HETATM   17  C   UNL     1     -10.260  11.444  65.836  1.00  0.00    -0.292 C  
HETATM   18  H   UNL     1      -8.565   7.301  69.823  1.00  0.00     0.000 HD 
HETATM   19  C   UNL     1     -12.159   8.679  72.667  1.00  0.00    -0.267 C  
HETATM   20  C   UNL     1      -9.170  11.552  66.941  1.00  0.00    -0.181 C  
HETATM   21  C   UNL     1     -13.608   8.307  72.448  1.00  0.00    -0.129 C  
HETATM   22  O   UNL     1     -13.757   6.894  72.309  1.00  0.00    -0.533 OA 
HETATM   23  C   UNL     1     -14.342   9.067  71.335  1.00  0.00    -0.133 C  
HETATM   24  C   UNL     1     -13.531   9.850  70.226  1.00  0.00     0.477 C  
HETATM   25  H   UNL     1     -14.668   6.660  72.172  1.00  0.00     0.000 HD 
HETATM   26  C   UNL     1     -12.162  10.472  70.686  1.00  0.00    -0.446 C  
ENDROOT
BRANCH   4  27
HETATM   27  C   UNL     1      -6.517   8.823  62.902  1.00  0.00    -0.091 C  
HETATM   28  O   UNL     1      -6.856   6.486  62.601  1.00  0.00    -0.037 OA 
HETATM   29  C   UNL     1      -7.292   7.575  63.272  1.00  0.00    -0.090 C  
HETATM   30  O   UNL     1      -8.199   7.538  64.078  1.00  0.00    -0.081 OA 
ENDBRANCH   4  27
BRANCH  15  31
HETATM   31  C   UNL     1     -10.662   6.764  70.715  1.00  0.00    -0.270 C  
HETATM   32  C   UNL     1     -11.127   5.743  69.697  1.00  0.00    -0.306 C  
ENDBRANCH  15  31
TORSDOF 2
ENDMDL
MODEL       43
REMARK 921   NORMALIZED FREE ENERGY PREDICTED BY IDOCK:   -4.50 KCAL/MOL
REMARK 922        TOTAL FREE ENERGY PREDICTED BY IDOCK:   -5.22 KCAL/MOL
REMARK 923 INTER-LIGAND FREE ENERGY PREDICTED BY IDOCK:   -4.89 KCAL/MOL
REMARK 924 INTRA-LIGAND FREE ENERGY PREDICTED BY IDOCK:   -0.33 KCAL/MOL
REMARK 927      BINDING AFFINITY PREDICTED BY RF-SCORE:    0.00 PKD
ROOT
HETATM    1  C   UNL     1      -7.920   9.231  66.963  1.00  0.00    -0.102 C  
HETATM    2  C   UNL     1      -8.752   8.109  67.676  1.00  0.00    -0.130 C  
HETATM    3  C   UNL     1      -6.944  10.304  68.048  1.00  0.00    -0.082 C  
HETATM    4  C   UNL     1      -7.119   8.499  65.817  1.00  0.00    -0.075 C  
HETATM    5  C   UNL     1      -5.568  12.883  69.057  1.00  0.00    -0.070 C  
HETATM    6  C   UNL     1      -8.161  10.710  68.862  1.00  0.00    -0.145 C  
HETATM    7  C   UNL     1      -8.802  11.834  68.075  1.00  0.00    -0.164 C  
HETATM    8  C   UNL     1      -5.547  14.535  68.743  1.00  0.00    -0.087 C  
HETATM    9  C   UNL     1      -6.644  17.619  69.513  1.00  0.00    -0.149 C  
HETATM   10  C   UNL     1      -6.972  15.218  68.509  1.00  0.00    -0.113 C  
HETATM   11  C   UNL     1      -7.724  12.842  68.157  1.00  0.00    -0.137 C  
HETATM   12  C   UNL     1      -7.853  14.260  67.622  1.00  0.00    -0.191 C  
HETATM   13  C   UNL     1      -9.319  14.683  67.760  1.00  0.00    -0.197 C  
HETATM   14  O   UNL     1     -10.211  13.801  67.118  1.00  0.00    -0.241 OA 
HETATM   15  C   UNL     1      -9.468  16.089  67.208  1.00  0.00    -0.220 C  
HETATM   16  C   UNL     1      -8.903  17.004  68.339  1.00  0.00    -0.247 C  
HETATM   17  C   UNL     1      -5.450  12.174  66.734  1.00  0.00     0.099 C  
HETATM   18  H   UNL     1     -11.120  14.062  67.203  1.00  0.00     0.000 HD 
HETATM   19  C   UNL     1      -9.495  18.410  68.372  1.00  0.00    -0.352 C  
HETATM   20  C   UNL     1      -6.411  12.062  67.953  1.00  0.00    -0.073 C  
HETATM   21  C   UNL     1      -8.931  19.402  67.381  1.00  0.00    -0.300 C  
HETATM   22  O   UNL     1      -9.840  19.617  66.300  1.00  0.00    -0.388 OA 
HETATM   23  C   UNL     1      -7.508  19.123  66.878  1.00  0.00    -0.230 C  
HETATM   24  C   UNL     1      -6.862  17.690  67.044  1.00  0.00    -0.202 C  
HETATM   25  H   UNL     1      -9.485  20.241  65.677  1.00  0.00     0.000 HD 
HETATM   26  C   UNL     1      -7.305  16.880  68.317  1.00  0.00    -0.193 C  
ENDROOT
BRANCH   4  27
HETATM   27  C   UNL     1      -8.033   7.828  64.754  1.00  0.00    -0.142 C  
HETATM   28  O   UNL     1      -8.218   7.169  62.473  1.00  0.00    -0.119 OA 
HETATM   29  C   UNL     1      -7.431   7.814  63.363  1.00  0.00    -0.115 C  
HETATM   30  O   UNL     1      -6.370   8.320  63.064  1.00  0.00    -0.084 OA 
ENDBRANCH   4  27
BRANCH  15  31
HETATM   31  C   UNL     1     -10.830  16.283  66.524  1.00  0.00    -0.105 C  
HETATM   32  C   UNL     1     -10.873  16.282  65.009  1.00  0.00    -0.337 C  
ENDBRANCH  15  31
TORSDOF 2
ENDMDL
MODEL       44
REMARK 921   NORMALIZED FREE ENERGY PREDICTED BY IDOCK:   -4.46 KCAL/MOL
REMARK 922        TOTAL FREE ENERGY PREDICTED BY IDOCK:   -5.16 KCAL/MOL
REMARK 923 INTER-LIGAND FREE ENERGY PREDICTED BY IDOCK:   -4.84 KCAL/MOL
REMARK 924 INTRA-LIGAND FREE ENERGY PREDICTED BY IDOCK:   -0.33 KCAL/MOL
REMARK 927      BINDING AFFINITY PREDICTED BY RF-SCORE:    0.00 PKD
ROOT
HETATM    1  C   UNL     1      -9.985  12.804  66.789  1.00  0.00    -0.237 C  
HETATM    2  C   UNL     1      -8.987  13.996  66.584  1.00  0.00    -0.177 C  
HETATM    3  C   UNL     1     -10.603  12.569  68.475  1.00  0.00    -0.262 C  
HETATM    4  C   UNL     1     -11.084  12.977  65.669  1.00  0.00    -0.301 C  
HETATM    5  C   UNL     1     -11.621  11.067  70.979  1.00  0.00     0.124 C  
HETATM    6  C   UNL     1      -9.202  12.449  69.050  1.00  0.00     0.437 C  
HETATM    7  C   UNL     1      -8.811  11.002  68.830  1.00  0.00    -0.149 C  
HETATM    8  C   UNL     1     -11.726   9.502  71.584  1.00  0.00    -0.460 C  
HETATM    9  C   UNL     1     -10.443   7.087  73.541  1.00  0.00    -0.413 C  
HETATM   10  C   UNL     1     -10.427   8.593  71.393  1.00  0.00    -0.327 C  
HETATM   11  C   UNL     1      -9.816  10.339  69.686  1.00  0.00    -0.230 C  
HETATM   12  C   UNL     1      -9.842   8.842  69.953  1.00  0.00    -0.189 C  
HETATM   13  C   UNL     1      -8.396   8.334  69.921  1.00  0.00    -0.125 C  
HETATM   14  O   UNL     1      -7.730   8.639  68.717  1.00  0.00    -0.094 OA 
HETATM   15  C   UNL     1      -8.407   6.836  70.161  1.00  0.00    -0.135 C  
HETATM   16  C   UNL     1      -8.619   6.698  71.702  1.00  0.00    -0.123 C  
HETATM   17  C   UNL     1     -12.405  10.535  68.740  1.00  0.00     0.612 C  
HETATM   18  H   UNL     1      -6.834   8.324  68.697  1.00  0.00     0.000 HD 
HETATM   19  C   UNL     1      -8.038   5.426  72.311  1.00  0.00    -0.107 C  
HETATM   20  C   UNL     1     -11.135  11.097  69.441  1.00  0.00    -0.314 C  
HETATM   21  C   UNL     1      -8.860   4.167  72.154  1.00  0.00    -0.107 C  
HETATM   22  O   UNL     1      -8.300   3.313  71.156  1.00  0.00    -0.064 OA 
HETATM   23  C   UNL     1     -10.369   4.364  71.952  1.00  0.00    -0.167 C  
HETATM   24  C   UNL     1     -10.944   5.766  71.504  1.00  0.00    -0.304 C  
HETATM   25  H   UNL     1      -8.817   2.521  71.057  1.00  0.00     0.000 HD 
HETATM   26  C   UNL     1     -10.157   7.027  72.015  1.00  0.00    -0.201 C  
ENDROOT
BRANCH   4  27
HETATM   27  C   UNL     1     -10.518  12.888  64.225  1.00  0.00    -0.430 C  
HETATM   28  O   UNL     1      -9.621  11.437  62.564  1.00  0.00    -0.249 OA 
HETATM   29  C   UNL     1     -10.050  11.499  63.844  1.00  0.00    -0.345 C  
HETATM   30  O   UNL     1     -10.049  10.541  64.590  1.00  0.00    -0.328 OA 
ENDBRANCH   4  27
BRANCH  15  31
HETATM   31  C   UNL     1      -7.300   6.129  69.365  1.00  0.00    -0.091 C  
HETATM   32  C   UNL     1      -7.712   5.174  68.264  1.00  0.00    -0.083 C  
ENDBRANCH  15  31
TORSDOF 2
ENDMDL
MODEL       45
REMARK 921   NORMALIZED FREE ENERGY PREDICTED BY IDOCK:   -4.45 KCAL/MOL
REMARK 922        TOTAL FREE ENERGY PREDICTED BY IDOCK:   -5.16 KCAL/MOL
REMARK 923 INTER-LIGAND FREE ENERGY PREDICTED BY IDOCK:   -4.83 KCAL/MOL
REMARK 924 INTRA-LIGAND FREE ENERGY PREDICTED BY IDOCK:   -0.33 KCAL/MOL
REMARK 927      BINDING AFFINITY PREDICTED BY RF-SCORE:    0.00 PKD
ROOT
HETATM    1  C   UNL     1      -6.495   9.914  65.084  1.00  0.00    -0.103 C  
HETATM    2  C   UNL     1      -5.163  10.730  64.965  1.00  0.00    -0.139 C  
HETATM    3  C   UNL     1      -7.836  10.714  66.003  1.00  0.00    -0.156 C  
HETATM    4  C   UNL     1      -6.844   9.457  63.614  1.00  0.00    -0.095 C  
HETATM    5  C   UNL     1     -10.315  10.964  67.834  1.00  0.00    -0.216 C  
HETATM    6  C   UNL     1      -6.978  10.889  67.245  1.00  0.00    -0.089 C  
HETATM    7  C   UNL     1      -7.068   9.564  67.972  1.00  0.00    -0.080 C  
HETATM    8  C   UNL     1     -11.221  10.036  68.904  1.00  0.00    -0.179 C  
HETATM    9  C   UNL     1     -11.882   9.132  72.074  1.00  0.00    -0.407 C  
HETATM   10  C   UNL     1     -10.386   9.130  69.920  1.00  0.00    -0.229 C  
HETATM   11  C   UNL     1      -8.509   9.554  68.296  1.00  0.00    -0.119 C  
HETATM   12  C   UNL     1      -9.177   8.483  69.146  1.00  0.00    -0.150 C  
HETATM   13  C   UNL     1      -8.150   7.991  70.171  1.00  0.00    -0.114 C  
HETATM   14  O   UNL     1      -6.960   7.522  69.581  1.00  0.00    -0.050 OA 
HETATM   15  C   UNL     1      -8.794   6.904  71.012  1.00  0.00    -0.140 C  
HETATM   16  C   UNL     1      -9.700   7.684  72.016  1.00  0.00    -0.209 C  
HETATM   17  C   UNL     1     -10.155   9.276  66.092  1.00  0.00    -0.304 C  
HETATM   18  H   UNL     1      -6.323   7.217  70.217  1.00  0.00     0.000 HD 
HETATM   19  C   UNL     1      -9.939   6.970  73.342  1.00  0.00    -0.296 C  
HETATM   20  C   UNL     1      -9.221  10.086  67.036  1.00  0.00    -0.167 C  
HETATM   21  C   UNL     1     -10.990   5.883  73.342  1.00  0.00    -0.196 C  
HETATM   22  O   UNL     1     -10.387   4.589  73.360  1.00  0.00    -0.157 OA 
HETATM   23  C   UNL     1     -12.075   5.989  72.261  1.00  0.00    -0.196 C  
HETATM   24  C   UNL     1     -11.856   6.902  70.990  1.00  0.00    -0.411 C  
HETATM   25  H   UNL     1     -11.048   3.906  73.361  1.00  0.00     0.000 HD 
HETATM   26  C   UNL     1     -10.990   8.196  71.213  1.00  0.00    -0.281 C  
ENDROOT
BRANCH   4  27
HETATM   27  C   UNL     1      -5.768   8.533  62.980  1.00  0.00    -0.074 C  
HETATM   28  O   UNL     1      -5.166   6.280  62.498  1.00  0.00    -0.020 OA 
HETATM   29  C   UNL     1      -6.085   7.057  63.112  1.00  0.00    -0.044 C  
HETATM   30  O   UNL     1      -7.047   6.607  63.700  1.00  0.00    -0.049 OA 
ENDBRANCH   4  27
BRANCH  15  31
HETATM   31  C   UNL     1      -7.776   5.824  71.411  1.00  0.00    -0.107 C  
HETATM   32  C   UNL     1      -7.722   4.555  70.585  1.00  0.00    -0.053 C  
ENDBRANCH  15  31
TORSDOF 2
ENDMDL
MODEL       46
REMARK 921   NORMALIZED FREE ENERGY PREDICTED BY IDOCK:   -4.40 KCAL/MOL
REMARK 922        TOTAL FREE ENERGY PREDICTED BY IDOCK:   -5.10 KCAL/MOL
REMARK 923 INTER-LIGAND FREE ENERGY PREDICTED BY IDOCK:   -4.81 KCAL/MOL
REMARK 924 INTRA-LIGAND FREE ENERGY PREDICTED BY IDOCK:   -0.29 KCAL/MOL
REMARK 927      BINDING AFFINITY PREDICTED BY RF-SCORE:    0.00 PKD
ROOT
HETATM    1  C   UNL     1      -7.935   4.861  71.475  1.00  0.00    -0.110 C  
HETATM    2  C   UNL     1      -6.959   4.795  72.700  1.00  0.00    -0.075 C  
HETATM    3  C   UNL     1      -7.169   5.201  69.869  1.00  0.00    -0.059 C  
HETATM    4  C   UNL     1      -8.806   3.547  71.559  1.00  0.00    -0.138 C  
HETATM    5  C   UNL     1      -6.890   6.311  66.996  1.00  0.00    -0.062 C  
HETATM    6  C   UNL     1      -6.537   6.491  70.362  1.00  0.00    -0.045 C  
HETATM    7  C   UNL     1      -7.626   7.535  70.234  1.00  0.00    -0.090 C  
HETATM    8  C   UNL     1      -7.655   7.386  65.954  1.00  0.00    -0.089 C  
HETATM    9  C   UNL     1      -7.816  10.466  64.615  1.00  0.00    -0.077 C  
HETATM   10  C   UNL     1      -8.112   8.774  66.598  1.00  0.00    -0.103 C  
HETATM   11  C   UNL     1      -7.802   7.534  68.767  1.00  0.00    -0.121 C  
HETATM   12  C   UNL     1      -8.717   8.496  68.025  1.00  0.00    -0.142 C  
HETATM   13  C   UNL     1      -8.745   9.814  68.806  1.00  0.00    -0.128 C  
HETATM   14  O   UNL     1      -9.137   9.651  70.149  1.00  0.00    -0.222 OA 
HETATM   15  C   UNL     1      -9.675  10.777  68.091  1.00  0.00    -0.169 C  
HETATM   16  C   UNL     1      -8.832  11.295  66.883  1.00  0.00    -0.165 C  
HETATM   17  C   UNL     1      -8.914   5.209  67.769  1.00  0.00    -0.114 C  
HETATM   18  H   UNL     1      -9.155  10.469  70.634  1.00  0.00     0.000 HD 
HETATM   19  C   UNL     1      -9.213  12.688  66.395  1.00  0.00    -0.162 C  
HETATM   20  C   UNL     1      -7.740   6.053  68.343  1.00  0.00    -0.099 C  
HETATM   21  C   UNL     1     -10.427  12.780  65.499  1.00  0.00    -0.287 C  
HETATM   22  O   UNL     1     -11.549  13.301  66.213  1.00  0.00    -0.318 OA 
HETATM   23  C   UNL     1     -10.790  11.511  64.717  1.00  0.00    -0.360 C  
HETATM   24  C   UNL     1     -10.210  10.106  65.150  1.00  0.00    -0.233 C  
HETATM   25  H   UNL     1     -12.313  13.359  65.650  1.00  0.00     0.000 HD 
HETATM   26  C   UNL     1      -8.774  10.123  65.790  1.00  0.00    -0.166 C  
ENDROOT
BRANCH   4  27
HETATM   27  C   UNL     1      -9.662   3.452  72.852  1.00  0.00    -0.185 C  
HETATM   28  O   UNL     1     -11.520   4.356  74.036  1.00  0.00    -0.158 OA 
HETATM   29  C   UNL     1     -10.752   4.501  72.933  1.00  0.00    -0.208 C  
HETATM   30  O   UNL     1     -10.928   5.380  72.114  1.00  0.00    -0.238 OA 
ENDBRANCH   4  27
BRANCH  15  31
HETATM   31  C   UNL     1     -10.424  11.678  69.084  1.00  0.00    -0.099 C  
HETATM   32  C   UNL     1     -11.925  11.515  69.203  1.00  0.00    -0.386 C  
ENDBRANCH  15  31
TORSDOF 2
ENDMDL
MODEL       47
REMARK 921   NORMALIZED FREE ENERGY PREDICTED BY IDOCK:   -4.32 KCAL/MOL
REMARK 922        TOTAL FREE ENERGY PREDICTED BY IDOCK:   -5.01 KCAL/MOL
REMARK 923 INTER-LIGAND FREE ENERGY PREDICTED BY IDOCK:   -4.57 KCAL/MOL
REMARK 924 INTRA-LIGAND FREE ENERGY PREDICTED BY IDOCK:   -0.44 KCAL/MOL
REMARK 927      BINDING AFFINITY PREDICTED BY RF-SCORE:    0.00 PKD
ROOT
HETATM    1  C   UNL     1      -9.388   6.874  72.922  1.00  0.00    -0.156 C  
HETATM    2  C   UNL     1      -9.942   6.288  74.265  1.00  0.00    -0.324 C  
HETATM    3  C   UNL     1     -10.550   6.909  71.532  1.00  0.00    -0.239 C  
HETATM    4  C   UNL     1      -8.731   8.258  73.304  1.00  0.00    -0.285 C  
HETATM    5  C   UNL     1     -11.531   6.780  68.603  1.00  0.00     0.059 C  
HETATM    6  C   UNL     1     -10.810   5.414  71.619  1.00  0.00    -0.232 C  
HETATM    7  C   UNL     1      -9.674   4.774  70.849  1.00  0.00    -0.260 C  
HETATM    8  C   UNL     1     -10.974   6.335  67.080  1.00  0.00    -0.442 C  
HETATM    9  C   UNL     1     -10.790   4.012  64.655  1.00  0.00    -0.122 C  
HETATM   10  C   UNL     1     -10.148   4.969  67.012  1.00  0.00    -0.251 C  
HETATM   11  C   UNL     1      -9.957   5.304  69.500  1.00  0.00    -0.297 C  
HETATM   12  C   UNL     1      -9.183   4.899  68.254  1.00  0.00    -0.154 C  
HETATM   13  C   UNL     1      -8.729   3.447  68.435  1.00  0.00    -0.102 C  
HETATM   14  O   UNL     1      -7.974   3.246  69.607  1.00  0.00    -0.049 OA 
HETATM   15  C   UNL     1      -7.935   3.035  67.209  1.00  0.00    -0.077 C  
HETATM   16  C   UNL     1      -9.023   2.756  66.125  1.00  0.00    -0.145 C  
HETATM   17  C   UNL     1      -9.547   8.027  69.253  1.00  0.00    -0.157 C  
HETATM   18  H   UNL     1      -7.692   2.345  69.719  1.00  0.00     0.000 HD 
HETATM   19  C   UNL     1      -8.613   1.743  65.062  1.00  0.00    -0.101 C  
HETATM   20  C   UNL     1     -10.356   6.778  69.708  1.00  0.00    -0.226 C  
HETATM   21  C   UNL     1      -7.730   2.254  63.947  1.00  0.00    -0.064 C  
HETATM   22  O   UNL     1      -6.381   1.820  64.124  1.00  0.00    -0.017 OA 
HETATM   23  C   UNL     1      -7.809   3.759  63.657  1.00  0.00    -0.083 C  
HETATM   24  C   UNL     1      -8.424   4.752  64.721  1.00  0.00    -0.141 C  
HETATM   25  H   UNL     1      -5.826   2.141  63.423  1.00  0.00     0.000 HD 
HETATM   26  C   UNL     1      -9.579   4.171  65.616  1.00  0.00    -0.188 C  
ENDROOT
BRANCH   4  27
HETATM   27  C   UNL     1      -7.543   8.126  74.298  1.00  0.00    -0.262 C  
HETATM   28  O   UNL     1      -5.173   8.039  74.510  1.00  0.00    -0.064 OA 
HETATM   29  C   UNL     1      -6.189   8.090  73.620  1.00  0.00    -0.090 C  
HETATM   30  O   UNL     1      -6.017   8.101  72.419  1.00  0.00    -0.042 OA 
ENDBRANCH   4  27
BRANCH  15  31
HETATM   31  C   UNL     1      -6.797   2.069  67.574  1.00  0.00    -0.039 C  
HETATM   32  C   UNL     1      -5.381   2.464  67.207  1.00  0.00    -0.016 C  
ENDBRANCH  15  31
TORSDOF 2
ENDMDL
MODEL       48
REMARK 921   NORMALIZED FREE ENERGY PREDICTED BY IDOCK:   -4.31 KCAL/MOL
REMARK 922        TOTAL FREE ENERGY PREDICTED BY IDOCK:   -5.00 KCAL/MOL
REMARK 923 INTER-LIGAND FREE ENERGY PREDICTED BY IDOCK:   -4.98 KCAL/MOL
REMARK 924 INTRA-LIGAND FREE ENERGY PREDICTED BY IDOCK:   -0.01 KCAL/MOL
REMARK 927      BINDING AFFINITY PREDICTED BY RF-SCORE:    0.00 PKD
ROOT
HETATM    1  C   UNL     1      -9.811  11.170  67.308  1.00  0.00    -0.198 C  
HETATM    2  C   UNL     1     -11.137  11.868  66.847  1.00  0.00    -0.356 C  
HETATM    3  C   UNL     1      -9.415   9.602  66.491  1.00  0.00    -0.233 C  
HETATM    4  C   UNL     1      -8.698  12.286  67.232  1.00  0.00    -0.188 C  
HETATM    5  C   UNL     1      -8.307   6.734  66.160  1.00  0.00    -0.130 C  
HETATM    6  C   UNL     1     -10.741   8.976  66.890  1.00  0.00    -0.150 C  
HETATM    7  C   UNL     1     -10.526   8.470  68.301  1.00  0.00    -0.222 C  
HETATM    8  C   UNL     1      -7.720   5.467  67.097  1.00  0.00    -0.100 C  
HETATM    9  C   UNL     1      -8.294   2.546  68.661  1.00  0.00    -0.086 C  
HETATM   10  C   UNL     1      -8.541   5.148  68.429  1.00  0.00    -0.098 C  
HETATM   11  C   UNL     1      -9.490   7.448  68.044  1.00  0.00    -0.146 C  
HETATM   12  C   UNL     1      -8.949   6.507  69.111  1.00  0.00    -0.130 C  
HETATM   13  C   UNL     1     -10.078   6.231  70.109  1.00  0.00    -0.179 C  
HETATM   14  O   UNL     1     -10.617   7.404  70.672  1.00  0.00    -0.217 OA 
HETATM   15  C   UNL     1      -9.547   5.312  71.194  1.00  0.00    -0.218 C  
HETATM   16  C   UNL     1      -9.537   3.900  70.527  1.00  0.00    -0.263 C  
HETATM   17  C   UNL     1      -7.048   8.490  67.276  1.00  0.00    -0.076 C  
HETATM   18  H   UNL     1     -11.317   7.233  71.292  1.00  0.00     0.000 HD 
HETATM   19  C   UNL     1      -9.688   2.738  71.503  1.00  0.00    -0.225 C  
HETATM   20  C   UNL     1      -8.527   8.081  67.021  1.00  0.00    -0.120 C  
HETATM   21  C   UNL     1      -8.443   2.319  72.250  1.00  0.00    -0.058 C  
HETATM   22  O   UNL     1      -8.484   2.769  73.605  1.00  0.00    -0.071 OA 
HETATM   23  C   UNL     1      -7.104   2.658  71.580  1.00  0.00    -0.032 C  
HETATM   24  C   UNL     1      -7.031   3.740  70.431  1.00  0.00    -0.034 C  
HETATM   25  H   UNL     1      -7.701   2.505  74.075  1.00  0.00     0.000 HD 
HETATM   26  C   UNL     1      -8.300   3.849  69.508  1.00  0.00    -0.078 C  
ENDROOT
BRANCH   4  27
HETATM   27  C   UNL     1      -8.962  13.491  68.178  1.00  0.00    -0.187 C  
HETATM   28  O   UNL     1      -9.568  15.791  68.290  1.00  0.00    -0.198 OA 
HETATM   29  C   UNL     1      -9.280  14.777  67.443  1.00  0.00    -0.196 C  
HETATM   30  O   UNL     1      -9.279  14.902  66.236  1.00  0.00    -0.287 OA 
ENDBRANCH   4  27
BRANCH  15  31
HETATM   31  C   UNL     1     -10.175   5.630  72.559  1.00  0.00    -0.225 C  
HETATM   32  C   UNL     1     -11.569   5.108  72.841  1.00  0.00    -0.282 C  
ENDBRANCH  15  31
TORSDOF 2
ENDMDL
MODEL       49
REMARK 921   NORMALIZED FREE ENERGY PREDICTED BY IDOCK:   -4.26 KCAL/MOL
REMARK 922        TOTAL FREE ENERGY PREDICTED BY IDOCK:   -4.94 KCAL/MOL
REMARK 923 INTER-LIGAND FREE ENERGY PREDICTED BY IDOCK:   -4.59 KCAL/MOL
REMARK 924 INTRA-LIGAND FREE ENERGY PREDICTED BY IDOCK:   -0.35 KCAL/MOL
REMARK 927      BINDING AFFINITY PREDICTED BY RF-SCORE:    0.00 PKD
ROOT
HETATM    1  C   UNL     1      -7.611  14.081  67.536  1.00  0.00    -0.195 C  
HETATM    2  C   UNL     1      -6.300  14.938  67.598  1.00  0.00    -0.147 C  
HETATM    3  C   UNL     1      -7.695  12.679  68.680  1.00  0.00    -0.066 C  
HETATM    4  C   UNL     1      -8.798  15.118  67.629  1.00  0.00    -0.178 C  
HETATM    5  C   UNL     1      -8.435   9.864  69.725  1.00  0.00    -0.206 C  
HETATM    6  C   UNL     1      -6.407  12.073  68.146  1.00  0.00    -0.053 C  
HETATM    7  C   UNL     1      -6.822  11.291  66.918  1.00  0.00    -0.134 C  
HETATM    8  C   UNL     1      -9.052   8.405  69.161  1.00  0.00    -0.147 C  
HETATM    9  C   UNL     1      -8.482   5.280  68.059  1.00  0.00    -0.097 C  
HETATM   10  C   UNL     1      -8.457   7.887  67.772  1.00  0.00    -0.125 C  
HETATM   11  C   UNL     1      -7.687  10.274  67.549  1.00  0.00    -0.094 C  
HETATM   12  C   UNL     1      -8.316   9.113  66.794  1.00  0.00    -0.123 C  
HETATM   13  C   UNL     1      -7.363   8.721  65.659  1.00  0.00    -0.085 C  
HETATM   14  O   UNL     1      -7.054   9.796  64.802  1.00  0.00    -0.113 OA 
HETATM   15  C   UNL     1      -7.988   7.579  64.880  1.00  0.00    -0.132 C  
HETATM   16  C   UNL     1      -7.736   6.324  65.775  1.00  0.00    -0.091 C  
HETATM   17  C   UNL     1     -10.042  11.287  68.583  1.00  0.00    -0.216 C  
HETATM   18  H   UNL     1      -6.463   9.553  64.098  1.00  0.00     0.000 HD 
HETATM   19  C   UNL     1      -7.649   5.007  65.011  1.00  0.00    -0.078 C  
HETATM   20  C   UNL     1      -8.508  11.030  68.612  1.00  0.00    -0.157 C  
HETATM   21  C   UNL     1      -8.961   4.373  64.608  1.00  0.00    -0.150 C  
HETATM   22  O   UNL     1      -9.209   4.555  63.214  1.00  0.00    -0.177 OA 
HETATM   23  C   UNL     1     -10.184   4.749  65.456  1.00  0.00    -0.162 C  
HETATM   24  C   UNL     1     -10.155   6.026  66.387  1.00  0.00    -0.142 C  
HETATM   25  H   UNL     1     -10.033   4.156  62.961  1.00  0.00     0.000 HD 
HETATM   26  C   UNL     1      -8.758   6.392  67.009  1.00  0.00    -0.115 C  
ENDROOT
BRANCH   4  27
HETATM   27  C   UNL     1      -8.829  16.131  66.451  1.00  0.00    -0.355 C  
HETATM   28  O   UNL     1      -8.852  18.437  65.857  1.00  0.00    -0.491 OA 
HETATM   29  C   UNL     1      -8.889  17.577  66.900  1.00  0.00    -0.251 C  
HETATM   30  O   UNL     1      -8.966  17.940  68.055  1.00  0.00    -0.255 OA 
ENDBRANCH   4  27
BRANCH  15  31
HETATM   31  C   UNL     1      -7.650   7.666  63.384  1.00  0.00    -0.119 C  
HETATM   32  C   UNL     1      -8.724   8.164  62.438  1.00  0.00     0.063 C  
ENDBRANCH  15  31
TORSDOF 2
ENDMDL
MODEL       50
REMARK 921   NORMALIZED FREE ENERGY PREDICTED BY IDOCK:   -4.05 KCAL/MOL
REMARK 922        TOTAL FREE ENERGY PREDICTED BY IDOCK:   -4.72 KCAL/MOL
REMARK 923 INTER-LIGAND FREE ENERGY PREDICTED BY IDOCK:   -4.62 KCAL/MOL
REMARK 924 INTRA-LIGAND FREE ENERGY PREDICTED BY IDOCK:   -0.10 KCAL/MOL
REMARK 927      BINDING AFFINITY PREDICTED BY RF-SCORE:    0.00 PKD
ROOT
HETATM    1  C   UNL     1      -7.031   4.430  64.113  1.00  0.00    -0.046 C  
HETATM    2  C   UNL     1      -5.983   3.298  64.387  1.00  0.00    -0.018 C  
HETATM    3  C   UNL     1      -6.504   6.115  64.522  1.00  0.00    -0.034 C  
HETATM    4  C   UNL     1      -7.521   4.203  62.629  1.00  0.00    -0.049 C  
HETATM    5  C   UNL     1      -6.739   9.052  65.459  1.00  0.00    -0.072 C  
HETATM    6  C   UNL     1      -6.195   5.745  65.963  1.00  0.00    -0.034 C  
HETATM    7  C   UNL     1      -7.526   5.826  66.682  1.00  0.00    -0.084 C  
HETATM    8  C   UNL     1      -7.834  10.072  66.225  1.00  0.00    -0.111 C  
HETATM    9  C   UNL     1      -8.894  11.542  69.058  1.00  0.00     0.139 C  
HETATM   10  C   UNL     1      -8.589   9.459  67.493  1.00  0.00    -0.122 C  
HETATM   11  C   UNL     1      -7.804   7.269  66.531  1.00  0.00    -0.109 C  
HETATM   12  C   UNL     1      -8.992   7.971  67.171  1.00  0.00    -0.150 C  
HETATM   13  C   UNL     1      -9.304   7.257  68.490  1.00  0.00    -0.141 C  
HETATM   14  O   UNL     1      -9.538   5.877  68.329  1.00  0.00    -0.117 OA 
HETATM   15  C   UNL     1     -10.504   7.932  69.130  1.00  0.00    -0.218 C  
HETATM   16  C   UNL     1      -9.918   9.235  69.758  1.00  0.00    -0.213 C  
HETATM   17  C   UNL     1      -8.342   8.045  63.933  1.00  0.00     0.036 C  
HETATM   18  H   UNL     1      -9.733   5.434  69.147  1.00  0.00     0.000 HD 
HETATM   19  C   UNL     1     -10.685   9.756  70.969  1.00  0.00    -0.342 C  
HETATM   20  C   UNL     1      -7.390   7.623  65.089  1.00  0.00    -0.076 C  
HETATM   21  C   UNL     1     -11.945  10.540  70.684  1.00  0.00    -0.357 C  
HETATM   22  O   UNL     1     -13.107   9.754  70.949  1.00  0.00    -0.516 OA 
HETATM   23  C   UNL     1     -12.021  11.222  69.311  1.00  0.00    -0.411 C  
HETATM   24  C   UNL     1     -11.064  10.774  68.136  1.00  0.00    -0.337 C  
HETATM   25  H   UNL     1     -13.899  10.248  70.770  1.00  0.00     0.000 HD 
HETATM   26  C   UNL     1      -9.638  10.270  68.566  1.00  0.00    -0.165 C  
ENDROOT
BRANCH   4  27
HETATM   27  C   UNL     1      -8.223   2.834  62.411  1.00  0.00    -0.073 C  
HETATM   28  O   UNL     1     -10.308   1.683  62.427  1.00  0.00    -0.093 OA 
HETATM   29  C   UNL     1      -9.713   2.869  62.686  1.00  0.00    -0.092 C  
HETATM   30  O   UNL     1     -10.318   3.839  63.093  1.00  0.00    -0.186 OA 
ENDBRANCH   4  27
BRANCH  15  31
HETATM   31  C   UNL     1     -11.386   6.921  69.878  1.00  0.00    -0.321 C  
HETATM   32  C   UNL     1     -10.999   6.547  71.294  1.00  0.00    -0.309 C  
ENDBRANCH  15  31
TORSDOF 2
ENDMDL
MODEL       51
REMARK 921   NORMALIZED FREE ENERGY PREDICTED BY IDOCK:   -4.03 KCAL/MOL
REMARK 922        TOTAL FREE ENERGY PREDICTED BY IDOCK:   -4.69 KCAL/MOL
REMARK 923 INTER-LIGAND FREE ENERGY PREDICTED BY IDOCK:   -4.32 KCAL/MOL
REMARK 924 INTRA-LIGAND FREE ENERGY PREDICTED BY IDOCK:   -0.36 KCAL/MOL
REMARK 927      BINDING AFFINITY PREDICTED BY RF-SCORE:    0.00 PKD
ROOT
HETATM    1  C   UNL     1      -7.890   6.159  69.282  1.00  0.00    -0.104 C  
HETATM    2  C   UNL     1      -7.014   5.110  68.515  1.00  0.00    -0.057 C  
HETATM    3  C   UNL     1      -9.069   7.096  68.275  1.00  0.00    -0.134 C  
HETATM    4  C   UNL     1      -8.501   5.380  70.512  1.00  0.00    -0.122 C  
HETATM    5  C   UNL     1     -10.794   9.491  67.354  1.00  0.00    -0.215 C  
HETATM    6  C   UNL     1      -7.980   7.602  67.343  1.00  0.00    -0.119 C  
HETATM    7  C   UNL     1      -7.392   8.807  68.046  1.00  0.00    -0.088 C  
HETATM    8  C   UNL     1     -10.960  11.140  67.638  1.00  0.00    -0.323 C  
HETATM    9  C   UNL     1     -10.269  14.298  66.714  1.00  0.00    -0.272 C  
HETATM   10  C   UNL     1      -9.600  11.972  67.726  1.00  0.00    -0.193 C  
HETATM   11  C   UNL     1      -8.572   9.696  68.048  1.00  0.00    -0.119 C  
HETATM   12  C   UNL     1      -8.546  11.135  68.542  1.00  0.00    -0.157 C  
HETATM   13  C   UNL     1      -7.151  11.702  68.260  1.00  0.00    -0.078 C  
HETATM   14  O   UNL     1      -6.116  10.934  68.831  1.00  0.00    -0.040 OA 
HETATM   15  C   UNL     1      -7.100  13.130  68.770  1.00  0.00    -0.098 C  
HETATM   16  C   UNL     1      -7.859  13.951  67.681  1.00  0.00    -0.187 C  
HETATM   17  C   UNL     1     -10.624   8.837  69.690  1.00  0.00    -0.220 C  
HETATM   18  H   UNL     1      -5.251  11.286  68.656  1.00  0.00     0.000 HD 
HETATM   19  C   UNL     1      -7.424  15.409  67.567  1.00  0.00    -0.215 C  
HETATM   20  C   UNL     1      -9.773   8.791  68.388  1.00  0.00    -0.175 C  
HETATM   21  C   UNL     1      -7.996  16.364  68.589  1.00  0.00    -0.220 C  
HETATM   22  O   UNL     1      -7.019  16.701  69.576  1.00  0.00    -0.225 OA 
HETATM   23  C   UNL     1      -9.330  15.955  69.228  1.00  0.00    -0.259 C  
HETATM   24  C   UNL     1      -9.834  14.459  69.150  1.00  0.00    -0.040 C  
HETATM   25  H   UNL     1      -7.379  17.303  70.218  1.00  0.00     0.000 HD 
HETATM   26  C   UNL     1      -9.427  13.664  67.856  1.00  0.00    -0.213 C  
ENDROOT
BRANCH   4  27
HETATM   27  C   UNL     1      -7.429   4.836  71.496  1.00  0.00    -0.078 C  
HETATM   28  O   UNL     1      -6.446   2.878  72.428  1.00  0.00    -0.013 OA 
HETATM   29  C   UNL     1      -7.428   3.326  71.615  1.00  0.00    -0.047 C  
HETATM   30  O   UNL     1      -8.213   2.588  71.056  1.00  0.00    -0.052 OA 
ENDBRANCH   4  27
BRANCH  15  31
HETATM   31  C   UNL     1      -5.710  13.483  69.320  1.00  0.00    -0.081 C  
HETATM   32  C   UNL     1      -5.611  13.970  70.751  1.00  0.00    -0.177 C  
ENDBRANCH  15  31
TORSDOF 2
ENDMDL
MODEL       52
REMARK 921   NORMALIZED FREE ENERGY PREDICTED BY IDOCK:   -3.87 KCAL/MOL
REMARK 922        TOTAL FREE ENERGY PREDICTED BY IDOCK:   -4.51 KCAL/MOL
REMARK 923 INTER-LIGAND FREE ENERGY PREDICTED BY IDOCK:   -4.15 KCAL/MOL
REMARK 924 INTRA-LIGAND FREE ENERGY PREDICTED BY IDOCK:   -0.36 KCAL/MOL
REMARK 927      BINDING AFFINITY PREDICTED BY RF-SCORE:    0.00 PKD
ROOT
HETATM    1  C   UNL     1      -9.986  11.222  67.096  1.00  0.00    -0.219 C  
HETATM    2  C   UNL     1     -10.907  11.291  65.831  1.00  0.00    -0.264 C  
HETATM    3  C   UNL     1      -8.499  10.199  66.939  1.00  0.00    -0.126 C  
HETATM    4  C   UNL     1      -9.747  12.722  67.528  1.00  0.00    -0.201 C  
HETATM    5  C   UNL     1      -6.217   8.295  67.794  1.00  0.00    -0.052 C  
HETATM    6  C   UNL     1      -9.300   8.966  66.557  1.00  0.00    -0.252 C  
HETATM    7  C   UNL     1      -9.754   8.370  67.873  1.00  0.00    -0.189 C  
HETATM    8  C   UNL     1      -5.787   7.300  69.080  1.00  0.00    -0.019 C  
HETATM    9  C   UNL     1      -5.697   4.219  70.424  1.00  0.00    -0.013 C  
HETATM   10  C   UNL     1      -6.958   6.397  69.684  1.00  0.00    -0.071 C  
HETATM   11  C   UNL     1      -8.442   8.016  68.452  1.00  0.00    -0.127 C  
HETATM   12  C   UNL     1      -8.274   7.259  69.762  1.00  0.00    -0.130 C  
HETATM   13  C   UNL     1      -9.468   6.311  69.913  1.00  0.00    -0.149 C  
HETATM   14  O   UNL     1     -10.710   6.972  69.848  1.00  0.00    -0.224 OA 
HETATM   15  C   UNL     1      -9.327   5.566  71.227  1.00  0.00    -0.176 C  
HETATM   16  C   UNL     1      -8.255   4.470  70.932  1.00  0.00    -0.088 C  
HETATM   17  C   UNL     1      -6.894  10.197  69.148  1.00  0.00    -0.059 C  
HETATM   18  H   UNL     1     -11.451   6.384  69.942  1.00  0.00     0.000 HD 
HETATM   19  C   UNL     1      -8.377   3.216  71.790  1.00  0.00    -0.073 C  
HETATM   20  C   UNL     1      -7.511   9.200  68.126  1.00  0.00    -0.083 C  
HETATM   21  C   UNL     1      -7.809   3.298  73.189  1.00  0.00    -0.065 C  
HETATM   22  O   UNL     1      -8.852   3.420  74.156  1.00  0.00    -0.087 OA 
HETATM   23  C   UNL     1      -6.703   4.338  73.411  1.00  0.00    -0.053 C  
HETATM   24  C   UNL     1      -6.490   5.518  72.382  1.00  0.00    -0.053 C  
HETATM   25  H   UNL     1      -8.495   3.472  75.036  1.00  0.00     0.000 HD 
HETATM   26  C   UNL     1      -6.822   5.189  70.881  1.00  0.00    -0.047 C  
ENDROOT
BRANCH   4  27
HETATM   27  C   UNL     1     -11.052  13.468  67.923  1.00  0.00    -0.288 C  
HETATM   28  O   UNL     1     -12.724  13.726  69.599  1.00  0.00    -0.116 OA 
HETATM   29  C   UNL     1     -11.627  13.017  69.251  1.00  0.00    -0.310 C  
HETATM   30  O   UNL     1     -11.171  12.124  69.934  1.00  0.00    -0.095 OA 
ENDBRANCH   4  27
BRANCH  15  31
HETATM   31  C   UNL     1     -10.695   5.299  71.873  1.00  0.00    -0.252 C  
HETATM   32  C   UNL     1     -11.004   5.973  73.193  1.00  0.00    -0.269 C  
ENDBRANCH  15  31
TORSDOF 2
ENDMDL
MODEL       53
REMARK 921   NORMALIZED FREE ENERGY PREDICTED BY IDOCK:   -3.80 KCAL/MOL
REMARK 922        TOTAL FREE ENERGY PREDICTED BY IDOCK:   -4.43 KCAL/MOL
REMARK 923 INTER-LIGAND FREE ENERGY PREDICTED BY IDOCK:   -4.09 KCAL/MOL
REMARK 924 INTRA-LIGAND FREE ENERGY PREDICTED BY IDOCK:   -0.34 KCAL/MOL
REMARK 927      BINDING AFFINITY PREDICTED BY RF-SCORE:    0.00 PKD
ROOT
HETATM    1  C   UNL     1      -7.822  13.635  67.355  1.00  0.00    -0.162 C  
HETATM    2  C   UNL     1      -8.862  14.641  66.751  1.00  0.00    -0.269 C  
HETATM    3  C   UNL     1      -7.652  12.054  66.487  1.00  0.00     0.197 C  
HETATM    4  C   UNL     1      -6.492  14.465  67.542  1.00  0.00    -0.066 C  
HETATM    5  C   UNL     1      -7.169   9.024  66.104  1.00  0.00    -0.090 C  
HETATM    6  C   UNL     1      -9.132  11.737  66.624  1.00  0.00    -0.194 C  
HETATM    7  C   UNL     1      -9.277  11.136  68.006  1.00  0.00    -0.159 C  
HETATM    8  C   UNL     1      -7.046   7.617  67.016  1.00  0.00    -0.084 C  
HETATM    9  C   UNL     1      -8.512   4.846  68.234  1.00  0.00    -0.098 C  
HETATM   10  C   UNL     1      -8.131   7.441  68.175  1.00  0.00    -0.124 C  
HETATM   11  C   UNL     1      -8.466   9.913  67.833  1.00  0.00    -0.121 C  
HETATM   12  C   UNL     1      -8.336   8.828  68.892  1.00  0.00    -0.127 C  
HETATM   13  C   UNL     1      -9.651   8.780  69.677  1.00  0.00    -0.171 C  
HETATM   14  O   UNL     1     -10.003  10.022  70.242  1.00  0.00    -0.352 OA 
HETATM   15  C   UNL     1      -9.528   7.718  70.754  1.00  0.00    -0.163 C  
HETATM   16  C   UNL     1      -9.720   6.372  69.987  1.00  0.00    -0.183 C  
HETATM   17  C   UNL     1      -5.760  10.391  67.539  1.00  0.00    -0.044 C  
HETATM   18  H   UNL     1     -10.818   9.992  70.730  1.00  0.00     0.000 HD 
HETATM   19  C   UNL     1     -10.289   5.236  70.831  1.00  0.00    -0.303 C  
HETATM   20  C   UNL     1      -7.228  10.348  67.025  1.00  0.00    -0.093 C  
HETATM   21  C   UNL     1      -9.313   4.508  71.727  1.00  0.00    -0.142 C  
HETATM   22  O   UNL     1      -9.482   4.898  73.090  1.00  0.00    -0.130 OA 
HETATM   23  C   UNL     1      -7.839   4.555  71.302  1.00  0.00    -0.085 C  
HETATM   24  C   UNL     1      -7.334   5.638  70.268  1.00  0.00    -0.076 C  
HETATM   25  H   UNL     1      -8.869   4.440  73.653  1.00  0.00     0.000 HD 
HETATM   26  C   UNL     1      -8.371   6.078  69.172  1.00  0.00    -0.114 C  
ENDROOT
BRANCH   4  27
HETATM   27  C   UNL     1      -6.638  15.657  68.529  1.00  0.00    -0.114 C  
HETATM   28  O   UNL     1      -6.021  16.513  70.663  1.00  0.00     0.014 OA 
HETATM   29  C   UNL     1      -5.931  15.437  69.850  1.00  0.00    -0.146 C  
HETATM   30  O   UNL     1      -5.348  14.419  70.162  1.00  0.00    -0.094 OA 
ENDBRANCH   4  27
BRANCH  15  31
HETATM   31  C   UNL     1     -10.293   8.116  72.026  1.00  0.00    -0.320 C  
HETATM   32  C   UNL     1      -9.558   8.051  73.349  1.00  0.00    -0.277 C  
ENDBRANCH  15  31
TORSDOF 2
ENDMDL
MODEL       54
REMARK 921   NORMALIZED FREE ENERGY PREDICTED BY IDOCK:   -3.70 KCAL/MOL
REMARK 922        TOTAL FREE ENERGY PREDICTED BY IDOCK:   -4.32 KCAL/MOL
REMARK 923 INTER-LIGAND FREE ENERGY PREDICTED BY IDOCK:   -4.00 KCAL/MOL
REMARK 924 INTRA-LIGAND FREE ENERGY PREDICTED BY IDOCK:   -0.32 KCAL/MOL
REMARK 927      BINDING AFFINITY PREDICTED BY RF-SCORE:    0.00 PKD
ROOT
HETATM    1  C   UNL     1      -8.048   9.616  66.491  1.00  0.00    -0.119 C  
HETATM    2  C   UNL     1      -6.886  10.605  66.129  1.00  0.00    -0.135 C  
HETATM    3  C   UNL     1      -8.965   9.992  68.007  1.00  0.00    -0.128 C  
HETATM    4  C   UNL     1      -8.913   9.484  65.177  1.00  0.00    -0.253 C  
HETATM    5  C   UNL     1     -10.572   9.471  70.597  1.00  0.00    -0.374 C  
HETATM    6  C   UNL     1      -7.707   9.975  68.858  1.00  0.00    -0.089 C  
HETATM    7  C   UNL     1      -7.473   8.514  69.182  1.00  0.00    -0.088 C  
HETATM    8  C   UNL     1     -10.976   8.203  71.625  1.00  0.00    -0.306 C  
HETATM    9  C   UNL     1     -10.359   6.489  74.451  1.00  0.00    -0.242 C  
HETATM   10  C   UNL     1      -9.790   7.198  71.990  1.00  0.00    -0.174 C  
HETATM   11  C   UNL     1      -8.684   8.239  69.983  1.00  0.00    -0.133 C  
HETATM   12  C   UNL     1      -8.945   6.918  70.691  1.00  0.00    -0.151 C  
HETATM   13  C   UNL     1      -7.592   6.333  71.109  1.00  0.00    -0.094 C  
HETATM   14  O   UNL     1      -6.700   6.179  70.029  1.00  0.00    -0.051 OA 
HETATM   15  C   UNL     1      -7.835   5.002  71.796  1.00  0.00    -0.108 C  
HETATM   16  C   UNL     1      -8.318   5.395  73.228  1.00  0.00    -0.117 C  
HETATM   17  C   UNL     1     -11.032   8.284  68.525  1.00  0.00     0.163 C  
HETATM   18  H   UNL     1      -5.861   5.816  70.287  1.00  0.00     0.000 HD 
HETATM   19  C   UNL     1      -8.015   4.359  74.305  1.00  0.00    -0.092 C  
HETATM   20  C   UNL     1      -9.835   8.960  69.255  1.00  0.00    -0.176 C  
HETATM   21  C   UNL     1      -8.953   3.176  74.387  1.00  0.00    -0.078 C  
HETATM   22  O   UNL     1      -8.347   2.005  73.837  1.00  0.00    -0.056 OA 
HETATM   23  C   UNL     1     -10.368   3.395  73.836  1.00  0.00    -0.232 C  
HETATM   24  C   UNL     1     -10.677   4.606  72.869  1.00  0.00    -0.295 C  
HETATM   25  H   UNL     1      -8.937   1.262  73.889  1.00  0.00     0.000 HD 
HETATM   26  C   UNL     1      -9.831   5.910  73.109  1.00  0.00    -0.176 C  
ENDROOT
BRANCH   4  27
HETATM   27  C   UNL     1      -8.129   8.886  63.976  1.00  0.00    -0.161 C  
HETATM   28  O   UNL     1      -7.359   6.880  62.949  1.00  0.00    -0.062 OA 
HETATM   29  C   UNL     1      -7.989   7.379  64.036  1.00  0.00    -0.091 C  
HETATM   30  O   UNL     1      -8.387   6.683  64.947  1.00  0.00    -0.120 OA 
ENDBRANCH   4  27
BRANCH  15  31
HETATM   31  C   UNL     1      -6.709   4.001  71.497  1.00  0.00    -0.026 C  
HETATM   32  C   UNL     1      -7.092   2.634  70.967  1.00  0.00    -0.033 C  
ENDBRANCH  15  31
TORSDOF 2
ENDMDL
MODEL       55
REMARK 921   NORMALIZED FREE ENERGY PREDICTED BY IDOCK:   -3.44 KCAL/MOL
REMARK 922        TOTAL FREE ENERGY PREDICTED BY IDOCK:   -4.03 KCAL/MOL
REMARK 923 INTER-LIGAND FREE ENERGY PREDICTED BY IDOCK:   -4.15 KCAL/MOL
REMARK 924 INTRA-LIGAND FREE ENERGY PREDICTED BY IDOCK:    0.12 KCAL/MOL
REMARK 927      BINDING AFFINITY PREDICTED BY RF-SCORE:    0.00 PKD
ROOT
HETATM    1  C   UNL     1      -6.732   7.423  65.289  1.00  0.00    -0.047 C  
HETATM    2  C   UNL     1      -5.224   7.022  65.425  1.00  0.00    -0.027 C  
HETATM    3  C   UNL     1      -7.193   9.027  65.994  1.00  0.00    -0.093 C  
HETATM    4  C   UNL     1      -7.089   7.213  63.765  1.00  0.00    -0.068 C  
HETATM    5  C   UNL     1      -8.951  11.156  67.387  1.00  0.00    -0.139 C  
HETATM    6  C   UNL     1      -6.662   8.656  67.369  1.00  0.00    -0.063 C  
HETATM    7  C   UNL     1      -7.783   7.876  68.023  1.00  0.00    -0.125 C  
HETATM    8  C   UNL     1     -10.387  11.268  68.254  1.00  0.00    -0.200 C  
HETATM    9  C   UNL     1     -11.938  11.430  71.233  1.00  0.00     0.117 C  
HETATM   10  C   UNL     1     -10.620  10.145  69.365  1.00  0.00    -0.261 C  
HETATM   11  C   UNL     1      -8.813   8.934  68.097  1.00  0.00    -0.134 C  
HETATM   12  C   UNL     1     -10.159   8.755  68.784  1.00  0.00    -0.213 C  
HETATM   13  C   UNL     1      -9.965   7.781  69.951  1.00  0.00    -0.191 C  
HETATM   14  O   UNL     1      -9.413   6.547  69.554  1.00  0.00    -0.146 OA 
HETATM   15  C   UNL     1     -11.305   7.574  70.632  1.00  0.00    -0.301 C  
HETATM   16  C   UNL     1     -11.498   8.861  71.494  1.00  0.00    -0.391 C  
HETATM   17  C   UNL     1      -9.814   9.703  65.638  1.00  0.00    -0.369 C  
HETATM   18  H   UNL     1      -9.293   5.942  70.278  1.00  0.00     0.000 HD 
HETATM   19  C   UNL     1     -12.364   8.670  72.734  1.00  0.00    -0.118 C  
HETATM   20  C   UNL     1      -8.731   9.687  66.755  1.00  0.00    -0.144 C  
HETATM   21  C   UNL     1     -13.860   8.672  72.519  1.00  0.00    -0.306 C  
HETATM   22  O   UNL     1     -14.389   7.347  72.593  1.00  0.00    -0.395 OA 
HETATM   23  C   UNL     1     -14.364   9.415  71.274  1.00  0.00     0.161 C  
HETATM   24  C   UNL     1     -13.377   9.764  70.091  1.00  0.00     0.675 C  
HETATM   25  H   UNL     1     -15.330   7.349  72.458  1.00  0.00     0.000 HD 
HETATM   26  C   UNL     1     -11.888  10.060  70.503  1.00  0.00    -0.387 C  
ENDROOT
BRANCH   4  27
HETATM   27  C   UNL     1      -6.938   5.741  63.291  1.00  0.00    -0.041 C  
HETATM   28  O   UNL     1      -7.895   3.561  63.349  1.00  0.00    -0.067 OA 
HETATM   29  C   UNL     1      -8.015   4.820  63.827  1.00  0.00    -0.095 C  
HETATM   30  O   UNL     1      -8.888   5.154  64.600  1.00  0.00    -0.147 OA 
ENDBRANCH   4  27
BRANCH  15  31
HETATM   31  C   UNL     1     -11.452   6.139  71.159  1.00  0.00    -0.314 C  
HETATM   32  C   UNL     1     -11.076   5.867  72.601  1.00  0.00    -0.322 C  
ENDBRANCH  15  31
TORSDOF 2
ENDMDL
MODEL       56
REMARK 921   NORMALIZED FREE ENERGY PREDICTED BY IDOCK:   -3.23 KCAL/MOL
REMARK 922        TOTAL FREE ENERGY PREDICTED BY IDOCK:   -3.79 KCAL/MOL
REMARK 923 INTER-LIGAND FREE ENERGY PREDICTED BY IDOCK:   -3.37 KCAL/MOL
REMARK 924 INTRA-LIGAND FREE ENERGY PREDICTED BY IDOCK:   -0.42 KCAL/MOL
REMARK 927      BINDING AFFINITY PREDICTED BY RF-SCORE:    0.00 PKD
ROOT
HETATM    1  C   UNL     1      -6.725   6.207  64.360  1.00  0.00    -0.042 C  
HETATM    2  C   UNL     1      -5.280   5.723  64.725  1.00  0.00    -0.010 C  
HETATM    3  C   UNL     1      -6.832   7.788  63.481  1.00  0.00    -0.063 C  
HETATM    4  C   UNL     1      -7.416   4.977  63.652  1.00  0.00    -0.056 C  
HETATM    5  C   UNL     1      -7.993  10.519  62.612  1.00  0.00    -0.170 C  
HETATM    6  C   UNL     1      -6.073   8.527  64.570  1.00  0.00    -0.065 C  
HETATM    7  C   UNL     1      -7.116   8.864  65.614  1.00  0.00    -0.084 C  
HETATM    8  C   UNL     1      -9.190  11.609  63.065  1.00  0.00    -0.108 C  
HETATM    9  C   UNL     1     -10.050  14.412  64.712  1.00  0.00    -0.138 C  
HETATM   10  C   UNL     1      -9.317  11.894  64.631  1.00  0.00     0.161 C  
HETATM   11  C   UNL     1      -7.973   9.774  64.827  1.00  0.00    -0.138 C  
HETATM   12  C   UNL     1      -9.156  10.534  65.408  1.00  0.00    -0.215 C  
HETATM   13  C   UNL     1      -8.839  10.847  66.874  1.00  0.00    -0.142 C  
HETATM   14  O   UNL     1      -8.534   9.698  67.631  1.00  0.00    -0.124 OA 
HETATM   15  C   UNL     1     -10.020  11.584  67.476  1.00  0.00    -0.207 C  
HETATM   16  C   UNL     1      -9.873  13.043  66.938  1.00  0.00    -0.240 C  
HETATM   17  C   UNL     1      -9.371   8.524  62.796  1.00  0.00     1.344 C  
HETATM   18  H   UNL     1      -8.337   9.891  68.540  1.00  0.00     0.000 HD 
HETATM   19  C   UNL     1     -10.476  14.115  67.840  1.00  0.00    -0.237 C  
HETATM   20  C   UNL     1      -8.087   9.132  63.430  1.00  0.00    -0.162 C  
HETATM   21  C   UNL     1     -11.973  14.306  67.753  1.00  0.00    -0.349 C  
HETATM   22  O   UNL     1     -12.628  13.734  68.886  1.00  0.00    -0.286 OA 
HETATM   23  C   UNL     1     -12.636  13.875  66.437  1.00  0.00    -0.314 C  
HETATM   24  C   UNL     1     -11.884  12.909  65.437  1.00  0.00    -0.444 C  
HETATM   25  H   UNL     1     -13.569  13.855  68.831  1.00  0.00     0.000 HD 
HETATM   26  C   UNL     1     -10.318  13.043  65.398  1.00  0.00    -0.313 C  
ENDROOT
BRANCH   4  27
HETATM   27  C   UNL     1      -7.544   3.727  64.567  1.00  0.00    -0.080 C  
HETATM   28  O   UNL     1      -8.862   2.653  66.234  1.00  0.00    -0.124 OA 
HETATM   29  C   UNL     1      -8.740   3.779  65.496  1.00  0.00    -0.118 C  
HETATM   30  O   UNL     1      -9.507   4.716  65.584  1.00  0.00    -0.156 OA 
ENDBRANCH   4  27
BRANCH  15  31
HETATM   31  C   UNL     1     -10.224  11.213  68.953  1.00  0.00    -0.209 C  
HETATM   32  C   UNL     1     -11.417  10.354  69.314  1.00  0.00    -0.281 C  
ENDBRANCH  15  31
TORSDOF 2
ENDMDL
MODEL       57
REMARK 921   NORMALIZED FREE ENERGY PREDICTED BY IDOCK:   -2.81 KCAL/MOL
REMARK 922        TOTAL FREE ENERGY PREDICTED BY IDOCK:   -3.32 KCAL/MOL
REMARK 923 INTER-LIGAND FREE ENERGY PREDICTED BY IDOCK:   -3.49 KCAL/MOL
REMARK 924 INTRA-LIGAND FREE ENERGY PREDICTED BY IDOCK:    0.16 KCAL/MOL
REMARK 927      BINDING AFFINITY PREDICTED BY RF-SCORE:    0.00 PKD
ROOT
HETATM    1  C   UNL     1      -7.837  16.719  67.643  1.00  0.00    -0.189 C  
HETATM    2  C   UNL     1      -7.539  17.403  66.265  1.00  0.00    -0.348 C  
HETATM    3  C   UNL     1      -6.495  15.719  68.338  1.00  0.00    -0.113 C  
HETATM    4  C   UNL     1      -8.393  17.867  68.573  1.00  0.00    -0.305 C  
HETATM    5  C   UNL     1      -5.134  13.423  69.898  1.00  0.00    -0.084 C  
HETATM    6  C   UNL     1      -6.407  14.845  67.098  1.00  0.00     0.491 C  
HETATM    7  C   UNL     1      -7.485  13.798  67.280  1.00  0.00    -0.048 C  
HETATM    8  C   UNL     1      -5.516  11.943  70.600  1.00  0.00    -0.156 C  
HETATM    9  C   UNL     1      -5.601   8.590  70.367  1.00  0.00    -0.027 C  
HETATM   10  C   UNL     1      -6.462  10.987  69.739  1.00  0.00    -0.137 C  
HETATM   11  C   UNL     1      -6.963  13.108  68.478  1.00  0.00    -0.103 C  
HETATM   12  C   UNL     1      -7.593  11.858  69.075  1.00  0.00     0.029 C  
HETATM   13  C   UNL     1      -8.216  11.054  67.929  1.00  0.00    -0.119 C  
HETATM   14  O   UNL     1      -9.145  11.797  67.173  1.00  0.00    -0.166 OA 
HETATM   15  C   UNL     1      -8.871   9.815  68.512  1.00  0.00    -0.121 C  
HETATM   16  C   UNL     1      -7.677   8.848  68.790  1.00  0.00    -0.096 C  
HETATM   17  C   UNL     1      -7.049  14.634  70.781  1.00  0.00     0.769 C  
HETATM   18  H   UNL     1      -9.532  11.299  66.463  1.00  0.00     0.000 HD 
HETATM   19  C   UNL     1      -8.038   7.367  68.747  1.00  0.00    -0.128 C  
HETATM   20  C   UNL     1      -6.445  14.224  69.407  1.00  0.00    -0.125 C  
HETATM   21  C   UNL     1      -8.699   6.797  69.981  1.00  0.00    -0.141 C  
HETATM   22  O   UNL     1     -10.097   6.601  69.767  1.00  0.00    -0.177 OA 
HETATM   23  C   UNL     1      -8.424   7.536  71.298  1.00  0.00    -0.116 C  
HETATM   24  C   UNL     1      -7.863   9.013  71.291  1.00  0.00    -0.128 C  
HETATM   25  H   UNL     1     -10.513   6.243  70.543  1.00  0.00     0.000 HD 
HETATM   26  C   UNL     1      -6.911   9.380  70.094  1.00  0.00    -0.077 C  
ENDROOT
BRANCH   4  27
HETATM   27  C   UNL     1      -9.715  18.499  68.054  1.00  0.00    -0.354 C  
HETATM   28  O   UNL     1     -10.674  20.341  66.890  1.00  0.00    -0.223 OA 
HETATM   29  C   UNL     1      -9.519  19.845  67.387  1.00  0.00    -0.364 C  
HETATM   30  O   UNL     1      -8.457  20.427  67.302  1.00  0.00    -0.340 OA 
ENDBRANCH   4  27
BRANCH  15  31
HETATM   31  C   UNL     1     -10.143   9.434  67.739  1.00  0.00    -0.246 C  
HETATM   32  C   UNL     1      -9.983   8.728  66.408  1.00  0.00    -0.346 C  
ENDBRANCH  15  31
TORSDOF 2
ENDMDL
MODEL       58
REMARK 921   NORMALIZED FREE ENERGY PREDICTED BY IDOCK:   -2.73 KCAL/MOL
REMARK 922        TOTAL FREE ENERGY PREDICTED BY IDOCK:   -3.23 KCAL/MOL
REMARK 923 INTER-LIGAND FREE ENERGY PREDICTED BY IDOCK:   -3.89 KCAL/MOL
REMARK 924 INTRA-LIGAND FREE ENERGY PREDICTED BY IDOCK:    0.65 KCAL/MOL
REMARK 927      BINDING AFFINITY PREDICTED BY RF-SCORE:    0.00 PKD
ROOT
HETATM    1  C   UNL     1     -10.311  16.353  68.249  1.00  0.00    -0.279 C  
HETATM    2  C   UNL     1     -10.077  17.386  69.404  1.00  0.00    -0.075 C  
HETATM    3  C   UNL     1     -11.348  14.925  68.660  1.00  0.00    -0.309 C  
HETATM    4  C   UNL     1     -10.777  17.208  67.006  1.00  0.00    -0.149 C  
HETATM    5  C   UNL     1     -12.377  12.010  68.603  1.00  0.00     0.319 C  
HETATM    6  C   UNL     1     -10.458  14.522  69.824  1.00  0.00     0.049 C  
HETATM    7  C   UNL     1      -9.337  13.719  69.199  1.00  0.00     0.370 C  
HETATM    8  C   UNL     1     -11.907  10.492  68.053  1.00  0.00     0.324 C  
HETATM    9  C   UNL     1     -10.504   7.507  68.708  1.00  0.00    -0.212 C  
HETATM   10  C   UNL     1     -10.382  10.098  68.315  1.00  0.00    -0.215 C  
HETATM   11  C   UNL     1     -10.111  12.574  68.677  1.00  0.00    -0.139 C  
HETATM   12  C   UNL     1      -9.477  11.354  68.025  1.00  0.00    -0.181 C  
HETATM   13  C   UNL     1      -8.110  11.129  68.679  1.00  0.00    -0.150 C  
HETATM   14  O   UNL     1      -7.269  12.257  68.603  1.00  0.00    -0.098 OA 
HETATM   15  C   UNL     1      -7.455   9.928  68.023  1.00  0.00    -0.085 C  
HETATM   16  C   UNL     1      -8.173   8.702  68.667  1.00  0.00    -0.121 C  
HETATM   17  C   UNL     1     -11.789  13.217  66.576  1.00  0.00    -0.456 C  
HETATM   18  H   UNL     1      -6.421  12.118  69.008  1.00  0.00     0.000 HD 
HETATM   19  C   UNL     1      -7.334   7.429  68.717  1.00  0.00    -0.095 C  
HETATM   20  C   UNL     1     -11.397  13.180  68.081  1.00  0.00    -0.328 C  
HETATM   21  C   UNL     1      -7.253   6.625  67.440  1.00  0.00    -0.086 C  
HETATM   22  O   UNL     1      -5.987   6.803  66.803  1.00  0.00    -0.023 OA 
HETATM   23  C   UNL     1      -8.415   6.802  66.453  1.00  0.00    -0.126 C  
HETATM   24  C   UNL     1      -9.382   8.047  66.564  1.00  0.00    -0.261 C  
HETATM   25  H   UNL     1      -5.936   6.297  66.000  1.00  0.00     0.000 HD 
HETATM   26  C   UNL     1      -9.634   8.593  68.016  1.00  0.00    -0.168 C  
ENDROOT
BRANCH   4  27
HETATM   27  C   UNL     1      -9.714  18.234  66.526  1.00  0.00    -0.343 C  
HETATM   28  O   UNL     1      -7.506  18.508  65.676  1.00  0.00    -0.509 OA 
HETATM   29  C   UNL     1      -8.390  17.601  66.149  1.00  0.00    -0.148 C  
HETATM   30  O   UNL     1      -8.134  16.419  66.255  1.00  0.00    -0.312 OA 
ENDBRANCH   4  27
BRANCH  15  31
HETATM   31  C   UNL     1      -5.931  10.099  67.930  1.00  0.00    -0.041 C  
HETATM   32  C   UNL     1      -5.198  10.635  69.143  1.00  0.00    -0.041 C  
ENDBRANCH  15  31
TORSDOF 2
ENDMDL
MODEL       59
REMARK 921   NORMALIZED FREE ENERGY PREDICTED BY IDOCK:   -2.42 KCAL/MOL
REMARK 922        TOTAL FREE ENERGY PREDICTED BY IDOCK:   -2.89 KCAL/MOL
REMARK 923 INTER-LIGAND FREE ENERGY PREDICTED BY IDOCK:   -4.76 KCAL/MOL
REMARK 924 INTRA-LIGAND FREE ENERGY PREDICTED BY IDOCK:    1.87 KCAL/MOL
REMARK 927      BINDING AFFINITY PREDICTED BY RF-SCORE:    0.00 PKD
ROOT
HETATM    1  C   UNL     1      -9.156  15.313  67.493  1.00  0.00    -0.189 C  
HETATM    2  C   UNL     1      -9.898  15.666  66.158  1.00  0.00    -0.340 C  
HETATM    3  C   UNL     1      -7.849  14.065  67.368  1.00  0.00    -0.188 C  
HETATM    4  C   UNL     1      -8.728  16.699  68.116  1.00  0.00    -0.201 C  
HETATM    5  C   UNL     1      -6.028  11.717  68.221  1.00  0.00    -0.045 C  
HETATM    6  C   UNL     1      -8.791  13.035  66.767  1.00  0.00    -0.144 C  
HETATM    7  C   UNL     1      -9.489  12.404  67.954  1.00  0.00    -0.198 C  
HETATM    8  C   UNL     1      -5.922  10.543  69.421  1.00  0.00    -0.039 C  
HETATM    9  C   UNL     1      -6.497   7.379  70.402  1.00  0.00    -0.039 C  
HETATM   10  C   UNL     1      -7.288   9.806  69.797  1.00  0.00    -0.116 C  
HETATM   11  C   UNL     1      -8.330  11.771  68.617  1.00  0.00    -0.079 C  
HETATM   12  C   UNL     1      -8.444  10.874  69.841  1.00  0.00     0.736 C  
HETATM   13  C   UNL     1      -9.787  10.140  69.761  1.00  0.00    -0.208 C  
HETATM   14  O   UNL     1     -10.888  11.012  69.649  1.00  0.00    -0.337 OA 
HETATM   15  C   UNL     1      -9.926   9.258  70.989  1.00  0.00    -0.364 C  
HETATM   16  C   UNL     1      -9.021   8.025  70.677  1.00  0.00    -0.148 C  
HETATM   17  C   UNL     1      -6.539  13.569  69.711  1.00  0.00     0.011 C  
HETATM   18  H   UNL     1     -11.720  10.557  69.600  1.00  0.00     0.000 HD 
HETATM   19  C   UNL     1      -9.448   6.734  71.369  1.00  0.00    -0.160 C  
HETATM   20  C   UNL     1      -7.186  12.799  68.524  1.00  0.00    -0.114 C  
HETATM   21  C   UNL     1      -9.044   6.580  72.817  1.00  0.00    -0.136 C  
HETATM   22  O   UNL     1     -10.160   6.790  73.684  1.00  0.00    -0.231 OA 
HETATM   23  C   UNL     1      -7.816   7.383  73.268  1.00  0.00    -0.126 C  
HETATM   24  C   UNL     1      -7.292   8.601  72.408  1.00  0.00    -0.020 C  
HETATM   25  H   UNL     1      -9.905   6.693  74.595  1.00  0.00     0.000 HD 
HETATM   26  C   UNL     1      -7.494   8.482  70.853  1.00  0.00    -0.074 C  
ENDROOT
BRANCH   4  27
HETATM   27  C   UNL     1      -9.930  17.621  68.462  1.00  0.00    -0.368 C  
HETATM   28  O   UNL     1     -11.098  19.612  67.875  1.00  0.00    -0.173 OA 
HETATM   29  C   UNL     1     -10.009  18.861  67.595  1.00  0.00    -0.349 C  
HETATM   30  O   UNL     1      -9.197  19.164  66.745  1.00  0.00    -0.296 OA 
ENDBRANCH   4  27
BRANCH  15  31
HETATM   31  C   UNL     1     -11.386   9.174  71.459  1.00  0.00    -0.439 C  
HETATM   32  C   UNL     1     -11.839   7.908  72.155  1.00  0.00    -0.384 C  
ENDBRANCH  15  31
TORSDOF 2
ENDMDL
MODEL       60
REMARK 921   NORMALIZED FREE ENERGY PREDICTED BY IDOCK:   -1.76 KCAL/MOL
REMARK 922        TOTAL FREE ENERGY PREDICTED BY IDOCK:   -2.15 KCAL/MOL
REMARK 923 INTER-LIGAND FREE ENERGY PREDICTED BY IDOCK:   -2.03 KCAL/MOL
REMARK 924 INTRA-LIGAND FREE ENERGY PREDICTED BY IDOCK:   -0.12 KCAL/MOL
REMARK 927      BINDING AFFINITY PREDICTED BY RF-SCORE:    0.00 PKD
ROOT
HETATM    1  C   UNL     1      -7.119   7.890  65.210  1.00  0.00    -0.060 C  
HETATM    2  C   UNL     1      -5.627   7.475  64.969  1.00  0.00    -0.033 C  
HETATM    3  C   UNL     1      -7.776   9.166  64.105  1.00  0.00    -0.121 C  
HETATM    4  C   UNL     1      -7.931   6.537  65.259  1.00  0.00    -0.119 C  
HETATM    5  C   UNL     1      -9.472  11.588  63.200  1.00  0.00    -0.332 C  
HETATM    6  C   UNL     1      -6.680  10.152  64.475  1.00  0.00    -0.117 C  
HETATM    7  C   UNL     1      -7.155  10.803  65.757  1.00  0.00    -0.053 C  
HETATM    8  C   UNL     1     -10.431  12.803  63.857  1.00  0.00    -0.402 C  
HETATM    9  C   UNL     1     -10.715  15.982  64.916  1.00  0.00    -0.339 C  
HETATM   10  C   UNL     1      -9.852  13.517  65.164  1.00  0.00    -0.103 C  
HETATM   11  C   UNL     1      -8.364  11.488  65.255  1.00  0.00     0.497 C  
HETATM   12  C   UNL     1      -9.218  12.421  66.100  1.00  0.00    -0.103 C  
HETATM   13  C   UNL     1      -8.297  13.118  67.107  1.00  0.00    -0.140 C  
HETATM   14  O   UNL     1      -7.565  12.214  67.904  1.00  0.00    -0.104 OA 
HETATM   15  C   UNL     1      -9.138  14.035  67.975  1.00  0.00    -0.190 C  
HETATM   16  C   UNL     1      -9.401  15.280  67.070  1.00  0.00    -0.238 C  
HETATM   17  C   UNL     1     -10.405   9.773  64.522  1.00  0.00     1.037 C  
HETATM   18  H   UNL     1      -6.994  12.646  68.528  1.00  0.00     0.000 HD 
HETATM   19  C   UNL     1      -9.626  16.582  67.833  1.00  0.00    -0.233 C  
HETATM   20  C   UNL     1      -9.041  10.487  64.298  1.00  0.00    -0.256 C  
HETATM   21  C   UNL     1     -11.007  16.794  68.410  1.00  0.00    -0.325 C  
HETATM   22  O   UNL     1     -11.008  16.584  69.823  1.00  0.00    -0.344 OA 
HETATM   23  C   UNL     1     -12.153  16.038  67.723  1.00  0.00     0.737 C  
HETATM   24  C   UNL     1     -11.851  14.806  66.780  1.00  0.00    -0.272 C  
HETATM   25  H   UNL     1     -11.877  16.718  70.185  1.00  0.00     0.000 HD 
HETATM   26  C   UNL     1     -10.500  14.868  65.978  1.00  0.00    -0.326 C  
ENDROOT
BRANCH   4  27
HETATM   27  C   UNL     1      -7.500   5.596  66.418  1.00  0.00    -0.087 C  
HETATM   28  O   UNL     1      -7.976   4.890  68.642  1.00  0.00    -0.083 OA 
HETATM   29  C   UNL     1      -8.332   5.763  67.673  1.00  0.00    -0.104 C  
HETATM   30  O   UNL     1      -9.217   6.582  67.812  1.00  0.00    -0.116 OA 
ENDBRANCH   4  27
BRANCH  15  31
HETATM   31  C   UNL     1      -8.603  14.097  69.413  1.00  0.00     0.475 C  
HETATM   32  C   UNL     1      -7.410  14.988  69.693  1.00  0.00    -0.181 C  
ENDBRANCH  15  31
TORSDOF 2
ENDMDL
MODEL       61
REMARK 921   NORMALIZED FREE ENERGY PREDICTED BY IDOCK:   -1.66 KCAL/MOL
REMARK 922        TOTAL FREE ENERGY PREDICTED BY IDOCK:   -2.05 KCAL/MOL
REMARK 923 INTER-LIGAND FREE ENERGY PREDICTED BY IDOCK:   -3.10 KCAL/MOL
REMARK 924 INTRA-LIGAND FREE ENERGY PREDICTED BY IDOCK:    1.05 KCAL/MOL
REMARK 927      BINDING AFFINITY PREDICTED BY RF-SCORE:    0.00 PKD
ROOT
HETATM    1  C   UNL     1     -10.030   6.221  71.083  1.00  0.00    -0.210 C  
HETATM    2  C   UNL     1      -9.514   4.843  70.545  1.00  0.00    -0.232 C  
HETATM    3  C   UNL     1     -11.000   7.214  69.919  1.00  0.00    -0.278 C  
HETATM    4  C   UNL     1     -10.728   5.902  72.463  1.00  0.00    -0.274 C  
HETATM    5  C   UNL     1     -12.116   9.743  68.534  1.00  0.00     1.634 C  
HETATM    6  C   UNL     1      -9.891   7.210  68.880  1.00  0.00    -0.156 C  
HETATM    7  C   UNL     1      -8.962   8.331  69.295  1.00  0.00    -0.147 C  
HETATM    8  C   UNL     1     -11.830  11.399  68.458  1.00  0.00    -0.364 C  
HETATM    9  C   UNL     1     -10.420  14.000  66.860  1.00  0.00    -0.276 C  
HETATM   10  C   UNL     1     -10.298  11.837  68.339  1.00  0.00    -0.223 C  
HETATM   11  C   UNL     1      -9.870   9.484  69.126  1.00  0.00    -0.176 C  
HETATM   12  C   UNL     1      -9.437  10.932  69.298  1.00  0.00    -0.048 C  
HETATM   13  C   UNL     1      -7.968  11.036  68.874  1.00  0.00    -0.138 C  
HETATM   14  O   UNL     1      -7.126  10.153  69.578  1.00  0.00    -0.074 OA 
HETATM   15  C   UNL     1      -7.514  12.472  69.063  1.00  0.00     0.088 C  
HETATM   16  C   UNL     1      -8.115  13.226  67.835  1.00  0.00    -0.159 C  
HETATM   17  C   UNL     1     -11.944   9.558  70.952  1.00  0.00    -0.372 C  
HETATM   18  H   UNL     1      -6.215  10.217  69.316  1.00  0.00     0.000 HD 
HETATM   19  C   UNL     1      -7.330  14.460  67.402  1.00  0.00    -0.167 C  
HETATM   20  C   UNL     1     -11.234   9.022  69.676  1.00  0.00     0.007 C  
HETATM   21  C   UNL     1      -7.558  15.721  68.204  1.00  0.00    -0.124 C  
HETATM   22  O   UNL     1      -6.457  15.978  69.076  1.00  0.00    -0.130 OA 
HETATM   23  C   UNL     1      -8.901  15.822  68.940  1.00  0.00    -0.220 C  
HETATM   24  C   UNL     1      -9.777  14.532  69.196  1.00  0.00    -0.062 C  
HETATM   25  H   UNL     1      -6.600  16.771  69.580  1.00  0.00     0.000 HD 
HETATM   26  C   UNL     1      -9.686  13.411  68.097  1.00  0.00    -0.226 C  
ENDROOT
BRANCH   4  27
HETATM   27  C   UNL     1      -9.761   5.303  73.522  1.00  0.00    -0.158 C  
HETATM   28  O   UNL     1      -7.542   5.342  74.385  1.00  0.00    -0.091 OA 
HETATM   29  C   UNL     1      -8.345   5.831  73.414  1.00  0.00    -0.115 C  
HETATM   30  O   UNL     1      -7.957   6.601  72.560  1.00  0.00    -0.102 OA 
ENDBRANCH   4  27
BRANCH  15  31
HETATM   31  C   UNL     1      -6.042  12.544  69.498  1.00  0.00    -0.120 C  
HETATM   32  C   UNL     1      -5.683  13.462  70.648  1.00  0.00    -0.182 C  
ENDBRANCH  15  31
TORSDOF 2
ENDMDL
MODEL       62
REMARK 921   NORMALIZED FREE ENERGY PREDICTED BY IDOCK:   -1.62 KCAL/MOL
REMARK 922        TOTAL FREE ENERGY PREDICTED BY IDOCK:   -1.99 KCAL/MOL
REMARK 923 INTER-LIGAND FREE ENERGY PREDICTED BY IDOCK:   -1.96 KCAL/MOL
REMARK 924 INTRA-LIGAND FREE ENERGY PREDICTED BY IDOCK:   -0.03 KCAL/MOL
REMARK 927      BINDING AFFINITY PREDICTED BY RF-SCORE:    0.00 PKD
ROOT
HETATM    1  C   UNL     1      -7.055   5.737  71.826  1.00  0.00    -0.082 C  
HETATM    2  C   UNL     1      -6.731   5.512  73.343  1.00  0.00    -0.082 C  
HETATM    3  C   UNL     1      -6.056   6.989  70.980  1.00  0.00    -0.036 C  
HETATM    4  C   UNL     1      -7.052   4.298  71.176  1.00  0.00    -0.036 C  
HETATM    5  C   UNL     1      -5.368   9.245  68.981  1.00  0.00    -0.037 C  
HETATM    6  C   UNL     1      -6.443   8.073  71.973  1.00  0.00    -0.055 C  
HETATM    7  C   UNL     1      -7.779   8.591  71.486  1.00  0.00    -0.146 C  
HETATM    8  C   UNL     1      -6.135  10.302  67.921  1.00  0.00    -0.051 C  
HETATM    9  C   UNL     1      -7.397  13.362  67.328  1.00  0.00    -0.039 C  
HETATM   10  C   UNL     1      -7.459  11.003  68.474  1.00  0.00    -0.106 C  
HETATM   11  C   UNL     1      -7.368   9.159  70.185  1.00  0.00    -0.077 C  
HETATM   12  C   UNL     1      -8.302   9.938  69.271  1.00  0.00    -0.151 C  
HETATM   13  C   UNL     1      -9.313  10.678  70.153  1.00  0.00     0.836 C  
HETATM   14  O   UNL     1     -10.023   9.822  71.017  1.00  0.00    -0.309 OA 
HETATM   15  C   UNL     1     -10.267  11.441  69.253  1.00  0.00    -0.007 C  
HETATM   16  C   UNL     1      -9.451  12.697  68.810  1.00  0.00     0.112 C  
HETATM   17  C   UNL     1      -6.611   7.263  68.321  1.00  0.00    -0.049 C  
HETATM   18  H   UNL     1     -10.650  10.281  71.564  1.00  0.00     0.000 HD 
HETATM   19  C   UNL     1     -10.301  13.918  68.473  1.00  0.00    -0.244 C  
HETATM   20  C   UNL     1      -6.378   8.142  69.584  1.00  0.00    -0.033 C  
HETATM   21  C   UNL     1     -10.943  13.937  67.105  1.00  0.00    -0.291 C  
HETATM   22  O   UNL     1     -12.339  13.648  67.193  1.00  0.00    -0.345 OA 
HETATM   23  C   UNL     1     -10.256  13.093  66.023  1.00  0.00    -0.287 C  
HETATM   24  C   UNL     1      -9.228  11.959  66.418  1.00  0.00    -0.218 C  
HETATM   25  H   UNL     1     -12.743  13.660  66.332  1.00  0.00     0.000 HD 
HETATM   26  C   UNL     1      -8.380  12.223  67.716  1.00  0.00    -0.162 C  
ENDROOT
BRANCH   4  27
HETATM   27  C   UNL     1      -8.133   3.350  71.764  1.00  0.00    -0.062 C  
HETATM   28  O   UNL     1     -10.460   3.061  72.183  1.00  0.00    -0.064 OA 
HETATM   29  C   UNL     1      -9.532   3.931  71.724  1.00  0.00    -0.144 C  
HETATM   30  O   UNL     1      -9.806   5.047  71.332  1.00  0.00    -0.166 OA 
ENDBRANCH   4  27
BRANCH  15  31
HETATM   31  C   UNL     1     -11.685  11.484  69.843  1.00  0.00    -0.420 C  
HETATM   32  C   UNL     1     -12.764  10.666  69.164  1.00  0.00     0.794 C  
ENDBRANCH  15  31
TORSDOF 2
ENDMDL
MODEL       63
REMARK 921   NORMALIZED FREE ENERGY PREDICTED BY IDOCK:   -1.41 KCAL/MOL
REMARK 922        TOTAL FREE ENERGY PREDICTED BY IDOCK:   -1.76 KCAL/MOL
REMARK 923 INTER-LIGAND FREE ENERGY PREDICTED BY IDOCK:   -1.37 KCAL/MOL
REMARK 924 INTRA-LIGAND FREE ENERGY PREDICTED BY IDOCK:   -0.39 KCAL/MOL
REMARK 927      BINDING AFFINITY PREDICTED BY RF-SCORE:    0.00 PKD
ROOT
HETATM    1  C   UNL     1      -8.653   7.716  68.843  1.00  0.00    -0.129 C  
HETATM    2  C   UNL     1      -7.308   6.951  69.093  1.00  0.00    -0.093 C  
HETATM    3  C   UNL     1      -8.822   8.513  67.224  1.00  0.00    -0.137 C  
HETATM    4  C   UNL     1      -9.796   6.700  69.233  1.00  0.00    -0.157 C  
HETATM    5  C   UNL     1      -9.705  10.613  65.134  1.00  0.00    -0.327 C  
HETATM    6  C   UNL     1      -7.550   9.323  67.409  1.00  0.00    -0.088 C  
HETATM    7  C   UNL     1      -7.971  10.533  68.217  1.00  0.00    -0.113 C  
HETATM    8  C   UNL     1     -10.372  12.156  65.065  1.00  0.00    -0.320 C  
HETATM    9  C   UNL     1      -9.912  15.472  64.749  1.00  0.00     0.417 C  
HETATM   10  C   UNL     1      -9.769  13.222  66.090  1.00  0.00    -0.258 C  
HETATM   11  C   UNL     1      -8.893  11.168  67.254  1.00  0.00    -0.144 C  
HETATM   12  C   UNL     1      -9.554  12.520  67.483  1.00  0.00    -0.187 C  
HETATM   13  C   UNL     1      -8.594  13.376  68.316  1.00  0.00    -0.169 C  
HETATM   14  O   UNL     1      -8.220  12.765  69.529  1.00  0.00     0.276 OA 
HETATM   15  C   UNL     1      -9.250  14.720  68.574  1.00  0.00    -0.194 C  
HETATM   16  C   UNL     1      -9.073  15.495  67.230  1.00  0.00    -0.215 C  
HETATM   17  C   UNL     1     -11.224   9.747  66.824  1.00  0.00     0.510 C  
HETATM   18  H   UNL     1      -7.625  13.296  70.046  1.00  0.00     0.000 HD 
HETATM   19  C   UNL     1      -9.025  17.012  67.375  1.00  0.00    -0.216 C  
HETATM   20  C   UNL     1      -9.704  10.014  66.632  1.00  0.00    -0.246 C  
HETATM   21  C   UNL     1     -10.354  17.717  67.527  1.00  0.00    -0.369 C  
HETATM   22  O   UNL     1     -10.563  18.125  68.880  1.00  0.00    -0.389 OA 
HETATM   23  C   UNL     1     -11.578  16.986  66.958  1.00  0.00     1.098 C  
HETATM   24  C   UNL     1     -11.515  15.439  66.641  1.00  0.00    -0.019 C  
HETATM   25  H   UNL     1     -11.399  18.568  68.976  1.00  0.00     0.000 HD 
HETATM   26  C   UNL     1     -10.117  14.890  66.175  1.00  0.00    -0.316 C  
ENDROOT
BRANCH   4  27
HETATM   27  C   UNL     1      -9.758   6.268  70.726  1.00  0.00    -0.202 C  
HETATM   28  O   UNL     1     -10.859   6.417  72.831  1.00  0.00    -0.236 OA 
HETATM   29  C   UNL     1     -10.880   6.859  71.554  1.00  0.00    -0.230 C  
HETATM   30  O   UNL     1     -11.709   7.641  71.137  1.00  0.00    -0.282 OA 
ENDBRANCH   4  27
BRANCH  15  31
HETATM   31  C   UNL     1      -8.876  15.273  69.957  1.00  0.00     0.334 C  
HETATM   32  C   UNL     1      -9.999  15.650  70.902  1.00  0.00     1.033 C  
ENDBRANCH  15  31
TORSDOF 2
ENDMDL
MODEL       64
REMARK 921   NORMALIZED FREE ENERGY PREDICTED BY IDOCK:   -1.23 KCAL/MOL
REMARK 922        TOTAL FREE ENERGY PREDICTED BY IDOCK:   -1.56 KCAL/MOL
REMARK 923 INTER-LIGAND FREE ENERGY PREDICTED BY IDOCK:   -1.89 KCAL/MOL
REMARK 924 INTRA-LIGAND FREE ENERGY PREDICTED BY IDOCK:    0.32 KCAL/MOL
REMARK 927      BINDING AFFINITY PREDICTED BY RF-SCORE:    0.00 PKD
ROOT
HETATM    1  C   UNL     1      -8.680  11.793  66.754  1.00  0.00    -0.192 C  
HETATM    2  C   UNL     1      -8.673  12.177  65.234  1.00  0.00     0.810 C  
HETATM    3  C   UNL     1      -7.143  11.083  67.399  1.00  0.00    -0.095 C  
HETATM    4  C   UNL     1      -9.220  13.070  67.510  1.00  0.00    -0.195 C  
HETATM    5  C   UNL     1      -5.309   9.305  69.141  1.00  0.00    -0.036 C  
HETATM    6  C   UNL     1      -7.142   9.966  66.368  1.00  0.00    -0.096 C  
HETATM    7  C   UNL     1      -8.052   8.902  66.943  1.00  0.00    -0.109 C  
HETATM    8  C   UNL     1      -5.409   7.992  70.186  1.00  0.00    -0.023 C  
HETATM    9  C   UNL     1      -5.141   4.674  70.664  1.00  0.00     0.000 C  
HETATM   10  C   UNL     1      -6.356   6.796  69.714  1.00  0.00    -0.042 C  
HETATM   11  C   UNL     1      -7.281   8.538  68.149  1.00  0.00    -0.087 C  
HETATM   12  C   UNL     1      -7.667   7.405  69.089  1.00  0.00    -0.111 C  
HETATM   13  C   UNL     1      -8.358   6.320  68.256  1.00  0.00    -0.115 C  
HETATM   14  O   UNL     1      -9.468   6.801  67.534  1.00  0.00    -0.126 OA 
HETATM   15  C   UNL     1      -8.770   5.192  69.183  1.00  0.00    -0.103 C  
HETATM   16  C   UNL     1      -7.445   4.410  69.446  1.00  0.00    -0.055 C  
HETATM   17  C   UNL     1      -7.197  10.524  70.071  1.00  0.00    -0.105 C  
HETATM   18  H   UNL     1      -9.897   6.128  67.018  1.00  0.00     0.000 HD 
HETATM   19  C   UNL     1      -7.635   2.932  69.770  1.00  0.00    -0.044 C  
HETATM   20  C   UNL     1      -6.763   9.870  68.727  1.00  0.00    -0.050 C  
HETATM   21  C   UNL     1      -8.034   2.598  71.189  1.00  0.00    -0.050 C  
HETATM   22  O   UNL     1      -9.416   2.247  71.262  1.00  0.00    -0.121 OA 
HETATM   23  C   UNL     1      -7.652   3.628  72.260  1.00  0.00    -0.058 C  
HETATM   24  C   UNL     1      -7.273   5.108  71.854  1.00  0.00    -0.084 C  
HETATM   25  H   UNL     1      -9.667   2.037  72.154  1.00  0.00     0.000 HD 
HETATM   26  C   UNL     1      -6.559   5.277  70.463  1.00  0.00    -0.038 C  
ENDROOT
BRANCH   4  27
HETATM   27  C   UNL     1     -10.668  13.463  67.106  1.00  0.00    -0.268 C  
HETATM   28  O   UNL     1     -11.995  14.852  65.698  1.00  0.00    -0.221 OA 
HETATM   29  C   UNL     1     -10.727  14.574  66.077  1.00  0.00    -0.305 C  
HETATM   30  O   UNL     1      -9.761  15.160  65.636  1.00  0.00    -0.336 OA 
ENDBRANCH   4  27
BRANCH  15  31
HETATM   31  C   UNL     1     -10.091   4.548  68.734  1.00  0.00    -0.033 C  
HETATM   32  C   UNL     1     -10.031   3.454  67.688  1.00  0.00     0.397 C  
ENDBRANCH  15  31
TORSDOF 2
ENDMDL
MODEL       65
REMARK 921   NORMALIZED FREE ENERGY PREDICTED BY IDOCK:   -0.78 KCAL/MOL
REMARK 922        TOTAL FREE ENERGY PREDICTED BY IDOCK:   -1.06 KCAL/MOL
REMARK 923 INTER-LIGAND FREE ENERGY PREDICTED BY IDOCK:   -2.54 KCAL/MOL
REMARK 924 INTRA-LIGAND FREE ENERGY PREDICTED BY IDOCK:    1.48 KCAL/MOL
REMARK 927      BINDING AFFINITY PREDICTED BY RF-SCORE:    0.00 PKD
ROOT
HETATM    1  C   UNL     1      -7.123   3.082  65.766  1.00  0.00    -0.062 C  
HETATM    2  C   UNL     1      -6.634   1.621  66.055  1.00  0.00    -0.024 C  
HETATM    3  C   UNL     1      -6.309   4.393  66.716  1.00  0.00    -0.037 C  
HETATM    4  C   UNL     1      -7.076   3.240  64.195  1.00  0.00    -0.053 C  
HETATM    5  C   UNL     1      -5.993   7.069  68.231  1.00  0.00    -0.025 C  
HETATM    6  C   UNL     1      -6.676   3.755  68.046  1.00  0.00    -0.046 C  
HETATM    7  C   UNL     1      -8.089   4.220  68.326  1.00  0.00    -0.081 C  
HETATM    8  C   UNL     1      -6.938   8.310  68.859  1.00  0.00    -0.066 C  
HETATM    9  C   UNL     1      -8.478   9.688  71.511  1.00  0.00     1.084 C  
HETATM   10  C   UNL     1      -8.250   7.856  69.648  1.00  0.00    -0.122 C  
HETATM   11  C   UNL     1      -7.852   5.673  68.459  1.00  0.00    -0.096 C  
HETATM   12  C   UNL     1      -8.928   6.670  68.864  1.00  0.00    -0.130 C  
HETATM   13  C   UNL     1      -9.899   5.955  69.809  1.00  0.00    -0.169 C  
HETATM   14  O   UNL     1     -10.454   4.787  69.251  1.00  0.00    -0.086 OA 
HETATM   15  C   UNL     1     -10.992   6.931  70.204  1.00  0.00    -0.322 C  
HETATM   16  C   UNL     1     -10.321   7.841  71.280  1.00  0.00    -0.222 C  
HETATM   17  C   UNL     1      -7.144   6.917  66.095  1.00  0.00    -0.073 C  
HETATM   18  H   UNL     1     -11.057   4.343  69.837  1.00  0.00     0.000 HD 
HETATM   19  C   UNL     1     -11.288   8.444  72.293  1.00  0.00    -0.448 C  
HETATM   20  C   UNL     1      -6.853   6.034  67.342  1.00  0.00    -0.063 C  
HETATM   21  C   UNL     1     -12.062   9.662  71.844  1.00  0.00    -0.306 C  
HETATM   22  O   UNL     1     -13.417   9.325  71.544  1.00  0.00    -0.368 OA 
HETATM   23  C   UNL     1     -11.424  10.495  70.723  1.00  0.00    -0.376 C  
HETATM   24  C   UNL     1     -10.281   9.885  69.819  1.00  0.00    -0.278 C  
HETATM   25  H   UNL     1     -13.904  10.091  71.262  1.00  0.00     0.000 HD 
HETATM   26  C   UNL     1      -9.330   8.847  70.521  1.00  0.00    -0.240 C  
ENDROOT
BRANCH   4  27
HETATM   27  C   UNL     1      -8.020   2.259  63.446  1.00  0.00    -0.072 C  
HETATM   28  O   UNL     1     -10.263   1.847  62.758  1.00  0.00    -0.096 OA 
HETATM   29  C   UNL     1      -9.474   2.684  63.470  1.00  0.00    -0.101 C  
HETATM   30  O   UNL     1      -9.901   3.656  64.057  1.00  0.00    -0.152 OA 
ENDBRANCH   4  27
BRANCH  15  31
HETATM   31  C   UNL     1     -12.343   6.222  70.378  1.00  0.00     0.572 C  
HETATM   32  C   UNL     1     -13.209   6.617  71.557  1.00  0.00    -0.080 C  
ENDBRANCH  15  31
TORSDOF 2
ENDMDL
MODEL       66
REMARK 921   NORMALIZED FREE ENERGY PREDICTED BY IDOCK:   -0.48 KCAL/MOL
REMARK 922        TOTAL FREE ENERGY PREDICTED BY IDOCK:   -0.72 KCAL/MOL
REMARK 923 INTER-LIGAND FREE ENERGY PREDICTED BY IDOCK:   -1.88 KCAL/MOL
REMARK 924 INTRA-LIGAND FREE ENERGY PREDICTED BY IDOCK:    1.15 KCAL/MOL
REMARK 927      BINDING AFFINITY PREDICTED BY RF-SCORE:    0.00 PKD
ROOT
HETATM    1  C   UNL     1      -9.715  10.133  66.900  1.00  0.00    -0.233 C  
HETATM    2  C   UNL     1     -10.836   9.089  67.231  1.00  0.00    -0.100 C  
HETATM    3  C   UNL     1      -9.253  11.254  68.247  1.00  0.00    -0.176 C  
HETATM    4  C   UNL     1      -8.535   9.298  66.265  1.00  0.00    -0.133 C  
HETATM    5  C   UNL     1      -8.315  13.860  69.621  1.00  0.00     0.988 C  
HETATM    6  C   UNL     1     -10.679  11.751  68.418  1.00  0.00    -0.249 C  
HETATM    7  C   UNL     1     -10.845  12.833  67.371  1.00  0.00    -0.265 C  
HETATM    8  C   UNL     1      -8.065  15.484  69.263  1.00  0.00    -0.248 C  
HETATM    9  C   UNL     1      -9.212  18.645  69.307  1.00  0.00     0.093 C  
HETATM   10  C   UNL     1      -9.202  16.188  68.389  1.00  0.00    -0.203 C  
HETATM   11  C   UNL     1      -9.857  13.814  67.866  1.00  0.00    -0.232 C  
HETATM   12  C   UNL     1      -9.658  15.193  67.256  1.00  0.00    -0.211 C  
HETATM   13  C   UNL     1     -11.010  15.665  66.711  1.00  0.00    -0.230 C  
HETATM   14  O   UNL     1     -11.578  14.764  65.789  1.00  0.00    -0.347 OA 
HETATM   15  C   UNL     1     -10.822  17.031  66.077  1.00  0.00     0.005 C  
HETATM   16  C   UNL     1     -10.759  18.009  67.291  1.00  0.00    -0.305 C  
HETATM   17  C   UNL     1      -7.232  12.982  67.629  1.00  0.00    -0.151 C  
HETATM   18  H   UNL     1     -12.417  15.056  65.450  1.00  0.00     0.000 HD 
HETATM   19  C   UNL     1     -11.225  19.429  66.986  1.00  0.00    -0.051 C  
HETATM   20  C   UNL     1      -8.634  12.985  68.304  1.00  0.00    -0.167 C  
HETATM   21  C   UNL     1     -10.228  20.331  66.294  1.00  0.00    -0.326 C  
HETATM   22  O   UNL     1     -10.558  20.493  64.914  1.00  0.00     0.096 OA 
HETATM   23  C   UNL     1      -8.747  19.978  66.486  1.00  0.00    -0.384 C  
HETATM   24  C   UNL     1      -8.322  18.544  66.994  1.00  0.00    -0.259 C  
HETATM   25  H   UNL     1      -9.932  21.060  64.479  1.00  0.00     0.000 HD 
HETATM   26  C   UNL     1      -9.323  17.840  67.982  1.00  0.00    -0.276 C  
ENDROOT
BRANCH   4  27
HETATM   27  C   UNL     1      -8.927   8.578  64.945  1.00  0.00     0.061 C  
HETATM   28  O   UNL     1      -8.851   8.679  62.567  1.00  0.00    -0.144 OA 
HETATM   29  C   UNL     1      -8.556   9.356  63.699  1.00  0.00    -0.208 C  
HETATM   30  O   UNL     1      -8.056  10.462  63.698  1.00  0.00    -0.159 OA 
ENDBRANCH   4  27
BRANCH  15  31
HETATM   31  C   UNL     1     -11.733  17.213  64.853  1.00  0.00     1.584 C  
HETATM   32  C   UNL     1     -11.995  16.008  63.973  1.00  0.00     0.357 C  
ENDBRANCH  15  31
TORSDOF 2
ENDMDL
MODEL       67
REMARK 921   NORMALIZED FREE ENERGY PREDICTED BY IDOCK:   -0.25 KCAL/MOL
REMARK 922        TOTAL FREE ENERGY PREDICTED BY IDOCK:   -0.46 KCAL/MOL
REMARK 923 INTER-LIGAND FREE ENERGY PREDICTED BY IDOCK:   -0.68 KCAL/MOL
REMARK 924 INTRA-LIGAND FREE ENERGY PREDICTED BY IDOCK:    0.22 KCAL/MOL
REMARK 927      BINDING AFFINITY PREDICTED BY RF-SCORE:    0.00 PKD
ROOT
HETATM    1  C   UNL     1     -10.515   8.949  70.054  1.00  0.00    -0.227 C  
HETATM    2  C   UNL     1      -9.668   8.182  71.127  1.00  0.00    -0.200 C  
HETATM    3  C   UNL     1      -9.601   9.570  68.618  1.00  0.00    -0.151 C  
HETATM    4  C   UNL     1     -11.743   8.009  69.735  1.00  0.00     0.509 C  
HETATM    5  C   UNL     1      -8.855  11.454  66.283  1.00  0.00    -0.196 C  
HETATM    6  C   UNL     1      -8.638  10.363  69.485  1.00  0.00    -0.109 C  
HETATM    7  C   UNL     1      -9.356  11.663  69.780  1.00  0.00     1.577 C  
HETATM    8  C   UNL     1      -9.208  12.996  65.713  1.00  0.00     0.246 C  
HETATM    9  C   UNL     1      -8.369  16.246  65.511  1.00  0.00     1.344 C  
HETATM   10  C   UNL     1      -9.260  14.151  66.815  1.00  0.00    -0.282 C  
HETATM   11  C   UNL     1      -9.448  12.214  68.412  1.00  0.00    -0.179 C  
HETATM   12  C   UNL     1      -9.993  13.598  68.094  1.00  0.00    -0.246 C  
HETATM   13  C   UNL     1      -9.666  14.515  69.276  1.00  0.00     0.017 C  
HETATM   14  O   UNL     1     -10.157  14.030  70.505  1.00  0.00     0.965 OA 
HETATM   15  C   UNL     1     -10.225  15.895  68.984  1.00  0.00    -0.227 C  
HETATM   16  C   UNL     1      -9.205  16.516  67.979  1.00  0.00    -0.214 C  
HETATM   17  C   UNL     1     -11.154  10.813  66.748  1.00  0.00    -0.153 C  
HETATM   18  H   UNL     1      -9.954  14.599  71.238  1.00  0.00     0.000 HD 
HETATM   19  C   UNL     1      -9.125  18.038  68.015  1.00  0.00    -0.274 C  
HETATM   20  C   UNL     1      -9.812  11.020  67.508  1.00  0.00    -0.190 C  
HETATM   21  C   UNL     1     -10.208  18.788  67.274  1.00  0.00    -0.390 C  
HETATM   22  O   UNL     1     -11.158  19.345  68.184  1.00  0.00    -0.255 OA 
HETATM   23  C   UNL     1     -10.895  18.031  66.129  1.00  0.00     0.036 C  
HETATM   24  C   UNL     1     -10.785  16.458  66.026  1.00  0.00    -0.194 C  
HETATM   25  H   UNL     1     -11.839  19.817  67.718  1.00  0.00     0.000 HD 
HETATM   26  C   UNL     1      -9.444  15.826  66.551  1.00  0.00    -0.298 C  
ENDROOT
BRANCH   4  27
HETATM   27  C   UNL     1     -12.654   7.740  70.965  1.00  0.00    -0.140 C  
HETATM   28  O   UNL     1     -14.322   8.654  72.398  1.00  0.00    -0.482 OA 
HETATM   29  C   UNL     1     -13.495   8.935  71.367  1.00  0.00    -0.258 C  
HETATM   30  O   UNL     1     -13.443  10.026  70.838  1.00  0.00    -0.352 OA 
ENDBRANCH   4  27
BRANCH  15  31
HETATM   31  C   UNL     1     -10.720  16.585  70.265  1.00  0.00    -0.088 C  
HETATM   32  C   UNL     1     -12.036  16.126  70.859  1.00  0.00    -0.269 C  
ENDBRANCH  15  31
TORSDOF 2
ENDMDL
MODEL       68
REMARK 921   NORMALIZED FREE ENERGY PREDICTED BY IDOCK:   -0.02 KCAL/MOL
REMARK 922        TOTAL FREE ENERGY PREDICTED BY IDOCK:   -0.21 KCAL/MOL
REMARK 923 INTER-LIGAND FREE ENERGY PREDICTED BY IDOCK:    0.01 KCAL/MOL
REMARK 924 INTRA-LIGAND FREE ENERGY PREDICTED BY IDOCK:   -0.22 KCAL/MOL
REMARK 927      BINDING AFFINITY PREDICTED BY RF-SCORE:    0.00 PKD
ROOT
HETATM    1  C   UNL     1      -7.913   8.223  65.566  1.00  0.00    -0.120 C  
HETATM    2  C   UNL     1      -6.616   7.395  65.863  1.00  0.00    -0.045 C  
HETATM    3  C   UNL     1      -7.746  10.024  65.673  1.00  0.00    -0.136 C  
HETATM    4  C   UNL     1      -8.468   7.663  64.198  1.00  0.00     0.216 C  
HETATM    5  C   UNL     1      -8.557  12.957  66.220  1.00  0.00     0.362 C  
HETATM    6  C   UNL     1      -7.236   9.964  67.103  1.00  0.00    -0.086 C  
HETATM    7  C   UNL     1      -8.481   9.877  67.960  1.00  0.00    -0.117 C  
HETATM    8  C   UNL     1      -9.782  13.834  66.966  1.00  0.00    -0.251 C  
HETATM    9  C   UNL     1     -10.891  15.483  69.679  1.00  0.00    -0.285 C  
HETATM   10  C   UNL     1     -10.263  13.288  68.388  1.00  0.00    -0.249 C  
HETATM   11  C   UNL     1      -9.091  11.186  67.648  1.00  0.00    -0.147 C  
HETATM   12  C   UNL     1     -10.345  11.716  68.325  1.00  0.00    -0.212 C  
HETATM   13  C   UNL     1     -10.370  11.173  69.758  1.00  0.00     0.267 C  
HETATM   14  O   UNL     1     -10.299   9.768  69.817  1.00  0.00    -0.211 OA 
HETATM   15  C   UNL     1     -11.629  11.675  70.440  1.00  0.00    -0.158 C  
HETATM   16  C   UNL     1     -11.300  13.156  70.808  1.00  0.00     1.123 C  
HETATM   17  C   UNL     1     -10.019  11.404  65.053  1.00  0.00    -0.312 C  
HETATM   18  H   UNL     1     -10.315   9.430  70.706  1.00  0.00     0.000 HD 
HETATM   19  C   UNL     1     -12.055  13.690  72.021  1.00  0.00     0.495 C  
HETATM   20  C   UNL     1      -8.897  11.383  66.131  1.00  0.00    -0.186 C  
HETATM   21  C   UNL     1     -13.480  14.136  71.786  1.00  0.00    -0.390 C  
HETATM   22  O   UNL     1     -14.406  13.177  72.296  1.00  0.00    -0.372 OA 
HETATM   23  C   UNL     1     -13.830  14.557  70.352  1.00  0.00     0.758 C  
HETATM   24  C   UNL     1     -12.904  14.138  69.142  1.00  0.00     0.805 C  
HETATM   25  H   UNL     1     -15.302  13.457  72.148  1.00  0.00     0.000 HD 
HETATM   26  C   UNL     1     -11.369  14.021  69.460  1.00  0.00    -0.298 C  
ENDROOT
BRANCH   4  27
HETATM   27  C   UNL     1      -8.859   6.160  64.257  1.00  0.00     0.476 C  
HETATM   28  O   UNL     1      -8.177   3.941  63.725  1.00  0.00    -0.088 OA 
HETATM   29  C   UNL     1      -7.842   5.245  63.604  1.00  0.00    -0.088 C  
HETATM   30  O   UNL     1      -6.841   5.622  63.031  1.00  0.00    -0.034 OA 
ENDBRANCH   4  27
BRANCH  15  31
HETATM   31  C   UNL     1     -12.190  10.634  71.422  1.00  0.00    -0.405 C  
HETATM   32  C   UNL     1     -13.530  10.003  71.104  1.00  0.00    -0.299 C  
ENDBRANCH  15  31
TORSDOF 2
ENDMDL
MODEL       69
REMARK 921   NORMALIZED FREE ENERGY PREDICTED BY IDOCK:    0.47 KCAL/MOL
REMARK 922        TOTAL FREE ENERGY PREDICTED BY IDOCK:    0.34 KCAL/MOL
REMARK 923 INTER-LIGAND FREE ENERGY PREDICTED BY IDOCK:    0.35 KCAL/MOL
REMARK 924 INTRA-LIGAND FREE ENERGY PREDICTED BY IDOCK:   -0.01 KCAL/MOL
REMARK 927      BINDING AFFINITY PREDICTED BY RF-SCORE:    0.00 PKD
ROOT
HETATM    1  C   UNL     1     -10.594  16.912  68.806  1.00  0.00    -0.355 C  
HETATM    2  C   UNL     1      -9.258  17.713  68.980  1.00  0.00    -0.054 C  
HETATM    3  C   UNL     1     -11.336  16.268  70.328  1.00  0.00    -0.299 C  
HETATM    4  C   UNL     1     -11.524  17.830  67.920  1.00  0.00     0.784 C  
HETATM    5  C   UNL     1     -12.903  14.340  72.168  1.00  0.00    -0.424 C  
HETATM    6  C   UNL     1     -10.077  15.506  70.705  1.00  0.00     0.555 C  
HETATM    7  C   UNL     1     -10.161  14.205  69.935  1.00  0.00     0.619 C  
HETATM    8  C   UNL     1     -13.534  12.781  72.156  1.00  0.00    -0.591 C  
HETATM    9  C   UNL     1     -13.190   9.537  72.972  1.00  0.00     0.603 C  
HETATM   10  C   UNL     1     -12.587  11.651  71.541  1.00  0.00    -0.341 C  
HETATM   11  C   UNL     1     -11.366  13.622  70.560  1.00  0.00     0.310 C  
HETATM   12  C   UNL     1     -11.884  12.225  70.254  1.00  0.00    -0.324 C  
HETATM   13  C   UNL     1     -10.678  11.339  69.923  1.00  0.00     0.190 C  
HETATM   14  O   UNL     1      -9.892  11.847  68.870  1.00  0.00    -0.392 OA 
HETATM   15  C   UNL     1     -11.181   9.946  69.592  1.00  0.00    -0.251 C  
HETATM   16  C   UNL     1     -11.501   9.315  70.983  1.00  0.00    -0.387 C  
HETATM   17  C   UNL     1     -13.707  14.964  69.960  1.00  0.00     1.154 C  
HETATM   18  H   UNL     1      -9.144  11.298  68.665  1.00  0.00     0.000 HD 
HETATM   19  C   UNL     1     -11.389   7.794  71.030  1.00  0.00    -0.287 C  
HETATM   20  C   UNL     1     -12.359  14.790  70.717  1.00  0.00    -0.397 C  
HETATM   21  C   UNL     1     -12.563   7.015  70.482  1.00  0.00     0.061 C  
HETATM   22  O   UNL     1     -12.259   6.469  69.198  1.00  0.00     0.063 OA 
HETATM   23  C   UNL     1     -13.917   7.737  70.486  1.00  0.00     1.038 C  
HETATM   24  C   UNL     1     -13.989   9.309  70.636  1.00  0.00     0.458 C  
HETATM   25  H   UNL     1     -12.997   5.978  68.854  1.00  0.00     0.000 HD 
HETATM   26  C   UNL     1     -12.865   9.968  71.515  1.00  0.00    -0.537 C  
ENDROOT
BRANCH   4  27
HETATM   27  C   UNL     1     -10.947  18.116  66.506  1.00  0.00     0.205 C  
HETATM   28  O   UNL     1      -9.744  19.674  65.166  1.00  0.00     0.207 OA 
HETATM   29  C   UNL     1     -10.292  19.477  66.386  1.00  0.00    -0.496 C  
HETATM   30  O   UNL     1     -10.256  20.308  67.269  1.00  0.00    -0.412 OA 
ENDBRANCH   4  27
BRANCH  15  31
HETATM   31  C   UNL     1     -10.322   9.281  68.506  1.00  0.00    -0.237 C  
HETATM   32  C   UNL     1     -10.840   9.288  67.082  1.00  0.00    -0.113 C  
ENDBRANCH  15  31
TORSDOF 2
ENDMDL
MODEL       70
REMARK 921   NORMALIZED FREE ENERGY PREDICTED BY IDOCK:    1.68 KCAL/MOL
REMARK 922        TOTAL FREE ENERGY PREDICTED BY IDOCK:    1.69 KCAL/MOL
REMARK 923 INTER-LIGAND FREE ENERGY PREDICTED BY IDOCK:    2.02 KCAL/MOL
REMARK 924 INTRA-LIGAND FREE ENERGY PREDICTED BY IDOCK:   -0.33 KCAL/MOL
REMARK 927      BINDING AFFINITY PREDICTED BY RF-SCORE:    0.00 PKD
ROOT
HETATM    1  C   UNL     1      -7.403   6.731  72.682  1.00  0.00    -0.086 C  
HETATM    2  C   UNL     1      -6.648   6.060  73.880  1.00  0.00    -0.075 C  
HETATM    3  C   UNL     1      -8.780   5.783  71.983  1.00  0.00    -0.137 C  
HETATM    4  C   UNL     1      -7.750   8.193  73.166  1.00  0.00    -0.204 C  
HETATM    5  C   UNL     1     -10.729   4.703  69.839  1.00  0.00     0.753 C  
HETATM    6  C   UNL     1      -7.901   4.576  71.702  1.00  0.00    -0.091 C  
HETATM    7  C   UNL     1      -7.236   4.876  70.375  1.00  0.00    -0.054 C  
HETATM    8  C   UNL     1     -10.898   4.646  68.167  1.00  0.00     1.090 C  
HETATM    9  C   UNL     1     -10.500   2.942  65.296  1.00  0.00     1.087 C  
HETATM   10  C   UNL     1      -9.575   4.293  67.345  1.00  0.00    -0.219 C  
HETATM   11  C   UNL     1      -8.426   4.905  69.500  1.00  0.00    -0.090 C  
HETATM   12  C   UNL     1      -8.359   5.060  67.988  1.00  0.00    -0.100 C  
HETATM   13  C   UNL     1      -7.061   4.404  67.506  1.00  0.00    -0.064 C  
HETATM   14  O   UNL     1      -5.912   4.924  68.136  1.00  0.00    -0.024 OA 
HETATM   15  C   UNL     1      -6.967   4.572  66.001  1.00  0.00    -0.066 C  
HETATM   16  C   UNL     1      -7.943   3.492  65.436  1.00  0.00    -0.090 C  
HETATM   17  C   UNL     1     -10.108   7.050  69.962  1.00  0.00    -0.196 C  
HETATM   18  H   UNL     1      -5.107   4.518  67.837  1.00  0.00     0.000 HD 
HETATM   19  C   UNL     1      -7.588   2.984  64.042  1.00  0.00    -0.071 C  
HETATM   20  C   UNL     1      -9.510   5.654  70.300  1.00  0.00    -0.202 C  
HETATM   21  C   UNL     1      -7.994   3.861  62.881  1.00  0.00    -0.075 C  
HETATM   22  O   UNL     1      -6.865   4.549  62.341  1.00  0.00    -0.029 OA 
HETATM   23  C   UNL     1      -9.173   4.813  63.130  1.00  0.00     0.008 C  
HETATM   24  C   UNL     1      -9.629   5.158  64.603  1.00  0.00     0.343 C  
HETATM   25  H   UNL     1      -7.121   5.101  61.610  1.00  0.00     0.000 HD 
HETATM   26  C   UNL     1      -9.440   4.016  65.667  1.00  0.00    -0.176 C  
ENDROOT
BRANCH   4  27
HETATM   27  C   UNL     1      -6.495   9.053  73.486  1.00  0.00     0.171 C  
HETATM   28  O   UNL     1      -5.132  10.866  72.760  1.00  0.00    -0.323 OA 
HETATM   29  C   UNL     1      -6.189  10.092  72.426  1.00  0.00     0.971 C  
HETATM   30  O   UNL     1      -6.807  10.226  71.390  1.00  0.00    -0.007 OA 
ENDBRANCH   4  27
BRANCH  15  31
HETATM   31  C   UNL     1      -5.513   4.760  65.545  1.00  0.00    -0.013 C  
HETATM   32  C   UNL     1      -5.199   5.923  64.626  1.00  0.00    -0.013 C  
ENDBRANCH  15  31
TORSDOF 2
ENDMDL
MODEL       71
REMARK 921   NORMALIZED FREE ENERGY PREDICTED BY IDOCK:    1.72 KCAL/MOL
REMARK 922        TOTAL FREE ENERGY PREDICTED BY IDOCK:    1.73 KCAL/MOL
REMARK 923 INTER-LIGAND FREE ENERGY PREDICTED BY IDOCK:    1.95 KCAL/MOL
REMARK 924 INTRA-LIGAND FREE ENERGY PREDICTED BY IDOCK:   -0.21 KCAL/MOL
REMARK 927      BINDING AFFINITY PREDICTED BY RF-SCORE:    0.00 PKD
ROOT
HETATM    1  C   UNL     1      -7.110  14.037  68.899  1.00  0.00    -0.111 C  
HETATM    2  C   UNL     1      -7.849  15.336  68.425  1.00  0.00    -0.122 C  
HETATM    3  C   UNL     1      -6.498  12.949  67.586  1.00  0.00    -0.157 C  
HETATM    4  C   UNL     1      -6.035  14.523  69.949  1.00  0.00    -0.132 C  
HETATM    5  C   UNL     1      -5.729  10.313  66.165  1.00  0.00    -0.071 C  
HETATM    6  C   UNL     1      -7.876  12.812  66.959  1.00  0.00    -0.022 C  
HETATM    7  C   UNL     1      -8.561  11.720  67.753  1.00  0.00    -0.151 C  
HETATM    8  C   UNL     1      -5.927   8.653  66.342  1.00  0.00    -0.052 C  
HETATM    9  C   UNL     1      -7.613   5.859  65.531  1.00  0.00    -0.084 C  
HETATM   10  C   UNL     1      -7.390   8.166  66.758  1.00  0.00    -0.083 C  
HETATM   11  C   UNL     1      -7.686  10.579  67.414  1.00  0.00    -0.102 C  
HETATM   12  C   UNL     1      -7.958   9.147  67.851  1.00  0.00    -0.101 C  
HETATM   13  C   UNL     1      -9.477   8.961  67.929  1.00  0.00    -0.142 C  
HETATM   14  O   UNL     1     -10.106   9.894  68.777  1.00  0.00    -0.161 OA 
HETATM   15  C   UNL     1      -9.765   7.544  68.388  1.00  0.00    -0.161 C  
HETATM   16  C   UNL     1      -9.536   6.676  67.110  1.00  0.00    -0.168 C  
HETATM   17  C   UNL     1      -5.143  10.755  68.483  1.00  0.00    -0.037 C  
HETATM   18  H   UNL     1     -11.048   9.779  68.826  1.00  0.00     0.000 HD 
HETATM   19  C   UNL     1     -10.345   5.383  67.069  1.00  0.00    -0.299 C  
HETATM   20  C   UNL     1      -6.248  11.132  67.455  1.00  0.00    -0.066 C  
HETATM   21  C   UNL     1      -9.804   4.223  67.872  1.00  0.00    -0.059 C  
HETATM   22  O   UNL     1     -10.559   4.034  69.069  1.00  0.00     0.935 OA 
HETATM   23  C   UNL     1      -8.294   4.236  68.148  1.00  0.00    -0.097 C  
HETATM   24  C   UNL     1      -7.459   5.568  67.989  1.00  0.00    -0.074 C  
HETATM   25  H   UNL     1     -10.218   3.304  69.574  1.00  0.00     0.000 HD 
HETATM   26  C   UNL     1      -7.955   6.560  66.874  1.00  0.00    -0.112 C  
ENDROOT
BRANCH   4  27
HETATM   27  C   UNL     1      -6.654  15.208  71.198  1.00  0.00     0.767 C  
HETATM   28  O   UNL     1      -6.544  15.417  73.568  1.00  0.00     2.803 OA 
HETATM   29  C   UNL     1      -6.031  14.759  72.504  1.00  0.00     0.585 C  
HETATM   30  O   UNL     1      -5.172  13.907  72.604  1.00  0.00    -0.188 OA 
ENDBRANCH   4  27
BRANCH  15  31
HETATM   31  C   UNL     1     -11.019   7.482  69.273  1.00  0.00    -0.057 C  
HETATM   32  C   UNL     1     -10.943   6.690  70.563  1.00  0.00    -0.337 C  
ENDBRANCH  15  31
TORSDOF 2
ENDMDL
MODEL       72
REMARK 921   NORMALIZED FREE ENERGY PREDICTED BY IDOCK:    2.92 KCAL/MOL
REMARK 922        TOTAL FREE ENERGY PREDICTED BY IDOCK:    3.08 KCAL/MOL
REMARK 923 INTER-LIGAND FREE ENERGY PREDICTED BY IDOCK:    3.29 KCAL/MOL
REMARK 924 INTRA-LIGAND FREE ENERGY PREDICTED BY IDOCK:   -0.22 KCAL/MOL
REMARK 927      BINDING AFFINITY PREDICTED BY RF-SCORE:    0.00 PKD
ROOT
HETATM    1  C   UNL     1     -10.921  12.929  68.837  1.00  0.00    -0.271 C  
HETATM    2  C   UNL     1     -10.563  13.833  70.066  1.00  0.00     0.738 C  
HETATM    3  C   UNL     1     -11.420  11.231  69.220  1.00  0.00    -0.369 C  
HETATM    4  C   UNL     1     -11.944  13.771  67.978  1.00  0.00    -0.390 C  
HETATM    5  C   UNL     1     -11.730   8.176  68.858  1.00  0.00     1.461 C  
HETATM    6  C   UNL     1     -10.134  10.947  69.979  1.00  0.00     0.488 C  
HETATM    7  C   UNL     1      -9.126  10.571  68.913  1.00  0.00    -0.180 C  
HETATM    8  C   UNL     1     -11.136   6.929  67.898  1.00  0.00    -0.200 C  
HETATM    9  C   UNL     1      -8.965   4.392  67.505  1.00  0.00    -0.128 C  
HETATM   10  C   UNL     1      -9.561   6.943  67.633  1.00  0.00    -0.143 C  
HETATM   11  C   UNL     1      -9.750   9.332  68.405  1.00  0.00    -0.168 C  
HETATM   12  C   UNL     1      -9.106   8.426  67.366  1.00  0.00    -0.152 C  
HETATM   13  C   UNL     1      -7.587   8.509  67.549  1.00  0.00    -0.098 C  
HETATM   14  O   UNL     1      -7.092   9.826  67.473  1.00  0.00    -0.086 OA 
HETATM   15  C   UNL     1      -6.929   7.629  66.502  1.00  0.00    -0.067 C  
HETATM   16  C   UNL     1      -7.104   6.180  67.057  1.00  0.00    -0.073 C  
HETATM   17  C   UNL     1     -12.118   9.743  67.040  1.00  0.00     4.678 C  
HETATM   18  H   UNL     1      -6.150   9.878  67.586  1.00  0.00     0.000 HD 
HETATM   19  C   UNL     1      -6.032   5.194  66.606  1.00  0.00    -0.023 C  
HETATM   20  C   UNL     1     -11.261   9.628  68.333  1.00  0.00    -0.004 C  
HETATM   21  C   UNL     1      -6.192   4.611  65.221  1.00  0.00    -0.034 C  
HETATM   22  O   UNL     1      -5.275   5.211  64.305  1.00  0.00    -0.009 OA 
HETATM   23  C   UNL     1      -7.619   4.582  64.658  1.00  0.00    -0.073 C  
HETATM   24  C   UNL     1      -8.751   5.486  65.290  1.00  0.00    -0.136 C  
HETATM   25  H   UNL     1      -5.375   4.844  63.434  1.00  0.00     0.000 HD 
HETATM   26  C   UNL     1      -8.634   5.754  66.835  1.00  0.00    -0.111 C  
ENDROOT
BRANCH   4  27
HETATM   27  C   UNL     1     -11.353  15.104  67.440  1.00  0.00    -0.309 C  
HETATM   28  O   UNL     1     -10.055  16.110  65.717  1.00  0.00    -0.334 OA 
HETATM   29  C   UNL     1     -10.504  14.930  66.198  1.00  0.00    -0.306 C  
HETATM   30  O   UNL     1     -10.242  13.862  65.683  1.00  0.00    -0.306 OA 
ENDBRANCH   4  27
BRANCH  15  31
HETATM   31  C   UNL     1      -5.597   8.226  66.022  1.00  0.00    -0.039 C  
HETATM   32  C   UNL     1      -5.613   9.106  64.790  1.00  0.00    -0.062 C  
ENDBRANCH  15  31
TORSDOF 2
ENDMDL
MODEL       73
REMARK 921   NORMALIZED FREE ENERGY PREDICTED BY IDOCK:    3.31 KCAL/MOL
REMARK 922        TOTAL FREE ENERGY PREDICTED BY IDOCK:    3.51 KCAL/MOL
REMARK 923 INTER-LIGAND FREE ENERGY PREDICTED BY IDOCK:    1.39 KCAL/MOL
REMARK 924 INTRA-LIGAND FREE ENERGY PREDICTED BY IDOCK:    2.11 KCAL/MOL
REMARK 927      BINDING AFFINITY PREDICTED BY RF-SCORE:    0.00 PKD
ROOT
HETATM    1  C   UNL     1      -9.707  12.547  66.533  1.00  0.00    -0.249 C  
HETATM    2  C   UNL     1     -10.809  13.532  67.054  1.00  0.00    -0.287 C  
HETATM    3  C   UNL     1     -10.297  10.947  65.922  1.00  0.00    -0.310 C  
HETATM    4  C   UNL     1      -8.830  13.389  65.525  1.00  0.00     1.307 C  
HETATM    5  C   UNL     1     -10.277   7.912  65.331  1.00  0.00     2.342 C  
HETATM    6  C   UNL     1     -10.998  10.624  67.231  1.00  0.00    -0.348 C  
HETATM    7  C   UNL     1      -9.917  10.054  68.124  1.00  0.00    -0.176 C  
HETATM    8  C   UNL     1      -9.419   6.527  65.748  1.00  0.00     0.190 C  
HETATM    9  C   UNL     1      -9.158   3.777  67.664  1.00  0.00    -0.188 C  
HETATM   10  C   UNL     1      -9.055   6.372  67.295  1.00  0.00    -0.117 C  
HETATM   11  C   UNL     1      -9.582   8.833  67.364  1.00  0.00    -0.206 C  
HETATM   12  C   UNL     1      -8.605   7.774  67.853  1.00  0.00    -0.122 C  
HETATM   13  C   UNL     1      -8.682   7.736  69.383  1.00  0.00    -0.135 C  
HETATM   14  O   UNL     1      -8.437   8.988  69.980  1.00  0.00    -0.121 OA 
HETATM   15  C   UNL     1      -7.695   6.700  69.888  1.00  0.00    -0.109 C  
HETATM   16  C   UNL     1      -8.408   5.336  69.631  1.00  0.00    -0.098 C  
HETATM   17  C   UNL     1      -8.333   9.320  64.946  1.00  0.00    -0.164 C  
HETATM   18  H   UNL     1      -8.485   8.965  70.928  1.00  0.00     0.000 HD 
HETATM   19  C   UNL     1      -7.997   4.216  70.582  1.00  0.00    -0.055 C  
HETATM   20  C   UNL     1      -9.575   9.256  65.882  1.00  0.00    -0.345 C  
HETATM   21  C   UNL     1      -6.693   3.515  70.274  1.00  0.00    -0.033 C  
HETATM   22  O   UNL     1      -5.664   3.936  71.170  1.00  0.00    -0.011 OA 
HETATM   23  C   UNL     1      -6.228   3.561  68.812  1.00  0.00    -0.029 C  
HETATM   24  C   UNL     1      -6.831   4.623  67.809  1.00  0.00    -0.056 C  
HETATM   25  H   UNL     1      -4.844   3.495  70.977  1.00  0.00     0.000 HD 
HETATM   26  C   UNL     1      -8.329   5.031  68.059  1.00  0.00    -0.100 C  
ENDROOT
BRANCH   4  27
HETATM   27  C   UNL     1      -8.119  14.602  66.186  1.00  0.00     1.363 C  
HETATM   28  O   UNL     1      -6.992  15.384  68.132  1.00  0.00    -0.109 OA 
HETATM   29  C   UNL     1      -7.662  14.335  67.605  1.00  0.00    -0.177 C  
HETATM   30  O   UNL     1      -7.867  13.306  68.216  1.00  0.00    -0.128 OA 
ENDBRANCH   4  27
BRANCH  15  31
HETATM   31  C   UNL     1      -7.072   7.123  71.227  1.00  0.00    -0.069 C  
HETATM   32  C   UNL     1      -6.617   8.560  71.380  1.00  0.00    -0.066 C  
ENDBRANCH  15  31
TORSDOF 2
ENDMDL
MODEL       74
REMARK 921   NORMALIZED FREE ENERGY PREDICTED BY IDOCK:    3.42 KCAL/MOL
REMARK 922        TOTAL FREE ENERGY PREDICTED BY IDOCK:    3.63 KCAL/MOL
REMARK 923 INTER-LIGAND FREE ENERGY PREDICTED BY IDOCK:    1.94 KCAL/MOL
REMARK 924 INTRA-LIGAND FREE ENERGY PREDICTED BY IDOCK:    1.69 KCAL/MOL
REMARK 927      BINDING AFFINITY PREDICTED BY RF-SCORE:    0.00 PKD
ROOT
HETATM    1  C   UNL     1     -10.731   7.932  67.152  1.00  0.00    -0.306 C  
HETATM    2  C   UNL     1     -10.666   6.996  65.896  1.00  0.00     1.887 C  
HETATM    3  C   UNL     1     -11.705   9.447  66.962  1.00  0.00     2.926 C  
HETATM    4  C   UNL     1     -11.141   6.995  68.355  1.00  0.00    -0.069 C  
HETATM    5  C   UNL     1     -12.534  12.399  67.362  1.00  0.00     0.954 C  
HETATM    6  C   UNL     1     -10.896   9.903  65.759  1.00  0.00     0.553 C  
HETATM    7  C   UNL     1      -9.675  10.581  66.344  1.00  0.00    -0.245 C  
HETATM    8  C   UNL     1     -11.921  13.832  67.994  1.00  0.00    -0.390 C  
HETATM    9  C   UNL     1     -10.390  16.779  67.469  1.00  0.00    -0.301 C  
HETATM   10  C   UNL     1     -10.402  14.161  67.627  1.00  0.00    -0.241 C  
HETATM   11  C   UNL     1     -10.324  11.716  67.031  1.00  0.00    -0.248 C  
HETATM   12  C   UNL     1      -9.559  12.834  67.723  1.00  0.00    -0.204 C  
HETATM   13  C   UNL     1      -8.242  13.039  66.967  1.00  0.00    -0.062 C  
HETATM   14  O   UNL     1      -7.473  11.863  66.868  1.00  0.00    -0.231 OA 
HETATM   15  C   UNL     1      -7.456  14.136  67.660  1.00  0.00    -0.192 C  
HETATM   16  C   UNL     1      -8.147  15.455  67.191  1.00  0.00    -0.249 C  
HETATM   17  C   UNL     1     -11.851  10.982  69.216  1.00  0.00    -0.411 C  
HETATM   18  H   UNL     1      -6.656  11.990  66.399  1.00  0.00     0.000 HD 
HETATM   19  C   UNL     1      -7.234  16.677  67.173  1.00  0.00    -0.219 C  
HETATM   20  C   UNL     1     -11.590  11.133  67.689  1.00  0.00    -0.266 C  
HETATM   21  C   UNL     1      -6.990  17.357  68.501  1.00  0.00    -0.215 C  
HETATM   22  O   UNL     1      -5.688  17.050  69.000  1.00  0.00    -0.145 OA 
HETATM   23  C   UNL     1      -8.071  17.157  69.573  1.00  0.00     0.520 C  
HETATM   24  C   UNL     1      -9.122  15.984  69.446  1.00  0.00    -0.189 C  
HETATM   25  H   UNL     1      -5.535  17.478  69.835  1.00  0.00     0.000 HD 
HETATM   26  C   UNL     1      -9.535  15.587  67.982  1.00  0.00    -0.194 C  
ENDROOT
BRANCH   4  27
HETATM   27  C   UNL     1     -10.108   5.871  68.645  1.00  0.00    -0.213 C  
HETATM   28  O   UNL     1      -9.160   3.836  67.850  1.00  0.00    -0.126 OA 
HETATM   29  C   UNL     1     -10.110   4.767  67.607  1.00  0.00    -0.085 C  
HETATM   30  O   UNL     1     -10.870   4.707  66.663  1.00  0.00     0.033 OA 
ENDBRANCH   4  27
BRANCH  15  31
HETATM   31  C   UNL     1      -5.944  13.871  67.596  1.00  0.00    -0.059 C  
HETATM   32  C   UNL     1      -5.266  13.306  68.827  1.00  0.00    -0.071 C  
ENDBRANCH  15  31
TORSDOF 2
ENDMDL
MODEL       75
REMARK 921   NORMALIZED FREE ENERGY PREDICTED BY IDOCK:    3.65 KCAL/MOL
REMARK 922        TOTAL FREE ENERGY PREDICTED BY IDOCK:    3.89 KCAL/MOL
REMARK 923 INTER-LIGAND FREE ENERGY PREDICTED BY IDOCK:    3.18 KCAL/MOL
REMARK 924 INTRA-LIGAND FREE ENERGY PREDICTED BY IDOCK:    0.71 KCAL/MOL
REMARK 927      BINDING AFFINITY PREDICTED BY RF-SCORE:    0.00 PKD
ROOT
HETATM    1  C   UNL     1     -10.329  15.694  67.988  1.00  0.00    -0.246 C  
HETATM    2  C   UNL     1      -9.220  16.794  68.115  1.00  0.00    -0.224 C  
HETATM    3  C   UNL     1     -10.775  14.837  69.521  1.00  0.00    -0.229 C  
HETATM    4  C   UNL     1     -11.520  16.382  67.213  1.00  0.00     0.371 C  
HETATM    5  C   UNL     1     -11.680  12.522  71.359  1.00  0.00     1.571 C  
HETATM    6  C   UNL     1      -9.343  14.397  69.776  1.00  0.00     0.697 C  
HETATM    7  C   UNL     1      -9.165  13.142  68.948  1.00  0.00     0.282 C  
HETATM    8  C   UNL     1     -11.910  10.857  71.310  1.00  0.00    -0.079 C  
HETATM    9  C   UNL     1     -10.725   7.773  71.937  1.00  0.00    -0.272 C  
HETATM   10  C   UNL     1     -10.766  10.016  70.578  1.00  0.00    -0.352 C  
HETATM   11  C   UNL     1     -10.140  12.259  69.621  1.00  0.00     1.123 C  
HETATM   12  C   UNL     1     -10.324  10.788  69.279  1.00  0.00    -0.228 C  
HETATM   13  C   UNL     1      -8.967  10.239  68.826  1.00  0.00    -0.155 C  
HETATM   14  O   UNL     1      -8.410  10.960  67.751  1.00  0.00    -0.115 OA 
HETATM   15  C   UNL     1      -9.139   8.777  68.457  1.00  0.00    -0.138 C  
HETATM   16  C   UNL     1      -9.188   8.040  69.833  1.00  0.00    -0.152 C  
HETATM   17  C   UNL     1     -12.776  13.001  69.243  1.00  0.00     0.728 C  
HETATM   18  H   UNL     1      -7.569  10.619  67.469  1.00  0.00     0.000 HD 
HETATM   19  C   UNL     1      -8.706   6.594  69.795  1.00  0.00    -0.140 C  
HETATM   20  C   UNL     1     -11.373  13.140  69.901  1.00  0.00    -0.055 C  
HETATM   21  C   UNL     1      -9.692   5.567  69.287  1.00  0.00    -0.159 C  
HETATM   22  O   UNL     1      -9.362   5.156  67.959  1.00  0.00    -0.113 OA 
HETATM   23  C   UNL     1     -11.177   5.933  69.415  1.00  0.00    -0.277 C  
HETATM   24  C   UNL     1     -11.619   7.432  69.649  1.00  0.00     0.202 C  
HETATM   25  H   UNL     1      -9.982   4.510  67.640  1.00  0.00     0.000 HD 
HETATM   26  C   UNL     1     -10.626   8.319  70.485  1.00  0.00    -0.233 C  
ENDROOT
BRANCH   4  27
HETATM   27  C   UNL     1     -11.138  16.849  65.780  1.00  0.00     0.238 C  
HETATM   28  O   UNL     1     -10.287  18.649  64.474  1.00  0.00     1.820 OA 
HETATM   29  C   UNL     1     -10.671  18.289  65.719  1.00  0.00    -0.107 C  
HETATM   30  O   UNL     1     -10.642  19.048  66.666  1.00  0.00    -0.404 OA 
ENDBRANCH   4  27
BRANCH  15  31
HETATM   31  C   UNL     1      -8.228   8.381  67.286  1.00  0.00    -0.112 C  
HETATM   32  C   UNL     1      -6.740   8.629  67.424  1.00  0.00    -0.063 C  
ENDBRANCH  15  31
TORSDOF 2
ENDMDL
MODEL       76
REMARK 921   NORMALIZED FREE ENERGY PREDICTED BY IDOCK:    3.67 KCAL/MOL
REMARK 922        TOTAL FREE ENERGY PREDICTED BY IDOCK:    3.91 KCAL/MOL
REMARK 923 INTER-LIGAND FREE ENERGY PREDICTED BY IDOCK:    4.25 KCAL/MOL
REMARK 924 INTRA-LIGAND FREE ENERGY PREDICTED BY IDOCK:   -0.34 KCAL/MOL
REMARK 927      BINDING AFFINITY PREDICTED BY RF-SCORE:    0.00 PKD
ROOT
HETATM    1  C   UNL     1      -7.848   8.123  63.974  1.00  0.00    -0.143 C  
HETATM    2  C   UNL     1      -8.442   8.007  62.528  1.00  0.00    -0.038 C  
HETATM    3  C   UNL     1      -8.228   6.754  65.098  1.00  0.00    -0.114 C  
HETATM    4  C   UNL     1      -6.316   8.447  63.776  1.00  0.00    -0.072 C  
HETATM    5  C   UNL     1      -8.848   5.312  67.762  1.00  0.00    -0.105 C  
HETATM    6  C   UNL     1      -9.727   6.924  64.914  1.00  0.00     2.154 C  
HETATM    7  C   UNL     1     -10.118   8.024  65.878  1.00  0.00     0.594 C  
HETATM    8  C   UNL     1      -9.263   5.672  69.352  1.00  0.00    -0.145 C  
HETATM    9  C   UNL     1     -11.656   6.011  71.689  1.00  0.00    -0.263 C  
HETATM   10  C   UNL     1     -10.373   6.804  69.543  1.00  0.00    -0.225 C  
HETATM   11  C   UNL     1      -9.793   7.362  67.158  1.00  0.00    -0.253 C  
HETATM   12  C   UNL     1     -10.090   7.968  68.521  1.00  0.00    -0.218 C  
HETATM   13  C   UNL     1     -11.358   8.819  68.391  1.00  0.00     0.742 C  
HETATM   14  O   UNL     1     -11.260   9.806  67.391  1.00  0.00    -0.368 OA 
HETATM   15  C   UNL     1     -11.655   9.450  69.738  1.00  0.00     0.094 C  
HETATM   16  C   UNL     1     -12.292   8.292  70.570  1.00  0.00     0.321 C  
HETATM   17  C   UNL     1      -7.087   6.977  67.568  1.00  0.00    -0.085 C  
HETATM   18  H   UNL     1     -12.046  10.334  67.310  1.00  0.00     0.000 HD 
HETATM   19  C   UNL     1     -13.253   8.750  71.662  1.00  0.00    -0.399 C  
HETATM   20  C   UNL     1      -8.457   6.631  66.919  1.00  0.00    -0.115 C  
HETATM   21  C   UNL     1     -12.628   9.240  72.948  1.00  0.00     0.460 C  
HETATM   22  O   UNL     1     -12.687  10.664  73.035  1.00  0.00     1.032 OA 
HETATM   23  C   UNL     1     -11.223   8.709  73.264  1.00  0.00     1.374 C  
HETATM   24  C   UNL     1     -10.334   8.062  72.129  1.00  0.00    -0.318 C  
HETATM   25  H   UNL     1     -12.295  10.972  73.844  1.00  0.00     0.000 HD 
HETATM   26  C   UNL     1     -11.114   7.293  71.000  1.00  0.00    -0.281 C  
ENDROOT
BRANCH   4  27
HETATM   27  C   UNL     1      -6.056   9.791  63.040  1.00  0.00    -0.110 C  
HETATM   28  O   UNL     1      -5.275  12.028  63.275  1.00  0.00     1.266 OA 
HETATM   29  C   UNL     1      -5.552  10.891  63.952  1.00  0.00     0.166 C  
HETATM   30  O   UNL     1      -5.410  10.783  65.153  1.00  0.00    -0.145 OA 
ENDBRANCH   4  27
BRANCH  15  31
HETATM   31  C   UNL     1     -12.264  10.851  69.582  1.00  0.00    -0.354 C  
HETATM   32  C   UNL     1     -11.352  12.049  69.756  1.00  0.00    -0.201 C  
ENDBRANCH  15  31
TORSDOF 2
ENDMDL
MODEL       77
REMARK 921   NORMALIZED FREE ENERGY PREDICTED BY IDOCK:    3.86 KCAL/MOL
REMARK 922        TOTAL FREE ENERGY PREDICTED BY IDOCK:    4.12 KCAL/MOL
REMARK 923 INTER-LIGAND FREE ENERGY PREDICTED BY IDOCK:    4.04 KCAL/MOL
REMARK 924 INTRA-LIGAND FREE ENERGY PREDICTED BY IDOCK:    0.09 KCAL/MOL
REMARK 927      BINDING AFFINITY PREDICTED BY RF-SCORE:    0.00 PKD
ROOT
HETATM    1  C   UNL     1     -11.120  14.443  68.276  1.00  0.00    -0.275 C  
HETATM    2  C   UNL     1     -10.456  15.855  68.424  1.00  0.00    -0.254 C  
HETATM    3  C   UNL     1     -11.505  13.582  69.823  1.00  0.00    -0.246 C  
HETATM    4  C   UNL     1     -12.329  14.647  67.282  1.00  0.00     0.085 C  
HETATM    5  C   UNL     1     -11.901  11.214  71.772  1.00  0.00     1.110 C  
HETATM    6  C   UNL     1     -10.068  13.660  70.308  1.00  0.00     2.304 C  
HETATM    7  C   UNL     1      -9.369  12.488  69.654  1.00  0.00     1.919 C  
HETATM    8  C   UNL     1     -11.576   9.568  71.877  1.00  0.00    -0.268 C  
HETATM    9  C   UNL     1      -9.581   7.099  72.987  1.00  0.00    -0.199 C  
HETATM   10  C   UNL     1     -10.122   9.113  71.396  1.00  0.00    -0.392 C  
HETATM   11  C   UNL     1     -10.104  11.373  70.287  1.00  0.00     1.883 C  
HETATM   12  C   UNL     1      -9.750   9.907  70.088  1.00  0.00    -0.255 C  
HETATM   13  C   UNL     1      -8.235   9.814  69.878  1.00  0.00    -0.183 C  
HETATM   14  O   UNL     1      -7.775  10.612  68.811  1.00  0.00    -0.100 OA 
HETATM   15  C   UNL     1      -7.869   8.359  69.653  1.00  0.00    -0.100 C  
HETATM   16  C   UNL     1      -7.898   7.733  71.083  1.00  0.00    -0.089 C  
HETATM   17  C   UNL     1     -12.743  11.171  69.491  1.00  0.00     0.188 C  
HETATM   18  H   UNL     1      -6.836  10.554  68.680  1.00  0.00     0.000 HD 
HETATM   19  C   UNL     1      -6.978   6.530  71.268  1.00  0.00    -0.075 C  
HETATM   20  C   UNL     1     -11.582  11.809  70.307  1.00  0.00    -0.210 C  
HETATM   21  C   UNL     1      -7.490   5.205  70.752  1.00  0.00    -0.074 C  
HETATM   22  O   UNL     1      -6.840   4.846  69.532  1.00  0.00    -0.049 OA 
HETATM   23  C   UNL     1      -9.015   5.062  70.646  1.00  0.00    -0.164 C  
HETATM   24  C   UNL     1      -9.945   6.340  70.654  1.00  0.00    -0.221 C  
HETATM   25  H   UNL     1      -7.162   4.013  69.207  1.00  0.00     0.000 HD 
HETATM   26  C   UNL     1      -9.433   7.557  71.509  1.00  0.00    -0.166 C  
ENDROOT
BRANCH   4  27
HETATM   27  C   UNL     1     -11.896  15.125  65.868  1.00  0.00     0.088 C  
HETATM   28  O   UNL     1     -10.765  14.520  63.862  1.00  0.00     0.491 OA 
HETATM   29  C   UNL     1     -11.075  14.102  65.110  1.00  0.00    -0.348 C  
HETATM   30  O   UNL     1     -10.723  13.030  65.556  1.00  0.00    -0.274 OA 
ENDBRANCH   4  27
BRANCH  15  31
HETATM   31  C   UNL     1      -6.706   8.217  68.660  1.00  0.00    -0.059 C  
HETATM   32  C   UNL     1      -5.297   8.427  69.177  1.00  0.00    -0.031 C  
ENDBRANCH  15  31
TORSDOF 2
ENDMDL
MODEL       78
REMARK 921   NORMALIZED FREE ENERGY PREDICTED BY IDOCK:    3.89 KCAL/MOL
REMARK 922        TOTAL FREE ENERGY PREDICTED BY IDOCK:    4.16 KCAL/MOL
REMARK 923 INTER-LIGAND FREE ENERGY PREDICTED BY IDOCK:   -2.08 KCAL/MOL
REMARK 924 INTRA-LIGAND FREE ENERGY PREDICTED BY IDOCK:    6.25 KCAL/MOL
REMARK 927      BINDING AFFINITY PREDICTED BY RF-SCORE:    0.00 PKD
ROOT
HETATM    1  C   UNL     1      -9.005  10.355  66.378  1.00  0.00    -0.166 C  
HETATM    2  C   UNL     1      -9.258  10.301  64.833  1.00  0.00    -0.273 C  
HETATM    3  C   UNL     1     -10.416   9.917  67.428  1.00  0.00    -0.325 C  
HETATM    4  C   UNL     1      -7.684   9.525  66.619  1.00  0.00    -0.098 C  
HETATM    5  C   UNL     1     -12.298   9.970  69.880  1.00  0.00     0.106 C  
HETATM    6  C   UNL     1     -11.304  10.978  66.801  1.00  0.00    -0.052 C  
HETATM    7  C   UNL     1     -10.962  12.258  67.535  1.00  0.00    -0.298 C  
HETATM    8  C   UNL     1     -12.597  10.897  71.251  1.00  0.00    -0.526 C  
HETATM    9  C   UNL     1     -14.404  13.300  72.756  1.00  0.00     0.480 C  
HETATM   10  C   UNL     1     -12.603  12.479  71.035  1.00  0.00    -0.350 C  
HETATM   11  C   UNL     1     -11.414  11.895  68.894  1.00  0.00    -0.358 C  
HETATM   12  C   UNL     1     -11.420  12.862  70.068  1.00  0.00    -0.082 C  
HETATM   13  C   UNL     1     -11.680  14.268  69.516  1.00  0.00    -0.316 C  
HETATM   14  O   UNL     1     -10.753  14.653  68.528  1.00  0.00    -0.234 OA 
HETATM   15  C   UNL     1     -11.665  15.249  70.674  1.00  0.00    -0.371 C  
HETATM   16  C   UNL     1     -13.057  15.056  71.355  1.00  0.00    -0.464 C  
HETATM   17  C   UNL     1      -9.878   9.942  70.104  1.00  0.00    -0.272 C  
HETATM   18  H   UNL     1     -10.914  15.525  68.186  1.00  0.00     0.000 HD 
HETATM   19  C   UNL     1     -13.582  16.288  72.085  1.00  0.00     0.649 C  
HETATM   20  C   UNL     1     -10.962  10.436  69.105  1.00  0.00    -0.285 C  
HETATM   21  C   UNL     1     -13.019  16.546  73.463  1.00  0.00    -0.066 C  
HETATM   22  O   UNL     1     -12.075  17.617  73.437  1.00  0.00     0.595 OA 
HETATM   23  C   UNL     1     -12.470  15.323  74.211  1.00  0.00    -0.706 C  
HETATM   24  C   UNL     1     -12.121  13.994  73.431  1.00  0.00     0.774 C  
HETATM   25  H   UNL     1     -11.721  17.779  74.304  1.00  0.00     0.000 HD 
HETATM   26  C   UNL     1     -13.013  13.679  72.175  1.00  0.00    -0.421 C  
ENDROOT
BRANCH   4  27
HETATM   27  C   UNL     1      -6.438  10.123  65.907  1.00  0.00    -0.104 C  
HETATM   28  O   UNL     1      -5.681  11.435  64.070  1.00  0.00     0.548 OA 
HETATM   29  C   UNL     1      -6.773  10.873  64.634  1.00  0.00     0.483 C  
HETATM   30  O   UNL     1      -7.886  10.967  64.158  1.00  0.00     0.172 OA 
ENDBRANCH   4  27
BRANCH  15  31
HETATM   31  C   UNL     1     -11.077  16.605  70.256  1.00  0.00    -0.041 C  
HETATM   32  C   UNL     1     -11.128  16.983  68.789  1.00  0.00    -0.086 C  
ENDBRANCH  15  31
TORSDOF 2
ENDMDL
MODEL       79
REMARK 921   NORMALIZED FREE ENERGY PREDICTED BY IDOCK:    5.15 KCAL/MOL
REMARK 922        TOTAL FREE ENERGY PREDICTED BY IDOCK:    5.56 KCAL/MOL
REMARK 923 INTER-LIGAND FREE ENERGY PREDICTED BY IDOCK:    2.51 KCAL/MOL
REMARK 924 INTRA-LIGAND FREE ENERGY PREDICTED BY IDOCK:    3.05 KCAL/MOL
REMARK 927      BINDING AFFINITY PREDICTED BY RF-SCORE:    0.00 PKD
ROOT
HETATM    1  C   UNL     1     -12.141  14.197  67.832  1.00  0.00    -0.309 C  
HETATM    2  C   UNL     1     -13.658  14.546  68.014  1.00  0.00     5.989 C  
HETATM    3  C   UNL     1     -11.689  13.421  66.259  1.00  0.00    -0.405 C  
HETATM    4  C   UNL     1     -11.358  15.519  68.198  1.00  0.00    -0.348 C  
HETATM    5  C   UNL     1     -10.158  11.588  64.295  1.00  0.00    -0.338 C  
HETATM    6  C   UNL     1     -12.676  12.282  66.455  1.00  0.00     1.634 C  
HETATM    7  C   UNL     1     -11.951  11.282  67.330  1.00  0.00     0.277 C  
HETATM    8  C   UNL     1      -9.069  10.306  64.317  1.00  0.00    -0.278 C  
HETATM    9  C   UNL     1      -8.532   6.991  64.153  1.00  0.00     0.287 C  
HETATM   10  C   UNL     1      -9.373   9.152  65.379  1.00  0.00    -0.258 C  
HETATM   11  C   UNL     1     -10.849  10.905  66.421  1.00  0.00    -0.210 C  
HETATM   12  C   UNL     1      -9.833   9.817  66.730  1.00  0.00    -0.265 C  
HETATM   13  C   UNL     1     -10.531   8.752  67.582  1.00  0.00    -0.244 C  
HETATM   14  O   UNL     1     -11.110   9.274  68.755  1.00  0.00    -0.444 OA 
HETATM   15  C   UNL     1      -9.522   7.669  67.920  1.00  0.00    -0.156 C  
HETATM   16  C   UNL     1      -9.418   6.823  66.613  1.00  0.00    -0.205 C  
HETATM   17  C   UNL     1      -9.018  12.927  65.974  1.00  0.00     0.268 C  
HETATM   18  H   UNL     1     -11.543   8.614  69.284  1.00  0.00     0.000 HD 
HETATM   19  C   UNL     1      -9.027   5.365  66.830  1.00  0.00    -0.110 C  
HETATM   20  C   UNL     1     -10.388  12.220  65.762  1.00  0.00    -0.287 C  
HETATM   21  C   UNL     1      -7.557   5.086  67.048  1.00  0.00    -0.088 C  
HETATM   22  O   UNL     1      -7.287   4.812  68.423  1.00  0.00    -0.064 OA 
HETATM   23  C   UNL     1      -6.579   6.119  66.472  1.00  0.00    -0.055 C  
HETATM   24  C   UNL     1      -7.078   7.566  66.077  1.00  0.00    -0.069 C  
HETATM   25  H   UNL     1      -6.363   4.637  68.559  1.00  0.00     0.000 HD 
HETATM   26  C   UNL     1      -8.557   7.664  65.553  1.00  0.00    -0.112 C  
ENDROOT
BRANCH   4  27
HETATM   27  C   UNL     1     -11.574  15.980  69.666  1.00  0.00    -0.299 C  
HETATM   28  O   UNL     1     -12.207  15.294  71.857  1.00  0.00    -0.308 OA 
HETATM   29  C   UNL     1     -12.088  14.882  70.575  1.00  0.00    -0.320 C  
HETATM   30  O   UNL     1     -12.371  13.759  70.211  1.00  0.00    -0.332 OA 
ENDBRANCH   4  27
BRANCH  15  31
HETATM   31  C   UNL     1      -9.769   7.088  69.321  1.00  0.00    -0.158 C  
HETATM   32  C   UNL     1     -11.190   7.065  69.843  1.00  0.00    -0.286 C  
ENDBRANCH  15  31
TORSDOF 2
ENDMDL
MODEL       80
REMARK 921   NORMALIZED FREE ENERGY PREDICTED BY IDOCK:    5.52 KCAL/MOL
REMARK 922        TOTAL FREE ENERGY PREDICTED BY IDOCK:    5.98 KCAL/MOL
REMARK 923 INTER-LIGAND FREE ENERGY PREDICTED BY IDOCK:    5.57 KCAL/MOL
REMARK 924 INTRA-LIGAND FREE ENERGY PREDICTED BY IDOCK:    0.40 KCAL/MOL
REMARK 927      BINDING AFFINITY PREDICTED BY RF-SCORE:    0.00 PKD
ROOT
HETATM    1  C   UNL     1      -8.578  12.005  68.408  1.00  0.00    -0.147 C  
HETATM    2  C   UNL     1      -8.990  13.218  67.505  1.00  0.00    -0.208 C  
HETATM    3  C   UNL     1      -7.075  11.123  67.913  1.00  0.00    -0.081 C  
HETATM    4  C   UNL     1      -8.598  12.555  69.888  1.00  0.00     2.862 C  
HETATM    5  C   UNL     1      -5.140   8.745  67.511  1.00  0.00    -0.034 C  
HETATM    6  C   UNL     1      -7.613  10.840  66.521  1.00  0.00    -0.139 C  
HETATM    7  C   UNL     1      -8.471   9.601  66.677  1.00  0.00    -0.126 C  
HETATM    8  C   UNL     1      -5.139   7.064  67.573  1.00  0.00    -0.015 C  
HETATM    9  C   UNL     1      -5.353   4.130  65.944  1.00  0.00    -0.009 C  
HETATM   10  C   UNL     1      -6.393   6.342  66.897  1.00  0.00    -0.041 C  
HETATM   11  C   UNL     1      -7.433   8.628  67.074  1.00  0.00    -0.084 C  
HETATM   12  C   UNL     1      -7.698   7.142  67.266  1.00  0.00    -0.109 C  
HETATM   13  C   UNL     1      -8.809   6.734  66.293  1.00  0.00    -0.147 C  
HETATM   14  O   UNL     1      -9.984   7.498  66.444  1.00  0.00    -0.415 OA 
HETATM   15  C   UNL     1      -9.103   5.258  66.489  1.00  0.00    -0.129 C  
HETATM   16  C   UNL     1      -7.933   4.536  65.749  1.00  0.00    -0.095 C  
HETATM   17  C   UNL     1      -6.366   9.083  69.583  1.00  0.00    -0.039 C  
HETATM   18  H   UNL     1     -10.673   7.245  65.841  1.00  0.00     0.000 HD 
HETATM   19  C   UNL     1      -8.279   3.148  65.220  1.00  0.00    -0.094 C  
HETATM   20  C   UNL     1      -6.518   9.377  68.063  1.00  0.00    -0.062 C  
HETATM   21  C   UNL     1      -8.253   2.017  66.223  1.00  0.00    -0.089 C  
HETATM   22  O   UNL     1      -9.578   1.629  66.588  1.00  0.00    -0.343 OA 
HETATM   23  C   UNL     1      -7.362   2.225  67.455  1.00  0.00    -0.056 C  
HETATM   24  C   UNL     1      -6.866   3.672  67.854  1.00  0.00    -0.050 C  
HETATM   25  H   UNL     1      -9.562   0.918  67.219  1.00  0.00     0.000 HD 
HETATM   26  C   UNL     1      -6.622   4.668  66.662  1.00  0.00    -0.050 C  
ENDROOT
BRANCH   4  27
HETATM   27  C   UNL     1      -9.999  13.044  70.349  1.00  0.00     4.041 C  
HETATM   28  O   UNL     1     -11.440  14.929  70.557  1.00  0.00    -0.258 OA 
HETATM   29  C   UNL     1     -10.193  14.541  70.209  1.00  0.00     0.670 C  
HETATM   30  O   UNL     1      -9.338  15.316  69.834  1.00  0.00    -0.177 OA 
ENDBRANCH   4  27
BRANCH  15  31
HETATM   31  C   UNL     1     -10.593   4.948  66.281  1.00  0.00    -0.307 C  
HETATM   32  C   UNL     1     -11.174   5.136  64.895  1.00  0.00     1.305 C  
ENDBRANCH  15  31
TORSDOF 2
ENDMDL
MODEL       81
REMARK 921   NORMALIZED FREE ENERGY PREDICTED BY IDOCK:    7.09 KCAL/MOL
REMARK 922        TOTAL FREE ENERGY PREDICTED BY IDOCK:    7.73 KCAL/MOL
REMARK 923 INTER-LIGAND FREE ENERGY PREDICTED BY IDOCK:    7.27 KCAL/MOL
REMARK 924 INTRA-LIGAND FREE ENERGY PREDICTED BY IDOCK:    0.47 KCAL/MOL
REMARK 927      BINDING AFFINITY PREDICTED BY RF-SCORE:    0.00 PKD
ROOT
HETATM    1  C   UNL     1      -6.128   4.066  67.398  1.00  0.00    -0.028 C  
HETATM    2  C   UNL     1      -5.714   2.560  67.526  1.00  0.00    -0.019 C  
HETATM    3  C   UNL     1      -5.719   5.124  68.811  1.00  0.00    -0.016 C  
HETATM    4  C   UNL     1      -5.571   4.540  65.999  1.00  0.00    -0.017 C  
HETATM    5  C   UNL     1      -6.010   7.421  70.860  1.00  0.00    -0.035 C  
HETATM    6  C   UNL     1      -6.482   4.242  69.785  1.00  0.00    -0.032 C  
HETATM    7  C   UNL     1      -7.924   4.692  69.672  1.00  0.00    -0.065 C  
HETATM    8  C   UNL     1      -7.150   8.542  71.381  1.00  0.00    -0.083 C  
HETATM    9  C   UNL     1      -9.525   9.404  73.600  1.00  0.00     4.727 C  
HETATM   10  C   UNL     1      -8.633   7.984  71.583  1.00  0.00    -0.162 C  
HETATM   11  C   UNL     1      -7.793   6.077  70.171  1.00  0.00    -0.101 C  
HETATM   12  C   UNL     1      -8.974   7.009  70.394  1.00  0.00    -0.155 C  
HETATM   13  C   UNL     1     -10.178   6.153  70.798  1.00  0.00    -0.198 C  
HETATM   14  O   UNL     1     -10.479   5.145  69.860  1.00  0.00    -0.295 OA 
HETATM   15  C   UNL     1     -11.372   7.067  71.000  1.00  0.00    -0.325 C  
HETATM   16  C   UNL     1     -11.125   7.713  72.400  1.00  0.00    -0.362 C  
HETATM   17  C   UNL     1      -6.385   7.751  68.481  1.00  0.00    -0.044 C  
HETATM   18  H   UNL     1     -11.226   4.613  70.110  1.00  0.00     0.000 HD 
HETATM   19  C   UNL     1     -12.392   8.132  73.138  1.00  0.00     0.721 C  
HETATM   20  C   UNL     1      -6.494   6.621  69.545  1.00  0.00    -0.044 C  
HETATM   21  C   UNL     1     -13.015   9.444  72.718  1.00  0.00     0.039 C  
HETATM   22  O   UNL     1     -14.183   9.224  71.926  1.00  0.00    -0.266 OA 
HETATM   23  C   UNL     1     -12.070  10.464  72.067  1.00  0.00     0.325 C  
HETATM   24  C   UNL     1     -10.673  10.009  71.486  1.00  0.00     0.558 C  
HETATM   25  H   UNL     1     -14.574  10.050  71.663  1.00  0.00     0.000 HD 
HETATM   26  C   UNL     1      -9.973   8.816  72.233  1.00  0.00    -0.302 C  
ENDROOT
BRANCH   4  27
HETATM   27  C   UNL     1      -6.181   3.768  64.796  1.00  0.00    -0.023 C  
HETATM   28  O   UNL     1      -6.354   3.670  62.423  1.00  0.00    -0.020 OA 
HETATM   29  C   UNL     1      -5.865   4.395  63.453  1.00  0.00    -0.017 C  
HETATM   30  O   UNL     1      -5.248   5.429  63.301  1.00  0.00    -0.012 OA 
ENDBRANCH   4  27
BRANCH  15  31
HETATM   31  C   UNL     1     -12.681   6.388  70.570  1.00  0.00     0.834 C  
HETATM   32  C   UNL     1     -13.822   7.269  70.104  1.00  0.00     2.691 C  
ENDBRANCH  15  31
TORSDOF 2
ENDMDL
MODEL       82
REMARK 921   NORMALIZED FREE ENERGY PREDICTED BY IDOCK:    7.70 KCAL/MOL
REMARK 922        TOTAL FREE ENERGY PREDICTED BY IDOCK:    8.42 KCAL/MOL
REMARK 923 INTER-LIGAND FREE ENERGY PREDICTED BY IDOCK:    6.65 KCAL/MOL
REMARK 924 INTRA-LIGAND FREE ENERGY PREDICTED BY IDOCK:    1.76 KCAL/MOL
REMARK 927      BINDING AFFINITY PREDICTED BY RF-SCORE:    0.00 PKD
ROOT
HETATM    1  C   UNL     1      -9.306  17.108  68.646  1.00  0.00    -0.269 C  
HETATM    2  C   UNL     1     -10.135  18.182  67.862  1.00  0.00    -0.366 C  
HETATM    3  C   UNL     1      -7.989  16.286  67.712  1.00  0.00    -0.154 C  
HETATM    4  C   UNL     1      -8.862  17.813  69.987  1.00  0.00     2.104 C  
HETATM    5  C   UNL     1      -6.080  14.022  66.823  1.00  0.00     2.124 C  
HETATM    6  C   UNL     1      -8.950  15.815  66.633  1.00  0.00    -0.313 C  
HETATM    7  C   UNL     1      -9.562  14.543  67.181  1.00  0.00    -0.233 C  
HETATM    8  C   UNL     1      -5.881  12.362  67.008  1.00  0.00     0.028 C  
HETATM    9  C   UNL     1      -6.343   9.260  65.795  1.00  0.00    -0.067 C  
HETATM   10  C   UNL     1      -7.209  11.483  66.886  1.00  0.00    -0.137 C  
HETATM   11  C   UNL     1      -8.354  13.695  67.251  1.00  0.00    -0.182 C  
HETATM   12  C   UNL     1      -8.377  12.224  67.638  1.00  0.00    -0.166 C  
HETATM   13  C   UNL     1      -9.710  11.635  67.165  1.00  0.00    -0.181 C  
HETATM   14  O   UNL     1     -10.830  12.325  67.670  1.00  0.00    -0.213 OA 
HETATM   15  C   UNL     1      -9.758  10.172  67.566  1.00  0.00    -0.190 C  
HETATM   16  C   UNL     1      -8.854   9.458  66.512  1.00  0.00    -0.155 C  
HETATM   17  C   UNL     1      -6.527  14.495  69.165  1.00  0.00    -0.105 C  
HETATM   18  H   UNL     1     -11.656  11.959  67.377  1.00  0.00     0.000 HD 
HETATM   19  C   UNL     1      -9.216   7.999  66.250  1.00  0.00    -0.237 C  
HETATM   20  C   UNL     1      -7.234  14.610  67.784  1.00  0.00    -0.191 C  
HETATM   21  C   UNL     1      -8.721   6.990  67.259  1.00  0.00    -0.120 C  
HETATM   22  O   UNL     1      -9.783   6.550  68.106  1.00  0.00    -0.126 OA 
HETATM   23  C   UNL     1      -7.480   7.393  68.068  1.00  0.00    -0.105 C  
HETATM   24  C   UNL     1      -7.031   8.906  68.151  1.00  0.00    -0.077 C  
HETATM   25  H   UNL     1      -9.471   5.915  68.741  1.00  0.00     0.000 HD 
HETATM   26  C   UNL     1      -7.327   9.781  66.878  1.00  0.00    -0.091 C  
ENDROOT
BRANCH   4  27
HETATM   27  C   UNL     1     -10.055  18.248  70.883  1.00  0.00     3.000 C  
HETATM   28  O   UNL     1     -12.075  17.541  71.927  1.00  0.00     2.299 OA 
HETATM   29  C   UNL     1     -11.082  17.155  71.094  1.00  0.00     1.141 C  
HETATM   30  O   UNL     1     -11.038  16.056  70.581  1.00  0.00    -0.348 OA 
ENDBRANCH   4  27
BRANCH  15  31
HETATM   31  C   UNL     1     -11.185   9.735  67.933  1.00  0.00    -0.036 C  
HETATM   32  C   UNL     1     -12.096  10.753  68.587  1.00  0.00     0.021 C  
ENDBRANCH  15  31
TORSDOF 2
ENDMDL
MODEL       83
REMARK 921   NORMALIZED FREE ENERGY PREDICTED BY IDOCK:    9.54 KCAL/MOL
REMARK 922        TOTAL FREE ENERGY PREDICTED BY IDOCK:   10.47 KCAL/MOL
REMARK 923 INTER-LIGAND FREE ENERGY PREDICTED BY IDOCK:    9.47 KCAL/MOL
REMARK 924 INTRA-LIGAND FREE ENERGY PREDICTED BY IDOCK:    1.00 KCAL/MOL
REMARK 927      BINDING AFFINITY PREDICTED BY RF-SCORE:    0.00 PKD
ROOT
HETATM    1  C   UNL     1      -9.558  15.657  69.614  1.00  0.00    -0.260 C  
HETATM    2  C   UNL     1      -8.981  16.391  70.873  1.00  0.00     4.064 C  
HETATM    3  C   UNL     1     -10.340  14.052  69.921  1.00  0.00     0.627 C  
HETATM    4  C   UNL     1     -10.452  16.728  68.874  1.00  0.00    -0.332 C  
HETATM    5  C   UNL     1     -11.219  11.136  69.388  1.00  0.00    -0.334 C  
HETATM    6  C   UNL     1      -9.091  13.489  70.579  1.00  0.00     5.010 C  
HETATM    7  C   UNL     1      -8.222  13.017  69.432  1.00  0.00     0.984 C  
HETATM    8  C   UNL     1     -10.910   9.876  68.317  1.00  0.00    -0.275 C  
HETATM    9  C   UNL     1      -9.260   7.027  67.633  1.00  0.00    -0.120 C  
HETATM   10  C   UNL     1      -9.374   9.628  67.957  1.00  0.00    -0.142 C  
HETATM   11  C   UNL     1      -9.086  11.950  68.887  1.00  0.00     0.150 C  
HETATM   12  C   UNL     1      -8.670  11.022  67.755  1.00  0.00    -0.130 C  
HETATM   13  C   UNL     1      -7.154  10.818  67.849  1.00  0.00    -0.085 C  
HETATM   14  O   UNL     1      -6.432  12.028  67.824  1.00  0.00    -0.069 OA 
HETATM   15  C   UNL     1      -6.720   9.913  66.711  1.00  0.00    -0.079 C  
HETATM   16  C   UNL     1      -7.129   8.483  67.183  1.00  0.00    -0.076 C  
HETATM   17  C   UNL     1     -11.404  12.875  67.699  1.00  0.00    -0.349 C  
HETATM   18  H   UNL     1      -5.492  11.902  67.882  1.00  0.00     0.000 HD 
HETATM   19  C   UNL     1      -6.278   7.357  66.606  1.00  0.00    -0.044 C  
HETATM   20  C   UNL     1     -10.519  12.515  68.927  1.00  0.00    -0.109 C  
HETATM   21  C   UNL     1      -6.610   6.913  65.200  1.00  0.00    -0.046 C  
HETATM   22  O   UNL     1      -5.645   7.405  64.269  1.00  0.00    -0.033 OA 
HETATM   23  C   UNL     1      -8.045   7.181  64.726  1.00  0.00    -0.092 C  
HETATM   24  C   UNL     1      -8.960   8.224  65.482  1.00  0.00    -0.114 C  
HETATM   25  H   UNL     1      -5.854   7.126  63.384  1.00  0.00     0.000 HD 
HETATM   26  C   UNL     1      -8.720   8.354  67.030  1.00  0.00    -0.132 C  
ENDROOT
BRANCH   4  27
HETATM   27  C   UNL     1      -9.656  17.970  68.385  1.00  0.00    -0.338 C  
HETATM   28  O   UNL     1      -8.656  20.031  69.036  1.00  0.00    -0.022 OA 
HETATM   29  C   UNL     1      -9.405  18.993  69.474  1.00  0.00     0.269 C  
HETATM   30  O   UNL     1      -9.821  18.910  70.611  1.00  0.00     1.528 OA 
ENDBRANCH   4  27
BRANCH  15  31
HETATM   31  C   UNL     1      -5.327  10.296  66.188  1.00  0.00    -0.057 C  
HETATM   32  C   UNL     1      -5.242  11.090  64.900  1.00  0.00     0.076 C  
ENDBRANCH  15  31
TORSDOF 2
ENDMDL
MODEL       84
REMARK 921   NORMALIZED FREE ENERGY PREDICTED BY IDOCK:    9.90 KCAL/MOL
REMARK 922        TOTAL FREE ENERGY PREDICTED BY IDOCK:   10.87 KCAL/MOL
REMARK 923 INTER-LIGAND FREE ENERGY PREDICTED BY IDOCK:    5.60 KCAL/MOL
REMARK 924 INTRA-LIGAND FREE ENERGY PREDICTED BY IDOCK:    5.28 KCAL/MOL
REMARK 927      BINDING AFFINITY PREDICTED BY RF-SCORE:    0.00 PKD
ROOT
HETATM    1  C   UNL     1      -7.584  11.723  65.655  1.00  0.00     1.051 C  
HETATM    2  C   UNL     1      -8.785  12.674  65.327  1.00  0.00     1.399 C  
HETATM    3  C   UNL     1      -7.432  10.248  64.614  1.00  0.00    -0.093 C  
HETATM    4  C   UNL     1      -6.311  12.656  65.718  1.00  0.00     4.322 C  
HETATM    5  C   UNL     1      -6.777   7.325  63.851  1.00  0.00    -0.048 C  
HETATM    6  C   UNL     1      -8.839   9.781  64.946  1.00  0.00    -0.230 C  
HETATM    7  C   UNL     1      -8.707   9.048  66.264  1.00  0.00    -0.155 C  
HETATM    8  C   UNL     1      -6.394   5.860  64.584  1.00  0.00    -0.033 C  
HETATM    9  C   UNL     1      -7.414   2.865  65.723  1.00  0.00    -0.072 C  
HETATM   10  C   UNL     1      -7.258   5.479  65.873  1.00  0.00    -0.072 C  
HETATM   11  C   UNL     1      -7.841   7.928  65.842  1.00  0.00    -0.101 C  
HETATM   12  C   UNL     1      -7.453   6.772  66.751  1.00  0.00    -0.082 C  
HETATM   13  C   UNL     1      -8.613   6.528  67.722  1.00  0.00    -0.117 C  
HETATM   14  O   UNL     1      -8.966   7.676  68.459  1.00  0.00    -0.130 OA 
HETATM   15  C   UNL     1      -8.231   5.392  68.652  1.00  0.00    -0.094 C  
HETATM   16  C   UNL     1      -8.438   4.107  67.790  1.00  0.00    -0.104 C  
HETATM   17  C   UNL     1      -5.266   8.687  65.182  1.00  0.00    -0.035 C  
HETATM   18  H   UNL     1      -9.686   7.525  69.062  1.00  0.00     0.000 HD 
HETATM   19  C   UNL     1      -8.768   2.852  68.591  1.00  0.00    -0.137 C  
HETATM   20  C   UNL     1      -6.790   8.549  64.901  1.00  0.00    -0.072 C  
HETATM   21  C   UNL     1      -7.603   2.144  69.244  1.00  0.00    -0.043 C  
HETATM   22  O   UNL     1      -7.578   2.394  70.650  1.00  0.00    -0.036 OA 
HETATM   23  C   UNL     1      -6.227   2.368  68.603  1.00  0.00    -0.025 C  
HETATM   24  C   UNL     1      -5.986   3.582  67.620  1.00  0.00    -0.027 C  
HETATM   25  H   UNL     1      -6.845   1.948  71.061  1.00  0.00     0.000 HD 
HETATM   26  C   UNL     1      -7.221   4.016  66.749  1.00  0.00    -0.071 C  
ENDROOT
BRANCH   4  27
HETATM   27  C   UNL     1      -6.389  13.736  66.833  1.00  0.00     1.411 C  
HETATM   28  O   UNL     1      -7.846  15.026  68.205  1.00  0.00    -0.112 OA 
HETATM   29  C   UNL     1      -7.807  14.133  67.191  1.00  0.00    -0.037 C  
HETATM   30  O   UNL     1      -8.803  13.712  66.640  1.00  0.00    -0.181 OA 
ENDBRANCH   4  27
BRANCH  15  31
HETATM   31  C   UNL     1      -8.806   5.600  70.062  1.00  0.00    -0.136 C  
HETATM   32  C   UNL     1     -10.273   5.296  70.285  1.00  0.00    -0.345 C  
ENDBRANCH  15  31
TORSDOF 2
ENDMDL
MODEL       85
REMARK 921   NORMALIZED FREE ENERGY PREDICTED BY IDOCK:   10.80 KCAL/MOL
REMARK 922        TOTAL FREE ENERGY PREDICTED BY IDOCK:   11.88 KCAL/MOL
REMARK 923 INTER-LIGAND FREE ENERGY PREDICTED BY IDOCK:   11.19 KCAL/MOL
REMARK 924 INTRA-LIGAND FREE ENERGY PREDICTED BY IDOCK:    0.68 KCAL/MOL
REMARK 927      BINDING AFFINITY PREDICTED BY RF-SCORE:    0.00 PKD
ROOT
HETATM    1  C   UNL     1      -7.778  11.680  65.814  1.00  0.00     0.603 C  
HETATM    2  C   UNL     1      -8.224  12.111  64.375  1.00  0.00     2.639 C  
HETATM    3  C   UNL     1      -7.605   9.898  66.089  1.00  0.00    -0.104 C  
HETATM    4  C   UNL     1      -6.506  12.555  66.142  1.00  0.00     2.324 C  
HETATM    5  C   UNL     1      -7.671   7.205  67.608  1.00  0.00    -0.112 C  
HETATM    6  C   UNL     1      -9.035   9.619  65.659  1.00  0.00    -0.208 C  
HETATM    7  C   UNL     1      -9.873   9.881  66.892  1.00  0.00    -0.252 C  
HETATM    8  C   UNL     1      -8.250   6.555  69.047  1.00  0.00    -0.116 C  
HETATM    9  C   UNL     1     -10.651   4.846  70.666  1.00  0.00    -0.068 C  
HETATM   10  C   UNL     1      -9.732   6.986  69.460  1.00  0.00    -0.160 C  
HETATM   11  C   UNL     1      -9.350   8.822  67.779  1.00  0.00    -0.157 C  
HETATM   12  C   UNL     1      -9.914   8.521  69.160  1.00  0.00    -0.194 C  
HETATM   13  C   UNL     1     -11.414   8.836  69.132  1.00  0.00     0.636 C  
HETATM   14  O   UNL     1     -11.694  10.157  68.730  1.00  0.00    -0.510 OA 
HETATM   15  C   UNL     1     -11.987   8.564  70.510  1.00  0.00     0.055 C  
HETATM   16  C   UNL     1     -12.124   7.010  70.567  1.00  0.00    -0.278 C  
HETATM   17  C   UNL     1      -6.737   9.224  68.589  1.00  0.00    -0.054 C  
HETATM   18  H   UNL     1     -12.624  10.352  68.713  1.00  0.00     0.000 HD 
HETATM   19  C   UNL     1     -13.225   6.503  71.493  1.00  0.00     0.106 C  
HETATM   20  C   UNL     1      -7.825   8.810  67.556  1.00  0.00    -0.102 C  
HETATM   21  C   UNL     1     -12.899   6.460  72.968  1.00  0.00     1.528 C  
HETATM   22  O   UNL     1     -13.537   7.531  73.664  1.00  0.00     2.171 OA 
HETATM   23  C   UNL     1     -11.411   6.355  73.330  1.00  0.00     0.093 C  
HETATM   24  C   UNL     1     -10.297   6.708  72.265  1.00  0.00    -0.219 C  
HETATM   25  H   UNL     1     -13.332   7.504  74.591  1.00  0.00     0.000 HD 
HETATM   26  C   UNL     1     -10.656   6.397  70.766  1.00  0.00    -0.288 C  
ENDROOT
BRANCH   4  27
HETATM   27  C   UNL     1      -6.793  14.082  66.164  1.00  0.00     4.727 C  
HETATM   28  O   UNL     1      -6.932  16.024  67.535  1.00  0.00    -0.142 OA 
HETATM   29  C   UNL     1      -6.742  14.686  67.553  1.00  0.00    -0.122 C  
HETATM   30  O   UNL     1      -6.557  14.057  68.574  1.00  0.00    -0.084 OA 
ENDBRANCH   4  27
BRANCH  15  31
HETATM   31  C   UNL     1     -13.110   9.553  70.858  1.00  0.00    -0.169 C  
HETATM   32  C   UNL     1     -12.809  11.035  70.764  1.00  0.00    -0.354 C  
ENDBRANCH  15  31
TORSDOF 2
ENDMDL
MODEL       86
REMARK 921   NORMALIZED FREE ENERGY PREDICTED BY IDOCK:   11.81 KCAL/MOL
REMARK 922        TOTAL FREE ENERGY PREDICTED BY IDOCK:   13.00 KCAL/MOL
REMARK 923 INTER-LIGAND FREE ENERGY PREDICTED BY IDOCK:    7.61 KCAL/MOL
REMARK 924 INTRA-LIGAND FREE ENERGY PREDICTED BY IDOCK:    5.39 KCAL/MOL
REMARK 927      BINDING AFFINITY PREDICTED BY RF-SCORE:    0.00 PKD
ROOT
HETATM    1  C   UNL     1      -9.546  15.722  68.776  1.00  0.00    -0.216 C  
HETATM    2  C   UNL     1      -8.635  16.978  68.554  1.00  0.00    -0.257 C  
HETATM    3  C   UNL     1      -8.751  14.294  69.557  1.00  0.00     0.537 C  
HETATM    4  C   UNL     1     -10.845  16.264  69.491  1.00  0.00    -0.342 C  
HETATM    5  C   UNL     1      -8.150  11.326  70.182  1.00  0.00     1.822 C  
HETATM    6  C   UNL     1      -7.667  14.225  68.495  1.00  0.00    -0.137 C  
HETATM    7  C   UNL     1      -8.286  13.447  67.353  1.00  0.00    -0.193 C  
HETATM    8  C   UNL     1      -8.481   9.793  69.576  1.00  0.00    -0.176 C  
HETATM    9  C   UNL     1      -7.505   7.166  67.717  1.00  0.00    -0.098 C  
HETATM   10  C   UNL     1      -8.364   9.629  67.992  1.00  0.00    -0.117 C  
HETATM   11  C   UNL     1      -8.487  12.144  68.019  1.00  0.00    -0.170 C  
HETATM   12  C   UNL     1      -8.992  10.899  67.304  1.00  0.00    -0.139 C  
HETATM   13  C   UNL     1      -8.502  10.959  65.854  1.00  0.00    -0.158 C  
HETATM   14  O   UNL     1      -8.891  12.138  65.187  1.00  0.00    -0.162 OA 
HETATM   15  C   UNL     1      -9.019   9.735  65.121  1.00  0.00    -0.237 C  
HETATM   16  C   UNL     1      -8.075   8.583  65.589  1.00  0.00    -0.119 C  
HETATM   17  C   UNL     1     -10.419  12.178  69.996  1.00  0.00     1.418 C  
HETATM   18  H   UNL     1      -8.587  12.175  64.288  1.00  0.00     0.000 HD 
HETATM   19  C   UNL     1      -7.916   7.446  64.586  1.00  0.00    -0.127 C  
HETATM   20  C   UNL     1      -8.999  12.476  69.434  1.00  0.00     1.261 C  
HETATM   21  C   UNL     1      -9.029   6.425  64.542  1.00  0.00     0.674 C  
HETATM   22  O   UNL     1      -9.854   6.617  63.392  1.00  0.00     2.713 OA 
HETATM   23  C   UNL     1      -9.864   6.277  65.821  1.00  0.00     0.373 C  
HETATM   24  C   UNL     1      -9.844   7.404  66.929  1.00  0.00    -0.284 C  
HETATM   25  H   UNL     1     -10.554   5.974  63.364  1.00  0.00     0.000 HD 
HETATM   26  C   UNL     1      -8.491   8.189  67.087  1.00  0.00    -0.124 C  
ENDROOT
BRANCH   4  27
HETATM   27  C   UNL     1     -11.640  17.291  68.637  1.00  0.00     0.929 C  
HETATM   28  O   UNL     1     -11.758  18.413  66.540  1.00  0.00     1.535 OA 
HETATM   29  C   UNL     1     -11.014  17.566  67.285  1.00  0.00    -0.013 C  
HETATM   30  O   UNL     1      -9.965  17.092  66.900  1.00  0.00    -0.268 OA 
ENDBRANCH   4  27
BRANCH  15  31
HETATM   31  C   UNL     1      -9.347  10.054  63.654  1.00  0.00    -0.301 C  
HETATM   32  C   UNL     1      -8.919   9.060  62.595  1.00  0.00    -0.020 C  
ENDBRANCH  15  31
TORSDOF 2
ENDMDL
MODEL       87
REMARK 921   NORMALIZED FREE ENERGY PREDICTED BY IDOCK:   12.59 KCAL/MOL
REMARK 922        TOTAL FREE ENERGY PREDICTED BY IDOCK:   13.88 KCAL/MOL
REMARK 923 INTER-LIGAND FREE ENERGY PREDICTED BY IDOCK:    7.44 KCAL/MOL
REMARK 924 INTRA-LIGAND FREE ENERGY PREDICTED BY IDOCK:    6.44 KCAL/MOL
REMARK 927      BINDING AFFINITY PREDICTED BY RF-SCORE:    0.00 PKD
ROOT
HETATM    1  C   UNL     1      -7.182  16.033  67.025  1.00  0.00    -0.249 C  
HETATM    2  C   UNL     1      -5.941  16.916  67.395  1.00  0.00    -0.181 C  
HETATM    3  C   UNL     1      -8.108  15.341  68.421  1.00  0.00    -0.137 C  
HETATM    4  C   UNL     1      -8.022  16.892  66.001  1.00  0.00    -0.147 C  
HETATM    5  C   UNL     1      -9.814  13.315  70.015  1.00  0.00     2.449 C  
HETATM    6  C   UNL     1      -6.876  14.658  68.992  1.00  0.00    -0.111 C  
HETATM    7  C   UNL     1      -6.761  13.356  68.228  1.00  0.00    -0.105 C  
HETATM    8  C   UNL     1     -10.338  11.720  69.919  1.00  0.00     1.015 C  
HETATM    9  C   UNL     1      -9.923   8.502  70.803  1.00  0.00    -0.230 C  
HETATM   10  C   UNL     1      -9.241  10.652  69.464  1.00  0.00     0.008 C  
HETATM   11  C   UNL     1      -8.008  12.698  68.667  1.00  0.00    -0.030 C  
HETATM   12  C   UNL     1      -8.386  11.271  68.295  1.00  0.00    -0.150 C  
HETATM   13  C   UNL     1      -7.091  10.463  68.159  1.00  0.00    -0.082 C  
HETATM   14  O   UNL     1      -6.186  11.021  67.235  1.00  0.00    -0.058 OA 
HETATM   15  C   UNL     1      -7.450   9.043  67.765  1.00  0.00    -0.085 C  
HETATM   16  C   UNL     1      -7.939   8.389  69.097  1.00  0.00    -0.110 C  
HETATM   17  C   UNL     1     -10.308  13.892  67.706  1.00  0.00    -0.240 C  
HETATM   18  H   UNL     1      -5.383  10.520  67.150  1.00  0.00     0.000 HD 
HETATM   19  C   UNL     1      -7.742   6.879  69.171  1.00  0.00    -0.106 C  
HETATM   20  C   UNL     1      -9.084  13.801  68.661  1.00  0.00    -0.063 C  
HETATM   21  C   UNL     1      -8.767   6.029  68.457  1.00  0.00    -0.110 C  
HETATM   22  O   UNL     1      -8.237   5.505  67.238  1.00  0.00    -0.102 OA 
HETATM   23  C   UNL     1     -10.148   6.665  68.248  1.00  0.00    -0.170 C  
HETATM   24  C   UNL     1     -10.340   8.229  68.374  1.00  0.00    -0.237 C  
HETATM   25  H   UNL     1      -8.882   4.971  66.789  1.00  0.00     0.000 HD 
HETATM   26  C   UNL     1      -9.406   8.955  69.409  1.00  0.00    -0.153 C  
ENDROOT
BRANCH   4  27
HETATM   27  C   UNL     1      -7.254  17.217  64.689  1.00  0.00     5.349 C  
HETATM   28  O   UNL     1      -5.129  17.733  63.746  1.00  0.00     0.555 OA 
HETATM   29  C   UNL     1      -5.785  17.516  64.908  1.00  0.00     1.209 C  
HETATM   30  O   UNL     1      -5.243  17.563  65.993  1.00  0.00    -0.186 OA 
ENDBRANCH   4  27
BRANCH  15  31
HETATM   31  C   UNL     1      -6.396   8.434  66.829  1.00  0.00    -0.056 C  
HETATM   32  C   UNL     1      -5.569   9.377  65.978  1.00  0.00    -0.045 C  
ENDBRANCH  15  31
TORSDOF 2
ENDMDL
MODEL       88
REMARK 921   NORMALIZED FREE ENERGY PREDICTED BY IDOCK:   13.57 KCAL/MOL
REMARK 922        TOTAL FREE ENERGY PREDICTED BY IDOCK:   14.97 KCAL/MOL
REMARK 923 INTER-LIGAND FREE ENERGY PREDICTED BY IDOCK:   15.25 KCAL/MOL
REMARK 924 INTRA-LIGAND FREE ENERGY PREDICTED BY IDOCK:   -0.28 KCAL/MOL
REMARK 927      BINDING AFFINITY PREDICTED BY RF-SCORE:    0.00 PKD
ROOT
HETATM    1  C   UNL     1      -9.649   7.588  68.646  1.00  0.00    -0.151 C  
HETATM    2  C   UNL     1     -10.167   6.765  67.417  1.00  0.00    -0.254 C  
HETATM    3  C   UNL     1     -10.760   7.662  70.075  1.00  0.00    -0.245 C  
HETATM    4  C   UNL     1      -8.193   7.048  68.932  1.00  0.00    -0.122 C  
HETATM    5  C   UNL     1     -12.150   8.835  72.575  1.00  0.00    -0.320 C  
HETATM    6  C   UNL     1     -11.901   8.232  69.250  1.00  0.00     1.363 C  
HETATM    7  C   UNL     1     -11.635   9.721  69.189  1.00  0.00     0.150 C  
HETATM    8  C   UNL     1     -12.335  10.304  73.373  1.00  0.00     6.411 C  
HETATM    9  C   UNL     1     -14.189  13.051  73.941  1.00  0.00     7.900 C  
HETATM   10  C   UNL     1     -12.626  11.570  72.443  1.00  0.00     1.104 C  
HETATM   11  C   UNL     1     -11.770  10.058  70.621  1.00  0.00    -0.421 C  
HETATM   12  C   UNL     1     -11.713  11.479  71.163  1.00  0.00     0.560 C  
HETATM   13  C   UNL     1     -12.283  12.413  70.092  1.00  0.00    -0.229 C  
HETATM   14  O   UNL     1     -11.623  12.301  68.852  1.00  0.00    -0.269 OA 
HETATM   15  C   UNL     1     -12.211  13.838  70.609  1.00  0.00    -0.434 C  
HETATM   16  C   UNL     1     -13.409  13.943  71.605  1.00  0.00    -0.437 C  
HETATM   17  C   UNL     1      -9.755   9.033  72.212  1.00  0.00     0.077 C  
HETATM   18  H   UNL     1     -11.977  12.881  68.187  1.00  0.00     0.000 HD 
HETATM   19  C   UNL     1     -13.977  15.349  71.766  1.00  0.00    -0.626 C  
HETATM   20  C   UNL     1     -11.067   8.918  71.383  1.00  0.00    -0.376 C  
HETATM   21  C   UNL     1     -13.220  16.282  72.684  1.00  0.00     0.022 C  
HETATM   22  O   UNL     1     -12.474  17.242  71.934  1.00  0.00     1.820 OA 
HETATM   23  C   UNL     1     -12.361  15.616  73.768  1.00  0.00    -0.722 C  
HETATM   24  C   UNL     1     -11.957  14.093  73.651  1.00  0.00     0.864 C  
HETATM   25  H   UNL     1     -11.998  17.828  72.512  1.00  0.00     0.000 HD 
HETATM   26  C   UNL     1     -13.003  13.157  72.942  1.00  0.00     0.483 C  
ENDROOT
BRANCH   4  27
HETATM   27  C   UNL     1      -7.207   7.271  67.752  1.00  0.00    -0.091 C  
HETATM   28  O   UNL     1      -5.886   8.873  66.586  1.00  0.00    -0.050 OA 
HETATM   29  C   UNL     1      -6.792   8.718  67.578  1.00  0.00    -0.071 C  
HETATM   30  O   UNL     1      -7.215   9.643  68.239  1.00  0.00    -0.077 OA 
ENDBRANCH   4  27
BRANCH  15  31
HETATM   31  C   UNL     1     -11.927  14.835  69.475  1.00  0.00    -0.351 C  
HETATM   32  C   UNL     1     -10.520  15.379  69.340  1.00  0.00    -0.257 C  
ENDBRANCH  15  31
TORSDOF 2
ENDMDL
MODEL       89
REMARK 921   NORMALIZED FREE ENERGY PREDICTED BY IDOCK:   13.60 KCAL/MOL
REMARK 922        TOTAL FREE ENERGY PREDICTED BY IDOCK:   15.00 KCAL/MOL
REMARK 923 INTER-LIGAND FREE ENERGY PREDICTED BY IDOCK:    8.97 KCAL/MOL
REMARK 924 INTRA-LIGAND FREE ENERGY PREDICTED BY IDOCK:    6.03 KCAL/MOL
REMARK 927      BINDING AFFINITY PREDICTED BY RF-SCORE:    0.00 PKD
ROOT
HETATM    1  C   UNL     1      -8.299  16.094  66.831  1.00  0.00    -0.271 C  
HETATM    2  C   UNL     1      -7.828  17.039  65.673  1.00  0.00     0.704 C  
HETATM    3  C   UNL     1      -7.000  15.120  67.637  1.00  0.00    -0.206 C  
HETATM    4  C   UNL     1      -9.173  16.999  67.785  1.00  0.00    -0.236 C  
HETATM    5  C   UNL     1      -5.684  12.723  69.080  1.00  0.00    -0.072 C  
HETATM    6  C   UNL     1      -6.557  14.494  66.325  1.00  0.00     4.270 C  
HETATM    7  C   UNL     1      -7.503  13.332  66.106  1.00  0.00     2.699 C  
HETATM    8  C   UNL     1      -5.999  11.112  69.445  1.00  0.00    -0.057 C  
HETATM    9  C   UNL     1      -5.597   7.862  68.684  1.00  0.00    -0.028 C  
HETATM   10  C   UNL     1      -6.624  10.239  68.263  1.00  0.00    -0.057 C  
HETATM   11  C   UNL     1      -7.141  12.493  67.267  1.00  0.00    -0.114 C  
HETATM   12  C   UNL     1      -7.707  11.102  67.513  1.00  0.00    -0.116 C  
HETATM   13  C   UNL     1      -7.981  10.459  66.150  1.00  0.00    -0.138 C  
HETATM   14  O   UNL     1      -8.832  11.233  65.336  1.00  0.00    -0.330 OA 
HETATM   15  C   UNL     1      -8.570   9.079  66.379  1.00  0.00    -0.136 C  
HETATM   16  C   UNL     1      -7.338   8.197  66.756  1.00  0.00    -0.083 C  
HETATM   17  C   UNL     1      -7.877  13.568  69.705  1.00  0.00     0.930 C  
HETATM   18  H   UNL     1      -9.003  10.834  64.490  1.00  0.00     0.000 HD 
HETATM   19  C   UNL     1      -7.485   6.720  66.407  1.00  0.00    -0.074 C  
HETATM   20  C   UNL     1      -6.967  13.469  68.447  1.00  0.00    -0.105 C  
HETATM   21  C   UNL     1      -8.296   5.879  67.366  1.00  0.00    -0.105 C  
HETATM   22  O   UNL     1      -9.587   5.590  66.827  1.00  0.00    -0.131 OA 
HETATM   23  C   UNL     1      -8.385   6.393  68.810  1.00  0.00    -0.121 C  
HETATM   24  C   UNL     1      -8.032   7.894  69.152  1.00  0.00    -0.118 C  
HETATM   25  H   UNL     1     -10.096   5.061  67.430  1.00  0.00     0.000 HD 
HETATM   26  C   UNL     1      -6.920   8.559  68.261  1.00  0.00    -0.070 C  
ENDROOT
BRANCH   4  27
HETATM   27  C   UNL     1     -10.438  17.584  67.097  1.00  0.00    -0.312 C  
HETATM   28  O   UNL     1     -11.695  17.680  65.077  1.00  0.00     0.790 OA 
HETATM   29  C   UNL     1     -10.555  17.211  65.633  1.00  0.00    -0.179 C  
HETATM   30  O   UNL     1      -9.731  16.570  65.014  1.00  0.00    -0.063 OA 
ENDBRANCH   4  27
BRANCH  15  31
HETATM   31  C   UNL     1      -9.603   8.722  65.300  1.00  0.00     0.236 C  
HETATM   32  C   UNL     1     -10.114   7.297  65.246  1.00  0.00     2.458 C  
ENDBRANCH  15  31
TORSDOF 2
ENDMDL
MODEL       90
REMARK 921   NORMALIZED FREE ENERGY PREDICTED BY IDOCK:   14.43 KCAL/MOL
REMARK 922        TOTAL FREE ENERGY PREDICTED BY IDOCK:   15.93 KCAL/MOL
REMARK 923 INTER-LIGAND FREE ENERGY PREDICTED BY IDOCK:   14.81 KCAL/MOL
REMARK 924 INTRA-LIGAND FREE ENERGY PREDICTED BY IDOCK:    1.12 KCAL/MOL
REMARK 927      BINDING AFFINITY PREDICTED BY RF-SCORE:    0.00 PKD
ROOT
HETATM    1  C   UNL     1      -9.140  11.375  63.805  1.00  0.00     0.051 C  
HETATM    2  C   UNL     1      -8.359  11.901  62.552  1.00  0.00     1.205 C  
HETATM    3  C   UNL     1     -10.766  12.121  64.096  1.00  0.00    -0.405 C  
HETATM    4  C   UNL     1      -9.116   9.801  63.688  1.00  0.00    -0.269 C  
HETATM    5  C   UNL     1     -13.189  13.199  65.685  1.00  0.00     0.682 C  
HETATM    6  C   UNL     1     -10.193  13.528  64.137  1.00  0.00     0.183 C  
HETATM    7  C   UNL     1      -9.690  13.705  65.554  1.00  0.00    -0.086 C  
HETATM    8  C   UNL     1     -13.616  13.604  67.260  1.00  0.00     5.960 C  
HETATM    9  C   UNL     1     -13.998  15.975  69.613  1.00  0.00     3.762 C  
HETATM   10  C   UNL     1     -12.527  14.431  68.086  1.00  0.00     0.214 C  
HETATM   11  C   UNL     1     -10.969  13.611  66.287  1.00  0.00    -0.300 C  
HETATM   12  C   UNL     1     -11.102  13.833  67.786  1.00  0.00    -0.288 C  
HETATM   13  C   UNL     1     -10.046  14.861  68.204  1.00  0.00    -0.222 C  
HETATM   14  O   UNL     1      -8.736  14.484  67.846  1.00  0.00    -0.153 OA 
HETATM   15  C   UNL     1     -10.150  15.075  69.702  1.00  0.00    -0.139 C  
HETATM   16  C   UNL     1     -11.392  16.006  69.869  1.00  0.00    -0.340 C  
HETATM   17  C   UNL     1     -12.108  11.093  66.239  1.00  0.00     1.745 C  
HETATM   18  H   UNL     1      -8.081  15.121  68.105  1.00  0.00     0.000 HD 
HETATM   19  C   UNL     1     -11.358  16.892  71.110  1.00  0.00     0.563 C  
HETATM   20  C   UNL     1     -11.752  12.469  65.608  1.00  0.00    -0.473 C  
HETATM   21  C   UNL     1     -11.755  16.241  72.415  1.00  0.00    -0.413 C  
HETATM   22  O   UNL     1     -10.607  15.974  73.222  1.00  0.00     2.837 OA 
HETATM   23  C   UNL     1     -12.672  15.015  72.309  1.00  0.00    -0.418 C  
HETATM   24  C   UNL     1     -12.824  14.240  70.940  1.00  0.00    -0.416 C  
HETATM   25  H   UNL     1     -10.857  15.565  74.043  1.00  0.00     0.000 HD 
HETATM   26  C   UNL     1     -12.705  15.115  69.639  1.00  0.00     0.017 C  
ENDROOT
BRANCH   4  27
HETATM   27  C   UNL     1      -7.684   9.199  63.726  1.00  0.00    -0.119 C  
HETATM   28  O   UNL     1      -5.531   9.341  64.733  1.00  0.00    -0.052 OA 
HETATM   29  C   UNL     1      -6.749   9.924  64.673  1.00  0.00    -0.123 C  
HETATM   30  O   UNL     1      -7.041  10.915  65.308  1.00  0.00     0.047 OA 
ENDBRANCH   4  27
BRANCH  15  31
HETATM   31  C   UNL     1      -8.772  15.335  70.331  1.00  0.00     1.094 C  
HETATM   32  C   UNL     1      -7.961  16.504  69.813  1.00  0.00     0.671 C  
ENDBRANCH  15  31
TORSDOF 2
ENDMDL
MODEL       91
REMARK 921   NORMALIZED FREE ENERGY PREDICTED BY IDOCK:   14.96 KCAL/MOL
REMARK 922        TOTAL FREE ENERGY PREDICTED BY IDOCK:   16.52 KCAL/MOL
REMARK 923 INTER-LIGAND FREE ENERGY PREDICTED BY IDOCK:   16.91 KCAL/MOL
REMARK 924 INTRA-LIGAND FREE ENERGY PREDICTED BY IDOCK:   -0.39 KCAL/MOL
REMARK 927      BINDING AFFINITY PREDICTED BY RF-SCORE:    0.00 PKD
ROOT
HETATM    1  C   UNL     1      -8.470  10.037  65.439  1.00  0.00    -0.158 C  
HETATM    2  C   UNL     1      -8.946   9.725  63.979  1.00  0.00    -0.275 C  
HETATM    3  C   UNL     1      -9.176   8.995  66.743  1.00  0.00    -0.198 C  
HETATM    4  C   UNL     1      -6.894  10.081  65.370  1.00  0.00    -0.122 C  
HETATM    5  C   UNL     1     -10.263   8.227  69.533  1.00  0.00    -0.210 C  
HETATM    6  C   UNL     1     -10.601   9.348  66.353  1.00  0.00    -0.065 C  
HETATM    7  C   UNL     1     -10.882  10.666  67.045  1.00  0.00    -0.298 C  
HETATM    8  C   UNL     1     -10.749   8.956  70.969  1.00  0.00    -0.315 C  
HETATM    9  C   UNL     1     -13.245  10.114  72.902  1.00  0.00     1.060 C  
HETATM   10  C   UNL     1     -11.662  10.258  70.815  1.00  0.00    -0.453 C  
HETATM   11  C   UNL     1     -10.788  10.233  68.454  1.00  0.00    -0.288 C  
HETATM   12  C   UNL     1     -11.096  11.137  69.638  1.00  0.00    -0.297 C  
HETATM   13  C   UNL     1     -12.183  12.125  69.203  1.00  0.00    -0.032 C  
HETATM   14  O   UNL     1     -11.831  12.866  68.058  1.00  0.00    -0.346 OA 
HETATM   15  C   UNL     1     -12.485  13.051  70.367  1.00  0.00    -0.266 C  
HETATM   16  C   UNL     1     -13.381  12.193  71.315  1.00  0.00     0.116 C  
HETATM   17  C   UNL     1      -8.234   9.535  69.248  1.00  0.00    -0.112 C  
HETATM   18  H   UNL     1     -12.505  13.479  67.788  1.00  0.00     0.000 HD 
HETATM   19  C   UNL     1     -14.341  13.001  72.182  1.00  0.00     0.126 C  
HETATM   20  C   UNL     1      -9.581   9.276  68.515  1.00  0.00    -0.155 C  
HETATM   21  C   UNL     1     -13.758  13.639  73.422  1.00  0.00     2.017 C  
HETATM   22  O   UNL     1     -13.580  15.044  73.238  1.00  0.00    -0.563 OA 
HETATM   23  C   UNL     1     -12.497  12.977  73.994  1.00  0.00     7.289 C  
HETATM   24  C   UNL     1     -11.635  11.989  73.111  1.00  0.00     9.904 C  
HETATM   25  H   UNL     1     -13.213  15.445  74.017  1.00  0.00     0.000 HD 
HETATM   26  C   UNL     1     -12.432  11.136  72.059  1.00  0.00     0.222 C  
ENDROOT
BRANCH   4  27
HETATM   27  C   UNL     1      -6.345  11.195  64.436  1.00  0.00     1.028 C  
HETATM   28  O   UNL     1      -5.132  11.647  62.437  1.00  0.00    -0.147 OA 
HETATM   29  C   UNL     1      -5.543  10.661  63.266  1.00  0.00    -0.120 C  
HETATM   30  O   UNL     1      -5.286   9.490  63.081  1.00  0.00    -0.069 OA 
ENDBRANCH   4  27
BRANCH  15  31
HETATM   31  C   UNL     1     -12.830  14.468  69.884  1.00  0.00     0.015 C  
HETATM   32  C   UNL     1     -11.825  15.573  70.140  1.00  0.00    -0.378 C  
ENDBRANCH  15  31
TORSDOF 2
ENDMDL
MODEL       92
REMARK 921   NORMALIZED FREE ENERGY PREDICTED BY IDOCK:   15.15 KCAL/MOL
REMARK 922        TOTAL FREE ENERGY PREDICTED BY IDOCK:   16.73 KCAL/MOL
REMARK 923 INTER-LIGAND FREE ENERGY PREDICTED BY IDOCK:   16.59 KCAL/MOL
REMARK 924 INTRA-LIGAND FREE ENERGY PREDICTED BY IDOCK:    0.15 KCAL/MOL
REMARK 927      BINDING AFFINITY PREDICTED BY RF-SCORE:    0.00 PKD
ROOT
HETATM    1  C   UNL     1     -10.965   3.950  70.528  1.00  0.00     2.720 C  
HETATM    2  C   UNL     1     -10.481   2.645  71.248  1.00  0.00     0.841 C  
HETATM    3  C   UNL     1     -10.840   3.952  68.721  1.00  0.00     3.104 C  
HETATM    4  C   UNL     1     -12.397   4.252  71.120  1.00  0.00     7.734 C  
HETATM    5  C   UNL     1     -10.425   5.076  65.871  1.00  0.00    -0.233 C  
HETATM    6  C   UNL     1      -9.351   3.650  68.751  1.00  0.00    -0.231 C  
HETATM    7  C   UNL     1      -8.683   4.994  68.950  1.00  0.00    -0.100 C  
HETATM    8  C   UNL     1      -9.865   6.466  65.106  1.00  0.00     1.494 C  
HETATM    9  C   UNL     1      -7.347   8.089  63.580  1.00  0.00    -0.106 C  
HETATM   10  C   UNL     1      -8.526   7.099  65.704  1.00  0.00    -0.141 C  
HETATM   11  C   UNL     1      -9.084   5.660  67.693  1.00  0.00    -0.106 C  
HETATM   12  C   UNL     1      -8.596   7.040  67.276  1.00  0.00    -0.121 C  
HETATM   13  C   UNL     1      -7.181   7.225  67.832  1.00  0.00    -0.091 C  
HETATM   14  O   UNL     1      -7.107   7.046  69.228  1.00  0.00    -0.077 OA 
HETATM   15  C   UNL     1      -6.689   8.607  67.444  1.00  0.00    -0.063 C  
HETATM   16  C   UNL     1      -6.282   8.460  65.944  1.00  0.00    -0.052 C  
HETATM   17  C   UNL     1     -11.786   6.219  67.530  1.00  0.00     1.142 C  
HETATM   18  H   UNL     1      -6.230   7.161  69.573  1.00  0.00     0.000 HD 
HETATM   19  C   UNL     1      -5.192   9.424  65.486  1.00  0.00    -0.036 C  
HETATM   20  C   UNL     1     -10.557   5.267  67.467  1.00  0.00    -0.147 C  
HETATM   21  C   UNL     1      -5.632  10.833  65.158  1.00  0.00    -0.087 C  
HETATM   22  O   UNL     1      -5.259  11.739  66.197  1.00  0.00    -0.427 OA 
HETATM   23  C   UNL     1      -7.103  11.007  64.755  1.00  0.00     0.645 C  
HETATM   24  C   UNL     1      -8.165   9.884  65.084  1.00  0.00    -0.144 C  
HETATM   25  H   UNL     1      -5.535  12.625  65.990  1.00  0.00     0.000 HD 
HETATM   26  C   UNL     1      -7.628   8.406  65.075  1.00  0.00    -0.094 C  
ENDROOT
BRANCH   4  27
HETATM   27  C   UNL     1     -12.391   4.520  72.651  1.00  0.00     0.955 C  
HETATM   28  O   UNL     1     -11.368   5.749  74.416  1.00  0.00     0.713 OA 
HETATM   29  C   UNL     1     -11.310   5.487  73.091  1.00  0.00    -0.225 C  
HETATM   30  O   UNL     1     -10.478   5.975  72.355  1.00  0.00    -0.191 OA 
ENDBRANCH   4  27
BRANCH  15  31
HETATM   31  C   UNL     1      -5.796   9.215  68.537  1.00  0.00    -0.041 C  
HETATM   32  C   UNL     1      -6.305  10.433  69.279  1.00  0.00    -0.048 C  
ENDBRANCH  15  31
TORSDOF 2
ENDMDL
MODEL       93
REMARK 921   NORMALIZED FREE ENERGY PREDICTED BY IDOCK:   16.91 KCAL/MOL
REMARK 922        TOTAL FREE ENERGY PREDICTED BY IDOCK:   18.70 KCAL/MOL
REMARK 923 INTER-LIGAND FREE ENERGY PREDICTED BY IDOCK:   17.24 KCAL/MOL
REMARK 924 INTRA-LIGAND FREE ENERGY PREDICTED BY IDOCK:    1.46 KCAL/MOL
REMARK 927      BINDING AFFINITY PREDICTED BY RF-SCORE:    0.00 PKD
ROOT
HETATM    1  C   UNL     1      -8.815   8.526  65.047  1.00  0.00    -0.074 C  
HETATM    2  C   UNL     1      -7.366   8.144  64.588  1.00  0.00    -0.087 C  
HETATM    3  C   UNL     1      -9.497  10.046  64.336  1.00  0.00    -0.349 C  
HETATM    4  C   UNL     1      -9.680   7.221  64.844  1.00  0.00     2.288 C  
HETATM    5  C   UNL     1     -11.150  12.654  64.177  1.00  0.00    -0.428 C  
HETATM    6  C   UNL     1      -8.333  10.887  64.832  1.00  0.00     0.069 C  
HETATM    7  C   UNL     1      -8.679  11.224  66.267  1.00  0.00    -0.184 C  
HETATM    8  C   UNL     1     -12.000  13.700  65.183  1.00  0.00    -0.391 C  
HETATM    9  C   UNL     1     -12.060  16.539  66.983  1.00  0.00     1.869 C  
HETATM   10  C   UNL     1     -11.291  14.066  66.567  1.00  0.00    -0.343 C  
HETATM   11  C   UNL     1      -9.892  12.039  66.048  1.00  0.00    -0.258 C  
HETATM   12  C   UNL     1     -10.635  12.763  67.160  1.00  0.00    -0.249 C  
HETATM   13  C   UNL     1      -9.609  13.176  68.220  1.00  0.00    -0.218 C  
HETATM   14  O   UNL     1      -8.859  12.090  68.714  1.00  0.00    -0.363 OA 
HETATM   15  C   UNL     1     -10.339  13.879  69.348  1.00  0.00     0.163 C  
HETATM   16  C   UNL     1     -10.615  15.311  68.790  1.00  0.00    -0.240 C  
HETATM   17  C   UNL     1     -12.057  10.600  65.108  1.00  0.00     3.313 C  
HETATM   18  H   UNL     1      -8.222  12.346  69.372  1.00  0.00     0.000 HD 
HETATM   19  C   UNL     1     -10.724  16.397  69.855  1.00  0.00    -0.300 C  
HETATM   20  C   UNL     1     -10.684  11.313  64.943  1.00  0.00    -0.337 C  
HETATM   21  C   UNL     1     -12.045  16.499  70.582  1.00  0.00     0.746 C  
HETATM   22  O   UNL     1     -11.946  15.957  71.900  1.00  0.00    -0.414 OA 
HETATM   23  C   UNL     1     -13.272  15.958  69.837  1.00  0.00     1.127 C  
HETATM   24  C   UNL     1     -13.100  14.980  68.607  1.00  0.00     1.952 C  
HETATM   25  H   UNL     1     -12.777  16.022  72.357  1.00  0.00     0.000 HD 
HETATM   26  C   UNL     1     -11.813  15.199  67.730  1.00  0.00    -0.165 C  
ENDROOT
BRANCH   4  27
HETATM   27  C   UNL     1      -9.202   6.020  65.707  1.00  0.00    -0.032 C  
HETATM   28  O   UNL     1      -9.597   3.741  66.273  1.00  0.00    -0.189 OA 
HETATM   29  C   UNL     1     -10.071   4.788  65.561  1.00  0.00    -0.136 C  
HETATM   30  O   UNL     1     -11.082   4.730  64.891  1.00  0.00     0.045 OA 
ENDBRANCH   4  27
BRANCH  15  31
HETATM   31  C   UNL     1      -9.692  13.582  70.710  1.00  0.00     5.493 C  
HETATM   32  C   UNL     1     -10.380  14.101  71.955  1.00  0.00     4.935 C  
ENDBRANCH  15  31
TORSDOF 2
ENDMDL
MODEL       94
REMARK 921   NORMALIZED FREE ENERGY PREDICTED BY IDOCK:   20.09 KCAL/MOL
REMARK 922        TOTAL FREE ENERGY PREDICTED BY IDOCK:   22.26 KCAL/MOL
REMARK 923 INTER-LIGAND FREE ENERGY PREDICTED BY IDOCK:   17.30 KCAL/MOL
REMARK 924 INTRA-LIGAND FREE ENERGY PREDICTED BY IDOCK:    4.96 KCAL/MOL
REMARK 927      BINDING AFFINITY PREDICTED BY RF-SCORE:    0.00 PKD
ROOT
HETATM    1  C   UNL     1     -12.239  15.070  72.858  1.00  0.00    -0.450 C  
HETATM    2  C   UNL     1     -11.203  15.786  73.791  1.00  0.00     1.403 C  
HETATM    3  C   UNL     1     -11.749  13.442  72.231  1.00  0.00     2.337 C  
HETATM    4  C   UNL     1     -13.613  15.124  73.633  1.00  0.00     0.609 C  
HETATM    5  C   UNL     1     -11.538  11.064  70.266  1.00  0.00    -0.414 C  
HETATM    6  C   UNL     1     -10.471  13.985  71.614  1.00  0.00     4.263 C  
HETATM    7  C   UNL     1     -10.891  14.543  70.271  1.00  0.00     0.083 C  
HETATM    8  C   UNL     1     -11.854  10.695  68.656  1.00  0.00    -0.135 C  
HETATM    9  C   UNL     1     -10.718  10.360  65.509  1.00  0.00     0.028 C  
HETATM   10  C   UNL     1     -11.414  11.799  67.589  1.00  0.00    -0.370 C  
HETATM   11  C   UNL     1     -11.335  13.298  69.611  1.00  0.00    -0.191 C  
HETATM   12  C   UNL     1     -11.774  13.223  68.156  1.00  0.00    -0.397 C  
HETATM   13  C   UNL     1     -10.981  14.273  67.372  1.00  0.00    -0.295 C  
HETATM   14  O   UNL     1     -11.120  15.575  67.893  1.00  0.00    -0.303 OA 
HETATM   15  C   UNL     1     -11.425  14.228  65.922  1.00  0.00    -0.335 C  
HETATM   16  C   UNL     1     -10.700  12.974  65.340  1.00  0.00    -0.309 C  
HETATM   17  C   UNL     1     -13.638  12.214  70.690  1.00  0.00     1.591 C  
HETATM   18  H   UNL     1     -10.628  16.227  67.407  1.00  0.00     0.000 HD 
HETATM   19  C   UNL     1     -10.422  13.041  63.842  1.00  0.00    -0.241 C  
HETATM   20  C   UNL     1     -12.111  12.512  70.686  1.00  0.00    -0.312 C  
HETATM   21  C   UNL     1     -11.578  12.713  62.925  1.00  0.00     0.445 C  
HETATM   22  O   UNL     1     -12.119  13.899  62.341  1.00  0.00     0.134 OA 
HETATM   23  C   UNL     1     -12.678  11.819  63.515  1.00  0.00    -0.428 C  
HETATM   24  C   UNL     1     -12.805  11.627  65.079  1.00  0.00     1.721 C  
HETATM   25  H   UNL     1     -12.846  13.693  61.765  1.00  0.00     0.000 HD 
HETATM   26  C   UNL     1     -11.458  11.672  65.889  1.00  0.00    -0.189 C  
ENDROOT
BRANCH   4  27
HETATM   27  C   UNL     1     -14.120  16.569  73.895  1.00  0.00     1.872 C  
HETATM   28  O   UNL     1     -13.484  18.785  74.492  1.00  0.00     5.636 OA 
HETATM   29  C   UNL     1     -13.027  17.523  74.332  1.00  0.00     2.121 C  
HETATM   30  O   UNL     1     -11.871  17.208  74.525  1.00  0.00    -0.302 OA 
ENDBRANCH   4  27
BRANCH  15  31
HETATM   31  C   UNL     1     -11.404  15.625  65.282  1.00  0.00    -0.139 C  
HETATM   32  C   UNL     1     -10.121  16.427  65.363  1.00  0.00    -0.133 C  
ENDBRANCH  15  31
TORSDOF 2
ENDMDL
MODEL       95
REMARK 921   NORMALIZED FREE ENERGY PREDICTED BY IDOCK:   20.87 KCAL/MOL
REMARK 922        TOTAL FREE ENERGY PREDICTED BY IDOCK:   23.12 KCAL/MOL
REMARK 923 INTER-LIGAND FREE ENERGY PREDICTED BY IDOCK:   22.80 KCAL/MOL
REMARK 924 INTRA-LIGAND FREE ENERGY PREDICTED BY IDOCK:    0.32 KCAL/MOL
REMARK 927      BINDING AFFINITY PREDICTED BY RF-SCORE:    0.00 PKD
ROOT
HETATM    1  C   UNL     1      -6.816  17.591  66.781  1.00  0.00    -0.236 C  
HETATM    2  C   UNL     1      -5.674  18.549  66.299  1.00  0.00    -0.191 C  
HETATM    3  C   UNL     1      -6.776  17.127  68.531  1.00  0.00    -0.178 C  
HETATM    4  C   UNL     1      -8.160  18.247  66.273  1.00  0.00    -0.254 C  
HETATM    5  C   UNL     1      -7.141  15.365  71.046  1.00  0.00     1.513 C  
HETATM    6  C   UNL     1      -5.363  16.576  68.427  1.00  0.00    -0.113 C  
HETATM    7  C   UNL     1      -5.531  15.166  67.901  1.00  0.00    -0.125 C  
HETATM    8  C   UNL     1      -7.458  13.766  71.460  1.00  0.00     4.875 C  
HETATM    9  C   UNL     1      -6.289  10.754  72.390  1.00  0.00     2.526 C  
HETATM   10  C   UNL     1      -6.662  12.660  70.627  1.00  0.00     1.492 C  
HETATM   11  C   UNL     1      -6.274  14.566  69.028  1.00  0.00    -0.092 C  
HETATM   12  C   UNL     1      -6.633  13.090  69.112  1.00  0.00    -0.104 C  
HETATM   13  C   UNL     1      -5.530  12.297  68.403  1.00  0.00    -0.055 C  
HETATM   14  O   UNL     1      -5.322  12.709  67.072  1.00  0.00    -0.339 OA 
HETATM   15  C   UNL     1      -5.886  10.823  68.458  1.00  0.00    -0.043 C  
HETATM   16  C   UNL     1      -5.518  10.395  69.913  1.00  0.00    -0.041 C  
HETATM   17  C   UNL     1      -8.847  15.533  69.322  1.00  0.00    -0.256 C  
HETATM   18  H   UNL     1      -4.639  12.217  66.632  1.00  0.00     0.000 HD 
HETATM   19  C   UNL     1      -5.148   8.923  70.066  1.00  0.00    -0.029 C  
HETATM   20  C   UNL     1      -7.300  15.630  69.463  1.00  0.00    -0.197 C  
HETATM   21  C   UNL     1      -6.296   7.943  70.141  1.00  0.00    -0.033 C  
HETATM   22  O   UNL     1      -6.442   7.232  68.912  1.00  0.00    -0.037 OA 
HETATM   23  C   UNL     1      -7.636   8.507  70.634  1.00  0.00    -0.076 C  
HETATM   24  C   UNL     1      -7.901  10.065  70.637  1.00  0.00     0.359 C  
HETATM   25  H   UNL     1      -7.164   6.616  68.959  1.00  0.00     0.000 HD 
HETATM   26  C   UNL     1      -6.645  10.975  70.894  1.00  0.00     0.870 C  
ENDROOT
BRANCH   4  27
HETATM   27  C   UNL     1      -8.248  18.361  64.726  1.00  0.00     4.167 C  
HETATM   28  O   UNL     1      -7.881  19.778  62.847  1.00  0.00     5.692 OA 
HETATM   29  C   UNL     1      -7.856  19.726  64.198  1.00  0.00     3.628 C  
HETATM   30  O   UNL     1      -7.555  20.676  64.891  1.00  0.00     0.212 OA 
ENDBRANCH   4  27
BRANCH  15  31
HETATM   31  C   UNL     1      -5.432  10.087  67.188  1.00  0.00    -0.042 C  
HETATM   32  C   UNL     1      -6.372  10.068  66.000  1.00  0.00    -0.087 C  
ENDBRANCH  15  31
TORSDOF 2
ENDMDL
MODEL       96
REMARK 921   NORMALIZED FREE ENERGY PREDICTED BY IDOCK:   22.62 KCAL/MOL
REMARK 922        TOTAL FREE ENERGY PREDICTED BY IDOCK:   25.08 KCAL/MOL
REMARK 923 INTER-LIGAND FREE ENERGY PREDICTED BY IDOCK:   23.56 KCAL/MOL
REMARK 924 INTRA-LIGAND FREE ENERGY PREDICTED BY IDOCK:    1.52 KCAL/MOL
REMARK 927      BINDING AFFINITY PREDICTED BY RF-SCORE:    0.00 PKD
ROOT
HETATM    1  C   UNL     1     -10.505  18.153  71.922  1.00  0.00     3.875 C  
HETATM    2  C   UNL     1     -10.389  18.288  73.479  1.00  0.00     4.621 C  
HETATM    3  C   UNL     1     -11.553  16.803  71.320  1.00  0.00     0.386 C  
HETATM    4  C   UNL     1     -10.872  19.596  71.399  1.00  0.00     4.243 C  
HETATM    5  C   UNL     1     -12.531  14.535  69.460  1.00  0.00    -0.162 C  
HETATM    6  C   UNL     1     -10.764  15.753  72.083  1.00  0.00     1.085 C  
HETATM    7  C   UNL     1      -9.580  15.432  71.194  1.00  0.00     2.048 C  
HETATM    8  C   UNL     1     -11.993  13.622  68.155  1.00  0.00    -0.390 C  
HETATM    9  C   UNL     1     -10.609  10.776  67.016  1.00  0.00    -0.312 C  
HETATM   10  C   UNL     1     -10.490  13.088  68.250  1.00  0.00    -0.258 C  
HETATM   11  C   UNL     1     -10.288  14.853  70.034  1.00  0.00    -0.013 C  
HETATM   12  C   UNL     1      -9.582  14.233  68.838  1.00  0.00    -0.086 C  
HETATM   13  C   UNL     1      -8.275  13.608  69.336  1.00  0.00     0.713 C  
HETATM   14  O   UNL     1      -7.447  14.526  70.012  1.00  0.00    -0.398 OA 
HETATM   15  C   UNL     1      -7.547  13.006  68.149  1.00  0.00    -0.136 C  
HETATM   16  C   UNL     1      -8.302  11.666  67.878  1.00  0.00    -0.143 C  
HETATM   17  C   UNL     1     -11.784  16.684  68.602  1.00  0.00     0.240 C  
HETATM   18  H   UNL     1      -6.636  14.139  70.321  1.00  0.00     0.000 HD 
HETATM   19  C   UNL     1      -7.452  10.580  67.228  1.00  0.00    -0.095 C  
HETATM   20  C   UNL     1     -11.526  15.746  69.816  1.00  0.00    -0.350 C  
HETATM   21  C   UNL     1      -7.247  10.687  65.734  1.00  0.00    -0.104 C  
HETATM   22  O   UNL     1      -5.933  11.156  65.431  1.00  0.00    -0.373 OA 
HETATM   23  C   UNL     1      -8.320  11.463  64.957  1.00  0.00     0.500 C  
HETATM   24  C   UNL     1      -9.311  12.437  65.710  1.00  0.00    -0.018 C  
HETATM   25  H   UNL     1      -5.804  11.224  64.492  1.00  0.00     0.000 HD 
HETATM   26  C   UNL     1      -9.698  12.025  67.177  1.00  0.00    -0.203 C  
ENDROOT
BRANCH   4  27
HETATM   27  C   UNL     1      -9.785  20.663  71.710  1.00  0.00     2.765 C  
HETATM   28  O   UNL     1      -7.475  21.210  71.525  1.00  0.00     1.985 OA 
HETATM   29  C   UNL     1      -8.389  20.239  71.301  1.00  0.00     2.057 C  
HETATM   30  O   UNL     1      -8.105  19.158  70.829  1.00  0.00     2.221 OA 
ENDBRANCH   4  27
BRANCH  15  31
HETATM   31  C   UNL     1      -6.023  13.136  68.297  1.00  0.00    -0.090 C  
HETATM   32  C   UNL     1      -5.184  11.882  68.160  1.00  0.00    -0.046 C  
ENDBRANCH  15  31
TORSDOF 2
ENDMDL
MODEL       97
REMARK 921   NORMALIZED FREE ENERGY PREDICTED BY IDOCK:   28.51 KCAL/MOL
REMARK 922        TOTAL FREE ENERGY PREDICTED BY IDOCK:   31.66 KCAL/MOL
REMARK 923 INTER-LIGAND FREE ENERGY PREDICTED BY IDOCK:   29.69 KCAL/MOL
REMARK 924 INTRA-LIGAND FREE ENERGY PREDICTED BY IDOCK:    1.96 KCAL/MOL
REMARK 927      BINDING AFFINITY PREDICTED BY RF-SCORE:    0.00 PKD
ROOT
HETATM    1  C   UNL     1      -8.597  16.119  65.928  1.00  0.00    -0.039 C  
HETATM    2  C   UNL     1      -9.738  17.167  65.691  1.00  0.00     0.078 C  
HETATM    3  C   UNL     1      -8.358  14.896  64.613  1.00  0.00     7.907 C  
HETATM    4  C   UNL     1      -7.323  16.964  66.323  1.00  0.00    -0.248 C  
HETATM    5  C   UNL     1      -7.676  12.178  63.306  1.00  0.00     3.570 C  
HETATM    6  C   UNL     1      -9.802  14.427  64.688  1.00  0.00     0.488 C  
HETATM    7  C   UNL     1      -9.829  13.425  65.822  1.00  0.00    -0.213 C  
HETATM    8  C   UNL     1      -7.403  10.576  63.740  1.00  0.00     0.095 C  
HETATM    9  C   UNL     1      -8.595   7.452  64.090  1.00  0.00     0.412 C  
HETATM   10  C   UNL     1      -8.409   9.965  64.819  1.00  0.00    -0.163 C  
HETATM   11  C   UNL     1      -8.941  12.386  65.260  1.00  0.00     0.679 C  
HETATM   12  C   UNL     1      -8.677  11.047  65.931  1.00  0.00    -0.182 C  
HETATM   13  C   UNL     1      -9.941  10.650  66.701  1.00  0.00    -0.212 C  
HETATM   14  O   UNL     1     -10.353  11.627  67.629  1.00  0.00    -0.184 OA 
HETATM   15  C   UNL     1      -9.684   9.326  67.397  1.00  0.00    -0.208 C  
HETATM   16  C   UNL     1      -9.818   8.265  66.259  1.00  0.00    -0.227 C  
HETATM   17  C   UNL     1      -6.296  13.161  65.050  1.00  0.00    11.323 C  
HETATM   18  H   UNL     1     -11.137  11.381  68.106  1.00  0.00     0.000 HD 
HETATM   19  C   UNL     1     -10.256   6.882  66.731  1.00  0.00    -0.276 C  
HETATM   20  C   UNL     1      -7.782  13.150  64.590  1.00  0.00     8.925 C  
HETATM   21  C   UNL     1      -9.184   6.003  67.332  1.00  0.00    -0.109 C  
HETATM   22  O   UNL     1      -9.309   5.946  68.754  1.00  0.00    -0.121 OA 
HETATM   23  C   UNL     1      -7.742   6.303  66.901  1.00  0.00    -0.100 C  
HETATM   24  C   UNL     1      -7.372   7.687  66.235  1.00  0.00    -0.079 C  
HETATM   25  H   UNL     1      -8.635   5.393  69.132  1.00  0.00     0.000 HD 
HETATM   26  C   UNL     1      -8.496   8.348  65.356  1.00  0.00    -0.193 C  
ENDROOT
BRANCH   4  27
HETATM   27  C   UNL     1      -7.504  17.783  67.631  1.00  0.00    -0.207 C  
HETATM   28  O   UNL     1      -6.404  18.674  69.546  1.00  0.00    -0.270 OA 
HETATM   29  C   UNL     1      -6.234  17.905  68.448  1.00  0.00    -0.185 C  
HETATM   30  O   UNL     1      -5.177  17.377  68.166  1.00  0.00    -0.126 OA 
ENDBRANCH   4  27
BRANCH  15  31
HETATM   31  C   UNL     1     -10.407   9.252  68.750  1.00  0.00    -0.231 C  
HETATM   32  C   UNL     1     -10.582   7.891  69.392  1.00  0.00    -0.209 C  
ENDBRANCH  15  31
TORSDOF 2
ENDMDL
MODEL       98
REMARK 921   NORMALIZED FREE ENERGY PREDICTED BY IDOCK:   48.66 KCAL/MOL
REMARK 922        TOTAL FREE ENERGY PREDICTED BY IDOCK:   54.16 KCAL/MOL
REMARK 923 INTER-LIGAND FREE ENERGY PREDICTED BY IDOCK:   53.91 KCAL/MOL
REMARK 924 INTRA-LIGAND FREE ENERGY PREDICTED BY IDOCK:    0.26 KCAL/MOL
REMARK 927      BINDING AFFINITY PREDICTED BY RF-SCORE:    0.00 PKD
ROOT
HETATM    1  C   UNL     1      -7.722   4.223  66.749  1.00  0.00    -0.093 C  
HETATM    2  C   UNL     1      -8.094   2.706  66.870  1.00  0.00    -0.080 C  
HETATM    3  C   UNL     1      -7.649   5.148  68.305  1.00  0.00    -0.079 C  
HETATM    4  C   UNL     1      -6.419   4.269  65.859  1.00  0.00    -0.037 C  
HETATM    5  C   UNL     1      -7.905   7.550  70.234  1.00  0.00    -0.094 C  
HETATM    6  C   UNL     1      -9.075   4.779  68.675  1.00  0.00    -0.149 C  
HETATM    7  C   UNL     1      -9.942   5.782  67.944  1.00  0.00    -0.164 C  
HETATM    8  C   UNL     1      -8.566   9.096  70.282  1.00  0.00    -0.218 C  
HETATM    9  C   UNL     1     -11.105  11.108  71.182  1.00  0.00     1.639 C  
HETATM   10  C   UNL     1     -10.037   9.243  69.677  1.00  0.00    -0.208 C  
HETATM   11  C   UNL     1      -9.504   7.025  68.614  1.00  0.00    -0.135 C  
HETATM   12  C   UNL     1     -10.131   8.387  68.359  1.00  0.00    -0.224 C  
HETATM   13  C   UNL     1     -11.610   8.168  68.026  1.00  0.00     1.718 C  
HETATM   14  O   UNL     1     -11.809   7.291  66.942  1.00  0.00     0.462 OA 
HETATM   15  C   UNL     1     -12.245   9.518  67.746  1.00  0.00     4.491 C  
HETATM   16  C   UNL     1     -12.462  10.139  69.162  1.00  0.00     0.897 C  
HETATM   17  C   UNL     1      -6.904   7.760  68.028  1.00  0.00    -0.072 C  
HETATM   18  H   UNL     1     -12.726   7.155  66.735  1.00  0.00     0.000 HD 
HETATM   19  C   UNL     1     -13.619  11.129  69.249  1.00  0.00     3.718 C  
HETATM   20  C   UNL     1      -7.975   6.900  68.760  1.00  0.00    -0.120 C  
HETATM   21  C   UNL     1     -13.347  12.530  68.751  1.00  0.00     4.273 C  
HETATM   22  O   UNL     1     -13.954  12.745  67.476  1.00  0.00     7.199 OA 
HETATM   23  C   UNL     1     -11.880  12.981  68.765  1.00  0.00    -0.355 C  
HETATM   24  C   UNL     1     -10.713  11.920  68.872  1.00  0.00    -0.236 C  
HETATM   25  H   UNL     1     -13.783  13.626  67.163  1.00  0.00     0.000 HD 
HETATM   26  C   UNL     1     -11.035  10.626  69.706  1.00  0.00    -0.340 C  
ENDROOT
BRANCH   4  27
HETATM   27  C   UNL     1      -6.628   3.709  64.424  1.00  0.00    -0.042 C  
HETATM   28  O   UNL     1      -6.550   1.761  63.056  1.00  0.00    -0.013 OA 
HETATM   29  C   UNL     1      -6.299   2.235  64.297  1.00  0.00    -0.019 C  
HETATM   30  O   UNL     1      -5.857   1.546  65.193  1.00  0.00    -0.015 OA 
ENDBRANCH   4  27
BRANCH  15  31
HETATM   31  C   UNL     1     -13.327   9.416  66.660  1.00  0.00    19.314 C  
HETATM   32  C   UNL     1     -13.217  10.328  65.456  1.00  0.00    12.885 C  
ENDBRANCH  15  31
TORSDOF 2
ENDMDL
MODEL       99
REMARK 921   NORMALIZED FREE ENERGY PREDICTED BY IDOCK:   55.44 KCAL/MOL
REMARK 922        TOTAL FREE ENERGY PREDICTED BY IDOCK:   61.73 KCAL/MOL
REMARK 923 INTER-LIGAND FREE ENERGY PREDICTED BY IDOCK:   61.71 KCAL/MOL
REMARK 924 INTRA-LIGAND FREE ENERGY PREDICTED BY IDOCK:    0.02 KCAL/MOL
REMARK 927      BINDING AFFINITY PREDICTED BY RF-SCORE:    0.00 PKD
ROOT
HETATM    1  C   UNL     1     -12.705   8.563  67.609  1.00  0.00    10.605 C  
HETATM    2  C   UNL     1     -12.578   7.142  66.960  1.00  0.00     8.074 C  
HETATM    3  C   UNL     1     -12.887   9.949  66.457  1.00  0.00    11.961 C  
HETATM    4  C   UNL     1     -13.833   8.426  68.706  1.00  0.00    13.629 C  
HETATM    5  C   UNL     1     -12.593  12.819  65.345  1.00  0.00    -0.387 C  
HETATM    6  C   UNL     1     -11.604   9.599  65.722  1.00  0.00     3.920 C  
HETATM    7  C   UNL     1     -10.498  10.230  66.542  1.00  0.00    -0.241 C  
HETATM    8  C   UNL     1     -11.732  14.232  65.647  1.00  0.00    -0.358 C  
HETATM    9  C   UNL     1      -9.102  16.201  64.931  1.00  0.00     2.602 C  
HETATM   10  C   UNL     1     -10.179  14.046  65.969  1.00  0.00    -0.313 C  
HETATM   11  C   UNL     1     -10.852  11.656  66.384  1.00  0.00    -0.333 C  
HETATM   12  C   UNL     1     -10.004  12.801  66.917  1.00  0.00    -0.232 C  
HETATM   13  C   UNL     1      -8.538  12.359  66.873  1.00  0.00    -0.171 C  
HETATM   14  O   UNL     1      -8.300  11.161  67.576  1.00  0.00    -0.119 OA 
HETATM   15  C   UNL     1      -7.680  13.482  67.425  1.00  0.00    -0.149 C  
HETATM   16  C   UNL     1      -7.600  14.511  66.253  1.00  0.00     2.163 C  
HETATM   17  C   UNL     1     -13.195  12.380  67.660  1.00  0.00     4.981 C  
HETATM   18  H   UNL     1      -7.391  10.887  67.549  1.00  0.00     0.000 HD 
HETATM   19  C   UNL     1      -6.340  15.372  66.251  1.00  0.00     3.158 C  
HETATM   20  C   UNL     1     -12.388  11.718  66.506  1.00  0.00     1.272 C  
HETATM   21  C   UNL     1      -6.327  16.550  67.197  1.00  0.00    -0.185 C  
HETATM   22  O   UNL     1      -5.504  16.284  68.333  1.00  0.00    -0.099 OA 
HETATM   23  C   UNL     1      -7.698  17.105  67.607  1.00  0.00    -0.184 C  
HETATM   24  C   UNL     1      -9.007  16.242  67.409  1.00  0.00    -0.197 C  
HETATM   25  H   UNL     1      -5.496  17.025  68.928  1.00  0.00     0.000 HD 
HETATM   26  C   UNL     1      -9.009  15.271  66.173  1.00  0.00    -0.251 C  
ENDROOT
BRANCH   4  27
HETATM   27  C   UNL     1     -13.484   7.412  69.830  1.00  0.00     3.197 C  
HETATM   28  O   UNL     1     -13.569   6.984  72.171  1.00  0.00    -0.116 OA 
HETATM   29  C   UNL     1     -13.823   7.911  71.220  1.00  0.00    -0.190 C  
HETATM   30  O   UNL     1     -14.269   9.011  71.470  1.00  0.00    -0.312 OA 
ENDBRANCH   4  27
BRANCH  15  31
HETATM   31  C   UNL     1      -6.467  12.938  68.195  1.00  0.00    -0.096 C  
HETATM   32  C   UNL     1      -6.668  12.516  69.636  1.00  0.00     0.079 C  
ENDBRANCH  15  31
TORSDOF 2
ENDMDL
