MODEL        1
REMARK 921   NORMALIZED FREE ENERGY PREDICTED BY IDOCK:   -5.88 KCAL/MOL
REMARK 922        TOTAL FREE ENERGY PREDICTED BY IDOCK:   -9.40 KCAL/MOL
REMARK 923 INTER-LIGAND FREE ENERGY PREDICTED BY IDOCK:   -8.28 KCAL/MOL
REMARK 924 INTRA-LIGAND FREE ENERGY PREDICTED BY IDOCK:   -1.12 KCAL/MOL
REMARK 927      BINDING AFFINITY PREDICTED BY RF-SCORE:    0.00 PKD
ROOT
HETATM    1  C   UNL     1     -11.398  11.479  68.449  1.00  0.00    -0.342 C  
HETATM    2  C   UNL     1     -12.282  11.133  69.399  1.00  0.00    -0.329 C  
ENDROOT
BRANCH   1   3
HETATM    3  C   UNL     1     -11.654  12.538  67.446  1.00  0.00    -0.370 C  
HETATM    4  O   UNL     1     -12.197  12.303  66.376  1.00  0.00    -0.613 OA 
BRANCH   3   5
HETATM    5  O   UNL     1     -11.053  13.695  67.805  1.00  0.00    -0.259 OA 
BRANCH   5   6
HETATM    6  C   UNL     1     -11.872  14.534  68.622  1.00  0.00    -0.320 C  
HETATM    7  C   UNL     1     -12.147  15.879  70.746  1.00  0.00    -0.393 C  
HETATM    8  C   UNL     1      -9.786  16.865  68.935  1.00  0.00    -0.267 C  
HETATM    9  C   UNL     1      -9.813  15.574  69.744  1.00  0.00    -0.268 C  
HETATM   10  C   UNL     1     -11.211  14.944  69.944  1.00  0.00    -0.307 C  
BRANCH   7  11
HETATM   11  C   UNL     1     -13.486  15.223  71.109  1.00  0.00    -0.559 C  
BRANCH  11  12
HETATM   12  C   UNL     1     -13.449  14.544  72.475  1.00  0.00    -0.580 C  
HETATM   13  C   UNL     1     -13.538  13.031  72.327  1.00  0.00    -0.643 C  
ENDBRANCH  11  12
ENDBRANCH   7  11
ENDBRANCH   5   6
ENDBRANCH   3   5
ENDBRANCH   1   3
BRANCH   2  14
HETATM   14  C   UNL     1     -11.919  10.192  70.454  1.00  0.00    -0.353 A  
HETATM   15  C   UNL     1     -11.229   8.326  72.432  1.00  0.00    -0.381 A  
HETATM   16  C   UNL     1     -12.907   9.614  71.253  1.00  0.00    -0.438 A  
HETATM   17  C   UNL     1     -10.580   9.842  70.652  1.00  0.00    -0.382 A  
HETATM   18  C   UNL     1     -12.564   8.684  72.240  1.00  0.00    -0.457 A  
HETATM   19  C   UNL     1     -10.242   8.905  71.630  1.00  0.00    -0.415 A  
BRANCH  15  20
HETATM   20  O   UNL     1     -10.780   7.386  73.317  1.00  0.00    -0.357 OA 
HETATM   21  C   UNL     1     -10.785   6.040  72.860  1.00  0.00    -0.247 C  
ENDBRANCH  15  20
ENDBRANCH   2  14
TORSDOF 7
ENDMDL
MODEL        2
REMARK 921   NORMALIZED FREE ENERGY PREDICTED BY IDOCK:   -5.74 KCAL/MOL
REMARK 922        TOTAL FREE ENERGY PREDICTED BY IDOCK:   -9.20 KCAL/MOL
REMARK 923 INTER-LIGAND FREE ENERGY PREDICTED BY IDOCK:   -8.30 KCAL/MOL
REMARK 924 INTRA-LIGAND FREE ENERGY PREDICTED BY IDOCK:   -0.90 KCAL/MOL
REMARK 927      BINDING AFFINITY PREDICTED BY RF-SCORE:    0.00 PKD
ROOT
HETATM    1  C   UNL     1     -11.337  11.268  68.174  1.00  0.00    -0.372 C  
HETATM    2  C   UNL     1     -11.421  11.093  69.502  1.00  0.00    -0.374 C  
ENDROOT
BRANCH   1   3
HETATM    3  C   UNL     1     -10.741  10.270  67.256  1.00  0.00    -0.263 C  
HETATM    4  O   UNL     1     -10.551   9.110  67.593  1.00  0.00    -0.258 OA 
BRANCH   3   5
HETATM    5  O   UNL     1     -10.294  10.862  66.126  1.00  0.00    -0.241 OA 
BRANCH   5   6
HETATM    6  C   UNL     1     -10.553  12.267  66.078  1.00  0.00    -0.254 C  
HETATM    7  C   UNL     1     -10.636  14.404  64.728  1.00  0.00    -0.417 C  
HETATM    8  C   UNL     1     -12.560  12.171  63.661  1.00  0.00    -0.616 C  
HETATM    9  C   UNL     1     -11.040  12.163  63.561  1.00  0.00    -0.525 C  
HETATM   10  C   UNL     1     -10.295  12.895  64.702  1.00  0.00    -0.366 C  
BRANCH   7  11
HETATM   11  C   UNL     1      -9.793  15.194  65.737  1.00  0.00    -0.384 C  
BRANCH  11  12
HETATM   12  C   UNL     1     -10.589  16.305  66.417  1.00  0.00    -0.253 C  
HETATM   13  C   UNL     1     -10.321  16.318  67.916  1.00  0.00    -0.285 C  
ENDBRANCH  11  12
ENDBRANCH   7  11
ENDBRANCH   5   6
ENDBRANCH   3   5
ENDBRANCH   1   3
BRANCH   2  14
HETATM   14  C   UNL     1     -12.153  12.038  70.339  1.00  0.00    -0.407 A  
HETATM   15  C   UNL     1     -13.500  13.862  71.990  1.00  0.00    -0.455 A  
HETATM   16  C   UNL     1     -12.851  11.590  71.462  1.00  0.00    -0.485 A  
HETATM   17  C   UNL     1     -12.137  13.402  70.036  1.00  0.00    -0.404 A  
HETATM   18  C   UNL     1     -13.524  12.499  72.286  1.00  0.00    -0.490 A  
HETATM   19  C   UNL     1     -12.800  14.308  70.866  1.00  0.00    -0.416 A  
BRANCH  15  20
HETATM   20  O   UNL     1     -14.064  14.848  72.751  1.00  0.00    -0.444 OA 
HETATM   21  C   UNL     1     -13.203  15.911  73.139  1.00  0.00    -0.592 C  
ENDBRANCH  15  20
ENDBRANCH   2  14
TORSDOF 7
ENDMDL
MODEL        3
REMARK 921   NORMALIZED FREE ENERGY PREDICTED BY IDOCK:   -5.67 KCAL/MOL
REMARK 922        TOTAL FREE ENERGY PREDICTED BY IDOCK:   -9.11 KCAL/MOL
REMARK 923 INTER-LIGAND FREE ENERGY PREDICTED BY IDOCK:   -8.39 KCAL/MOL
REMARK 924 INTRA-LIGAND FREE ENERGY PREDICTED BY IDOCK:   -0.72 KCAL/MOL
REMARK 927      BINDING AFFINITY PREDICTED BY RF-SCORE:    0.00 PKD
ROOT
HETATM    1  C   UNL     1     -12.835  12.285  71.293  1.00  0.00    -0.337 C  
HETATM    2  C   UNL     1     -13.286  11.203  71.948  1.00  0.00    -0.488 C  
ENDROOT
BRANCH   1   3
HETATM    3  C   UNL     1     -13.212  13.670  71.654  1.00  0.00    -0.367 C  
HETATM    4  O   UNL     1     -13.959  13.918  72.591  1.00  0.00    -0.684 OA 
BRANCH   3   5
HETATM    5  O   UNL     1     -12.780  14.546  70.718  1.00  0.00    -0.330 OA 
BRANCH   5   6
HETATM    6  C   UNL     1     -12.171  13.917  69.588  1.00  0.00    -0.321 C  
HETATM    7  C   UNL     1     -11.126  14.136  67.296  1.00  0.00    -0.315 C  
HETATM    8  C   UNL     1      -9.596  15.718  69.528  1.00  0.00    -0.262 C  
HETATM    9  C   UNL     1     -10.956  16.084  68.947  1.00  0.00    -0.309 C  
HETATM   10  C   UNL     1     -11.812  14.892  68.459  1.00  0.00    -0.325 C  
BRANCH   7  11
HETATM   11  C   UNL     1     -12.016  13.052  66.674  1.00  0.00    -0.453 C  
BRANCH  11  12
HETATM   12  C   UNL     1     -12.612  13.485  65.337  1.00  0.00    -0.531 C  
HETATM   13  C   UNL     1     -12.277  12.476  64.247  1.00  0.00    -0.535 C  
ENDBRANCH  11  12
ENDBRANCH   7  11
ENDBRANCH   5   6
ENDBRANCH   3   5
ENDBRANCH   1   3
BRANCH   2  14
HETATM   14  C   UNL     1     -12.763   9.874  71.649  1.00  0.00    -0.527 A  
HETATM   15  C   UNL     1     -11.787   7.324  71.004  1.00  0.00    -0.318 A  
HETATM   16  C   UNL     1     -13.556   8.743  71.852  1.00  0.00    -0.467 A  
HETATM   17  C   UNL     1     -11.473   9.727  71.131  1.00  0.00    -0.472 A  
HETATM   18  C   UNL     1     -13.070   7.471  71.531  1.00  0.00    -0.402 A  
HETATM   19  C   UNL     1     -10.995   8.457  70.801  1.00  0.00    -0.276 A  
BRANCH  15  20
HETATM   20  O   UNL     1     -11.228   6.145  70.596  1.00  0.00    -0.310 OA 
HETATM   21  C   UNL     1     -10.838   6.075  69.230  1.00  0.00    -0.358 C  
ENDBRANCH  15  20
ENDBRANCH   2  14
TORSDOF 7
ENDMDL
MODEL        4
REMARK 921   NORMALIZED FREE ENERGY PREDICTED BY IDOCK:   -5.63 KCAL/MOL
REMARK 922        TOTAL FREE ENERGY PREDICTED BY IDOCK:   -9.06 KCAL/MOL
REMARK 923 INTER-LIGAND FREE ENERGY PREDICTED BY IDOCK:   -8.32 KCAL/MOL
REMARK 924 INTRA-LIGAND FREE ENERGY PREDICTED BY IDOCK:   -0.74 KCAL/MOL
REMARK 927      BINDING AFFINITY PREDICTED BY RF-SCORE:    0.00 PKD
ROOT
HETATM    1  C   UNL     1     -11.956  13.733  69.751  1.00  0.00    -0.406 C  
HETATM    2  C   UNL     1     -12.424  13.127  70.854  1.00  0.00    -0.407 C  
ENDROOT
BRANCH   1   3
HETATM    3  C   UNL     1     -11.801  15.201  69.632  1.00  0.00    -0.334 C  
HETATM    4  O   UNL     1     -11.757  15.932  70.612  1.00  0.00    -0.343 OA 
BRANCH   3   5
HETATM    5  O   UNL     1     -11.905  15.593  68.343  1.00  0.00    -0.346 OA 
BRANCH   5   6
HETATM    6  C   UNL     1     -11.755  14.521  67.408  1.00  0.00    -0.400 C  
HETATM    7  C   UNL     1     -11.214  13.765  65.056  1.00  0.00    -0.339 C  
HETATM    8  C   UNL     1      -8.860  15.290  66.455  1.00  0.00    -0.335 C  
HETATM    9  C   UNL     1     -10.159  15.914  65.960  1.00  0.00    -0.359 C  
HETATM   10  C   UNL     1     -11.396  14.986  65.990  1.00  0.00    -0.270 C  
BRANCH   7  11
HETATM   11  C   UNL     1     -12.482  12.910  64.930  1.00  0.00    -0.540 C  
BRANCH  11  12
HETATM   12  C   UNL     1     -12.453  12.005  63.701  1.00  0.00    -0.637 C  
HETATM   13  C   UNL     1     -11.024  11.604  63.363  1.00  0.00    -0.442 C  
ENDBRANCH  11  12
ENDBRANCH   7  11
ENDBRANCH   5   6
ENDBRANCH   3   5
ENDBRANCH   1   3
BRANCH   2  14
HETATM   14  C   UNL     1     -12.412  11.673  70.973  1.00  0.00    -0.436 A  
HETATM   15  C   UNL     1     -12.332   8.882  71.252  1.00  0.00    -0.291 A  
HETATM   16  C   UNL     1     -11.565  10.908  70.168  1.00  0.00    -0.425 A  
HETATM   17  C   UNL     1     -13.228  11.038  71.914  1.00  0.00    -0.503 A  
HETATM   18  C   UNL     1     -11.526   9.516  70.307  1.00  0.00    -0.256 A  
HETATM   19  C   UNL     1     -13.178   9.650  72.057  1.00  0.00    -0.546 A  
BRANCH  15  20
HETATM   20  O   UNL     1     -12.335   7.542  71.522  1.00  0.00    -0.311 OA 
HETATM   21  C   UNL     1     -11.704   6.707  70.559  1.00  0.00    -0.394 C  
ENDBRANCH  15  20
ENDBRANCH   2  14
TORSDOF 7
ENDMDL
MODEL        5
REMARK 921   NORMALIZED FREE ENERGY PREDICTED BY IDOCK:   -5.62 KCAL/MOL
REMARK 922        TOTAL FREE ENERGY PREDICTED BY IDOCK:   -9.04 KCAL/MOL
REMARK 923 INTER-LIGAND FREE ENERGY PREDICTED BY IDOCK:   -7.93 KCAL/MOL
REMARK 924 INTRA-LIGAND FREE ENERGY PREDICTED BY IDOCK:   -1.12 KCAL/MOL
REMARK 927      BINDING AFFINITY PREDICTED BY RF-SCORE:    0.00 PKD
ROOT
HETATM    1  C   UNL     1     -11.149  14.901  65.569  1.00  0.00    -0.353 C  
HETATM    2  C   UNL     1     -12.134  14.187  66.137  1.00  0.00    -0.454 C  
ENDROOT
BRANCH   1   3
HETATM    3  C   UNL     1     -11.392  16.063  64.683  1.00  0.00    -0.306 C  
HETATM    4  O   UNL     1     -12.135  15.998  63.714  1.00  0.00    -0.882 OA 
BRANCH   3   5
HETATM    5  O   UNL     1     -10.560  17.084  64.990  1.00  0.00    -0.703 OA 
BRANCH   5   6
HETATM    6  C   UNL     1      -9.989  16.980  66.296  1.00  0.00    -0.310 C  
HETATM    7  C   UNL     1      -8.445  17.927  68.062  1.00  0.00    -0.256 C  
HETATM    8  C   UNL     1     -10.764  19.873  67.249  1.00  0.00    -0.460 C  
HETATM    9  C   UNL     1      -9.561  19.508  66.388  1.00  0.00    -0.469 C  
HETATM   10  C   UNL     1      -8.983  18.093  66.620  1.00  0.00    -0.292 C  
BRANCH   7  11
HETATM   11  C   UNL     1      -7.714  16.596  68.282  1.00  0.00    -0.183 C  
BRANCH  11  12
HETATM   12  C   UNL     1      -8.506  15.637  69.167  1.00  0.00    -0.253 C  
HETATM   13  C   UNL     1      -8.577  14.255  68.532  1.00  0.00    -0.175 C  
ENDBRANCH  11  12
ENDBRANCH   7  11
ENDBRANCH   5   6
ENDBRANCH   3   5
ENDBRANCH   1   3
BRANCH   2  14
HETATM   14  C   UNL     1     -11.838  13.151  67.120  1.00  0.00    -0.424 A  
HETATM   15  C   UNL     1     -11.341  11.137  69.009  1.00  0.00    -0.276 A  
HETATM   16  C   UNL     1     -11.966  13.417  68.484  1.00  0.00    -0.363 A  
HETATM   17  C   UNL     1     -11.451  11.875  66.700  1.00  0.00    -0.382 A  
HETATM   18  C   UNL     1     -11.717  12.414  69.427  1.00  0.00    -0.384 A  
HETATM   19  C   UNL     1     -11.215  10.873  67.643  1.00  0.00    -0.379 A  
BRANCH  15  20
HETATM   20  O   UNL     1     -11.134  10.064  69.830  1.00  0.00    -0.247 OA 
HETATM   21  C   UNL     1     -11.982   9.970  70.967  1.00  0.00    -0.376 C  
ENDBRANCH  15  20
ENDBRANCH   2  14
TORSDOF 7
ENDMDL
MODEL        6
REMARK 921   NORMALIZED FREE ENERGY PREDICTED BY IDOCK:   -5.62 KCAL/MOL
REMARK 922        TOTAL FREE ENERGY PREDICTED BY IDOCK:   -9.03 KCAL/MOL
REMARK 923 INTER-LIGAND FREE ENERGY PREDICTED BY IDOCK:   -8.02 KCAL/MOL
REMARK 924 INTRA-LIGAND FREE ENERGY PREDICTED BY IDOCK:   -1.02 KCAL/MOL
REMARK 927      BINDING AFFINITY PREDICTED BY RF-SCORE:    0.00 PKD
ROOT
HETATM    1  C   UNL     1     -12.648  13.568  70.880  1.00  0.00    -0.414 C  
HETATM    2  C   UNL     1     -12.519  14.867  70.564  1.00  0.00    -0.419 C  
ENDROOT
BRANCH   1   3
HETATM    3  C   UNL     1     -13.535  13.076  71.958  1.00  0.00    -0.492 C  
HETATM    4  O   UNL     1     -14.254  13.827  72.602  1.00  0.00    -0.710 OA 
BRANCH   3   5
HETATM    5  O   UNL     1     -13.289  11.774  72.227  1.00  0.00    -0.455 OA 
BRANCH   5   6
HETATM    6  C   UNL     1     -12.667  11.077  71.145  1.00  0.00    -0.419 C  
HETATM    7  C   UNL     1     -11.359   9.069  70.336  1.00  0.00    -0.242 C  
HETATM    8  C   UNL     1     -14.125   8.332  71.611  1.00  0.00    -0.489 C  
HETATM    9  C   UNL     1     -12.899   8.832  72.365  1.00  0.00    -0.434 C  
HETATM   10  C   UNL     1     -11.970   9.777  71.569  1.00  0.00    -0.488 C  
BRANCH   7  11
HETATM   11  C   UNL     1     -10.304   9.920  69.616  1.00  0.00    -0.265 C  
BRANCH  11  12
HETATM   12  C   UNL     1     -10.442   9.854  68.097  1.00  0.00    -0.256 C  
HETATM   13  C   UNL     1     -11.275  11.020  67.582  1.00  0.00    -0.373 C  
ENDBRANCH  11  12
ENDBRANCH   7  11
ENDBRANCH   5   6
ENDBRANCH   3   5
ENDBRANCH   1   3
BRANCH   2  14
HETATM   14  C   UNL     1     -11.751  15.282  69.395  1.00  0.00    -0.361 A  
HETATM   15  C   UNL     1     -10.217  16.035  67.170  1.00  0.00    -0.278 A  
HETATM   16  C   UNL     1     -10.882  16.372  69.474  1.00  0.00    -0.338 A  
HETATM   17  C   UNL     1     -11.859  14.572  68.196  1.00  0.00    -0.348 A  
HETATM   18  C   UNL     1     -10.117  16.748  68.364  1.00  0.00    -0.285 A  
HETATM   19  C   UNL     1     -11.087  14.944  67.094  1.00  0.00    -0.332 A  
BRANCH  15  20
HETATM   20  O   UNL     1      -9.478  16.268  66.043  1.00  0.00    -0.312 OA 
HETATM   21  C   UNL     1      -8.108  16.585  66.246  1.00  0.00    -0.306 C  
ENDBRANCH  15  20
ENDBRANCH   2  14
TORSDOF 7
ENDMDL
MODEL        7
REMARK 921   NORMALIZED FREE ENERGY PREDICTED BY IDOCK:   -5.60 KCAL/MOL
REMARK 922        TOTAL FREE ENERGY PREDICTED BY IDOCK:   -9.01 KCAL/MOL
REMARK 923 INTER-LIGAND FREE ENERGY PREDICTED BY IDOCK:   -7.99 KCAL/MOL
REMARK 924 INTRA-LIGAND FREE ENERGY PREDICTED BY IDOCK:   -1.02 KCAL/MOL
REMARK 927      BINDING AFFINITY PREDICTED BY RF-SCORE:    0.00 PKD
ROOT
HETATM    1  C   UNL     1     -12.748  11.148  70.269  1.00  0.00    -0.213 C  
HETATM    2  C   UNL     1     -11.668  10.498  69.806  1.00  0.00    -0.354 C  
ENDROOT
BRANCH   1   3
HETATM    3  C   UNL     1     -13.135  11.170  71.698  1.00  0.00    -0.424 C  
HETATM    4  O   UNL     1     -13.373  10.147  72.323  1.00  0.00    -0.415 OA 
BRANCH   3   5
HETATM    5  O   UNL     1     -13.355  12.437  72.117  1.00  0.00    -0.528 OA 
BRANCH   5   6
HETATM    6  C   UNL     1     -12.540  13.406  71.453  1.00  0.00    -0.283 C  
HETATM    7  C   UNL     1     -12.332  15.692  70.392  1.00  0.00    -0.427 C  
HETATM    8  C   UNL     1     -13.154  15.784  73.416  1.00  0.00    -0.690 C  
HETATM    9  C   UNL     1     -14.039  15.325  72.263  1.00  0.00    -0.651 C  
HETATM   10  C   UNL     1     -13.294  14.686  71.067  1.00  0.00    -0.410 C  
BRANCH   7  11
HETATM   11  C   UNL     1     -11.700  15.149  69.104  1.00  0.00    -0.349 C  
BRANCH  11  12
HETATM   12  C   UNL     1     -11.221  16.263  68.176  1.00  0.00    -0.298 C  
HETATM   13  C   UNL     1     -10.446  15.687  67.000  1.00  0.00    -0.303 C  
ENDBRANCH  11  12
ENDBRANCH   7  11
ENDBRANCH   5   6
ENDBRANCH   3   5
ENDBRANCH   1   3
BRANCH   2  14
HETATM   14  C   UNL     1     -11.249  10.636  68.415  1.00  0.00    -0.347 A  
HETATM   15  C   UNL     1     -10.379  10.933  65.764  1.00  0.00    -0.241 A  
HETATM   16  C   UNL     1     -11.523  11.810  67.710  1.00  0.00    -0.381 A  
HETATM   17  C   UNL     1     -10.546   9.604  67.788  1.00  0.00    -0.320 A  
HETATM   18  C   UNL     1     -11.089  11.958  66.388  1.00  0.00    -0.359 A  
HETATM   19  C   UNL     1     -10.106   9.759  66.472  1.00  0.00    -0.307 A  
BRANCH  15  20
HETATM   20  O   UNL     1      -9.852  10.986  64.504  1.00  0.00    -0.243 OA 
HETATM   21  C   UNL     1     -10.392  11.976  63.639  1.00  0.00    -0.450 C  
ENDBRANCH  15  20
ENDBRANCH   2  14
TORSDOF 7
ENDMDL
MODEL        8
REMARK 921   NORMALIZED FREE ENERGY PREDICTED BY IDOCK:   -5.56 KCAL/MOL
REMARK 922        TOTAL FREE ENERGY PREDICTED BY IDOCK:   -8.96 KCAL/MOL
REMARK 923 INTER-LIGAND FREE ENERGY PREDICTED BY IDOCK:   -8.02 KCAL/MOL
REMARK 924 INTRA-LIGAND FREE ENERGY PREDICTED BY IDOCK:   -0.94 KCAL/MOL
REMARK 927      BINDING AFFINITY PREDICTED BY RF-SCORE:    0.00 PKD
ROOT
HETATM    1  C   UNL     1     -10.464  15.783  67.194  1.00  0.00    -0.309 C  
HETATM    2  C   UNL     1     -11.309  14.842  67.645  1.00  0.00    -0.352 C  
ENDROOT
BRANCH   1   3
HETATM    3  C   UNL     1     -10.187  16.008  65.757  1.00  0.00    -0.377 C  
HETATM    4  O   UNL     1     -10.629  15.271  64.887  1.00  0.00    -0.407 OA 
BRANCH   3   5
HETATM    5  O   UNL     1      -9.267  16.984  65.592  1.00  0.00    -0.508 OA 
BRANCH   5   6
HETATM    6  C   UNL     1      -8.714  17.460  66.821  1.00  0.00    -0.255 C  
HETATM    7  C   UNL     1      -7.961  19.415  68.239  1.00  0.00    -0.366 C  
HETATM    8  C   UNL     1     -10.993  19.531  67.451  1.00  0.00    -0.427 C  
HETATM    9  C   UNL     1      -9.817  19.756  66.510  1.00  0.00    -0.546 C  
HETATM   10  C   UNL     1      -8.525  18.983  66.864  1.00  0.00    -0.302 C  
BRANCH   7  11
HETATM   11  C   UNL     1      -6.593  18.793  68.550  1.00  0.00    -0.260 C  
BRANCH  11  12
HETATM   12  C   UNL     1      -5.719  19.709  69.403  1.00  0.00    -0.265 C  
HETATM   13  C   UNL     1      -6.403  20.025  70.726  1.00  0.00    -0.208 C  
ENDBRANCH  11  12
ENDBRANCH   7  11
ENDBRANCH   5   6
ENDBRANCH   3   5
ENDBRANCH   1   3
BRANCH   2  14
HETATM   14  C   UNL     1     -11.661  14.765  69.059  1.00  0.00    -0.324 A  
HETATM   15  C   UNL     1     -12.408  14.633  71.760  1.00  0.00    -0.346 A  
HETATM   16  C   UNL     1     -11.654  15.916  69.850  1.00  0.00    -0.337 A  
HETATM   17  C   UNL     1     -12.033  13.542  69.625  1.00  0.00    -0.397 A  
HETATM   18  C   UNL     1     -12.026  15.850  71.197  1.00  0.00    -0.472 A  
HETATM   19  C   UNL     1     -12.415  13.482  70.966  1.00  0.00    -0.451 A  
BRANCH  15  20
HETATM   20  O   UNL     1     -12.851  14.456  73.041  1.00  0.00    -0.464 OA 
HETATM   21  C   UNL     1     -12.438  15.432  73.988  1.00  0.00    -0.642 C  
ENDBRANCH  15  20
ENDBRANCH   2  14
TORSDOF 7
ENDMDL
MODEL        9
REMARK 921   NORMALIZED FREE ENERGY PREDICTED BY IDOCK:   -5.54 KCAL/MOL
REMARK 922        TOTAL FREE ENERGY PREDICTED BY IDOCK:   -8.92 KCAL/MOL
REMARK 923 INTER-LIGAND FREE ENERGY PREDICTED BY IDOCK:   -8.25 KCAL/MOL
REMARK 924 INTRA-LIGAND FREE ENERGY PREDICTED BY IDOCK:   -0.68 KCAL/MOL
REMARK 927      BINDING AFFINITY PREDICTED BY RF-SCORE:    0.00 PKD
ROOT
HETATM    1  C   UNL     1      -9.956  16.810  66.063  1.00  0.00    -0.334 C  
HETATM    2  C   UNL     1      -9.995  18.145  66.207  1.00  0.00    -0.342 C  
ENDROOT
BRANCH   1   3
HETATM    3  C   UNL     1     -10.890  16.058  65.195  1.00  0.00    -0.395 C  
HETATM    4  O   UNL     1     -11.342  16.530  64.161  1.00  0.00    -1.060 OA 
BRANCH   3   5
HETATM    5  O   UNL     1     -11.287  14.913  65.794  1.00  0.00    -0.341 OA 
BRANCH   5   6
HETATM    6  C   UNL     1     -11.159  14.941  67.218  1.00  0.00    -0.336 C  
HETATM    7  C   UNL     1     -11.760  13.942  69.462  1.00  0.00    -0.369 C  
HETATM    8  C   UNL     1     -10.289  11.939  67.552  1.00  0.00    -0.219 C  
HETATM    9  C   UNL     1     -11.718  12.443  67.389  1.00  0.00    -0.417 C  
HETATM   10  C   UNL     1     -11.987  13.865  67.933  1.00  0.00    -0.393 C  
BRANCH   7  11
HETATM   11  C   UNL     1     -12.176  15.290  70.065  1.00  0.00    -0.385 C  
BRANCH  11  12
HETATM   12  C   UNL     1     -13.242  15.139  71.148  1.00  0.00    -0.535 C  
HETATM   13  C   UNL     1     -13.139  13.775  71.816  1.00  0.00    -0.463 C  
ENDBRANCH  11  12
ENDBRANCH   7  11
ENDBRANCH   5   6
ENDBRANCH   3   5
ENDBRANCH   1   3
BRANCH   2  14
HETATM   14  C   UNL     1      -8.957  18.849  66.952  1.00  0.00    -0.306 A  
HETATM   15  C   UNL     1      -6.909  20.163  68.349  1.00  0.00    -0.287 A  
HETATM   16  C   UNL     1      -8.469  18.321  68.149  1.00  0.00    -0.290 A  
HETATM   17  C   UNL     1      -8.425  20.043  66.458  1.00  0.00    -0.359 A  
HETATM   18  C   UNL     1      -7.448  18.976  68.847  1.00  0.00    -0.364 A  
HETATM   19  C   UNL     1      -7.398  20.688  67.151  1.00  0.00    -0.389 A  
BRANCH  15  20
HETATM   20  O   UNL     1      -5.871  20.856  68.906  1.00  0.00    -0.353 OA 
HETATM   21  C   UNL     1      -5.467  20.446  70.206  1.00  0.00    -0.310 C  
ENDBRANCH  15  20
ENDBRANCH   2  14
TORSDOF 7
ENDMDL
MODEL       10
REMARK 921   NORMALIZED FREE ENERGY PREDICTED BY IDOCK:   -5.53 KCAL/MOL
REMARK 922        TOTAL FREE ENERGY PREDICTED BY IDOCK:   -8.92 KCAL/MOL
REMARK 923 INTER-LIGAND FREE ENERGY PREDICTED BY IDOCK:   -8.18 KCAL/MOL
REMARK 924 INTRA-LIGAND FREE ENERGY PREDICTED BY IDOCK:   -0.74 KCAL/MOL
REMARK 927      BINDING AFFINITY PREDICTED BY RF-SCORE:    0.00 PKD
ROOT
HETATM    1  C   UNL     1     -12.550  12.798  70.885  1.00  0.00    -0.342 C  
HETATM    2  C   UNL     1     -13.037  11.888  71.744  1.00  0.00    -0.465 C  
ENDROOT
BRANCH   1   3
HETATM    3  C   UNL     1     -12.693  14.259  71.080  1.00  0.00    -0.359 C  
HETATM    4  O   UNL     1     -13.787  14.797  71.183  1.00  0.00    -0.398 OA 
BRANCH   3   5
HETATM    5  O   UNL     1     -11.502  14.882  70.939  1.00  0.00    -0.286 OA 
BRANCH   5   6
HETATM    6  C   UNL     1     -11.517  15.927  69.964  1.00  0.00    -0.354 C  
HETATM    7  C   UNL     1     -10.576  16.907  67.830  1.00  0.00    -0.361 C  
HETATM    8  C   UNL     1     -11.838  14.062  67.455  1.00  0.00    -0.445 C  
HETATM    9  C   UNL     1     -10.532  14.372  68.177  1.00  0.00    -0.237 C  
HETATM   10  C   UNL     1     -10.464  15.757  68.861  1.00  0.00    -0.223 C  
BRANCH   7  11
HETATM   11  C   UNL     1     -10.346  18.292  68.448  1.00  0.00    -0.366 C  
BRANCH  11  12
HETATM   12  C   UNL     1     -10.654  19.423  67.469  1.00  0.00    -0.591 C  
HETATM   13  C   UNL     1     -10.522  18.940  66.031  1.00  0.00    -0.507 C  
ENDBRANCH  11  12
ENDBRANCH   7  11
ENDBRANCH   5   6
ENDBRANCH   3   5
ENDBRANCH   1   3
BRANCH   2  14
HETATM   14  C   UNL     1     -12.735  10.469  71.583  1.00  0.00    -0.550 A  
HETATM   15  C   UNL     1     -12.192   7.742  71.208  1.00  0.00    -0.303 A  
HETATM   16  C   UNL     1     -13.622   9.502  72.059  1.00  0.00    -0.492 A  
HETATM   17  C   UNL     1     -11.568  10.070  70.925  1.00  0.00    -0.463 A  
HETATM   18  C   UNL     1     -13.351   8.142  71.873  1.00  0.00    -0.350 A  
HETATM   19  C   UNL     1     -11.306   8.712  70.732  1.00  0.00    -0.299 A  
BRANCH  15  20
HETATM   20  O   UNL     1     -11.853   6.451  70.913  1.00  0.00    -0.350 OA 
HETATM   21  C   UNL     1     -11.269   6.233  69.635  1.00  0.00    -0.437 C  
ENDBRANCH  15  20
ENDBRANCH   2  14
TORSDOF 7
ENDMDL
MODEL       11
REMARK 921   NORMALIZED FREE ENERGY PREDICTED BY IDOCK:   -5.50 KCAL/MOL
REMARK 922        TOTAL FREE ENERGY PREDICTED BY IDOCK:   -8.87 KCAL/MOL
REMARK 923 INTER-LIGAND FREE ENERGY PREDICTED BY IDOCK:   -7.83 KCAL/MOL
REMARK 924 INTRA-LIGAND FREE ENERGY PREDICTED BY IDOCK:   -1.05 KCAL/MOL
REMARK 927      BINDING AFFINITY PREDICTED BY RF-SCORE:    0.00 PKD
ROOT
HETATM    1  C   UNL     1     -11.255  15.186  66.639  1.00  0.00    -0.274 C  
HETATM    2  C   UNL     1     -10.941  15.894  67.736  1.00  0.00    -0.315 C  
ENDROOT
BRANCH   1   3
HETATM    3  C   UNL     1     -10.705  15.478  65.296  1.00  0.00    -0.422 C  
HETATM    4  O   UNL     1     -10.698  16.608  64.828  1.00  0.00    -0.721 OA 
BRANCH   3   5
HETATM    5  O   UNL     1     -10.407  14.334  64.639  1.00  0.00    -0.417 OA 
BRANCH   5   6
HETATM    6  C   UNL     1     -10.112  13.239  65.509  1.00  0.00    -0.263 C  
HETATM    7  C   UNL     1     -10.587  10.861  66.227  1.00  0.00    -0.276 C  
HETATM    8  C   UNL     1      -9.658  11.107  63.244  1.00  0.00    -0.371 C  
HETATM    9  C   UNL     1     -11.007  11.548  63.798  1.00  0.00    -0.485 C  
HETATM   10  C   UNL     1     -10.999  12.009  65.275  1.00  0.00    -0.356 C  
BRANCH   7  11
HETATM   11  C   UNL     1     -10.728  11.230  67.710  1.00  0.00    -0.265 C  
BRANCH  11  12
HETATM   12  C   UNL     1     -10.917  10.003  68.599  1.00  0.00    -0.247 C  
HETATM   13  C   UNL     1     -10.696  10.360  70.062  1.00  0.00    -0.321 C  
ENDBRANCH  11  12
ENDBRANCH   7  11
ENDBRANCH   5   6
ENDBRANCH   3   5
ENDBRANCH   1   3
BRANCH   2  14
HETATM   14  C   UNL     1     -11.392  15.470  69.057  1.00  0.00    -0.331 A  
HETATM   15  C   UNL     1     -12.190  14.624  71.611  1.00  0.00    -0.344 A  
HETATM   16  C   UNL     1     -11.937  14.198  69.240  1.00  0.00    -0.382 A  
HETATM   17  C   UNL     1     -11.255  16.325  70.155  1.00  0.00    -0.340 A  
HETATM   18  C   UNL     1     -12.336  13.775  70.513  1.00  0.00    -0.429 A  
HETATM   19  C   UNL     1     -11.643  15.896  71.425  1.00  0.00    -0.529 A  
BRANCH  15  20
HETATM   20  O   UNL     1     -12.483  14.301  72.906  1.00  0.00    -0.229 OA 
HETATM   21  C   UNL     1     -12.890  15.376  73.744  1.00  0.00    -0.508 C  
ENDBRANCH  15  20
ENDBRANCH   2  14
TORSDOF 7
ENDMDL
MODEL       12
REMARK 921   NORMALIZED FREE ENERGY PREDICTED BY IDOCK:   -5.49 KCAL/MOL
REMARK 922        TOTAL FREE ENERGY PREDICTED BY IDOCK:   -8.86 KCAL/MOL
REMARK 923 INTER-LIGAND FREE ENERGY PREDICTED BY IDOCK:   -7.99 KCAL/MOL
REMARK 924 INTRA-LIGAND FREE ENERGY PREDICTED BY IDOCK:   -0.87 KCAL/MOL
REMARK 927      BINDING AFFINITY PREDICTED BY RF-SCORE:    0.00 PKD
ROOT
HETATM    1  C   UNL     1     -11.924  13.369  69.570  1.00  0.00    -0.377 C  
HETATM    2  C   UNL     1     -12.510  12.867  70.669  1.00  0.00    -0.333 C  
ENDROOT
BRANCH   1   3
HETATM    3  C   UNL     1     -11.875  14.817  69.263  1.00  0.00    -0.318 C  
HETATM    4  O   UNL     1     -12.187  15.667  70.084  1.00  0.00    -0.379 OA 
BRANCH   3   5
HETATM    5  O   UNL     1     -11.630  15.022  67.949  1.00  0.00    -0.332 OA 
BRANCH   5   6
HETATM    6  C   UNL     1     -10.981  13.919  67.312  1.00  0.00    -0.290 C  
HETATM    7  C   UNL     1     -11.135  11.906  65.788  1.00  0.00    -0.367 C  
HETATM    8  C   UNL     1     -11.918  14.600  64.390  1.00  0.00    -0.454 C  
HETATM    9  C   UNL     1     -12.740  13.870  65.444  1.00  0.00    -0.525 C  
HETATM   10  C   UNL     1     -11.925  13.049  66.471  1.00  0.00    -0.457 C  
BRANCH   7  11
HETATM   11  C   UNL     1     -10.448  10.968  66.789  1.00  0.00    -0.300 C  
BRANCH  11  12
HETATM   12  C   UNL     1     -10.079   9.624  66.167  1.00  0.00    -0.328 C  
HETATM   13  C   UNL     1     -10.405   8.483  67.121  1.00  0.00    -0.377 C  
ENDBRANCH  11  12
ENDBRANCH   7  11
ENDBRANCH   5   6
ENDBRANCH   3   5
ENDBRANCH   1   3
BRANCH   2  14
HETATM   14  C   UNL     1     -12.396  11.451  70.999  1.00  0.00    -0.448 A  
HETATM   15  C   UNL     1     -12.127   8.744  71.687  1.00  0.00    -0.337 A  
HETATM   16  C   UNL     1     -11.414  10.664  70.395  1.00  0.00    -0.422 A  
HETATM   17  C   UNL     1     -13.253  10.879  71.944  1.00  0.00    -0.508 A  
HETATM   18  C   UNL     1     -11.279   9.314  70.737  1.00  0.00    -0.351 A  
HETATM   19  C   UNL     1     -13.109   9.534  72.291  1.00  0.00    -0.492 A  
BRANCH  15  20
HETATM   20  O   UNL     1     -12.052   7.459  72.147  1.00  0.00    -0.288 OA 
HETATM   21  C   UNL     1     -11.351   6.537  71.323  1.00  0.00    -0.303 C  
ENDBRANCH  15  20
ENDBRANCH   2  14
TORSDOF 7
ENDMDL
MODEL       13
REMARK 921   NORMALIZED FREE ENERGY PREDICTED BY IDOCK:   -5.48 KCAL/MOL
REMARK 922        TOTAL FREE ENERGY PREDICTED BY IDOCK:   -8.84 KCAL/MOL
REMARK 923 INTER-LIGAND FREE ENERGY PREDICTED BY IDOCK:   -8.02 KCAL/MOL
REMARK 924 INTRA-LIGAND FREE ENERGY PREDICTED BY IDOCK:   -0.83 KCAL/MOL
REMARK 927      BINDING AFFINITY PREDICTED BY RF-SCORE:    0.00 PKD
ROOT
HETATM    1  C   UNL     1     -11.730  12.044  67.755  1.00  0.00    -0.379 C  
HETATM    2  C   UNL     1     -11.867  12.238  69.076  1.00  0.00    -0.358 C  
ENDROOT
BRANCH   1   3
HETATM    3  C   UNL     1     -11.619  13.150  66.776  1.00  0.00    -0.366 C  
HETATM    4  O   UNL     1     -11.150  12.985  65.659  1.00  0.00    -0.274 OA 
BRANCH   3   5
HETATM    5  O   UNL     1     -11.921  14.335  67.353  1.00  0.00    -0.395 OA 
BRANCH   5   6
HETATM    6  C   UNL     1     -11.072  15.406  66.933  1.00  0.00    -0.256 C  
HETATM    7  C   UNL     1     -10.026  17.655  67.426  1.00  0.00    -0.321 C  
HETATM    8  C   UNL     1      -9.245  15.430  69.492  1.00  0.00    -0.240 C  
HETATM    9  C   UNL     1     -10.613  16.090  69.364  1.00  0.00    -0.275 C  
HETATM   10  C   UNL     1     -10.993  16.561  67.940  1.00  0.00    -0.288 C  
BRANCH   7  11
HETATM   11  C   UNL     1     -10.466  18.266  66.089  1.00  0.00    -0.403 C  
BRANCH  11  12
HETATM   12  C   UNL     1     -10.456  19.793  66.117  1.00  0.00    -0.613 C  
HETATM   13  C   UNL     1      -9.875  20.303  67.428  1.00  0.00    -0.586 C  
ENDBRANCH  11  12
ENDBRANCH   7  11
ENDBRANCH   5   6
ENDBRANCH   3   5
ENDBRANCH   1   3
BRANCH   2  14
HETATM   14  C   UNL     1     -11.818  11.117  70.008  1.00  0.00    -0.441 A  
HETATM   15  C   UNL     1     -11.693   9.005  71.851  1.00  0.00    -0.374 A  
HETATM   16  C   UNL     1     -10.690  10.297  70.065  1.00  0.00    -0.345 A  
HETATM   17  C   UNL     1     -12.892  10.872  70.869  1.00  0.00    -0.418 A  
HETATM   18  C   UNL     1     -10.626   9.243  70.984  1.00  0.00    -0.386 A  
HETATM   19  C   UNL     1     -12.821   9.827  71.792  1.00  0.00    -0.530 A  
BRANCH  15  20
HETATM   20  O   UNL     1     -11.721   8.050  72.829  1.00  0.00    -0.396 OA 
HETATM   21  C   UNL     1     -10.459   7.573  73.277  1.00  0.00    -0.371 C  
ENDBRANCH  15  20
ENDBRANCH   2  14
TORSDOF 7
ENDMDL
MODEL       14
REMARK 921   NORMALIZED FREE ENERGY PREDICTED BY IDOCK:   -5.44 KCAL/MOL
REMARK 922        TOTAL FREE ENERGY PREDICTED BY IDOCK:   -8.79 KCAL/MOL
REMARK 923 INTER-LIGAND FREE ENERGY PREDICTED BY IDOCK:   -7.98 KCAL/MOL
REMARK 924 INTRA-LIGAND FREE ENERGY PREDICTED BY IDOCK:   -0.81 KCAL/MOL
REMARK 927      BINDING AFFINITY PREDICTED BY RF-SCORE:    0.00 PKD
ROOT
HETATM    1  C   UNL     1     -10.921  15.709  67.234  1.00  0.00    -0.275 C  
HETATM    2  C   UNL     1     -11.500  14.593  67.704  1.00  0.00    -0.364 C  
ENDROOT
BRANCH   1   3
HETATM    3  C   UNL     1     -10.598  15.919  65.804  1.00  0.00    -0.355 C  
HETATM    4  O   UNL     1     -10.458  14.986  65.025  1.00  0.00    -0.388 OA 
BRANCH   3   5
HETATM    5  O   UNL     1     -10.309  17.217  65.561  1.00  0.00    -0.614 OA 
BRANCH   5   6
HETATM    6  C   UNL     1      -9.114  17.665  66.206  1.00  0.00    -0.186 C  
HETATM    7  C   UNL     1      -7.655  19.590  66.955  1.00  0.00    -0.266 C  
HETATM    8  C   UNL     1     -10.519  19.619  68.229  1.00  0.00    -0.453 C  
HETATM    9  C   UNL     1     -10.185  19.927  66.774  1.00  0.00    -0.603 C  
HETATM   10  C   UNL     1      -8.949  19.191  66.206  1.00  0.00    -0.320 C  
BRANCH   7  11
HETATM   11  C   UNL     1      -6.386  19.010  66.315  1.00  0.00    -0.206 C  
BRANCH  11  12
HETATM   12  C   UNL     1      -5.808  19.926  65.239  1.00  0.00    -0.225 C  
HETATM   13  C   UNL     1      -5.561  19.153  63.951  1.00  0.00    -0.325 C  
ENDBRANCH  11  12
ENDBRANCH   7  11
ENDBRANCH   5   6
ENDBRANCH   3   5
ENDBRANCH   1   3
BRANCH   2  14
HETATM   14  C   UNL     1     -11.935  14.502  69.093  1.00  0.00    -0.344 A  
HETATM   15  C   UNL     1     -12.700  14.326  71.787  1.00  0.00    -0.347 A  
HETATM   16  C   UNL     1     -12.112  13.255  69.696  1.00  0.00    -0.331 A  
HETATM   17  C   UNL     1     -12.151  15.665  69.839  1.00  0.00    -0.360 A  
HETATM   18  C   UNL     1     -12.494  13.166  71.039  1.00  0.00    -0.406 A  
HETATM   19  C   UNL     1     -12.522  15.572  71.182  1.00  0.00    -0.491 A  
BRANCH  15  20
HETATM   20  O   UNL     1     -13.012  14.366  73.117  1.00  0.00    -0.520 OA 
HETATM   21  C   UNL     1     -12.720  15.581  73.794  1.00  0.00    -0.597 C  
ENDBRANCH  15  20
ENDBRANCH   2  14
TORSDOF 7
ENDMDL
MODEL       15
REMARK 921   NORMALIZED FREE ENERGY PREDICTED BY IDOCK:   -5.42 KCAL/MOL
REMARK 922        TOTAL FREE ENERGY PREDICTED BY IDOCK:   -8.75 KCAL/MOL
REMARK 923 INTER-LIGAND FREE ENERGY PREDICTED BY IDOCK:   -7.79 KCAL/MOL
REMARK 924 INTRA-LIGAND FREE ENERGY PREDICTED BY IDOCK:   -0.96 KCAL/MOL
REMARK 927      BINDING AFFINITY PREDICTED BY RF-SCORE:    0.00 PKD
ROOT
HETATM    1  C   UNL     1     -11.547  14.637  65.518  1.00  0.00    -0.335 C  
HETATM    2  C   UNL     1     -10.666  15.511  65.007  1.00  0.00    -0.463 C  
ENDROOT
BRANCH   1   3
HETATM    3  C   UNL     1     -12.217  13.591  64.712  1.00  0.00    -0.409 C  
HETATM    4  O   UNL     1     -12.612  13.801  63.573  1.00  0.00    -0.814 OA 
BRANCH   3   5
HETATM    5  O   UNL     1     -12.478  12.498  65.463  1.00  0.00    -0.646 OA 
BRANCH   5   6
HETATM    6  C   UNL     1     -11.883  12.544  66.762  1.00  0.00    -0.346 C  
HETATM    7  C   UNL     1     -10.592  11.367  68.591  1.00  0.00    -0.229 C  
HETATM    8  C   UNL     1      -9.034  11.555  65.878  1.00  0.00    -0.152 C  
HETATM    9  C   UNL     1     -10.241  10.668  66.155  1.00  0.00    -0.308 C  
HETATM   10  C   UNL     1     -11.245  11.218  67.196  1.00  0.00    -0.344 C  
BRANCH   7  11
HETATM   11  C   UNL     1     -11.596  11.751  69.687  1.00  0.00    -0.393 C  
BRANCH  11  12
HETATM   12  C   UNL     1     -12.094  10.538  70.469  1.00  0.00    -0.437 C  
HETATM   13  C   UNL     1     -13.020  10.970  71.598  1.00  0.00    -0.561 C  
ENDBRANCH  11  12
ENDBRANCH   7  11
ENDBRANCH   5   6
ENDBRANCH   3   5
ENDBRANCH   1   3
BRANCH   2  14
HETATM   14  C   UNL     1      -9.921  16.419  65.874  1.00  0.00    -0.358 A  
HETATM   15  C   UNL     1      -8.521  18.130  67.601  1.00  0.00    -0.244 A  
HETATM   16  C   UNL     1     -10.499  17.615  66.302  1.00  0.00    -0.292 A  
HETATM   17  C   UNL     1      -8.635  16.082  66.304  1.00  0.00    -0.363 A  
HETATM   18  C   UNL     1      -9.801  18.469  67.163  1.00  0.00    -0.335 A  
HETATM   19  C   UNL     1      -7.945  16.931  67.172  1.00  0.00    -0.210 A  
BRANCH  15  20
HETATM   20  O   UNL     1      -7.770  18.849  68.488  1.00  0.00    -0.307 OA 
HETATM   21  C   UNL     1      -6.738  18.137  69.159  1.00  0.00    -0.246 C  
ENDBRANCH  15  20
ENDBRANCH   2  14
TORSDOF 7
ENDMDL
MODEL       16
REMARK 921   NORMALIZED FREE ENERGY PREDICTED BY IDOCK:   -5.40 KCAL/MOL
REMARK 922        TOTAL FREE ENERGY PREDICTED BY IDOCK:   -8.73 KCAL/MOL
REMARK 923 INTER-LIGAND FREE ENERGY PREDICTED BY IDOCK:   -7.69 KCAL/MOL
REMARK 924 INTRA-LIGAND FREE ENERGY PREDICTED BY IDOCK:   -1.04 KCAL/MOL
REMARK 927      BINDING AFFINITY PREDICTED BY RF-SCORE:    0.00 PKD
ROOT
HETATM    1  C   UNL     1     -11.702  12.790  67.358  1.00  0.00    -0.425 C  
HETATM    2  C   UNL     1     -11.594  14.011  67.908  1.00  0.00    -0.377 C  
ENDROOT
BRANCH   1   3
HETATM    3  C   UNL     1     -11.201  12.460  66.004  1.00  0.00    -0.335 C  
HETATM    4  O   UNL     1     -11.599  13.041  65.004  1.00  0.00    -0.307 OA 
BRANCH   3   5
HETATM    5  O   UNL     1     -10.427  11.352  66.035  1.00  0.00    -0.241 OA 
BRANCH   5   6
HETATM    6  C   UNL     1     -10.084  10.934  67.358  1.00  0.00    -0.191 C  
HETATM    7  C   UNL     1     -10.056   9.109  69.109  1.00  0.00    -0.199 C  
HETATM    8  C   UNL     1      -8.465   8.377  66.509  1.00  0.00    -0.116 C  
HETATM    9  C   UNL     1      -9.980   8.476  66.630  1.00  0.00    -0.363 C  
HETATM   10  C   UNL     1     -10.498   9.491  67.676  1.00  0.00    -0.321 C  
BRANCH   7  11
HETATM   11  C   UNL     1     -10.687   9.996  70.190  1.00  0.00    -0.361 C  
BRANCH  11  12
HETATM   12  C   UNL     1     -11.234   9.184  71.361  1.00  0.00    -0.419 C  
HETATM   13  C   UNL     1     -12.616   9.682  71.762  1.00  0.00    -0.497 C  
ENDBRANCH  11  12
ENDBRANCH   7  11
ENDBRANCH   5   6
ENDBRANCH   3   5
ENDBRANCH   1   3
BRANCH   2  14
HETATM   14  C   UNL     1     -11.966  14.242  69.300  1.00  0.00    -0.375 A  
HETATM   15  C   UNL     1     -12.753  14.691  71.955  1.00  0.00    -0.332 A  
HETATM   16  C   UNL     1     -12.047  15.542  69.800  1.00  0.00    -0.372 A  
HETATM   17  C   UNL     1     -12.270  13.162  70.133  1.00  0.00    -0.360 A  
HETATM   18  C   UNL     1     -12.439  15.767  71.125  1.00  0.00    -0.490 A  
HETATM   19  C   UNL     1     -12.671  13.390  71.451  1.00  0.00    -0.411 A  
BRANCH  15  20
HETATM   20  O   UNL     1     -13.206  14.787  73.241  1.00  0.00    -0.531 OA 
HETATM   21  C   UNL     1     -12.380  15.509  74.145  1.00  0.00    -0.669 C  
ENDBRANCH  15  20
ENDBRANCH   2  14
TORSDOF 7
ENDMDL
MODEL       17
REMARK 921   NORMALIZED FREE ENERGY PREDICTED BY IDOCK:   -5.40 KCAL/MOL
REMARK 922        TOTAL FREE ENERGY PREDICTED BY IDOCK:   -8.73 KCAL/MOL
REMARK 923 INTER-LIGAND FREE ENERGY PREDICTED BY IDOCK:   -7.88 KCAL/MOL
REMARK 924 INTRA-LIGAND FREE ENERGY PREDICTED BY IDOCK:   -0.84 KCAL/MOL
REMARK 927      BINDING AFFINITY PREDICTED BY RF-SCORE:    0.00 PKD
ROOT
HETATM    1  C   UNL     1     -11.799  13.075  68.263  1.00  0.00    -0.381 C  
HETATM    2  C   UNL     1     -11.995  12.887  69.578  1.00  0.00    -0.346 C  
ENDROOT
BRANCH   1   3
HETATM    3  C   UNL     1     -11.719  14.414  67.636  1.00  0.00    -0.391 C  
HETATM    4  O   UNL     1     -11.549  14.560  66.433  1.00  0.00    -0.357 OA 
BRANCH   3   5
HETATM    5  O   UNL     1     -11.672  15.384  68.577  1.00  0.00    -0.352 OA 
BRANCH   5   6
HETATM    6  C   UNL     1     -10.982  16.560  68.148  1.00  0.00    -0.336 C  
HETATM    7  C   UNL     1      -9.047  18.162  68.451  1.00  0.00    -0.318 C  
HETATM    8  C   UNL     1      -8.155  15.218  67.846  1.00  0.00    -0.146 C  
HETATM    9  C   UNL     1      -8.775  15.714  69.147  1.00  0.00    -0.251 C  
HETATM   10  C   UNL     1      -9.755  16.902  69.005  1.00  0.00    -0.231 C  
BRANCH   7  11
HETATM   11  C   UNL     1      -9.945  19.406  68.452  1.00  0.00    -0.527 C  
BRANCH  11  12
HETATM   12  C   UNL     1      -9.821  20.214  67.163  1.00  0.00    -0.586 C  
HETATM   13  C   UNL     1     -10.530  19.509  66.015  1.00  0.00    -0.611 C  
ENDBRANCH  11  12
ENDBRANCH   7  11
ENDBRANCH   5   6
ENDBRANCH   3   5
ENDBRANCH   1   3
BRANCH   2  14
HETATM   14  C   UNL     1     -11.912  11.553  70.165  1.00  0.00    -0.452 A  
HETATM   15  C   UNL     1     -11.809   8.967  71.247  1.00  0.00    -0.310 A  
HETATM   16  C   UNL     1     -12.716  11.212  71.254  1.00  0.00    -0.531 A  
HETATM   17  C   UNL     1     -11.047  10.599  69.621  1.00  0.00    -0.342 A  
HETATM   18  C   UNL     1     -12.665   9.923  71.795  1.00  0.00    -0.523 A  
HETATM   19  C   UNL     1     -11.006   9.310  70.156  1.00  0.00    -0.278 A  
BRANCH  15  20
HETATM   20  O   UNL     1     -11.718   7.663  71.646  1.00  0.00    -0.264 OA 
HETATM   21  C   UNL     1     -11.134   7.437  72.923  1.00  0.00    -0.349 C  
ENDBRANCH  15  20
ENDBRANCH   2  14
TORSDOF 7
ENDMDL
MODEL       18
REMARK 921   NORMALIZED FREE ENERGY PREDICTED BY IDOCK:   -5.35 KCAL/MOL
REMARK 922        TOTAL FREE ENERGY PREDICTED BY IDOCK:   -8.66 KCAL/MOL
REMARK 923 INTER-LIGAND FREE ENERGY PREDICTED BY IDOCK:   -7.68 KCAL/MOL
REMARK 924 INTRA-LIGAND FREE ENERGY PREDICTED BY IDOCK:   -0.98 KCAL/MOL
REMARK 927      BINDING AFFINITY PREDICTED BY RF-SCORE:    0.00 PKD
ROOT
HETATM    1  C   UNL     1     -13.013   9.719  70.997  1.00  0.00    -0.368 C  
HETATM    2  C   UNL     1     -12.274  10.838  71.072  1.00  0.00    -0.485 C  
ENDROOT
BRANCH   1   3
HETATM    3  C   UNL     1     -13.442   8.946  72.185  1.00  0.00    -0.448 C  
HETATM    4  O   UNL     1     -14.406   9.275  72.862  1.00  0.00    -0.461 OA 
BRANCH   3   5
HETATM    5  O   UNL     1     -12.535   7.991  72.491  1.00  0.00    -0.260 OA 
BRANCH   5   6
HETATM    6  C   UNL     1     -12.312   7.058  71.431  1.00  0.00    -0.377 C  
HETATM    7  C   UNL     1     -10.714   5.545  70.184  1.00  0.00    -0.348 C  
HETATM    8  C   UNL     1     -11.037   4.804  73.213  1.00  0.00    -0.411 C  
HETATM    9  C   UNL     1     -10.312   6.027  72.665  1.00  0.00    -0.222 C  
HETATM   10  C   UNL     1     -10.858   6.579  71.327  1.00  0.00    -0.294 C  
BRANCH   7  11
HETATM   11  C   UNL     1     -11.090   6.113  68.809  1.00  0.00    -0.398 C  
BRANCH  11  12
HETATM   12  C   UNL     1     -10.477   7.489  68.561  1.00  0.00    -0.211 C  
HETATM   13  C   UNL     1      -9.941   7.590  67.140  1.00  0.00    -0.288 C  
ENDBRANCH  11  12
ENDBRANCH   7  11
ENDBRANCH   5   6
ENDBRANCH   3   5
ENDBRANCH   1   3
BRANCH   2  14
HETATM   14  C   UNL     1     -12.010  11.643  69.884  1.00  0.00    -0.414 A  
HETATM   15  C   UNL     1     -11.575  13.182  67.579  1.00  0.00    -0.352 A  
HETATM   16  C   UNL     1     -11.635  11.029  68.687  1.00  0.00    -0.385 A  
HETATM   17  C   UNL     1     -12.158  13.032  69.930  1.00  0.00    -0.347 A  
HETATM   18  C   UNL     1     -11.417  11.796  67.537  1.00  0.00    -0.373 A  
HETATM   19  C   UNL     1     -11.950  13.793  68.778  1.00  0.00    -0.400 A  
BRANCH  15  20
HETATM   20  O   UNL     1     -11.452  14.026  66.511  1.00  0.00    -0.331 OA 
HETATM   21  C   UNL     1     -12.489  13.965  65.540  1.00  0.00    -0.511 C  
ENDBRANCH  15  20
ENDBRANCH   2  14
TORSDOF 7
ENDMDL
MODEL       19
REMARK 921   NORMALIZED FREE ENERGY PREDICTED BY IDOCK:   -5.32 KCAL/MOL
REMARK 922        TOTAL FREE ENERGY PREDICTED BY IDOCK:   -8.62 KCAL/MOL
REMARK 923 INTER-LIGAND FREE ENERGY PREDICTED BY IDOCK:   -7.73 KCAL/MOL
REMARK 924 INTRA-LIGAND FREE ENERGY PREDICTED BY IDOCK:   -0.89 KCAL/MOL
REMARK 927      BINDING AFFINITY PREDICTED BY RF-SCORE:    0.00 PKD
ROOT
HETATM    1  C   UNL     1     -10.955  10.085  69.899  1.00  0.00    -0.339 C  
HETATM    2  C   UNL     1     -12.103  10.353  70.542  1.00  0.00    -0.423 C  
ENDROOT
BRANCH   1   3
HETATM    3  C   UNL     1     -10.605   8.741  69.385  1.00  0.00    -0.209 C  
HETATM    4  O   UNL     1     -10.806   7.724  70.033  1.00  0.00    -0.247 OA 
BRANCH   3   5
HETATM    5  O   UNL     1      -9.895   8.835  68.238  1.00  0.00    -0.155 OA 
BRANCH   5   6
HETATM    6  C   UNL     1     -10.543   9.613  67.228  1.00  0.00    -0.247 C  
HETATM    7  C   UNL     1     -10.395  11.414  65.459  1.00  0.00    -0.317 C  
HETATM    8  C   UNL     1      -8.500   8.974  64.927  1.00  0.00    -0.195 C  
HETATM    9  C   UNL     1      -8.320  10.024  66.016  1.00  0.00    -0.126 C  
HETATM   10  C   UNL     1      -9.626  10.647  66.562  1.00  0.00    -0.218 C  
BRANCH   7  11
HETATM   11  C   UNL     1     -11.608  12.184  65.997  1.00  0.00    -0.420 C  
BRANCH  11  12
HETATM   12  C   UNL     1     -12.484  12.742  64.878  1.00  0.00    -0.563 C  
HETATM   13  C   UNL     1     -12.330  11.914  63.610  1.00  0.00    -0.591 C  
ENDBRANCH  11  12
ENDBRANCH   7  11
ENDBRANCH   5   6
ENDBRANCH   3   5
ENDBRANCH   1   3
BRANCH   2  14
HETATM   14  C   UNL     1     -12.465  11.723  70.891  1.00  0.00    -0.416 A  
HETATM   15  C   UNL     1     -13.095  14.363  71.600  1.00  0.00    -0.350 A  
HETATM   16  C   UNL     1     -13.162  11.989  72.071  1.00  0.00    -0.481 A  
HETATM   17  C   UNL     1     -12.089  12.782  70.059  1.00  0.00    -0.355 A  
HETATM   18  C   UNL     1     -13.478  13.305  72.425  1.00  0.00    -0.670 A  
HETATM   19  C   UNL     1     -12.396  14.095  70.421  1.00  0.00    -0.428 A  
BRANCH  15  20
HETATM   20  O   UNL     1     -13.290  15.689  71.871  1.00  0.00    -0.451 OA 
HETATM   21  C   UNL     1     -13.299  16.055  73.244  1.00  0.00    -0.532 C  
ENDBRANCH  15  20
ENDBRANCH   2  14
TORSDOF 7
ENDMDL
MODEL       20
REMARK 921   NORMALIZED FREE ENERGY PREDICTED BY IDOCK:   -5.32 KCAL/MOL
REMARK 922        TOTAL FREE ENERGY PREDICTED BY IDOCK:   -8.61 KCAL/MOL
REMARK 923 INTER-LIGAND FREE ENERGY PREDICTED BY IDOCK:   -7.65 KCAL/MOL
REMARK 924 INTRA-LIGAND FREE ENERGY PREDICTED BY IDOCK:   -0.97 KCAL/MOL
REMARK 927      BINDING AFFINITY PREDICTED BY RF-SCORE:    0.00 PKD
ROOT
HETATM    1  C   UNL     1     -13.440   9.543  71.843  1.00  0.00    -0.502 C  
HETATM    2  C   UNL     1     -12.813  10.364  70.985  1.00  0.00    -0.494 C  
ENDROOT
BRANCH   1   3
HETATM    3  C   UNL     1     -13.306   8.068  71.804  1.00  0.00    -0.340 C  
HETATM    4  O   UNL     1     -14.176   7.348  71.336  1.00  0.00    -0.433 OA 
BRANCH   3   5
HETATM    5  O   UNL     1     -12.221   7.666  72.503  1.00  0.00    -0.219 OA 
BRANCH   5   6
HETATM    6  C   UNL     1     -11.327   6.848  71.745  1.00  0.00    -0.261 C  
HETATM    7  C   UNL     1      -9.373   6.687  70.147  1.00  0.00    -0.159 C  
HETATM    8  C   UNL     1      -8.670   8.117  72.846  1.00  0.00    -0.290 C  
HETATM    9  C   UNL     1      -9.539   8.689  71.732  1.00  0.00    -0.360 C  
HETATM   10  C   UNL     1     -10.324   7.647  70.901  1.00  0.00    -0.204 C  
BRANCH   7  11
HETATM   11  C   UNL     1     -10.108   5.747  69.182  1.00  0.00    -0.257 C  
BRANCH  11  12
HETATM   12  C   UNL     1      -9.750   6.015  67.723  1.00  0.00    -0.119 C  
HETATM   13  C   UNL     1     -10.961   6.534  66.959  1.00  0.00    -0.466 C  
ENDBRANCH  11  12
ENDBRANCH   7  11
ENDBRANCH   5   6
ENDBRANCH   3   5
ENDBRANCH   1   3
BRANCH   2  14
HETATM   14  C   UNL     1     -12.858  11.811  71.164  1.00  0.00    -0.365 A  
HETATM   15  C   UNL     1     -12.889  14.589  71.556  1.00  0.00    -0.336 A  
HETATM   16  C   UNL     1     -13.631  12.371  72.183  1.00  0.00    -0.405 A  
HETATM   17  C   UNL     1     -12.106  12.645  70.332  1.00  0.00    -0.381 A  
HETATM   18  C   UNL     1     -13.647  13.756  72.379  1.00  0.00    -0.690 A  
HETATM   19  C   UNL     1     -12.116  14.026  70.537  1.00  0.00    -0.424 A  
BRANCH  15  20
HETATM   20  O   UNL     1     -12.775  15.945  71.689  1.00  0.00    -0.451 OA 
HETATM   21  C   UNL     1     -11.923  16.404  72.730  1.00  0.00    -0.490 C  
ENDBRANCH  15  20
ENDBRANCH   2  14
TORSDOF 7
ENDMDL
MODEL       21
REMARK 921   NORMALIZED FREE ENERGY PREDICTED BY IDOCK:   -5.31 KCAL/MOL
REMARK 922        TOTAL FREE ENERGY PREDICTED BY IDOCK:   -8.61 KCAL/MOL
REMARK 923 INTER-LIGAND FREE ENERGY PREDICTED BY IDOCK:   -7.17 KCAL/MOL
REMARK 924 INTRA-LIGAND FREE ENERGY PREDICTED BY IDOCK:   -1.44 KCAL/MOL
REMARK 927      BINDING AFFINITY PREDICTED BY RF-SCORE:    0.00 PKD
ROOT
HETATM    1  C   UNL     1     -11.797  14.590  65.370  1.00  0.00    -0.344 C  
HETATM    2  C   UNL     1     -10.744  15.355  65.039  1.00  0.00    -0.460 C  
ENDROOT
BRANCH   1   3
HETATM    3  C   UNL     1     -12.222  13.407  64.587  1.00  0.00    -0.407 C  
HETATM    4  O   UNL     1     -12.572  13.492  63.418  1.00  0.00    -0.740 OA 
BRANCH   3   5
HETATM    5  O   UNL     1     -12.337  12.320  65.383  1.00  0.00    -0.582 OA 
BRANCH   5   6
HETATM    6  C   UNL     1     -12.094  12.597  66.764  1.00  0.00    -0.166 C  
HETATM    7  C   UNL     1     -10.985  11.934  68.938  1.00  0.00    -0.285 C  
HETATM    8  C   UNL     1      -8.958  12.454  66.604  1.00  0.00    -0.184 C  
HETATM    9  C   UNL     1      -9.902  11.263  66.719  1.00  0.00    -0.227 C  
HETATM   10  C   UNL     1     -11.231  11.538  67.462  1.00  0.00    -0.360 C  
BRANCH   7  11
HETATM   11  C   UNL     1     -12.280  12.052  69.753  1.00  0.00    -0.226 C  
BRANCH  11  12
HETATM   12  C   UNL     1     -12.359  13.361  70.534  1.00  0.00    -0.401 C  
HETATM   13  C   UNL     1     -11.775  14.508  69.720  1.00  0.00    -0.356 C  
ENDBRANCH  11  12
ENDBRANCH   7  11
ENDBRANCH   5   6
ENDBRANCH   3   5
ENDBRANCH   1   3
BRANCH   2  14
HETATM   14  C   UNL     1     -10.278  16.414  65.928  1.00  0.00    -0.379 A  
HETATM   15  C   UNL     1      -9.449  18.450  67.672  1.00  0.00    -0.272 A  
HETATM   16  C   UNL     1     -10.493  17.754  65.600  1.00  0.00    -0.132 A  
HETATM   17  C   UNL     1      -9.637  16.092  67.128  1.00  0.00    -0.235 A  
HETATM   18  C   UNL     1     -10.079  18.770  66.469  1.00  0.00    -0.437 A  
HETATM   19  C   UNL     1      -9.235  17.108  67.998  1.00  0.00    -0.250 A  
BRANCH  15  20
HETATM   20  O   UNL     1      -9.058  19.348  68.625  1.00  0.00    -0.361 OA 
HETATM   21  C   UNL     1      -7.658  19.462  68.844  1.00  0.00    -0.363 C  
ENDBRANCH  15  20
ENDBRANCH   2  14
TORSDOF 7
ENDMDL
MODEL       22
REMARK 921   NORMALIZED FREE ENERGY PREDICTED BY IDOCK:   -5.30 KCAL/MOL
REMARK 922        TOTAL FREE ENERGY PREDICTED BY IDOCK:   -8.58 KCAL/MOL
REMARK 923 INTER-LIGAND FREE ENERGY PREDICTED BY IDOCK:   -7.63 KCAL/MOL
REMARK 924 INTRA-LIGAND FREE ENERGY PREDICTED BY IDOCK:   -0.96 KCAL/MOL
REMARK 927      BINDING AFFINITY PREDICTED BY RF-SCORE:    0.00 PKD
ROOT
HETATM    1  C   UNL     1     -10.960  12.133  68.163  1.00  0.00    -0.271 C  
HETATM    2  C   UNL     1     -11.136  13.012  67.163  1.00  0.00    -0.304 C  
ENDROOT
BRANCH   1   3
HETATM    3  C   UNL     1     -10.987  10.665  67.971  1.00  0.00    -0.282 C  
HETATM    4  O   UNL     1     -10.850  10.151  66.870  1.00  0.00    -0.201 OA 
BRANCH   3   5
HETATM    5  O   UNL     1     -11.359  10.039  69.110  1.00  0.00    -0.189 OA 
BRANCH   5   6
HETATM    6  C   UNL     1     -11.608  10.933  70.197  1.00  0.00    -0.338 C  
HETATM    7  C   UNL     1     -13.178  11.761  71.999  1.00  0.00    -0.460 C  
HETATM    8  C   UNL     1     -12.430   8.730  72.283  1.00  0.00    -0.455 C  
HETATM    9  C   UNL     1     -13.335   9.330  71.214  1.00  0.00    -0.322 C  
HETATM   10  C   UNL     1     -13.008  10.787  70.809  1.00  0.00    -0.348 C  
BRANCH   7  11
HETATM   11  C   UNL     1     -13.025  13.234  71.598  1.00  0.00    -0.441 C  
BRANCH  11  12
HETATM   12  C   UNL     1     -14.174  14.098  72.110  1.00  0.00    -0.638 C  
HETATM   13  C   UNL     1     -13.641  15.339  72.814  1.00  0.00    -0.611 C  
ENDBRANCH  11  12
ENDBRANCH   7  11
ENDBRANCH   5   6
ENDBRANCH   3   5
ENDBRANCH   1   3
BRANCH   2  14
HETATM   14  C   UNL     1     -10.947  14.443  67.379  1.00  0.00    -0.303 A  
HETATM   15  C   UNL     1     -10.652  17.205  67.769  1.00  0.00    -0.360 A  
HETATM   16  C   UNL     1     -10.440  15.248  66.358  1.00  0.00    -0.307 A  
HETATM   17  C   UNL     1     -11.299  15.020  68.603  1.00  0.00    -0.311 A  
HETATM   18  C   UNL     1     -10.292  16.626  66.552  1.00  0.00    -0.300 A  
HETATM   19  C   UNL     1     -11.160  16.397  68.789  1.00  0.00    -0.337 A  
BRANCH  15  20
HETATM   20  O   UNL     1     -10.613  18.542  68.053  1.00  0.00    -0.377 OA 
HETATM   21  C   UNL     1     -10.612  19.421  66.936  1.00  0.00    -0.476 C  
ENDBRANCH  15  20
ENDBRANCH   2  14
TORSDOF 7
ENDMDL
MODEL       23
REMARK 921   NORMALIZED FREE ENERGY PREDICTED BY IDOCK:   -5.29 KCAL/MOL
REMARK 922        TOTAL FREE ENERGY PREDICTED BY IDOCK:   -8.58 KCAL/MOL
REMARK 923 INTER-LIGAND FREE ENERGY PREDICTED BY IDOCK:   -7.67 KCAL/MOL
REMARK 924 INTRA-LIGAND FREE ENERGY PREDICTED BY IDOCK:   -0.91 KCAL/MOL
REMARK 927      BINDING AFFINITY PREDICTED BY RF-SCORE:    0.00 PKD
ROOT
HETATM    1  C   UNL     1     -11.782  12.482  67.651  1.00  0.00    -0.423 C  
HETATM    2  C   UNL     1     -10.840  11.636  68.098  1.00  0.00    -0.260 C  
ENDROOT
BRANCH   1   3
HETATM    3  C   UNL     1     -11.623  13.308  66.432  1.00  0.00    -0.347 C  
HETATM    4  O   UNL     1     -11.656  12.824  65.310  1.00  0.00    -0.316 OA 
BRANCH   3   5
HETATM    5  O   UNL     1     -11.264  14.571  66.752  1.00  0.00    -0.317 OA 
BRANCH   5   6
HETATM    6  C   UNL     1     -11.786  15.011  68.008  1.00  0.00    -0.298 C  
HETATM    7  C   UNL     1     -11.374  16.074  70.266  1.00  0.00    -0.391 C  
HETATM    8  C   UNL     1     -10.651  17.939  67.853  1.00  0.00    -0.387 C  
HETATM    9  C   UNL     1      -9.876  16.702  68.289  1.00  0.00    -0.253 C  
HETATM   10  C   UNL     1     -10.720  15.587  68.950  1.00  0.00    -0.242 C  
BRANCH   7  11
HETATM   11  C   UNL     1     -12.082  14.951  71.036  1.00  0.00    -0.380 C  
BRANCH  11  12
HETATM   12  C   UNL     1     -13.340  15.440  71.750  1.00  0.00    -0.567 C  
HETATM   13  C   UNL     1     -13.093  15.571  73.246  1.00  0.00    -0.658 C  
ENDBRANCH  11  12
ENDBRANCH   7  11
ENDBRANCH   5   6
ENDBRANCH   3   5
ENDBRANCH   1   3
BRANCH   2  14
HETATM   14  C   UNL     1     -11.109  10.735  69.214  1.00  0.00    -0.312 A  
HETATM   15  C   UNL     1     -11.568   9.034  71.397  1.00  0.00    -0.326 A  
HETATM   16  C   UNL     1     -10.476   9.493  69.285  1.00  0.00    -0.226 A  
HETATM   17  C   UNL     1     -11.982  11.123  70.234  1.00  0.00    -0.460 A  
HETATM   18  C   UNL     1     -10.705   8.643  70.373  1.00  0.00    -0.248 A  
HETATM   19  C   UNL     1     -12.200  10.278  71.324  1.00  0.00    -0.496 A  
BRANCH  15  20
HETATM   20  O   UNL     1     -11.821   8.320  72.535  1.00  0.00    -0.387 OA 
HETATM   21  C   UNL     1     -10.751   7.524  73.028  1.00  0.00    -0.384 C  
ENDBRANCH  15  20
ENDBRANCH   2  14
TORSDOF 7
ENDMDL
MODEL       24
REMARK 921   NORMALIZED FREE ENERGY PREDICTED BY IDOCK:   -5.25 KCAL/MOL
REMARK 922        TOTAL FREE ENERGY PREDICTED BY IDOCK:   -8.51 KCAL/MOL
REMARK 923 INTER-LIGAND FREE ENERGY PREDICTED BY IDOCK:   -7.87 KCAL/MOL
REMARK 924 INTRA-LIGAND FREE ENERGY PREDICTED BY IDOCK:   -0.64 KCAL/MOL
REMARK 927      BINDING AFFINITY PREDICTED BY RF-SCORE:    0.00 PKD
ROOT
HETATM    1  C   UNL     1     -12.272  13.317  66.785  1.00  0.00    -0.340 C  
HETATM    2  C   UNL     1     -11.850  14.481  67.307  1.00  0.00    -0.419 C  
ENDROOT
BRANCH   1   3
HETATM    3  C   UNL     1     -12.157  12.980  65.348  1.00  0.00    -0.444 C  
HETATM    4  O   UNL     1     -13.104  12.556  64.701  1.00  0.00    -0.845 OA 
BRANCH   3   5
HETATM    5  O   UNL     1     -10.868  13.032  64.944  1.00  0.00    -0.297 OA 
BRANCH   5   6
HETATM    6  C   UNL     1     -10.078  11.939  65.417  1.00  0.00    -0.253 C  
HETATM    7  C   UNL     1      -9.452   9.494  65.251  1.00  0.00    -0.326 C  
HETATM    8  C   UNL     1      -8.916  11.108  62.617  1.00  0.00    -0.347 C  
HETATM    9  C   UNL     1     -10.284  10.723  63.167  1.00  0.00    -0.179 C  
HETATM   10  C   UNL     1     -10.374  10.611  64.707  1.00  0.00    -0.353 C  
BRANCH   7  11
HETATM   11  C   UNL     1      -9.636   9.240  66.753  1.00  0.00    -0.240 C  
BRANCH  11  12
HETATM   12  C   UNL     1     -10.385   7.940  67.034  1.00  0.00    -0.411 C  
HETATM   13  C   UNL     1      -9.433   6.752  66.993  1.00  0.00    -0.175 C  
ENDBRANCH  11  12
ENDBRANCH   7  11
ENDBRANCH   5   6
ENDBRANCH   3   5
ENDBRANCH   1   3
BRANCH   2  14
HETATM   14  C   UNL     1     -11.848  14.698  68.750  1.00  0.00    -0.348 A  
HETATM   15  C   UNL     1     -11.776  15.082  71.528  1.00  0.00    -0.370 A  
HETATM   16  C   UNL     1     -12.349  13.720  69.610  1.00  0.00    -0.284 A  
HETATM   17  C   UNL     1     -11.317  15.877  69.281  1.00  0.00    -0.355 A  
HETATM   18  C   UNL     1     -12.314  13.911  70.996  1.00  0.00    -0.453 A  
HETATM   19  C   UNL     1     -11.274  16.060  70.664  1.00  0.00    -0.395 A  
BRANCH  15  20
HETATM   20  O   UNL     1     -11.630  15.354  72.859  1.00  0.00    -0.454 OA 
HETATM   21  C   UNL     1     -12.781  15.853  73.528  1.00  0.00    -0.585 C  
ENDBRANCH  15  20
ENDBRANCH   2  14
TORSDOF 7
ENDMDL
MODEL       25
REMARK 921   NORMALIZED FREE ENERGY PREDICTED BY IDOCK:   -5.21 KCAL/MOL
REMARK 922        TOTAL FREE ENERGY PREDICTED BY IDOCK:   -8.46 KCAL/MOL
REMARK 923 INTER-LIGAND FREE ENERGY PREDICTED BY IDOCK:   -7.34 KCAL/MOL
REMARK 924 INTRA-LIGAND FREE ENERGY PREDICTED BY IDOCK:   -1.12 KCAL/MOL
REMARK 927      BINDING AFFINITY PREDICTED BY RF-SCORE:    0.00 PKD
ROOT
HETATM    1  C   UNL     1     -12.390  11.405  70.125  1.00  0.00    -0.344 C  
HETATM    2  C   UNL     1     -11.901  12.559  69.642  1.00  0.00    -0.382 C  
ENDROOT
BRANCH   1   3
HETATM    3  C   UNL     1     -12.869  11.243  71.516  1.00  0.00    -0.414 C  
HETATM    4  O   UNL     1     -13.410  12.154  72.129  1.00  0.00    -0.522 OA 
BRANCH   3   5
HETATM    5  O   UNL     1     -12.463  10.060  72.030  1.00  0.00    -0.357 OA 
BRANCH   5   6
HETATM    6  C   UNL     1     -11.854   9.199  71.065  1.00  0.00    -0.292 C  
HETATM    7  C   UNL     1      -9.805   7.944  70.276  1.00  0.00    -0.184 C  
HETATM    8  C   UNL     1     -10.798   7.064  73.117  1.00  0.00    -0.350 C  
HETATM    9  C   UNL     1     -10.123   8.387  72.777  1.00  0.00    -0.268 C  
HETATM   10  C   UNL     1     -10.373   8.911  71.343  1.00  0.00    -0.377 C  
BRANCH   7  11
HETATM   11  C   UNL     1      -9.884   8.506  68.851  1.00  0.00    -0.181 C  
BRANCH  11  12
HETATM   12  C   UNL     1     -10.555   7.538  67.881  1.00  0.00    -0.250 C  
HETATM   13  C   UNL     1     -10.966   6.258  68.596  1.00  0.00    -0.423 C  
ENDBRANCH  11  12
ENDBRANCH   7  11
ENDBRANCH   5   6
ENDBRANCH   3   5
ENDBRANCH   1   3
BRANCH   2  14
HETATM   14  C   UNL     1     -11.586  12.706  68.225  1.00  0.00    -0.377 A  
HETATM   15  C   UNL     1     -11.050  12.961  65.483  1.00  0.00    -0.278 A  
HETATM   16  C   UNL     1     -11.031  11.641  67.513  1.00  0.00    -0.312 A  
HETATM   17  C   UNL     1     -11.865  13.906  67.564  1.00  0.00    -0.431 A  
HETATM   18  C   UNL     1     -10.763  11.768  66.146  1.00  0.00    -0.320 A  
HETATM   19  C   UNL     1     -11.607  14.025  66.198  1.00  0.00    -0.374 A  
BRANCH  15  20
HETATM   20  O   UNL     1     -10.892  13.182  64.143  1.00  0.00    -0.388 OA 
HETATM   21  C   UNL     1     -12.056  13.035  63.341  1.00  0.00    -0.515 C  
ENDBRANCH  15  20
ENDBRANCH   2  14
TORSDOF 7
ENDMDL
MODEL       26
REMARK 921   NORMALIZED FREE ENERGY PREDICTED BY IDOCK:   -5.20 KCAL/MOL
REMARK 922        TOTAL FREE ENERGY PREDICTED BY IDOCK:   -8.45 KCAL/MOL
REMARK 923 INTER-LIGAND FREE ENERGY PREDICTED BY IDOCK:   -7.58 KCAL/MOL
REMARK 924 INTRA-LIGAND FREE ENERGY PREDICTED BY IDOCK:   -0.87 KCAL/MOL
REMARK 927      BINDING AFFINITY PREDICTED BY RF-SCORE:    0.00 PKD
ROOT
HETATM    1  C   UNL     1     -11.777  12.793  69.346  1.00  0.00    -0.380 C  
HETATM    2  C   UNL     1     -12.005  13.665  68.351  1.00  0.00    -0.391 C  
ENDROOT
BRANCH   1   3
HETATM    3  C   UNL     1     -12.357  12.934  70.702  1.00  0.00    -0.302 C  
HETATM    4  O   UNL     1     -12.283  13.977  71.335  1.00  0.00    -0.342 OA 
BRANCH   3   5
HETATM    5  O   UNL     1     -12.782  11.738  71.169  1.00  0.00    -0.378 OA 
BRANCH   5   6
HETATM    6  C   UNL     1     -12.338  10.629  70.385  1.00  0.00    -0.343 C  
HETATM    7  C   UNL     1     -11.394   8.284  70.298  1.00  0.00    -0.129 C  
HETATM    8  C   UNL     1     -14.155   8.470  71.769  1.00  0.00    -0.515 C  
HETATM    9  C   UNL     1     -12.825   8.990  72.298  1.00  0.00    -0.474 C  
HETATM   10  C   UNL     1     -11.816   9.453  71.221  1.00  0.00    -0.435 C  
BRANCH   7  11
HETATM   11  C   UNL     1     -10.271   8.663  69.323  1.00  0.00    -0.215 C  
BRANCH  11  12
HETATM   12  C   UNL     1     -10.178   7.701  68.142  1.00  0.00    -0.236 C  
HETATM   13  C   UNL     1     -10.984   6.438  68.412  1.00  0.00    -0.390 C  
ENDBRANCH  11  12
ENDBRANCH   7  11
ENDBRANCH   5   6
ENDBRANCH   3   5
ENDBRANCH   1   3
BRANCH   2  14
HETATM   14  C   UNL     1     -11.534  13.397  66.996  1.00  0.00    -0.372 A  
HETATM   15  C   UNL     1     -10.559  12.873  64.418  1.00  0.00    -0.396 A  
HETATM   16  C   UNL     1     -11.081  14.441  66.189  1.00  0.00    -0.330 A  
HETATM   17  C   UNL     1     -11.509  12.087  66.509  1.00  0.00    -0.413 A  
HETATM   18  C   UNL     1     -10.595  14.181  64.903  1.00  0.00    -0.449 A  
HETATM   19  C   UNL     1     -11.013  11.830  65.229  1.00  0.00    -0.350 A  
BRANCH  15  20
HETATM   20  O   UNL     1     -10.051  12.490  63.209  1.00  0.00    -0.373 OA 
HETATM   21  C   UNL     1      -9.629  11.136  63.106  1.00  0.00    -0.369 C  
ENDBRANCH  15  20
ENDBRANCH   2  14
TORSDOF 7
ENDMDL
MODEL       27
REMARK 921   NORMALIZED FREE ENERGY PREDICTED BY IDOCK:   -5.20 KCAL/MOL
REMARK 922        TOTAL FREE ENERGY PREDICTED BY IDOCK:   -8.45 KCAL/MOL
REMARK 923 INTER-LIGAND FREE ENERGY PREDICTED BY IDOCK:   -7.66 KCAL/MOL
REMARK 924 INTRA-LIGAND FREE ENERGY PREDICTED BY IDOCK:   -0.80 KCAL/MOL
REMARK 927      BINDING AFFINITY PREDICTED BY RF-SCORE:    0.00 PKD
ROOT
HETATM    1  C   UNL     1     -10.672  14.652  65.047  1.00  0.00    -0.448 C  
HETATM    2  C   UNL     1     -11.551  13.783  65.573  1.00  0.00    -0.335 C  
ENDROOT
BRANCH   1   3
HETATM    3  C   UNL     1     -10.989  16.075  64.789  1.00  0.00    -0.356 C  
HETATM    4  O   UNL     1     -11.735  16.421  63.884  1.00  0.00    -1.085 OA 
BRANCH   3   5
HETATM    5  O   UNL     1     -10.215  16.885  65.545  1.00  0.00    -0.580 OA 
BRANCH   5   6
HETATM    6  C   UNL     1     -10.589  16.905  66.925  1.00  0.00    -0.214 C  
HETATM    7  C   UNL     1      -9.994  16.411  69.333  1.00  0.00    -0.214 C  
HETATM    8  C   UNL     1      -8.051  18.449  67.954  1.00  0.00    -0.271 C  
HETATM    9  C   UNL     1      -8.132  16.955  67.664  1.00  0.00    -0.193 C  
HETATM   10  C   UNL     1      -9.526  16.314  67.861  1.00  0.00    -0.218 C  
BRANCH   7  11
HETATM   11  C   UNL     1     -11.294  15.642  69.602  1.00  0.00    -0.331 C  
BRANCH  11  12
HETATM   12  C   UNL     1     -11.688  15.666  71.077  1.00  0.00    -0.444 C  
HETATM   13  C   UNL     1     -13.185  15.436  71.237  1.00  0.00    -0.585 C  
ENDBRANCH  11  12
ENDBRANCH   7  11
ENDBRANCH   5   6
ENDBRANCH   3   5
ENDBRANCH   1   3
BRANCH   2  14
HETATM   14  C   UNL     1     -11.139  12.435  65.949  1.00  0.00    -0.349 A  
HETATM   15  C   UNL     1     -10.276   9.867  66.679  1.00  0.00    -0.226 A  
HETATM   16  C   UNL     1     -10.676  11.544  64.978  1.00  0.00    -0.350 A  
HETATM   17  C   UNL     1     -11.179  12.036  67.288  1.00  0.00    -0.371 A  
HETATM   18  C   UNL     1     -10.247  10.263  65.342  1.00  0.00    -0.312 A  
HETATM   19  C   UNL     1     -10.739  10.761  67.648  1.00  0.00    -0.305 A  
BRANCH  15  20
HETATM   20  O   UNL     1      -9.826   8.670  67.161  1.00  0.00    -0.172 OA 
HETATM   21  C   UNL     1     -10.689   7.555  66.980  1.00  0.00    -0.297 C  
ENDBRANCH  15  20
ENDBRANCH   2  14
TORSDOF 7
ENDMDL
MODEL       28
REMARK 921   NORMALIZED FREE ENERGY PREDICTED BY IDOCK:   -5.19 KCAL/MOL
REMARK 922        TOTAL FREE ENERGY PREDICTED BY IDOCK:   -8.44 KCAL/MOL
REMARK 923 INTER-LIGAND FREE ENERGY PREDICTED BY IDOCK:   -7.46 KCAL/MOL
REMARK 924 INTRA-LIGAND FREE ENERGY PREDICTED BY IDOCK:   -0.98 KCAL/MOL
REMARK 927      BINDING AFFINITY PREDICTED BY RF-SCORE:    0.00 PKD
ROOT
HETATM    1  C   UNL     1     -12.794  10.545  71.696  1.00  0.00    -0.581 C  
HETATM    2  C   UNL     1     -13.292  11.750  72.015  1.00  0.00    -0.417 C  
ENDROOT
BRANCH   1   3
HETATM    3  C   UNL     1     -13.256   9.282  72.316  1.00  0.00    -0.460 C  
HETATM    4  O   UNL     1     -14.297   9.214  72.953  1.00  0.00    -0.519 OA 
BRANCH   3   5
HETATM    5  O   UNL     1     -12.303   8.327  72.231  1.00  0.00    -0.345 OA 
BRANCH   5   6
HETATM    6  C   UNL     1     -11.411   8.509  71.128  1.00  0.00    -0.276 C  
HETATM    7  C   UNL     1      -9.096   9.095  70.295  1.00  0.00    -0.247 C  
HETATM    8  C   UNL     1      -9.153   6.594  72.184  1.00  0.00    -0.138 C  
HETATM    9  C   UNL     1      -9.370   8.041  72.610  1.00  0.00    -0.314 C  
HETATM   10  C   UNL     1     -10.004   8.961  71.541  1.00  0.00    -0.391 C  
BRANCH   7  11
HETATM   11  C   UNL     1      -9.611  10.129  69.284  1.00  0.00    -0.239 C  
BRANCH  11  12
HETATM   12  C   UNL     1     -10.066   9.486  67.977  1.00  0.00    -0.226 C  
HETATM   13  C   UNL     1     -10.960  10.437  67.193  1.00  0.00    -0.263 C  
ENDBRANCH  11  12
ENDBRANCH   7  11
ENDBRANCH   5   6
ENDBRANCH   3   5
ENDBRANCH   1   3
BRANCH   2  14
HETATM   14  C   UNL     1     -12.909  12.942  71.266  1.00  0.00    -0.361 A  
HETATM   15  C   UNL     1     -12.111  15.239  69.866  1.00  0.00    -0.343 A  
HETATM   16  C   UNL     1     -13.275  14.209  71.724  1.00  0.00    -0.450 A  
HETATM   17  C   UNL     1     -12.150  12.824  70.098  1.00  0.00    -0.370 A  
HETATM   18  C   UNL     1     -12.878  15.355  71.026  1.00  0.00    -0.525 A  
HETATM   19  C   UNL     1     -11.746  13.970  69.410  1.00  0.00    -0.365 A  
BRANCH  15  20
HETATM   20  O   UNL     1     -11.613  16.283  69.138  1.00  0.00    -0.306 OA 
HETATM   21  C   UNL     1     -10.912  15.941  67.949  1.00  0.00    -0.327 C  
ENDBRANCH  15  20
ENDBRANCH   2  14
TORSDOF 7
ENDMDL
MODEL       29
REMARK 921   NORMALIZED FREE ENERGY PREDICTED BY IDOCK:   -5.18 KCAL/MOL
REMARK 922        TOTAL FREE ENERGY PREDICTED BY IDOCK:   -8.43 KCAL/MOL
REMARK 923 INTER-LIGAND FREE ENERGY PREDICTED BY IDOCK:   -7.53 KCAL/MOL
REMARK 924 INTRA-LIGAND FREE ENERGY PREDICTED BY IDOCK:   -0.90 KCAL/MOL
REMARK 927      BINDING AFFINITY PREDICTED BY RF-SCORE:    0.00 PKD
ROOT
HETATM    1  C   UNL     1     -12.694   8.877  71.216  1.00  0.00    -0.294 C  
HETATM    2  C   UNL     1     -13.284   9.914  71.832  1.00  0.00    -0.558 C  
ENDROOT
BRANCH   1   3
HETATM    3  C   UNL     1     -13.087   7.467  71.439  1.00  0.00    -0.325 C  
HETATM    4  O   UNL     1     -14.220   7.153  71.776  1.00  0.00    -0.406 OA 
BRANCH   3   5
HETATM    5  O   UNL     1     -12.006   6.655  71.402  1.00  0.00    -0.327 OA 
BRANCH   5   6
HETATM    6  C   UNL     1     -11.536   6.394  70.078  1.00  0.00    -0.428 C  
HETATM    7  C   UNL     1      -9.670   6.548  68.377  1.00  0.00    -0.132 C  
HETATM    8  C   UNL     1      -8.906   4.897  70.929  1.00  0.00    -0.155 C  
HETATM    9  C   UNL     1      -9.094   6.407  70.866  1.00  0.00    -0.151 C  
HETATM   10  C   UNL     1     -10.114   6.907  69.816  1.00  0.00    -0.196 C  
BRANCH   7  11
HETATM   11  C   UNL     1     -10.568   7.170  67.299  1.00  0.00    -0.398 C  
BRANCH  11  12
HETATM   12  C   UNL     1     -10.032   8.508  66.797  1.00  0.00    -0.351 C  
HETATM   13  C   UNL     1     -10.590   9.656  67.627  1.00  0.00    -0.334 C  
ENDBRANCH  11  12
ENDBRANCH   7  11
ENDBRANCH   5   6
ENDBRANCH   3   5
ENDBRANCH   1   3
BRANCH   2  14
HETATM   14  C   UNL     1     -12.962  11.288  71.461  1.00  0.00    -0.520 A  
HETATM   15  C   UNL     1     -12.403  13.930  70.699  1.00  0.00    -0.381 A  
HETATM   16  C   UNL     1     -12.114  11.546  70.383  1.00  0.00    -0.471 A  
HETATM   17  C   UNL     1     -13.525  12.356  72.167  1.00  0.00    -0.481 A  
HETATM   18  C   UNL     1     -11.834  12.863  70.002  1.00  0.00    -0.356 A  
HETATM   19  C   UNL     1     -13.252  13.669  71.778  1.00  0.00    -0.477 A  
BRANCH  15  20
HETATM   20  O   UNL     1     -12.255  15.252  70.384  1.00  0.00    -0.314 OA 
HETATM   21  C   UNL     1     -11.718  16.084  71.404  1.00  0.00    -0.473 C  
ENDBRANCH  15  20
ENDBRANCH   2  14
TORSDOF 7
ENDMDL
MODEL       30
REMARK 921   NORMALIZED FREE ENERGY PREDICTED BY IDOCK:   -5.18 KCAL/MOL
REMARK 922        TOTAL FREE ENERGY PREDICTED BY IDOCK:   -8.43 KCAL/MOL
REMARK 923 INTER-LIGAND FREE ENERGY PREDICTED BY IDOCK:   -7.11 KCAL/MOL
REMARK 924 INTRA-LIGAND FREE ENERGY PREDICTED BY IDOCK:   -1.31 KCAL/MOL
REMARK 927      BINDING AFFINITY PREDICTED BY RF-SCORE:    0.00 PKD
ROOT
HETATM    1  C   UNL     1      -7.842  16.053  67.751  1.00  0.00    -0.155 C  
HETATM    2  C   UNL     1      -9.156  16.007  68.024  1.00  0.00    -0.189 C  
ENDROOT
BRANCH   1   3
HETATM    3  C   UNL     1      -6.815  16.407  68.757  1.00  0.00    -0.163 C  
HETATM    4  O   UNL     1      -6.901  16.056  69.926  1.00  0.00    -0.145 OA 
BRANCH   3   5
HETATM    5  O   UNL     1      -5.924  17.287  68.246  1.00  0.00    -0.143 OA 
BRANCH   5   6
HETATM    6  C   UNL     1      -6.514  18.250  67.370  1.00  0.00    -0.185 C  
HETATM    7  C   UNL     1      -7.894  20.350  67.082  1.00  0.00    -0.378 C  
HETATM    8  C   UNL     1      -5.281  20.787  68.757  1.00  0.00    -0.334 C  
HETATM    9  C   UNL     1      -6.521  20.031  69.218  1.00  0.00    -0.360 C  
HETATM   10  C   UNL     1      -7.326  19.330  68.098  1.00  0.00    -0.316 C  
BRANCH   7  11
HETATM   11  C   UNL     1      -8.836  19.712  66.052  1.00  0.00    -0.276 C  
BRANCH  11  12
HETATM   12  C   UNL     1     -10.299  20.066  66.304  1.00  0.00    -0.570 C  
HETATM   13  C   UNL     1     -10.877  19.203  67.417  1.00  0.00    -0.533 C  
ENDBRANCH  11  12
ENDBRANCH   7  11
ENDBRANCH   5   6
ENDBRANCH   3   5
ENDBRANCH   1   3
BRANCH   2  14
HETATM   14  C   UNL     1     -10.109  15.505  67.039  1.00  0.00    -0.254 A  
HETATM   15  C   UNL     1     -11.890  14.486  65.126  1.00  0.00    -0.374 A  
HETATM   16  C   UNL     1     -10.072  15.970  65.723  1.00  0.00    -0.393 A  
HETATM   17  C   UNL     1     -11.047  14.533  67.401  1.00  0.00    -0.320 A  
HETATM   18  C   UNL     1     -10.961  15.463  64.768  1.00  0.00    -0.411 A  
HETATM   19  C   UNL     1     -11.925  14.022  66.443  1.00  0.00    -0.462 A  
BRANCH  15  20
HETATM   20  O   UNL     1     -12.763  13.872  64.271  1.00  0.00    -0.664 OA 
HETATM   21  C   UNL     1     -12.208  12.892  63.404  1.00  0.00    -0.490 C  
ENDBRANCH  15  20
ENDBRANCH   2  14
TORSDOF 7
ENDMDL
MODEL       31
REMARK 921   NORMALIZED FREE ENERGY PREDICTED BY IDOCK:   -5.18 KCAL/MOL
REMARK 922        TOTAL FREE ENERGY PREDICTED BY IDOCK:   -8.42 KCAL/MOL
REMARK 923 INTER-LIGAND FREE ENERGY PREDICTED BY IDOCK:   -7.49 KCAL/MOL
REMARK 924 INTRA-LIGAND FREE ENERGY PREDICTED BY IDOCK:   -0.94 KCAL/MOL
REMARK 927      BINDING AFFINITY PREDICTED BY RF-SCORE:    0.00 PKD
ROOT
HETATM    1  C   UNL     1     -12.748   9.994  70.988  1.00  0.00    -0.455 C  
HETATM    2  C   UNL     1     -12.553  11.306  71.198  1.00  0.00    -0.501 C  
ENDROOT
BRANCH   1   3
HETATM    3  C   UNL     1     -13.236   9.067  72.035  1.00  0.00    -0.429 C  
HETATM    4  O   UNL     1     -14.286   9.256  72.633  1.00  0.00    -0.497 OA 
BRANCH   3   5
HETATM    5  O   UNL     1     -12.295   8.144  72.336  1.00  0.00    -0.337 OA 
BRANCH   5   6
HETATM    6  C   UNL     1     -12.092   7.179  71.300  1.00  0.00    -0.348 C  
HETATM    7  C   UNL     1     -10.553   5.532  70.153  1.00  0.00    -0.367 C  
HETATM    8  C   UNL     1     -11.079   4.864  73.170  1.00  0.00    -0.396 C  
HETATM    9  C   UNL     1     -10.239   6.022  72.645  1.00  0.00    -0.205 C  
HETATM   10  C   UNL     1     -10.675   6.591  71.275  1.00  0.00    -0.280 C  
BRANCH   7  11
HETATM   11  C   UNL     1     -10.817   6.104  68.754  1.00  0.00    -0.402 C  
BRANCH  11  12
HETATM   12  C   UNL     1      -9.802   7.175  68.363  1.00  0.00    -0.157 C  
HETATM   13  C   UNL     1     -10.470   8.283  67.561  1.00  0.00    -0.325 C  
ENDBRANCH  11  12
ENDBRANCH   7  11
ENDBRANCH   5   6
ENDBRANCH   3   5
ENDBRANCH   1   3
BRANCH   2  14
HETATM   14  C   UNL     1     -12.219  12.200  70.093  1.00  0.00    -0.308 A  
HETATM   15  C   UNL     1     -11.505  13.919  67.994  1.00  0.00    -0.307 A  
HETATM   16  C   UNL     1     -12.256  13.584  70.272  1.00  0.00    -0.417 A  
HETATM   17  C   UNL     1     -11.833  11.674  68.857  1.00  0.00    -0.392 A  
HETATM   18  C   UNL     1     -11.900  14.442  69.225  1.00  0.00    -0.365 A  
HETATM   19  C   UNL     1     -11.468  12.533  67.818  1.00  0.00    -0.378 A  
BRANCH  15  20
HETATM   20  O   UNL     1     -11.076  14.651  66.922  1.00  0.00    -0.316 OA 
HETATM   21  C   UNL     1     -10.190  13.993  66.027  1.00  0.00    -0.304 C  
ENDBRANCH  15  20
ENDBRANCH   2  14
TORSDOF 7
ENDMDL
MODEL       32
REMARK 921   NORMALIZED FREE ENERGY PREDICTED BY IDOCK:   -5.17 KCAL/MOL
REMARK 922        TOTAL FREE ENERGY PREDICTED BY IDOCK:   -8.41 KCAL/MOL
REMARK 923 INTER-LIGAND FREE ENERGY PREDICTED BY IDOCK:   -7.48 KCAL/MOL
REMARK 924 INTRA-LIGAND FREE ENERGY PREDICTED BY IDOCK:   -0.93 KCAL/MOL
REMARK 927      BINDING AFFINITY PREDICTED BY RF-SCORE:    0.00 PKD
ROOT
HETATM    1  C   UNL     1     -11.048  10.239  68.534  1.00  0.00    -0.294 C  
HETATM    2  C   UNL     1     -11.384  11.537  68.457  1.00  0.00    -0.337 C  
ENDROOT
BRANCH   1   3
HETATM    3  C   UNL     1     -10.419   9.492  67.421  1.00  0.00    -0.272 C  
HETATM    4  O   UNL     1     -10.168  10.018  66.345  1.00  0.00    -0.236 OA 
BRANCH   3   5
HETATM    5  O   UNL     1     -10.351   8.172  67.705  1.00  0.00    -0.219 OA 
BRANCH   5   6
HETATM    6  C   UNL     1     -10.581   7.873  69.084  1.00  0.00    -0.173 C  
HETATM    7  C   UNL     1     -11.238   6.186  70.849  1.00  0.00    -0.365 C  
HETATM    8  C   UNL     1      -8.688   5.367  69.219  1.00  0.00    -0.105 C  
HETATM    9  C   UNL     1     -10.119   5.380  68.694  1.00  0.00    -0.246 C  
HETATM   10  C   UNL     1     -11.052   6.434  69.333  1.00  0.00    -0.450 C  
BRANCH   7  11
HETATM   11  C   UNL     1     -12.286   7.108  71.486  1.00  0.00    -0.396 C  
BRANCH  11  12
HETATM   12  C   UNL     1     -11.652   8.232  72.302  1.00  0.00    -0.449 C  
HETATM   13  C   UNL     1     -10.520   7.695  73.167  1.00  0.00    -0.433 C  
ENDBRANCH  11  12
ENDBRANCH   7  11
ENDBRANCH   5   6
ENDBRANCH   3   5
ENDBRANCH   1   3
BRANCH   2  14
HETATM   14  C   UNL     1     -11.859  12.260  69.631  1.00  0.00    -0.393 A  
HETATM   15  C   UNL     1     -12.840  13.654  71.859  1.00  0.00    -0.287 A  
HETATM   16  C   UNL     1     -11.829  13.655  69.659  1.00  0.00    -0.396 A  
HETATM   17  C   UNL     1     -12.373  11.560  70.727  1.00  0.00    -0.472 A  
HETATM   18  C   UNL     1     -12.318  14.351  70.770  1.00  0.00    -0.417 A  
HETATM   19  C   UNL     1     -12.870  12.257  71.829  1.00  0.00    -0.359 A  
BRANCH  15  20
HETATM   20  O   UNL     1     -13.402  14.222  72.969  1.00  0.00    -0.618 OA 
HETATM   21  C   UNL     1     -13.139  15.605  73.167  1.00  0.00    -0.558 C  
ENDBRANCH  15  20
ENDBRANCH   2  14
TORSDOF 7
ENDMDL
MODEL       33
REMARK 921   NORMALIZED FREE ENERGY PREDICTED BY IDOCK:   -5.14 KCAL/MOL
REMARK 922        TOTAL FREE ENERGY PREDICTED BY IDOCK:   -8.37 KCAL/MOL
REMARK 923 INTER-LIGAND FREE ENERGY PREDICTED BY IDOCK:   -7.82 KCAL/MOL
REMARK 924 INTRA-LIGAND FREE ENERGY PREDICTED BY IDOCK:   -0.55 KCAL/MOL
REMARK 927      BINDING AFFINITY PREDICTED BY RF-SCORE:    0.00 PKD
ROOT
HETATM    1  C   UNL     1     -11.719  14.335  68.001  1.00  0.00    -0.386 C  
HETATM    2  C   UNL     1     -11.233  13.970  69.199  1.00  0.00    -0.308 C  
ENDROOT
BRANCH   1   3
HETATM    3  C   UNL     1     -11.052  15.317  67.117  1.00  0.00    -0.323 C  
HETATM    4  O   UNL     1     -10.607  15.007  66.020  1.00  0.00    -0.297 OA 
BRANCH   3   5
HETATM    5  O   UNL     1     -10.856  16.489  67.761  1.00  0.00    -0.341 OA 
BRANCH   5   6
HETATM    6  C   UNL     1      -9.544  17.027  67.578  1.00  0.00    -0.249 C  
HETATM    7  C   UNL     1      -8.056  18.788  66.536  1.00  0.00    -0.302 C  
HETATM    8  C   UNL     1     -10.246  19.966  68.446  1.00  0.00    -0.557 C  
HETATM    9  C   UNL     1     -10.493  19.356  67.071  1.00  0.00    -0.571 C  
HETATM   10  C   UNL     1      -9.502  18.247  66.648  1.00  0.00    -0.308 C  
BRANCH   7  11
HETATM   11  C   UNL     1      -7.073  17.761  65.959  1.00  0.00    -0.335 C  
BRANCH  11  12
HETATM   12  C   UNL     1      -5.862  18.420  65.305  1.00  0.00    -0.248 C  
HETATM   13  C   UNL     1      -6.269  19.695  64.581  1.00  0.00    -0.294 C  
ENDBRANCH  11  12
ENDBRANCH   7  11
ENDBRANCH   5   6
ENDBRANCH   3   5
ENDBRANCH   1   3
BRANCH   2  14
HETATM   14  C   UNL     1     -11.848  12.887  69.960  1.00  0.00    -0.356 A  
HETATM   15  C   UNL     1     -12.968  10.801  71.464  1.00  0.00    -0.456 A  
HETATM   16  C   UNL     1     -11.655  11.559  69.576  1.00  0.00    -0.400 A  
HETATM   17  C   UNL     1     -12.612  13.173  71.095  1.00  0.00    -0.403 A  
HETATM   18  C   UNL     1     -12.214  10.518  70.325  1.00  0.00    -0.393 A  
HETATM   19  C   UNL     1     -13.159  12.131  71.847  1.00  0.00    -0.475 A  
BRANCH  15  20
HETATM   20  O   UNL     1     -13.509   9.871  72.308  1.00  0.00    -0.430 OA 
HETATM   21  C   UNL     1     -13.549   8.534  71.827  1.00  0.00    -0.388 C  
ENDBRANCH  15  20
ENDBRANCH   2  14
TORSDOF 7
ENDMDL
MODEL       34
REMARK 921   NORMALIZED FREE ENERGY PREDICTED BY IDOCK:   -5.12 KCAL/MOL
REMARK 922        TOTAL FREE ENERGY PREDICTED BY IDOCK:   -8.33 KCAL/MOL
REMARK 923 INTER-LIGAND FREE ENERGY PREDICTED BY IDOCK:   -7.31 KCAL/MOL
REMARK 924 INTRA-LIGAND FREE ENERGY PREDICTED BY IDOCK:   -1.03 KCAL/MOL
REMARK 927      BINDING AFFINITY PREDICTED BY RF-SCORE:    0.00 PKD
ROOT
HETATM    1  C   UNL     1     -11.766  12.079  67.984  1.00  0.00    -0.398 C  
HETATM    2  C   UNL     1     -10.643  11.524  68.470  1.00  0.00    -0.236 C  
ENDROOT
BRANCH   1   3
HETATM    3  C   UNL     1     -11.802  12.893  66.748  1.00  0.00    -0.385 C  
HETATM    4  O   UNL     1     -11.326  12.497  65.693  1.00  0.00    -0.308 OA 
BRANCH   3   5
HETATM    5  O   UNL     1     -12.245  14.144  67.009  1.00  0.00    -0.432 OA 
BRANCH   5   6
HETATM    6  C   UNL     1     -11.215  15.033  67.448  1.00  0.00    -0.335 C  
HETATM    7  C   UNL     1     -10.509  16.960  68.926  1.00  0.00    -0.346 C  
HETATM    8  C   UNL     1     -11.555  14.473  70.522  1.00  0.00    -0.295 C  
HETATM    9  C   UNL     1     -12.407  15.421  69.687  1.00  0.00    -0.250 C  
HETATM   10  C   UNL     1     -11.691  16.067  68.477  1.00  0.00    -0.244 C  
BRANCH   7  11
HETATM   11  C   UNL     1      -9.878  17.748  67.770  1.00  0.00    -0.295 C  
BRANCH  11  12
HETATM   12  C   UNL     1     -10.741  18.929  67.334  1.00  0.00    -0.519 C  
HETATM   13  C   UNL     1     -10.605  19.170  65.837  1.00  0.00    -0.495 C  
ENDBRANCH  11  12
ENDBRANCH   7  11
ENDBRANCH   5   6
ENDBRANCH   3   5
ENDBRANCH   1   3
BRANCH   2  14
HETATM   14  C   UNL     1     -10.691  10.606  69.603  1.00  0.00    -0.290 A  
HETATM   15  C   UNL     1     -10.756   8.897  71.827  1.00  0.00    -0.362 A  
HETATM   16  C   UNL     1      -9.568   9.850  69.944  1.00  0.00    -0.265 A  
HETATM   17  C   UNL     1     -11.853  10.500  70.372  1.00  0.00    -0.431 A  
HETATM   18  C   UNL     1      -9.600   8.997  71.053  1.00  0.00    -0.348 A  
HETATM   19  C   UNL     1     -11.878   9.656  71.484  1.00  0.00    -0.483 A  
BRANCH  15  20
HETATM   20  O   UNL     1     -10.887   8.150  72.964  1.00  0.00    -0.331 OA 
HETATM   21  C   UNL     1     -11.059   6.751  72.780  1.00  0.00    -0.257 C  
ENDBRANCH  15  20
ENDBRANCH   2  14
TORSDOF 7
ENDMDL
MODEL       35
REMARK 921   NORMALIZED FREE ENERGY PREDICTED BY IDOCK:   -5.10 KCAL/MOL
REMARK 922        TOTAL FREE ENERGY PREDICTED BY IDOCK:   -8.31 KCAL/MOL
REMARK 923 INTER-LIGAND FREE ENERGY PREDICTED BY IDOCK:   -7.11 KCAL/MOL
REMARK 924 INTRA-LIGAND FREE ENERGY PREDICTED BY IDOCK:   -1.19 KCAL/MOL
REMARK 927      BINDING AFFINITY PREDICTED BY RF-SCORE:    0.00 PKD
ROOT
HETATM    1  C   UNL     1     -11.653  11.840  67.679  1.00  0.00    -0.364 C  
HETATM    2  C   UNL     1     -12.010  11.996  68.964  1.00  0.00    -0.321 C  
ENDROOT
BRANCH   1   3
HETATM    3  C   UNL     1     -11.726  12.927  66.676  1.00  0.00    -0.390 C  
HETATM    4  O   UNL     1     -12.602  13.780  66.704  1.00  0.00    -0.330 OA 
BRANCH   3   5
HETATM    5  O   UNL     1     -10.838  12.720  65.677  1.00  0.00    -0.267 OA 
BRANCH   5   6
HETATM    6  C   UNL     1      -9.962  11.616  65.914  1.00  0.00    -0.231 C  
HETATM    7  C   UNL     1      -9.220   9.276  65.304  1.00  0.00    -0.275 C  
HETATM    8  C   UNL     1      -8.950  11.330  62.951  1.00  0.00    -0.246 C  
HETATM    9  C   UNL     1     -10.256  10.776  63.507  1.00  0.00    -0.315 C  
HETATM   10  C   UNL     1     -10.235  10.407  65.009  1.00  0.00    -0.334 C  
BRANCH   7  11
HETATM   11  C   UNL     1      -9.289   8.768  66.750  1.00  0.00    -0.229 C  
BRANCH  11  12
HETATM   12  C   UNL     1     -10.648   8.160  67.088  1.00  0.00    -0.355 C  
HETATM   13  C   UNL     1     -10.626   6.651  66.889  1.00  0.00    -0.376 C  
ENDBRANCH  11  12
ENDBRANCH   7  11
ENDBRANCH   5   6
ENDBRANCH   3   5
ENDBRANCH   1   3
BRANCH   2  14
HETATM   14  C   UNL     1     -11.773  10.938  69.941  1.00  0.00    -0.418 A  
HETATM   15  C   UNL     1     -11.295   8.957  71.869  1.00  0.00    -0.376 A  
HETATM   16  C   UNL     1     -10.523  10.325  70.026  1.00  0.00    -0.293 A  
HETATM   17  C   UNL     1     -12.791  10.553  70.818  1.00  0.00    -0.454 A  
HETATM   18  C   UNL     1     -10.284   9.336  70.987  1.00  0.00    -0.384 A  
HETATM   19  C   UNL     1     -12.546   9.574  71.783  1.00  0.00    -0.490 A  
BRANCH  15  20
HETATM   20  O   UNL     1     -11.163   8.053  72.886  1.00  0.00    -0.401 OA 
HETATM   21  C   UNL     1     -11.162   6.682  72.510  1.00  0.00    -0.266 C  
ENDBRANCH  15  20
ENDBRANCH   2  14
TORSDOF 7
ENDMDL
MODEL       36
REMARK 921   NORMALIZED FREE ENERGY PREDICTED BY IDOCK:   -5.08 KCAL/MOL
REMARK 922        TOTAL FREE ENERGY PREDICTED BY IDOCK:   -8.28 KCAL/MOL
REMARK 923 INTER-LIGAND FREE ENERGY PREDICTED BY IDOCK:   -6.92 KCAL/MOL
REMARK 924 INTRA-LIGAND FREE ENERGY PREDICTED BY IDOCK:   -1.35 KCAL/MOL
REMARK 927      BINDING AFFINITY PREDICTED BY RF-SCORE:    0.00 PKD
ROOT
HETATM    1  C   UNL     1     -12.336  11.009  69.933  1.00  0.00    -0.356 C  
HETATM    2  C   UNL     1     -11.846  12.185  69.509  1.00  0.00    -0.386 C  
ENDROOT
BRANCH   1   3
HETATM    3  C   UNL     1     -12.797  10.771  71.320  1.00  0.00    -0.438 C  
HETATM    4  O   UNL     1     -13.248  11.669  72.018  1.00  0.00    -0.501 OA 
BRANCH   3   5
HETATM    5  O   UNL     1     -12.476   9.522  71.727  1.00  0.00    -0.356 OA 
BRANCH   5   6
HETATM    6  C   UNL     1     -11.505   8.884  70.894  1.00  0.00    -0.288 C  
HETATM    7  C   UNL     1      -9.199   7.875  70.645  1.00  0.00    -0.157 C  
HETATM    8  C   UNL     1     -10.976   6.432  72.787  1.00  0.00    -0.289 C  
HETATM    9  C   UNL     1     -10.358   7.818  72.926  1.00  0.00    -0.396 C  
HETATM   10  C   UNL     1     -10.175   8.599  71.604  1.00  0.00    -0.366 C  
BRANCH   7  11
HETATM   11  C   UNL     1      -8.862   8.698  69.395  1.00  0.00    -0.144 C  
BRANCH  11  12
HETATM   12  C   UNL     1      -8.361  10.099  69.739  1.00  0.00    -0.154 C  
HETATM   13  C   UNL     1      -7.704  10.747  68.529  1.00  0.00    -0.118 C  
ENDBRANCH  11  12
ENDBRANCH   7  11
ENDBRANCH   5   6
ENDBRANCH   3   5
ENDBRANCH   1   3
BRANCH   2  14
HETATM   14  C   UNL     1     -11.550  12.409  68.098  1.00  0.00    -0.395 A  
HETATM   15  C   UNL     1     -10.913  12.861  65.403  1.00  0.00    -0.278 A  
HETATM   16  C   UNL     1     -11.751  13.667  67.528  1.00  0.00    -0.406 A  
HETATM   17  C   UNL     1     -11.038  11.370  67.314  1.00  0.00    -0.363 A  
HETATM   18  C   UNL     1     -11.434  13.893  66.184  1.00  0.00    -0.351 A  
HETATM   19  C   UNL     1     -10.713  11.603  65.977  1.00  0.00    -0.328 A  
BRANCH  15  20
HETATM   20  O   UNL     1     -10.508  12.977  64.103  1.00  0.00    -0.413 OA 
HETATM   21  C   UNL     1     -10.347  11.761  63.384  1.00  0.00    -0.439 C  
ENDBRANCH  15  20
ENDBRANCH   2  14
TORSDOF 7
ENDMDL
MODEL       37
REMARK 921   NORMALIZED FREE ENERGY PREDICTED BY IDOCK:   -5.07 KCAL/MOL
REMARK 922        TOTAL FREE ENERGY PREDICTED BY IDOCK:   -8.27 KCAL/MOL
REMARK 923 INTER-LIGAND FREE ENERGY PREDICTED BY IDOCK:   -7.33 KCAL/MOL
REMARK 924 INTRA-LIGAND FREE ENERGY PREDICTED BY IDOCK:   -0.93 KCAL/MOL
REMARK 927      BINDING AFFINITY PREDICTED BY RF-SCORE:    0.00 PKD
ROOT
HETATM    1  C   UNL     1     -11.483  15.678  64.727  1.00  0.00    -0.284 C  
HETATM    2  C   UNL     1     -10.442  15.804  65.564  1.00  0.00    -0.425 C  
ENDROOT
BRANCH   1   3
HETATM    3  C   UNL     1     -12.160  14.388  64.458  1.00  0.00    -0.481 C  
HETATM    4  O   UNL     1     -12.508  14.058  63.333  1.00  0.00    -0.826 OA 
BRANCH   3   5
HETATM    5  O   UNL     1     -12.483  13.765  65.613  1.00  0.00    -0.455 OA 
BRANCH   5   6
HETATM    6  C   UNL     1     -12.026  12.412  65.678  1.00  0.00    -0.386 C  
HETATM    7  C   UNL     1     -10.312  10.747  66.508  1.00  0.00    -0.300 C  
HETATM    8  C   UNL     1     -11.803  12.266  68.810  1.00  0.00    -0.356 C  
HETATM    9  C   UNL     1     -10.768  12.867  67.867  1.00  0.00    -0.235 C  
HETATM   10  C   UNL     1     -10.713  12.241  66.454  1.00  0.00    -0.284 C  
BRANCH   7  11
HETATM   11  C   UNL     1     -10.085  10.135  65.120  1.00  0.00    -0.329 C  
BRANCH  11  12
HETATM   12  C   UNL     1      -9.176  10.995  64.246  1.00  0.00    -0.171 C  
HETATM   13  C   UNL     1      -9.673  11.014  62.808  1.00  0.00    -0.303 C  
ENDBRANCH  11  12
ENDBRANCH   7  11
ENDBRANCH   5   6
ENDBRANCH   3   5
ENDBRANCH   1   3
BRANCH   2  14
HETATM   14  C   UNL     1      -9.912  17.120  65.909  1.00  0.00    -0.214 A  
HETATM   15  C   UNL     1      -8.921  19.640  66.642  1.00  0.00    -0.362 A  
HETATM   16  C   UNL     1     -10.712  18.256  65.782  1.00  0.00    -0.129 A  
HETATM   17  C   UNL     1      -8.608  17.246  66.396  1.00  0.00    -0.294 A  
HETATM   18  C   UNL     1     -10.218  19.514  66.146  1.00  0.00    -0.588 A  
HETATM   19  C   UNL     1      -8.122  18.500  66.770  1.00  0.00    -0.267 A  
BRANCH  15  20
HETATM   20  O   UNL     1      -8.352  20.800  67.088  1.00  0.00    -0.283 OA 
HETATM   21  C   UNL     1      -6.968  20.738  67.409  1.00  0.00    -0.364 C  
ENDBRANCH  15  20
ENDBRANCH   2  14
TORSDOF 7
ENDMDL
MODEL       38
REMARK 921   NORMALIZED FREE ENERGY PREDICTED BY IDOCK:   -5.06 KCAL/MOL
REMARK 922        TOTAL FREE ENERGY PREDICTED BY IDOCK:   -8.25 KCAL/MOL
REMARK 923 INTER-LIGAND FREE ENERGY PREDICTED BY IDOCK:   -7.69 KCAL/MOL
REMARK 924 INTRA-LIGAND FREE ENERGY PREDICTED BY IDOCK:   -0.57 KCAL/MOL
REMARK 927      BINDING AFFINITY PREDICTED BY RF-SCORE:    0.00 PKD
ROOT
HETATM    1  C   UNL     1     -10.800  15.802  67.758  1.00  0.00    -0.316 C  
HETATM    2  C   UNL     1     -10.480  16.743  68.662  1.00  0.00    -0.333 C  
ENDROOT
BRANCH   1   3
HETATM    3  C   UNL     1     -11.724  14.681  68.042  1.00  0.00    -0.342 C  
HETATM    4  O   UNL     1     -11.951  14.298  69.182  1.00  0.00    -0.319 OA 
BRANCH   3   5
HETATM    5  O   UNL     1     -12.098  14.064  66.899  1.00  0.00    -0.424 OA 
BRANCH   5   6
HETATM    6  C   UNL     1     -11.070  13.252  66.327  1.00  0.00    -0.290 C  
HETATM    7  C   UNL     1     -10.429  11.244  64.929  1.00  0.00    -0.375 C  
HETATM    8  C   UNL     1     -12.142  13.358  63.374  1.00  0.00    -0.437 C  
HETATM    9  C   UNL     1     -12.648  12.435  64.475  1.00  0.00    -0.477 C  
HETATM   10  C   UNL     1     -11.602  12.043  65.546  1.00  0.00    -0.352 C  
BRANCH   7  11
HETATM   11  C   UNL     1      -9.457  10.694  65.982  1.00  0.00    -0.233 C  
BRANCH  11  12
HETATM   12  C   UNL     1      -9.391   9.169  65.972  1.00  0.00    -0.300 C  
HETATM   13  C   UNL     1     -10.328   8.584  67.020  1.00  0.00    -0.379 C  
ENDBRANCH  11  12
ENDBRANCH   7  11
ENDBRANCH   5   6
ENDBRANCH   3   5
ENDBRANCH   1   3
BRANCH   2  14
HETATM   14  C   UNL     1      -9.688  17.908  68.283  1.00  0.00    -0.327 A  
HETATM   15  C   UNL     1      -8.178  20.179  67.622  1.00  0.00    -0.294 A  
HETATM   16  C   UNL     1     -10.305  19.024  67.715  1.00  0.00    -0.498 A  
HETATM   17  C   UNL     1      -8.309  17.925  68.511  1.00  0.00    -0.305 A  
HETATM   18  C   UNL     1      -9.553  20.157  67.385  1.00  0.00    -0.551 A  
HETATM   19  C   UNL     1      -7.563  19.060  68.191  1.00  0.00    -0.311 A  
BRANCH  15  20
HETATM   20  O   UNL     1      -7.352  21.246  67.401  1.00  0.00    -0.484 OA 
HETATM   21  C   UNL     1      -6.003  21.092  67.820  1.00  0.00    -0.340 C  
ENDBRANCH  15  20
ENDBRANCH   2  14
TORSDOF 7
ENDMDL
MODEL       39
REMARK 921   NORMALIZED FREE ENERGY PREDICTED BY IDOCK:   -5.06 KCAL/MOL
REMARK 922        TOTAL FREE ENERGY PREDICTED BY IDOCK:   -8.25 KCAL/MOL
REMARK 923 INTER-LIGAND FREE ENERGY PREDICTED BY IDOCK:   -6.76 KCAL/MOL
REMARK 924 INTRA-LIGAND FREE ENERGY PREDICTED BY IDOCK:   -1.49 KCAL/MOL
REMARK 927      BINDING AFFINITY PREDICTED BY RF-SCORE:    0.00 PKD
ROOT
HETATM    1  C   UNL     1     -10.171  16.705  65.561  1.00  0.00    -0.227 C  
HETATM    2  C   UNL     1     -10.410  17.784  66.324  1.00  0.00    -0.358 C  
ENDROOT
BRANCH   1   3
HETATM    3  C   UNL     1     -11.234  15.962  64.847  1.00  0.00    -0.337 C  
HETATM    4  O   UNL     1     -11.894  16.471  63.951  1.00  0.00    -1.059 OA 
BRANCH   3   5
HETATM    5  O   UNL     1     -11.470  14.771  65.441  1.00  0.00    -0.342 OA 
BRANCH   5   6
HETATM    6  C   UNL     1     -10.290  14.142  65.946  1.00  0.00    -0.316 C  
HETATM    7  C   UNL     1      -8.900  13.437  67.937  1.00  0.00    -0.194 C  
HETATM    8  C   UNL     1     -11.756  12.147  67.883  1.00  0.00    -0.403 C  
HETATM    9  C   UNL     1     -11.442  13.609  68.176  1.00  0.00    -0.348 C  
HETATM   10  C   UNL     1     -10.182  14.171  67.476  1.00  0.00    -0.241 C  
BRANCH   7  11
HETATM   11  C   UNL     1      -7.614  14.074  67.393  1.00  0.00    -0.167 C  
BRANCH  11  12
HETATM   12  C   UNL     1      -7.314  15.423  68.041  1.00  0.00    -0.131 C  
HETATM   13  C   UNL     1      -6.462  16.285  67.120  1.00  0.00    -0.214 C  
ENDBRANCH  11  12
ENDBRANCH   7  11
ENDBRANCH   5   6
ENDBRANCH   3   5
ENDBRANCH   1   3
BRANCH   2  14
HETATM   14  C   UNL     1      -9.312  18.568  66.880  1.00  0.00    -0.294 A  
HETATM   15  C   UNL     1      -7.247  20.133  67.956  1.00  0.00    -0.281 A  
HETATM   16  C   UNL     1      -8.511  19.348  66.045  1.00  0.00    -0.210 A  
HETATM   17  C   UNL     1      -9.072  18.563  68.257  1.00  0.00    -0.338 A  
HETATM   18  C   UNL     1      -7.480  20.128  66.580  1.00  0.00    -0.315 A  
HETATM   19  C   UNL     1      -8.050  19.351  68.790  1.00  0.00    -0.388 A  
BRANCH  15  20
HETATM   20  O   UNL     1      -6.315  20.899  68.599  1.00  0.00    -0.286 OA 
HETATM   21  C   UNL     1      -5.660  20.293  69.706  1.00  0.00    -0.310 C  
ENDBRANCH  15  20
ENDBRANCH   2  14
TORSDOF 7
ENDMDL
MODEL       40
REMARK 921   NORMALIZED FREE ENERGY PREDICTED BY IDOCK:   -5.04 KCAL/MOL
REMARK 922        TOTAL FREE ENERGY PREDICTED BY IDOCK:   -8.23 KCAL/MOL
REMARK 923 INTER-LIGAND FREE ENERGY PREDICTED BY IDOCK:   -7.15 KCAL/MOL
REMARK 924 INTRA-LIGAND FREE ENERGY PREDICTED BY IDOCK:   -1.08 KCAL/MOL
REMARK 927      BINDING AFFINITY PREDICTED BY RF-SCORE:    0.00 PKD
ROOT
HETATM    1  C   UNL     1     -12.793   9.958  71.277  1.00  0.00    -0.486 C  
HETATM    2  C   UNL     1     -12.877  11.230  71.701  1.00  0.00    -0.510 C  
ENDROOT
BRANCH   1   3
HETATM    3  C   UNL     1     -13.300   8.806  72.056  1.00  0.00    -0.413 C  
HETATM    4  O   UNL     1     -14.359   8.848  72.665  1.00  0.00    -0.613 OA 
BRANCH   3   5
HETATM    5  O   UNL     1     -12.365   7.831  72.136  1.00  0.00    -0.301 OA 
BRANCH   5   6
HETATM    6  C   UNL     1     -11.207   8.086  71.338  1.00  0.00    -0.252 C  
HETATM    7  C   UNL     1      -8.789   8.817  71.209  1.00  0.00    -0.288 C  
HETATM    8  C   UNL     1      -9.238   6.277  72.991  1.00  0.00    -0.134 C  
HETATM    9  C   UNL     1      -9.653   7.700  73.343  1.00  0.00    -0.346 C  
HETATM   10  C   UNL     1     -10.007   8.606  72.140  1.00  0.00    -0.386 C  
BRANCH   7  11
HETATM   11  C   UNL     1      -9.053   9.841  70.097  1.00  0.00    -0.240 C  
BRANCH  11  12
HETATM   12  C   UNL     1      -8.950   9.226  68.704  1.00  0.00    -0.132 C  
HETATM   13  C   UNL     1      -9.292  10.256  67.635  1.00  0.00    -0.158 C  
ENDBRANCH  11  12
ENDBRANCH   7  11
ENDBRANCH   5   6
ENDBRANCH   3   5
ENDBRANCH   1   3
BRANCH   2  14
HETATM   14  C   UNL     1     -12.501  12.337  70.828  1.00  0.00    -0.356 A  
HETATM   15  C   UNL     1     -11.847  14.461  69.116  1.00  0.00    -0.323 A  
HETATM   16  C   UNL     1     -11.897  12.088  69.595  1.00  0.00    -0.401 A  
HETATM   17  C   UNL     1     -12.770  13.655  71.210  1.00  0.00    -0.443 A  
HETATM   18  C   UNL     1     -11.569  13.147  68.740  1.00  0.00    -0.348 A  
HETATM   19  C   UNL     1     -12.452  14.708  70.351  1.00  0.00    -0.410 A  
BRANCH  15  20
HETATM   20  O   UNL     1     -11.632  15.569  68.343  1.00  0.00    -0.355 OA 
HETATM   21  C   UNL     1     -10.311  16.095  68.354  1.00  0.00    -0.257 C  
ENDBRANCH  15  20
ENDBRANCH   2  14
TORSDOF 7
ENDMDL
MODEL       41
REMARK 921   NORMALIZED FREE ENERGY PREDICTED BY IDOCK:   -5.04 KCAL/MOL
REMARK 922        TOTAL FREE ENERGY PREDICTED BY IDOCK:   -8.23 KCAL/MOL
REMARK 923 INTER-LIGAND FREE ENERGY PREDICTED BY IDOCK:   -7.96 KCAL/MOL
REMARK 924 INTRA-LIGAND FREE ENERGY PREDICTED BY IDOCK:   -0.27 KCAL/MOL
REMARK 927      BINDING AFFINITY PREDICTED BY RF-SCORE:    0.00 PKD
ROOT
HETATM    1  C   UNL     1     -11.629  11.638  68.705  1.00  0.00    -0.374 C  
HETATM    2  C   UNL     1     -11.825  11.647  70.034  1.00  0.00    -0.435 C  
ENDROOT
BRANCH   1   3
HETATM    3  C   UNL     1     -11.661  12.860  67.870  1.00  0.00    -0.345 C  
HETATM    4  O   UNL     1     -12.362  12.947  66.871  1.00  0.00    -0.384 OA 
BRANCH   3   5
HETATM    5  O   UNL     1     -10.703  13.733  68.257  1.00  0.00    -0.239 OA 
BRANCH   5   6
HETATM    6  C   UNL     1     -10.982  15.085  67.887  1.00  0.00    -0.291 C  
HETATM    7  C   UNL     1     -10.336  17.139  66.559  1.00  0.00    -0.306 C  
HETATM    8  C   UNL     1     -10.900  14.621  64.779  1.00  0.00    -0.402 C  
HETATM    9  C   UNL     1      -9.691  14.822  65.685  1.00  0.00    -0.313 C  
HETATM   10  C   UNL     1      -9.938  15.692  66.939  1.00  0.00    -0.252 C  
BRANCH   7  11
HETATM   11  C   UNL     1     -10.427  18.075  67.771  1.00  0.00    -0.421 C  
BRANCH  11  12
HETATM   12  C   UNL     1     -10.856  19.488  67.383  1.00  0.00    -0.536 C  
HETATM   13  C   UNL     1     -10.189  19.914  66.082  1.00  0.00    -0.611 C  
ENDBRANCH  11  12
ENDBRANCH   7  11
ENDBRANCH   5   6
ENDBRANCH   3   5
ENDBRANCH   1   3
BRANCH   2  14
HETATM   14  C   UNL     1     -11.632  10.439  70.829  1.00  0.00    -0.450 A  
HETATM   15  C   UNL     1     -11.233   8.158  72.413  1.00  0.00    -0.386 A  
HETATM   16  C   UNL     1     -10.408   9.767  70.802  1.00  0.00    -0.298 A  
HETATM   17  C   UNL     1     -12.662   9.962  71.644  1.00  0.00    -0.527 A  
HETATM   18  C   UNL     1     -10.209   8.629  71.591  1.00  0.00    -0.366 A  
HETATM   19  C   UNL     1     -12.456   8.833  72.439  1.00  0.00    -0.421 A  
BRANCH  15  20
HETATM   20  O   UNL     1     -11.136   7.099  73.272  1.00  0.00    -0.301 OA 
HETATM   21  C   UNL     1     -11.272   5.808  72.694  1.00  0.00    -0.301 C  
ENDBRANCH  15  20
ENDBRANCH   2  14
TORSDOF 7
ENDMDL
MODEL       42
REMARK 921   NORMALIZED FREE ENERGY PREDICTED BY IDOCK:   -5.01 KCAL/MOL
REMARK 922        TOTAL FREE ENERGY PREDICTED BY IDOCK:   -8.19 KCAL/MOL
REMARK 923 INTER-LIGAND FREE ENERGY PREDICTED BY IDOCK:   -7.29 KCAL/MOL
REMARK 924 INTRA-LIGAND FREE ENERGY PREDICTED BY IDOCK:   -0.90 KCAL/MOL
REMARK 927      BINDING AFFINITY PREDICTED BY RF-SCORE:    0.00 PKD
ROOT
HETATM    1  C   UNL     1     -10.174  11.158  67.056  1.00  0.00    -0.251 C  
HETATM    2  C   UNL     1     -11.117  11.720  66.282  1.00  0.00    -0.364 C  
ENDROOT
BRANCH   1   3
HETATM    3  C   UNL     1     -10.133   9.711  67.368  1.00  0.00    -0.204 C  
HETATM    4  O   UNL     1     -10.388   8.857  66.530  1.00  0.00    -0.276 OA 
BRANCH   3   5
HETATM    5  O   UNL     1      -9.968   9.510  68.695  1.00  0.00    -0.158 OA 
BRANCH   5   6
HETATM    6  C   UNL     1     -10.398  10.613  69.496  1.00  0.00    -0.182 C  
HETATM    7  C   UNL     1     -12.190  11.672  70.933  1.00  0.00    -0.401 C  
HETATM    8  C   UNL     1     -11.155   8.927  72.038  1.00  0.00    -0.421 C  
HETATM    9  C   UNL     1     -12.026   9.121  70.803  1.00  0.00    -0.243 C  
HETATM   10  C   UNL     1     -11.820  10.456  70.049  1.00  0.00    -0.351 C  
BRANCH   7  11
HETATM   11  C   UNL     1     -12.159  13.002  70.169  1.00  0.00    -0.377 C  
BRANCH  11  12
HETATM   12  C   UNL     1     -12.213  14.209  71.102  1.00  0.00    -0.435 C  
HETATM   13  C   UNL     1     -13.655  14.566  71.437  1.00  0.00    -0.452 C  
ENDBRANCH  11  12
ENDBRANCH   7  11
ENDBRANCH   5   6
ENDBRANCH   3   5
ENDBRANCH   1   3
BRANCH   2  14
HETATM   14  C   UNL     1     -11.023  13.120  65.883  1.00  0.00    -0.288 A  
HETATM   15  C   UNL     1     -10.897  15.828  65.163  1.00  0.00    -0.428 A  
HETATM   16  C   UNL     1     -11.817  13.611  64.845  1.00  0.00    -0.398 A  
HETATM   17  C   UNL     1     -10.156  13.985  66.556  1.00  0.00    -0.287 A  
HETATM   18  C   UNL     1     -11.754  14.961  64.485  1.00  0.00    -0.388 A  
HETATM   19  C   UNL     1     -10.104  15.335  66.202  1.00  0.00    -0.315 A  
BRANCH  15  20
HETATM   20  O   UNL     1     -10.795  17.174  64.944  1.00  0.00    -0.751 OA 
HETATM   21  C   UNL     1     -10.338  17.955  66.040  1.00  0.00    -0.318 C  
ENDBRANCH  15  20
ENDBRANCH   2  14
TORSDOF 7
ENDMDL
MODEL       43
REMARK 921   NORMALIZED FREE ENERGY PREDICTED BY IDOCK:   -5.01 KCAL/MOL
REMARK 922        TOTAL FREE ENERGY PREDICTED BY IDOCK:   -8.19 KCAL/MOL
REMARK 923 INTER-LIGAND FREE ENERGY PREDICTED BY IDOCK:   -6.74 KCAL/MOL
REMARK 924 INTRA-LIGAND FREE ENERGY PREDICTED BY IDOCK:   -1.45 KCAL/MOL
REMARK 927      BINDING AFFINITY PREDICTED BY RF-SCORE:    0.00 PKD
ROOT
HETATM    1  C   UNL     1     -12.037  13.925  66.037  1.00  0.00    -0.465 C  
HETATM    2  C   UNL     1     -11.111  14.804  65.620  1.00  0.00    -0.342 C  
ENDROOT
BRANCH   1   3
HETATM    3  C   UNL     1     -12.361  12.677  65.308  1.00  0.00    -0.466 C  
HETATM    4  O   UNL     1     -13.045  12.675  64.294  1.00  0.00    -0.741 OA 
BRANCH   3   5
HETATM    5  O   UNL     1     -11.965  11.593  66.012  1.00  0.00    -0.341 OA 
BRANCH   5   6
HETATM    6  C   UNL     1     -10.545  11.481  66.134  1.00  0.00    -0.266 C  
HETATM    7  C   UNL     1      -8.531  11.031  67.596  1.00  0.00    -0.121 C  
HETATM    8  C   UNL     1     -10.531   8.622  67.442  1.00  0.00    -0.351 C  
HETATM    9  C   UNL     1     -10.772   9.938  68.172  1.00  0.00    -0.279 C  
HETATM   10  C   UNL     1     -10.071  11.175  67.561  1.00  0.00    -0.210 C  
BRANCH   7  11
HETATM   11  C   UNL     1      -7.798  12.305  67.153  1.00  0.00    -0.149 C  
BRANCH  11  12
HETATM   12  C   UNL     1      -8.054  13.479  68.093  1.00  0.00    -0.154 C  
HETATM   13  C   UNL     1      -7.503  14.770  67.503  1.00  0.00    -0.221 C  
ENDBRANCH  11  12
ENDBRANCH   7  11
ENDBRANCH   5   6
ENDBRANCH   3   5
ENDBRANCH   1   3
BRANCH   2  14
HETATM   14  C   UNL     1     -10.724  15.937  66.454  1.00  0.00    -0.256 A  
HETATM   15  C   UNL     1      -9.915  18.082  68.071  1.00  0.00    -0.343 A  
HETATM   16  C   UNL     1     -10.977  15.919  67.827  1.00  0.00    -0.315 A  
HETATM   17  C   UNL     1     -10.073  17.036  65.887  1.00  0.00    -0.281 A  
HETATM   18  C   UNL     1     -10.574  16.989  68.634  1.00  0.00    -0.362 A  
HETATM   19  C   UNL     1      -9.663  18.097  66.697  1.00  0.00    -0.334 A  
BRANCH  15  20
HETATM   20  O   UNL     1      -9.420  19.152  68.764  1.00  0.00    -0.374 OA 
HETATM   21  C   UNL     1      -8.022  19.384  68.645  1.00  0.00    -0.368 C  
ENDBRANCH  15  20
ENDBRANCH   2  14
TORSDOF 7
ENDMDL
MODEL       44
REMARK 921   NORMALIZED FREE ENERGY PREDICTED BY IDOCK:   -5.00 KCAL/MOL
REMARK 922        TOTAL FREE ENERGY PREDICTED BY IDOCK:   -8.17 KCAL/MOL
REMARK 923 INTER-LIGAND FREE ENERGY PREDICTED BY IDOCK:   -6.97 KCAL/MOL
REMARK 924 INTRA-LIGAND FREE ENERGY PREDICTED BY IDOCK:   -1.19 KCAL/MOL
REMARK 927      BINDING AFFINITY PREDICTED BY RF-SCORE:    0.00 PKD
ROOT
HETATM    1  C   UNL     1      -9.524  10.523  69.216  1.00  0.00    -0.191 C  
HETATM    2  C   UNL     1      -9.855  10.229  67.948  1.00  0.00    -0.181 C  
ENDROOT
BRANCH   1   3
HETATM    3  C   UNL     1      -8.583   9.711  70.021  1.00  0.00    -0.215 C  
HETATM    4  O   UNL     1      -7.520  10.160  70.426  1.00  0.00    -0.247 OA 
BRANCH   3   5
HETATM    5  O   UNL     1      -8.978   8.419  70.065  1.00  0.00    -0.135 OA 
BRANCH   5   6
HETATM    6  C   UNL     1     -10.015   8.173  71.018  1.00  0.00    -0.187 C  
HETATM    7  C   UNL     1     -12.346   7.320  71.504  1.00  0.00    -0.397 C  
HETATM    8  C   UNL     1     -10.440   5.143  70.299  1.00  0.00    -0.296 C  
HETATM    9  C   UNL     1     -11.028   6.331  69.547  1.00  0.00    -0.445 C  
HETATM   10  C   UNL     1     -11.294   7.592  70.401  1.00  0.00    -0.253 C  
BRANCH   7  11
HETATM   11  C   UNL     1     -12.760   8.587  72.265  1.00  0.00    -0.420 C  
BRANCH  11  12
HETATM   12  C   UNL     1     -13.495   9.585  71.375  1.00  0.00    -0.405 C  
HETATM   13  C   UNL     1     -12.694  10.873  71.237  1.00  0.00    -0.542 C  
ENDBRANCH  11  12
ENDBRANCH   7  11
ENDBRANCH   5   6
ENDBRANCH   3   5
ENDBRANCH   1   3
BRANCH   2  14
HETATM   14  C   UNL     1     -10.666  11.145  67.153  1.00  0.00    -0.305 A  
HETATM   15  C   UNL     1     -12.169  12.957  65.626  1.00  0.00    -0.463 A  
HETATM   16  C   UNL     1     -11.476  12.094  67.780  1.00  0.00    -0.398 A  
HETATM   17  C   UNL     1     -10.616  11.096  65.757  1.00  0.00    -0.289 A  
HETATM   18  C   UNL     1     -12.226  12.997  67.019  1.00  0.00    -0.217 A  
HETATM   19  C   UNL     1     -11.357  12.006  65.001  1.00  0.00    -0.365 A  
BRANCH  15  20
HETATM   20  O   UNL     1     -12.804  13.823  64.781  1.00  0.00    -0.685 OA 
HETATM   21  C   UNL     1     -12.034  14.926  64.318  1.00  0.00    -0.338 C  
ENDBRANCH  15  20
ENDBRANCH   2  14
TORSDOF 7
ENDMDL
MODEL       45
REMARK 921   NORMALIZED FREE ENERGY PREDICTED BY IDOCK:   -5.00 KCAL/MOL
REMARK 922        TOTAL FREE ENERGY PREDICTED BY IDOCK:   -8.17 KCAL/MOL
REMARK 923 INTER-LIGAND FREE ENERGY PREDICTED BY IDOCK:   -6.69 KCAL/MOL
REMARK 924 INTRA-LIGAND FREE ENERGY PREDICTED BY IDOCK:   -1.48 KCAL/MOL
REMARK 927      BINDING AFFINITY PREDICTED BY RF-SCORE:    0.00 PKD
ROOT
HETATM    1  C   UNL     1     -10.818   7.192  67.416  1.00  0.00    -0.346 C  
HETATM    2  C   UNL     1      -9.929   7.949  66.752  1.00  0.00    -0.333 C  
ENDROOT
BRANCH   1   3
HETATM    3  C   UNL     1     -10.560   5.786  67.804  1.00  0.00    -0.237 C  
HETATM    4  O   UNL     1     -10.315   4.918  66.979  1.00  0.00    -0.208 OA 
BRANCH   3   5
HETATM    5  O   UNL     1     -10.815   5.596  69.118  1.00  0.00    -0.284 OA 
BRANCH   5   6
HETATM    6  C   UNL     1     -11.230   6.784  69.796  1.00  0.00    -0.315 C  
HETATM    7  C   UNL     1     -10.974   8.352  71.764  1.00  0.00    -0.359 C  
HETATM    8  C   UNL     1      -8.370   8.065  70.043  1.00  0.00    -0.123 C  
HETATM    9  C   UNL     1      -8.955   7.000  70.962  1.00  0.00    -0.151 C  
HETATM   10  C   UNL     1     -10.493   7.029  71.119  1.00  0.00    -0.229 C  
BRANCH   7  11
HETATM   11  C   UNL     1     -12.474   8.352  72.089  1.00  0.00    -0.422 C  
BRANCH  11  12
HETATM   12  C   UNL     1     -13.174   9.617  71.600  1.00  0.00    -0.499 C  
HETATM   13  C   UNL     1     -12.174  10.575  70.969  1.00  0.00    -0.505 C  
ENDBRANCH  11  12
ENDBRANCH   7  11
ENDBRANCH   5   6
ENDBRANCH   3   5
ENDBRANCH   1   3
BRANCH   2  14
HETATM   14  C   UNL     1     -10.174   9.371  66.530  1.00  0.00    -0.308 A  
HETATM   15  C   UNL     1     -10.710  12.086  66.072  1.00  0.00    -0.279 A  
HETATM   16  C   UNL     1      -9.801   9.969  65.326  1.00  0.00    -0.388 A  
HETATM   17  C   UNL     1     -10.809  10.136  67.513  1.00  0.00    -0.349 A  
HETATM   18  C   UNL     1     -10.067  11.324  65.097  1.00  0.00    -0.326 A  
HETATM   19  C   UNL     1     -11.083  11.484  67.277  1.00  0.00    -0.351 A  
BRANCH  15  20
HETATM   20  O   UNL     1     -11.079  13.396  65.940  1.00  0.00    -0.281 OA 
HETATM   21  C   UNL     1     -12.183  13.820  66.728  1.00  0.00    -0.397 C  
ENDBRANCH  15  20
ENDBRANCH   2  14
TORSDOF 7
ENDMDL
MODEL       46
REMARK 921   NORMALIZED FREE ENERGY PREDICTED BY IDOCK:   -4.98 KCAL/MOL
REMARK 922        TOTAL FREE ENERGY PREDICTED BY IDOCK:   -8.14 KCAL/MOL
REMARK 923 INTER-LIGAND FREE ENERGY PREDICTED BY IDOCK:   -7.57 KCAL/MOL
REMARK 924 INTRA-LIGAND FREE ENERGY PREDICTED BY IDOCK:   -0.57 KCAL/MOL
REMARK 927      BINDING AFFINITY PREDICTED BY RF-SCORE:    0.00 PKD
ROOT
HETATM    1  C   UNL     1     -11.319   9.946  69.713  1.00  0.00    -0.241 C  
HETATM    2  C   UNL     1     -11.952   9.341  70.731  1.00  0.00    -0.269 C  
ENDROOT
BRANCH   1   3
HETATM    3  C   UNL     1     -11.723  11.264  69.170  1.00  0.00    -0.341 C  
HETATM    4  O   UNL     1     -12.203  11.387  68.052  1.00  0.00    -0.607 OA 
BRANCH   3   5
HETATM    5  O   UNL     1     -11.321  12.264  69.986  1.00  0.00    -0.119 OA 
BRANCH   5   6
HETATM    6  C   UNL     1     -12.350  13.213  70.274  1.00  0.00    -0.249 C  
HETATM    7  C   UNL     1     -12.997  15.580  70.889  1.00  0.00    -0.526 C  
HETATM    8  C   UNL     1     -11.431  15.372  68.181  1.00  0.00    -0.352 C  
HETATM    9  C   UNL     1     -10.842  15.167  69.572  1.00  0.00    -0.270 C  
HETATM   10  C   UNL     1     -11.820  14.608  70.632  1.00  0.00    -0.367 C  
BRANCH   7  11
HETATM   11  C   UNL     1     -13.897  15.139  72.051  1.00  0.00    -0.608 C  
BRANCH  11  12
HETATM   12  C   UNL     1     -13.100  14.801  73.308  1.00  0.00    -0.550 C  
HETATM   13  C   UNL     1     -12.511  16.061  73.927  1.00  0.00    -0.726 C  
ENDBRANCH  11  12
ENDBRANCH   7  11
ENDBRANCH   5   6
ENDBRANCH   3   5
ENDBRANCH   1   3
BRANCH   2  14
HETATM   14  C   UNL     1     -11.419   8.120  71.325  1.00  0.00    -0.299 A  
HETATM   15  C   UNL     1     -10.465   5.750  72.484  1.00  0.00    -0.207 A  
HETATM   16  C   UNL     1     -11.100   8.078  72.683  1.00  0.00    -0.453 A  
HETATM   17  C   UNL     1     -11.251   6.974  70.542  1.00  0.00    -0.335 A  
HETATM   18  C   UNL     1     -10.624   6.897  73.262  1.00  0.00    -0.353 A  
HETATM   19  C   UNL     1     -10.786   5.794  71.125  1.00  0.00    -0.327 A  
BRANCH  15  20
HETATM   20  O   UNL     1     -10.070   4.526  72.948  1.00  0.00    -0.146 OA 
HETATM   21  C   UNL     1     -11.097   3.688  73.461  1.00  0.00    -0.225 C  
ENDBRANCH  15  20
ENDBRANCH   2  14
TORSDOF 7
ENDMDL
MODEL       47
REMARK 921   NORMALIZED FREE ENERGY PREDICTED BY IDOCK:   -4.96 KCAL/MOL
REMARK 922        TOTAL FREE ENERGY PREDICTED BY IDOCK:   -8.11 KCAL/MOL
REMARK 923 INTER-LIGAND FREE ENERGY PREDICTED BY IDOCK:   -7.09 KCAL/MOL
REMARK 924 INTRA-LIGAND FREE ENERGY PREDICTED BY IDOCK:   -1.02 KCAL/MOL
REMARK 927      BINDING AFFINITY PREDICTED BY RF-SCORE:    0.00 PKD
ROOT
HETATM    1  C   UNL     1      -9.257  10.886  68.327  1.00  0.00    -0.161 C  
HETATM    2  C   UNL     1     -10.502  10.668  68.779  1.00  0.00    -0.215 C  
ENDROOT
BRANCH   1   3
HETATM    3  C   UNL     1      -8.952  11.755  67.168  1.00  0.00    -0.177 C  
HETATM    4  O   UNL     1      -8.403  11.328  66.162  1.00  0.00    -0.167 OA 
BRANCH   3   5
HETATM    5  O   UNL     1      -9.188  13.053  67.464  1.00  0.00    -0.180 OA 
BRANCH   5   6
HETATM    6  C   UNL     1     -10.019  13.714  66.506  1.00  0.00    -0.288 C  
HETATM    7  C   UNL     1     -12.341  14.212  65.638  1.00  0.00    -0.473 C  
HETATM    8  C   UNL     1     -11.876  15.159  68.590  1.00  0.00    -0.329 C  
HETATM    9  C   UNL     1     -12.008  13.714  68.126  1.00  0.00    -0.390 C  
HETATM   10  C   UNL     1     -11.516  13.430  66.688  1.00  0.00    -0.376 C  
BRANCH   7  11
HETATM   11  C   UNL     1     -11.993  13.831  64.193  1.00  0.00    -0.473 C  
BRANCH  11  12
HETATM   12  C   UNL     1     -12.236  12.351  63.909  1.00  0.00    -0.603 C  
HETATM   13  C   UNL     1     -10.941  11.664  63.495  1.00  0.00    -0.485 C  
ENDBRANCH  11  12
ENDBRANCH   7  11
ENDBRANCH   5   6
ENDBRANCH   3   5
ENDBRANCH   1   3
BRANCH   2  14
HETATM   14  C   UNL     1     -10.732   9.928  70.016  1.00  0.00    -0.338 A  
HETATM   15  C   UNL     1     -11.195   8.445  72.352  1.00  0.00    -0.368 A  
HETATM   16  C   UNL     1     -12.000   9.909  70.599  1.00  0.00    -0.361 A  
HETATM   17  C   UNL     1      -9.690   9.210  70.609  1.00  0.00    -0.314 A  
HETATM   18  C   UNL     1     -12.232   9.170  71.765  1.00  0.00    -0.442 A  
HETATM   19  C   UNL     1      -9.926   8.465  71.766  1.00  0.00    -0.312 A  
BRANCH  15  20
HETATM   20  O   UNL     1     -11.313   7.639  73.450  1.00  0.00    -0.289 OA 
HETATM   21  C   UNL     1     -10.123   6.999  73.891  1.00  0.00    -0.348 C  
ENDBRANCH  15  20
ENDBRANCH   2  14
TORSDOF 7
ENDMDL
MODEL       48
REMARK 921   NORMALIZED FREE ENERGY PREDICTED BY IDOCK:   -4.96 KCAL/MOL
REMARK 922        TOTAL FREE ENERGY PREDICTED BY IDOCK:   -8.11 KCAL/MOL
REMARK 923 INTER-LIGAND FREE ENERGY PREDICTED BY IDOCK:   -7.15 KCAL/MOL
REMARK 924 INTRA-LIGAND FREE ENERGY PREDICTED BY IDOCK:   -0.95 KCAL/MOL
REMARK 927      BINDING AFFINITY PREDICTED BY RF-SCORE:    0.00 PKD
ROOT
HETATM    1  C   UNL     1     -10.435  12.851  68.252  1.00  0.00    -0.250 C  
HETATM    2  C   UNL     1     -10.378  11.523  68.446  1.00  0.00    -0.214 C  
ENDROOT
BRANCH   1   3
HETATM    3  C   UNL     1      -9.896  13.521  67.046  1.00  0.00    -0.251 C  
HETATM    4  O   UNL     1      -9.009  13.024  66.367  1.00  0.00    -0.133 OA 
BRANCH   3   5
HETATM    5  O   UNL     1     -10.380  14.779  66.939  1.00  0.00    -0.262 OA 
BRANCH   5   6
HETATM    6  C   UNL     1     -11.136  15.198  68.078  1.00  0.00    -0.308 C  
HETATM    7  C   UNL     1     -11.243  16.509  70.238  1.00  0.00    -0.140 C  
HETATM    8  C   UNL     1     -10.624  18.279  67.726  1.00  0.00    -0.415 C  
HETATM    9  C   UNL     1      -9.670  17.283  68.373  1.00  0.00    -0.293 C  
HETATM   10  C   UNL     1     -10.341  16.070  69.059  1.00  0.00    -0.242 C  
BRANCH   7  11
HETATM   11  C   UNL     1     -11.794  15.327  71.046  1.00  0.00    -0.394 C  
BRANCH  11  12
HETATM   12  C   UNL     1     -11.600  15.511  72.549  1.00  0.00    -0.531 C  
HETATM   13  C   UNL     1     -12.809  14.989  73.315  1.00  0.00    -0.647 C  
ENDBRANCH  11  12
ENDBRANCH   7  11
ENDBRANCH   5   6
ENDBRANCH   3   5
ENDBRANCH   1   3
BRANCH   2  14
HETATM   14  C   UNL     1     -11.058  10.901  69.577  1.00  0.00    -0.326 A  
HETATM   15  C   UNL     1     -12.425   9.688  71.705  1.00  0.00    -0.402 A  
HETATM   16  C   UNL     1     -11.932  11.647  70.370  1.00  0.00    -0.448 A  
HETATM   17  C   UNL     1     -10.861   9.545  69.856  1.00  0.00    -0.272 A  
HETATM   18  C   UNL     1     -12.614  11.043  71.432  1.00  0.00    -0.498 A  
HETATM   19  C   UNL     1     -11.551   8.943  70.910  1.00  0.00    -0.331 A  
BRANCH  15  20
HETATM   20  O   UNL     1     -13.079   8.976  72.672  1.00  0.00    -0.426 OA 
HETATM   21  C   UNL     1     -14.347   8.444  72.309  1.00  0.00    -0.371 C  
ENDBRANCH  15  20
ENDBRANCH   2  14
TORSDOF 7
ENDMDL
MODEL       49
REMARK 921   NORMALIZED FREE ENERGY PREDICTED BY IDOCK:   -4.94 KCAL/MOL
REMARK 922        TOTAL FREE ENERGY PREDICTED BY IDOCK:   -8.09 KCAL/MOL
REMARK 923 INTER-LIGAND FREE ENERGY PREDICTED BY IDOCK:   -6.93 KCAL/MOL
REMARK 924 INTRA-LIGAND FREE ENERGY PREDICTED BY IDOCK:   -1.16 KCAL/MOL
REMARK 927      BINDING AFFINITY PREDICTED BY RF-SCORE:    0.00 PKD
ROOT
HETATM    1  C   UNL     1     -10.962  13.142  65.953  1.00  0.00    -0.288 C  
HETATM    2  C   UNL     1     -11.868  12.798  66.882  1.00  0.00    -0.440 C  
ENDROOT
BRANCH   1   3
HETATM    3  C   UNL     1     -11.164  14.248  64.990  1.00  0.00    -0.364 C  
HETATM    4  O   UNL     1     -12.024  14.206  64.121  1.00  0.00    -0.441 OA 
BRANCH   3   5
HETATM    5  O   UNL     1     -10.178  15.167  65.099  1.00  0.00    -0.372 OA 
BRANCH   5   6
HETATM    6  C   UNL     1     -10.328  16.032  66.227  1.00  0.00    -0.321 C  
HETATM    7  C   UNL     1      -9.505  16.788  68.496  1.00  0.00    -0.245 C  
HETATM    8  C   UNL     1      -7.386  17.140  66.213  1.00  0.00    -0.326 C  
HETATM    9  C   UNL     1      -7.840  15.815  66.814  1.00  0.00    -0.248 C  
HETATM   10  C   UNL     1      -9.295  15.786  67.335  1.00  0.00    -0.214 C  
BRANCH   7  11
HETATM   11  C   UNL     1     -10.888  16.670  69.149  1.00  0.00    -0.315 C  
BRANCH  11  12
HETATM   12  C   UNL     1     -11.054  15.369  69.930  1.00  0.00    -0.304 C  
HETATM   13  C   UNL     1     -12.469  15.248  70.479  1.00  0.00    -0.454 C  
ENDBRANCH  11  12
ENDBRANCH   7  11
ENDBRANCH   5   6
ENDBRANCH   3   5
ENDBRANCH   1   3
BRANCH   2  14
HETATM   14  C   UNL     1     -11.555  11.803  67.903  1.00  0.00    -0.377 A  
HETATM   15  C   UNL     1     -11.018   9.856  69.850  1.00  0.00    -0.281 A  
HETATM   16  C   UNL     1     -11.976  11.990  69.221  1.00  0.00    -0.329 A  
HETATM   17  C   UNL     1     -10.854  10.643  67.561  1.00  0.00    -0.351 A  
HETATM   18  C   UNL     1     -11.708  11.019  70.193  1.00  0.00    -0.442 A  
HETATM   19  C   UNL     1     -10.598   9.672  68.531  1.00  0.00    -0.253 A  
BRANCH  15  20
HETATM   20  O   UNL     1     -10.754   8.814  70.695  1.00  0.00    -0.209 OA 
HETATM   21  C   UNL     1     -11.366   8.873  71.976  1.00  0.00    -0.357 C  
ENDBRANCH  15  20
ENDBRANCH   2  14
TORSDOF 7
ENDMDL
MODEL       50
REMARK 921   NORMALIZED FREE ENERGY PREDICTED BY IDOCK:   -4.94 KCAL/MOL
REMARK 922        TOTAL FREE ENERGY PREDICTED BY IDOCK:   -8.09 KCAL/MOL
REMARK 923 INTER-LIGAND FREE ENERGY PREDICTED BY IDOCK:   -7.10 KCAL/MOL
REMARK 924 INTRA-LIGAND FREE ENERGY PREDICTED BY IDOCK:   -0.98 KCAL/MOL
REMARK 927      BINDING AFFINITY PREDICTED BY RF-SCORE:    0.00 PKD
ROOT
HETATM    1  C   UNL     1     -12.392  10.907  69.830  1.00  0.00    -0.354 C  
HETATM    2  C   UNL     1     -11.996  12.121  69.413  1.00  0.00    -0.329 C  
ENDROOT
BRANCH   1   3
HETATM    3  C   UNL     1     -12.857  10.632  71.209  1.00  0.00    -0.434 C  
HETATM    4  O   UNL     1     -13.183  11.527  71.976  1.00  0.00    -0.509 OA 
BRANCH   3   5
HETATM    5  O   UNL     1     -12.687   9.328  71.522  1.00  0.00    -0.318 OA 
BRANCH   5   6
HETATM    6  C   UNL     1     -11.354   9.008  71.927  1.00  0.00    -0.368 C  
HETATM    7  C   UNL     1      -9.468   7.326  72.021  1.00  0.00    -0.151 C  
HETATM    8  C   UNL     1     -10.346   8.064  69.103  1.00  0.00    -0.226 C  
HETATM    9  C   UNL     1     -11.147   7.226  70.093  1.00  0.00    -0.281 C  
HETATM   10  C   UNL     1     -10.932   7.573  71.584  1.00  0.00    -0.263 C  
BRANCH   7  11
HETATM   11  C   UNL     1      -9.252   7.499  73.530  1.00  0.00    -0.301 C  
BRANCH  11  12
HETATM   12  C   UNL     1     -10.095   6.528  74.352  1.00  0.00    -0.371 C  
HETATM   13  C   UNL     1      -9.744   5.087  74.009  1.00  0.00    -0.154 C  
ENDBRANCH  11  12
ENDBRANCH   7  11
ENDBRANCH   5   6
ENDBRANCH   3   5
ENDBRANCH   1   3
BRANCH   2  14
HETATM   14  C   UNL     1     -11.694  12.369  68.007  1.00  0.00    -0.414 A  
HETATM   15  C   UNL     1     -11.046  12.869  65.324  1.00  0.00    -0.284 A  
HETATM   16  C   UNL     1     -11.927  13.627  67.449  1.00  0.00    -0.413 A  
HETATM   17  C   UNL     1     -11.144  11.355  67.218  1.00  0.00    -0.363 A  
HETATM   18  C   UNL     1     -11.604  13.877  66.110  1.00  0.00    -0.371 A  
HETATM   19  C   UNL     1     -10.813  11.611  65.886  1.00  0.00    -0.339 A  
BRANCH  15  20
HETATM   20  O   UNL     1     -10.633  13.012  64.029  1.00  0.00    -0.412 OA 
HETATM   21  C   UNL     1     -10.169  11.832  63.385  1.00  0.00    -0.449 C  
ENDBRANCH  15  20
ENDBRANCH   2  14
TORSDOF 7
ENDMDL
MODEL       51
REMARK 921   NORMALIZED FREE ENERGY PREDICTED BY IDOCK:   -4.92 KCAL/MOL
REMARK 922        TOTAL FREE ENERGY PREDICTED BY IDOCK:   -8.06 KCAL/MOL
REMARK 923 INTER-LIGAND FREE ENERGY PREDICTED BY IDOCK:   -7.20 KCAL/MOL
REMARK 924 INTRA-LIGAND FREE ENERGY PREDICTED BY IDOCK:   -0.86 KCAL/MOL
REMARK 927      BINDING AFFINITY PREDICTED BY RF-SCORE:    0.00 PKD
ROOT
HETATM    1  C   UNL     1     -11.777  13.660  67.655  1.00  0.00    -0.398 C  
HETATM    2  C   UNL     1     -11.895  12.905  68.760  1.00  0.00    -0.353 C  
ENDROOT
BRANCH   1   3
HETATM    3  C   UNL     1     -11.456  13.104  66.321  1.00  0.00    -0.334 C  
HETATM    4  O   UNL     1     -11.977  12.081  65.899  1.00  0.00    -0.540 OA 
BRANCH   3   5
HETATM    5  O   UNL     1     -10.416  13.764  65.763  1.00  0.00    -0.284 OA 
BRANCH   5   6
HETATM    6  C   UNL     1      -9.431  14.182  66.712  1.00  0.00    -0.279 C  
HETATM    7  C   UNL     1      -7.763  15.924  67.470  1.00  0.00    -0.183 C  
HETATM    8  C   UNL     1     -10.708  16.987  67.330  1.00  0.00    -0.240 C  
HETATM    9  C   UNL     1      -9.822  16.651  66.137  1.00  0.00    -0.340 C  
HETATM   10  C   UNL     1      -8.783  15.531  66.375  1.00  0.00    -0.333 C  
BRANCH   7  11
HETATM   11  C   UNL     1      -6.619  14.912  67.619  1.00  0.00    -0.189 C  
BRANCH  11  12
HETATM   12  C   UNL     1      -5.896  15.044  68.957  1.00  0.00    -0.096 C  
HETATM   13  C   UNL     1      -5.945  13.731  69.726  1.00  0.00    -0.122 C  
ENDBRANCH  11  12
ENDBRANCH   7  11
ENDBRANCH   5   6
ENDBRANCH   3   5
ENDBRANCH   1   3
BRANCH   2  14
HETATM   14  C   UNL     1     -12.363  13.483  70.016  1.00  0.00    -0.315 A  
HETATM   15  C   UNL     1     -13.194  14.582  72.459  1.00  0.00    -0.448 A  
HETATM   16  C   UNL     1     -12.885  12.662  71.017  1.00  0.00    -0.254 A  
HETATM   17  C   UNL     1     -12.265  14.860  70.235  1.00  0.00    -0.389 A  
HETATM   18  C   UNL     1     -13.300  13.210  72.236  1.00  0.00    -0.621 A  
HETATM   19  C   UNL     1     -12.670  15.402  71.456  1.00  0.00    -0.480 A  
BRANCH  15  20
HETATM   20  O   UNL     1     -13.506  15.222  73.627  1.00  0.00    -0.344 OA 
HETATM   21  C   UNL     1     -12.422  15.823  74.323  1.00  0.00    -0.654 C  
ENDBRANCH  15  20
ENDBRANCH   2  14
TORSDOF 7
ENDMDL
MODEL       52
REMARK 921   NORMALIZED FREE ENERGY PREDICTED BY IDOCK:   -4.92 KCAL/MOL
REMARK 922        TOTAL FREE ENERGY PREDICTED BY IDOCK:   -8.05 KCAL/MOL
REMARK 923 INTER-LIGAND FREE ENERGY PREDICTED BY IDOCK:   -7.02 KCAL/MOL
REMARK 924 INTRA-LIGAND FREE ENERGY PREDICTED BY IDOCK:   -1.03 KCAL/MOL
REMARK 927      BINDING AFFINITY PREDICTED BY RF-SCORE:    0.00 PKD
ROOT
HETATM    1  C   UNL     1     -10.653  13.439  67.428  1.00  0.00    -0.254 C  
HETATM    2  C   UNL     1     -10.657  12.667  66.329  1.00  0.00    -0.274 C  
ENDROOT
BRANCH   1   3
HETATM    3  C   UNL     1     -11.112  14.847  67.436  1.00  0.00    -0.325 C  
HETATM    4  O   UNL     1     -10.785  15.643  66.567  1.00  0.00    -0.307 OA 
BRANCH   3   5
HETATM    5  O   UNL     1     -11.752  15.137  68.591  1.00  0.00    -0.335 OA 
BRANCH   5   6
HETATM    6  C   UNL     1     -12.355  13.998  69.210  1.00  0.00    -0.171 C  
HETATM    7  C   UNL     1     -12.678  12.583  71.281  1.00  0.00    -0.350 C  
HETATM    8  C   UNL     1     -13.632  15.548  71.628  1.00  0.00    -0.575 C  
HETATM    9  C   UNL     1     -12.185  15.081  71.530  1.00  0.00    -0.399 C  
HETATM   10  C   UNL     1     -11.953  13.811  70.679  1.00  0.00    -0.340 C  
BRANCH   7  11
HETATM   11  C   UNL     1     -12.338  11.271  70.561  1.00  0.00    -0.446 C  
BRANCH  11  12
HETATM   12  C   UNL     1     -12.548  10.048  71.450  1.00  0.00    -0.518 C  
HETATM   13  C   UNL     1     -11.262   9.241  71.567  1.00  0.00    -0.457 C  
ENDBRANCH  11  12
ENDBRANCH   7  11
ENDBRANCH   5   6
ENDBRANCH   3   5
ENDBRANCH   1   3
BRANCH   2  14
HETATM   14  C   UNL     1     -10.339  11.245  66.410  1.00  0.00    -0.291 A  
HETATM   15  C   UNL     1      -9.791   8.497  66.529  1.00  0.00    -0.272 A  
HETATM   16  C   UNL     1     -10.824  10.475  67.468  1.00  0.00    -0.357 A  
HETATM   17  C   UNL     1      -9.569  10.640  65.413  1.00  0.00    -0.282 A  
HETATM   18  C   UNL     1     -10.551   9.104  67.528  1.00  0.00    -0.317 A  
HETATM   19  C   UNL     1      -9.307   9.270  65.470  1.00  0.00    -0.303 A  
BRANCH  15  20
HETATM   20  O   UNL     1      -9.512   7.161  66.446  1.00  0.00    -0.173 OA 
HETATM   21  C   UNL     1     -10.511   6.279  66.943  1.00  0.00    -0.272 C  
ENDBRANCH  15  20
ENDBRANCH   2  14
TORSDOF 7
ENDMDL
MODEL       53
REMARK 921   NORMALIZED FREE ENERGY PREDICTED BY IDOCK:   -4.86 KCAL/MOL
REMARK 922        TOTAL FREE ENERGY PREDICTED BY IDOCK:   -7.98 KCAL/MOL
REMARK 923 INTER-LIGAND FREE ENERGY PREDICTED BY IDOCK:   -7.24 KCAL/MOL
REMARK 924 INTRA-LIGAND FREE ENERGY PREDICTED BY IDOCK:   -0.74 KCAL/MOL
REMARK 927      BINDING AFFINITY PREDICTED BY RF-SCORE:    0.00 PKD
ROOT
HETATM    1  C   UNL     1     -11.328  14.091  66.543  1.00  0.00    -0.343 C  
HETATM    2  C   UNL     1     -10.436  14.666  65.720  1.00  0.00    -0.338 C  
ENDROOT
BRANCH   1   3
HETATM    3  C   UNL     1     -11.965  12.783  66.265  1.00  0.00    -0.395 C  
HETATM    4  O   UNL     1     -12.582  12.567  65.232  1.00  0.00    -0.645 OA 
BRANCH   3   5
HETATM    5  O   UNL     1     -11.920  11.985  67.356  1.00  0.00    -0.583 OA 
BRANCH   5   6
HETATM    6  C   UNL     1     -11.707  12.700  68.576  1.00  0.00    -0.330 C  
HETATM    7  C   UNL     1     -12.305  13.048  71.009  1.00  0.00    -0.335 C  
HETATM    8  C   UNL     1     -11.223  10.174  70.383  1.00  0.00    -0.402 C  
HETATM    9  C   UNL     1     -12.580  10.728  69.966  1.00  0.00    -0.247 C  
HETATM   10  C   UNL     1     -12.628  12.254  69.720  1.00  0.00     0.246 C  
BRANCH   7  11
HETATM   11  C   UNL     1     -12.504  14.561  70.848  1.00  0.00    -0.415 C  
BRANCH  11  12
HETATM   12  C   UNL     1     -13.817  15.043  71.461  1.00  0.00    -0.570 C  
HETATM   13  C   UNL     1     -13.606  15.490  72.901  1.00  0.00    -0.633 C  
ENDBRANCH  11  12
ENDBRANCH   7  11
ENDBRANCH   5   6
ENDBRANCH   3   5
ENDBRANCH   1   3
BRANCH   2  14
HETATM   14  C   UNL     1      -9.726  15.879  66.115  1.00  0.00    -0.351 A  
HETATM   15  C   UNL     1      -8.392  18.204  66.942  1.00  0.00    -0.245 A  
HETATM   16  C   UNL     1     -10.325  17.129  65.955  1.00  0.00    -0.317 A  
HETATM   17  C   UNL     1      -8.451  15.792  66.681  1.00  0.00    -0.323 A  
HETATM   18  C   UNL     1      -9.660  18.290  66.367  1.00  0.00    -0.307 A  
HETATM   19  C   UNL     1      -7.795  16.951  67.101  1.00  0.00    -0.207 A  
BRANCH  15  20
HETATM   20  O   UNL     1      -7.674  19.257  67.437  1.00  0.00    -0.243 OA 
HETATM   21  C   UNL     1      -6.758  18.955  68.482  1.00  0.00    -0.255 C  
ENDBRANCH  15  20
ENDBRANCH   2  14
TORSDOF 7
ENDMDL
MODEL       54
REMARK 921   NORMALIZED FREE ENERGY PREDICTED BY IDOCK:   -4.86 KCAL/MOL
REMARK 922        TOTAL FREE ENERGY PREDICTED BY IDOCK:   -7.97 KCAL/MOL
REMARK 923 INTER-LIGAND FREE ENERGY PREDICTED BY IDOCK:   -7.12 KCAL/MOL
REMARK 924 INTRA-LIGAND FREE ENERGY PREDICTED BY IDOCK:   -0.85 KCAL/MOL
REMARK 927      BINDING AFFINITY PREDICTED BY RF-SCORE:    0.00 PKD
ROOT
HETATM    1  C   UNL     1     -13.181  10.094  71.172  1.00  0.00    -0.438 C  
HETATM    2  C   UNL     1     -13.157  11.296  71.770  1.00  0.00    -0.527 C  
ENDROOT
BRANCH   1   3
HETATM    3  C   UNL     1     -13.701   8.870  71.824  1.00  0.00    -0.422 C  
HETATM    4  O   UNL     1     -14.406   8.915  72.821  1.00  0.00    -0.600 OA 
BRANCH   3   5
HETATM    5  O   UNL     1     -13.143   7.763  71.283  1.00  0.00    -0.291 OA 
BRANCH   5   6
HETATM    6  C   UNL     1     -11.817   7.508  71.751  1.00  0.00    -0.294 C  
HETATM    7  C   UNL     1      -9.679   6.169  71.562  1.00  0.00    -0.182 C  
HETATM    8  C   UNL     1     -10.405   7.747  68.952  1.00  0.00    -0.224 C  
HETATM    9  C   UNL     1     -11.132   6.518  69.485  1.00  0.00    -0.425 C  
HETATM   10  C   UNL     1     -11.118   6.352  71.022  1.00  0.00    -0.349 C  
BRANCH   7  11
HETATM   11  C   UNL     1      -9.636   5.836  73.059  1.00  0.00    -0.157 C  
BRANCH  11  12
HETATM   12  C   UNL     1      -8.779   6.821  73.850  1.00  0.00    -0.168 C  
HETATM   13  C   UNL     1      -8.354   7.989  72.971  1.00  0.00    -0.243 C  
ENDBRANCH  11  12
ENDBRANCH   7  11
ENDBRANCH   5   6
ENDBRANCH   3   5
ENDBRANCH   1   3
BRANCH   2  14
HETATM   14  C   UNL     1     -12.777  12.494  71.030  1.00  0.00    -0.316 A  
HETATM   15  C   UNL     1     -11.982  14.802  69.646  1.00  0.00    -0.316 A  
HETATM   16  C   UNL     1     -13.095  13.759  71.527  1.00  0.00    -0.435 A  
HETATM   17  C   UNL     1     -12.066  12.384  69.831  1.00  0.00    -0.317 A  
HETATM   18  C   UNL     1     -12.700  14.911  70.837  1.00  0.00    -0.420 A  
HETATM   19  C   UNL     1     -11.664  13.534  69.151  1.00  0.00    -0.374 A  
BRANCH  15  20
HETATM   20  O   UNL     1     -11.489  15.849  68.919  1.00  0.00    -0.348 OA 
HETATM   21  C   UNL     1     -10.586  15.517  67.873  1.00  0.00    -0.274 C  
ENDBRANCH  15  20
ENDBRANCH   2  14
TORSDOF 7
ENDMDL
MODEL       55
REMARK 921   NORMALIZED FREE ENERGY PREDICTED BY IDOCK:   -4.85 KCAL/MOL
REMARK 922        TOTAL FREE ENERGY PREDICTED BY IDOCK:   -7.96 KCAL/MOL
REMARK 923 INTER-LIGAND FREE ENERGY PREDICTED BY IDOCK:   -6.86 KCAL/MOL
REMARK 924 INTRA-LIGAND FREE ENERGY PREDICTED BY IDOCK:   -1.10 KCAL/MOL
REMARK 927      BINDING AFFINITY PREDICTED BY RF-SCORE:    0.00 PKD
ROOT
HETATM    1  C   UNL     1     -11.681   9.217  71.786  1.00  0.00    -0.456 C  
HETATM    2  C   UNL     1     -12.765   9.878  71.350  1.00  0.00    -0.503 C  
ENDROOT
BRANCH   1   3
HETATM    3  C   UNL     1     -11.613   7.741  71.884  1.00  0.00    -0.287 C  
HETATM    4  O   UNL     1     -11.145   7.176  72.863  1.00  0.00    -0.292 OA 
BRANCH   3   5
HETATM    5  O   UNL     1     -11.952   7.164  70.709  1.00  0.00    -0.332 OA 
BRANCH   5   6
HETATM    6  C   UNL     1     -10.876   6.452  70.093  1.00  0.00    -0.296 C  
HETATM    7  C   UNL     1      -9.468   6.019  68.037  1.00  0.00    -0.113 C  
HETATM    8  C   UNL     1      -9.333   8.983  69.047  1.00  0.00    -0.140 C  
HETATM    9  C   UNL     1     -10.529   8.324  68.372  1.00  0.00    -0.206 C  
HETATM   10  C   UNL     1     -10.673   6.803  68.613  1.00  0.00    -0.279 C  
BRANCH   7  11
HETATM   11  C   UNL     1      -9.652   4.497  68.108  1.00  0.00    -0.203 C  
BRANCH  11  12
HETATM   12  C   UNL     1      -9.556   3.836  66.735  1.00  0.00    -0.205 C  
HETATM   13  C   UNL     1      -9.262   4.872  65.659  1.00  0.00    -0.159 C  
ENDBRANCH  11  12
ENDBRANCH   7  11
ENDBRANCH   5   6
ENDBRANCH   3   5
ENDBRANCH   1   3
BRANCH   2  14
HETATM   14  C   UNL     1     -12.725  11.320  71.128  1.00  0.00    -0.492 A  
HETATM   15  C   UNL     1     -12.586  14.096  70.743  1.00  0.00    -0.362 A  
HETATM   16  C   UNL     1     -13.355  12.188  72.022  1.00  0.00    -0.470 A  
HETATM   17  C   UNL     1     -12.032  11.843  70.032  1.00  0.00    -0.409 A  
HETATM   18  C   UNL     1     -13.286  13.572  71.830  1.00  0.00    -0.529 A  
HETATM   19  C   UNL     1     -11.956  13.225  69.850  1.00  0.00    -0.400 A  
BRANCH  15  20
HETATM   20  O   UNL     1     -12.397  15.425  70.488  1.00  0.00    -0.353 OA 
HETATM   21  C   UNL     1     -11.048  15.872  70.453  1.00  0.00    -0.370 C  
ENDBRANCH  15  20
ENDBRANCH   2  14
TORSDOF 7
ENDMDL
MODEL       56
REMARK 921   NORMALIZED FREE ENERGY PREDICTED BY IDOCK:   -4.83 KCAL/MOL
REMARK 922        TOTAL FREE ENERGY PREDICTED BY IDOCK:   -7.93 KCAL/MOL
REMARK 923 INTER-LIGAND FREE ENERGY PREDICTED BY IDOCK:   -7.06 KCAL/MOL
REMARK 924 INTRA-LIGAND FREE ENERGY PREDICTED BY IDOCK:   -0.87 KCAL/MOL
REMARK 927      BINDING AFFINITY PREDICTED BY RF-SCORE:    0.00 PKD
ROOT
HETATM    1  C   UNL     1     -10.634   8.097  67.698  1.00  0.00    -0.258 C  
HETATM    2  C   UNL     1      -9.790   8.563  66.763  1.00  0.00    -0.327 C  
ENDROOT
BRANCH   1   3
HETATM    3  C   UNL     1     -10.358   6.893  68.515  1.00  0.00    -0.186 C  
HETATM    4  O   UNL     1     -10.710   5.775  68.166  1.00  0.00    -0.240 OA 
BRANCH   3   5
HETATM    5  O   UNL     1      -9.857   7.237  69.724  1.00  0.00    -0.175 OA 
BRANCH   5   6
HETATM    6  C   UNL     1     -10.324   8.503  70.194  1.00  0.00    -0.207 C  
HETATM    7  C   UNL     1     -12.120   9.846  71.364  1.00  0.00    -0.501 C  
HETATM    8  C   UNL     1     -10.869   7.598  73.155  1.00  0.00    -0.440 C  
HETATM    9  C   UNL     1     -11.799   7.380  71.968  1.00  0.00    -0.335 C  
HETATM   10  C   UNL     1     -11.710   8.445  70.849  1.00  0.00    -0.269 C  
BRANCH   7  11
HETATM   11  C   UNL     1     -12.205  10.895  70.247  1.00  0.00    -0.432 C  
BRANCH  11  12
HETATM   12  C   UNL     1     -12.287  12.319  70.792  1.00  0.00    -0.383 C  
HETATM   13  C   UNL     1     -13.177  12.371  72.027  1.00  0.00    -0.514 C  
ENDBRANCH  11  12
ENDBRANCH   7  11
ENDBRANCH   5   6
ENDBRANCH   3   5
ENDBRANCH   1   3
BRANCH   2  14
HETATM   14  C   UNL     1     -10.041   9.837  66.096  1.00  0.00    -0.315 A  
HETATM   15  C   UNL     1     -10.589  12.259  64.790  1.00  0.00    -0.297 A  
HETATM   16  C   UNL     1      -9.685  10.012  64.757  1.00  0.00    -0.363 A  
HETATM   17  C   UNL     1     -10.664  10.880  66.786  1.00  0.00    -0.309 A  
HETATM   18  C   UNL     1      -9.957  11.220  64.106  1.00  0.00    -0.350 A  
HETATM   19  C   UNL     1     -10.944  12.080  66.130  1.00  0.00    -0.343 A  
BRANCH  15  20
HETATM   20  O   UNL     1     -10.962  13.456  64.246  1.00  0.00    -0.382 OA 
HETATM   21  C   UNL     1     -12.106  14.076  64.817  1.00  0.00    -0.437 C  
ENDBRANCH  15  20
ENDBRANCH   2  14
TORSDOF 7
ENDMDL
MODEL       57
REMARK 921   NORMALIZED FREE ENERGY PREDICTED BY IDOCK:   -4.82 KCAL/MOL
REMARK 922        TOTAL FREE ENERGY PREDICTED BY IDOCK:   -7.92 KCAL/MOL
REMARK 923 INTER-LIGAND FREE ENERGY PREDICTED BY IDOCK:   -7.06 KCAL/MOL
REMARK 924 INTRA-LIGAND FREE ENERGY PREDICTED BY IDOCK:   -0.86 KCAL/MOL
REMARK 927      BINDING AFFINITY PREDICTED BY RF-SCORE:    0.00 PKD
ROOT
HETATM    1  C   UNL     1     -11.460  12.111  64.321  1.00  0.00    -0.437 C  
HETATM    2  C   UNL     1     -10.481  11.859  63.437  1.00  0.00    -0.487 C  
ENDROOT
BRANCH   1   3
HETATM    3  C   UNL     1     -12.398  13.250  64.194  1.00  0.00    -0.341 C  
HETATM    4  O   UNL     1     -12.613  13.799  63.123  1.00  0.00    -0.793 OA 
BRANCH   3   5
HETATM    5  O   UNL     1     -12.801  13.678  65.412  1.00  0.00    -0.634 OA 
BRANCH   5   6
HETATM    6  C   UNL     1     -11.851  14.528  66.059  1.00  0.00    -0.334 C  
HETATM    7  C   UNL     1     -10.740  15.292  68.199  1.00  0.00    -0.257 C  
HETATM    8  C   UNL     1     -10.322  12.246  67.587  1.00  0.00    -0.214 C  
HETATM    9  C   UNL     1     -11.627  12.897  68.027  1.00  0.00    -0.385 C  
HETATM   10  C   UNL     1     -11.818  14.367  67.585  1.00  0.00    -0.412 C  
BRANCH   7  11
HETATM   11  C   UNL     1     -10.993  16.779  67.920  1.00  0.00    -0.260 C  
BRANCH  11  12
HETATM   12  C   UNL     1      -9.832  17.661  68.373  1.00  0.00    -0.334 C  
HETATM   13  C   UNL     1     -10.264  19.119  68.451  1.00  0.00    -0.473 C  
ENDBRANCH  11  12
ENDBRANCH   7  11
ENDBRANCH   5   6
ENDBRANCH   3   5
ENDBRANCH   1   3
BRANCH   2  14
HETATM   14  C   UNL     1      -9.686  10.638  63.526  1.00  0.00    -0.389 A  
HETATM   15  C   UNL     1      -8.221   8.252  63.698  1.00  0.00    -0.082 A  
HETATM   16  C   UNL     1      -9.376  10.090  64.772  1.00  0.00    -0.330 A  
HETATM   17  C   UNL     1      -9.253   9.995  62.363  1.00  0.00    -0.319 A  
HETATM   18  C   UNL     1      -8.645   8.900  64.859  1.00  0.00    -0.198 A  
HETATM   19  C   UNL     1      -8.533   8.802  62.453  1.00  0.00    -0.204 A  
BRANCH  15  20
HETATM   20  O   UNL     1      -7.559   7.057  63.655  1.00  0.00    -0.092 OA 
HETATM   21  C   UNL     1      -7.699   6.304  62.457  1.00  0.00    -0.088 C  
ENDBRANCH  15  20
ENDBRANCH   2  14
TORSDOF 7
ENDMDL
MODEL       58
REMARK 921   NORMALIZED FREE ENERGY PREDICTED BY IDOCK:   -4.82 KCAL/MOL
REMARK 922        TOTAL FREE ENERGY PREDICTED BY IDOCK:   -7.91 KCAL/MOL
REMARK 923 INTER-LIGAND FREE ENERGY PREDICTED BY IDOCK:   -6.80 KCAL/MOL
REMARK 924 INTRA-LIGAND FREE ENERGY PREDICTED BY IDOCK:   -1.12 KCAL/MOL
REMARK 927      BINDING AFFINITY PREDICTED BY RF-SCORE:    0.00 PKD
ROOT
HETATM    1  C   UNL     1     -10.201  11.159  66.307  1.00  0.00    -0.286 C  
HETATM    2  C   UNL     1     -11.383  11.778  66.463  1.00  0.00    -0.370 C  
ENDROOT
BRANCH   1   3
HETATM    3  C   UNL     1      -9.928  10.186  65.225  1.00  0.00    -0.311 C  
HETATM    4  O   UNL     1      -9.897  10.515  64.047  1.00  0.00    -0.302 OA 
BRANCH   3   5
HETATM    5  O   UNL     1      -9.913   8.923  65.707  1.00  0.00    -0.188 OA 
BRANCH   5   6
HETATM    6  C   UNL     1      -9.669   8.853  67.114  1.00  0.00    -0.184 C  
HETATM    7  C   UNL     1     -10.369   7.998  69.389  1.00  0.00    -0.217 C  
HETATM    8  C   UNL     1      -9.752   5.718  67.328  1.00  0.00    -0.140 C  
HETATM    9  C   UNL     1     -10.962   6.644  67.300  1.00  0.00    -0.456 C  
HETATM   10  C   UNL     1     -10.730   8.057  67.885  1.00  0.00    -0.139 C  
BRANCH   7  11
HETATM   11  C   UNL     1     -10.296   9.384  70.044  1.00  0.00    -0.265 C  
BRANCH  11  12
HETATM   12  C   UNL     1     -11.048   9.440  71.371  1.00  0.00    -0.450 C  
HETATM   13  C   UNL     1     -12.476   9.925  71.159  1.00  0.00    -0.464 C  
ENDBRANCH  11  12
ENDBRANCH   7  11
ENDBRANCH   5   6
ENDBRANCH   3   5
ENDBRANCH   1   3
BRANCH   2  14
HETATM   14  C   UNL     1     -11.550  12.839  67.451  1.00  0.00    -0.415 A  
HETATM   15  C   UNL     1     -11.944  14.876  69.338  1.00  0.00    -0.301 A  
HETATM   16  C   UNL     1     -11.571  14.176  67.050  1.00  0.00    -0.404 A  
HETATM   17  C   UNL     1     -11.716  12.521  68.802  1.00  0.00    -0.371 A  
HETATM   18  C   UNL     1     -11.768  15.193  67.991  1.00  0.00    -0.304 A  
HETATM   19  C   UNL     1     -11.923  13.537  69.736  1.00  0.00    -0.405 A  
BRANCH  15  20
HETATM   20  O   UNL     1     -12.206  15.774  70.336  1.00  0.00    -0.392 OA 
HETATM   21  C   UNL     1     -13.004  15.301  71.413  1.00  0.00    -0.431 C  
ENDBRANCH  15  20
ENDBRANCH   2  14
TORSDOF 7
ENDMDL
MODEL       59
REMARK 921   NORMALIZED FREE ENERGY PREDICTED BY IDOCK:   -4.82 KCAL/MOL
REMARK 922        TOTAL FREE ENERGY PREDICTED BY IDOCK:   -7.91 KCAL/MOL
REMARK 923 INTER-LIGAND FREE ENERGY PREDICTED BY IDOCK:   -7.44 KCAL/MOL
REMARK 924 INTRA-LIGAND FREE ENERGY PREDICTED BY IDOCK:   -0.47 KCAL/MOL
REMARK 927      BINDING AFFINITY PREDICTED BY RF-SCORE:    0.00 PKD
ROOT
HETATM    1  C   UNL     1     -10.504  12.918  68.245  1.00  0.00    -0.250 C  
HETATM    2  C   UNL     1     -11.649  13.577  68.483  1.00  0.00    -0.368 C  
ENDROOT
BRANCH   1   3
HETATM    3  C   UNL     1     -10.187  12.277  66.948  1.00  0.00    -0.213 C  
HETATM    4  O   UNL     1     -10.315  11.075  66.768  1.00  0.00    -0.220 OA 
BRANCH   3   5
HETATM    5  O   UNL     1      -9.588  13.155  66.112  1.00  0.00    -0.262 OA 
BRANCH   5   6
HETATM    6  C   UNL     1     -10.032  14.503  66.288  1.00  0.00    -0.305 C  
HETATM    7  C   UNL     1     -11.114  16.567  65.307  1.00  0.00    -0.080 C  
HETATM    8  C   UNL     1     -12.970  14.041  65.270  1.00  0.00    -0.315 C  
HETATM    9  C   UNL     1     -11.744  14.262  64.392  1.00  0.00    -0.405 C  
HETATM   10  C   UNL     1     -10.626  15.127  65.019  1.00  0.00    -0.439 C  
BRANCH   7  11
HETATM   11  C   UNL     1      -9.990  17.502  65.773  1.00  0.00    -0.060 C  
BRANCH  11  12
HETATM   12  C   UNL     1     -10.493  18.911  66.074  1.00  0.00    -0.507 C  
HETATM   13  C   UNL     1     -10.673  19.109  67.573  1.00  0.00    -0.555 C  
ENDBRANCH  11  12
ENDBRANCH   7  11
ENDBRANCH   5   6
ENDBRANCH   3   5
ENDBRANCH   1   3
BRANCH   2  14
HETATM   14  C   UNL     1     -11.844  14.318  69.725  1.00  0.00    -0.380 A  
HETATM   15  C   UNL     1     -12.155  15.711  72.140  1.00  0.00    -0.448 A  
HETATM   16  C   UNL     1     -12.555  13.747  70.782  1.00  0.00    -0.410 A  
HETATM   17  C   UNL     1     -11.295  15.595  69.874  1.00  0.00    -0.340 A  
HETATM   18  C   UNL     1     -12.711  14.441  71.987  1.00  0.00    -0.403 A  
HETATM   19  C   UNL     1     -11.443  16.281  71.081  1.00  0.00    -0.364 A  
BRANCH  15  20
HETATM   20  O   UNL     1     -12.186  16.457  73.285  1.00  0.00    -0.496 OA 
HETATM   21  C   UNL     1     -12.395  15.741  74.496  1.00  0.00    -0.621 C  
ENDBRANCH  15  20
ENDBRANCH   2  14
TORSDOF 7
ENDMDL
MODEL       60
REMARK 921   NORMALIZED FREE ENERGY PREDICTED BY IDOCK:   -4.82 KCAL/MOL
REMARK 922        TOTAL FREE ENERGY PREDICTED BY IDOCK:   -7.91 KCAL/MOL
REMARK 923 INTER-LIGAND FREE ENERGY PREDICTED BY IDOCK:   -7.12 KCAL/MOL
REMARK 924 INTRA-LIGAND FREE ENERGY PREDICTED BY IDOCK:   -0.79 KCAL/MOL
REMARK 927      BINDING AFFINITY PREDICTED BY RF-SCORE:    0.00 PKD
ROOT
HETATM    1  C   UNL     1     -11.511  12.867  68.162  1.00  0.00    -0.354 C  
HETATM    2  C   UNL     1     -12.147  12.452  69.270  1.00  0.00    -0.218 C  
ENDROOT
BRANCH   1   3
HETATM    3  C   UNL     1     -11.306  12.011  66.971  1.00  0.00    -0.336 C  
HETATM    4  O   UNL     1     -12.134  11.936  66.074  1.00  0.00    -0.500 OA 
BRANCH   3   5
HETATM    5  O   UNL     1     -10.214  11.229  67.124  1.00  0.00    -0.192 OA 
BRANCH   5   6
HETATM    6  C   UNL     1     -10.522   9.840  67.263  1.00  0.00    -0.261 C  
HETATM    7  C   UNL     1      -9.928   7.581  68.232  1.00  0.00    -0.193 C  
HETATM    8  C   UNL     1     -10.449   9.779  70.405  1.00  0.00    -0.358 C  
HETATM    9  C   UNL     1      -9.240   9.706  69.481  1.00  0.00    -0.214 C  
HETATM   10  C   UNL     1      -9.498   9.062  68.099  1.00  0.00    -0.155 C  
BRANCH   7  11
HETATM   11  C   UNL     1     -10.031   6.861  66.881  1.00  0.00    -0.264 C  
BRANCH  11  12
HETATM   12  C   UNL     1     -10.422   5.393  67.033  1.00  0.00    -0.319 C  
HETATM   13  C   UNL     1     -10.833   4.805  65.690  1.00  0.00    -0.117 C  
ENDBRANCH  11  12
ENDBRANCH   7  11
ENDBRANCH   5   6
ENDBRANCH   3   5
ENDBRANCH   1   3
BRANCH   2  14
HETATM   14  C   UNL     1     -12.455  13.382  70.351  1.00  0.00    -0.322 A  
HETATM   15  C   UNL     1     -12.983  15.150  72.464  1.00  0.00    -0.379 A  
HETATM   16  C   UNL     1     -13.150  12.944  71.479  1.00  0.00    -0.390 A  
HETATM   17  C   UNL     1     -12.030  14.712  70.275  1.00  0.00    -0.370 A  
HETATM   18  C   UNL     1     -13.415  13.826  72.533  1.00  0.00    -0.682 A  
HETATM   19  C   UNL     1     -12.286  15.586  71.333  1.00  0.00    -0.453 A  
BRANCH  15  20
HETATM   20  O   UNL     1     -13.125  16.084  73.452  1.00  0.00    -0.537 OA 
HETATM   21  C   UNL     1     -12.243  15.964  74.561  1.00  0.00    -0.502 C  
ENDBRANCH  15  20
ENDBRANCH   2  14
TORSDOF 7
ENDMDL
MODEL       61
REMARK 921   NORMALIZED FREE ENERGY PREDICTED BY IDOCK:   -4.80 KCAL/MOL
REMARK 922        TOTAL FREE ENERGY PREDICTED BY IDOCK:   -7.89 KCAL/MOL
REMARK 923 INTER-LIGAND FREE ENERGY PREDICTED BY IDOCK:   -6.81 KCAL/MOL
REMARK 924 INTRA-LIGAND FREE ENERGY PREDICTED BY IDOCK:   -1.08 KCAL/MOL
REMARK 927      BINDING AFFINITY PREDICTED BY RF-SCORE:    0.00 PKD
ROOT
HETATM    1  C   UNL     1     -11.431  13.077  64.453  1.00  0.00    -0.409 C  
HETATM    2  C   UNL     1     -11.235  11.789  64.776  1.00  0.00    -0.333 C  
ENDROOT
BRANCH   1   3
HETATM    3  C   UNL     1     -12.410  13.949  65.141  1.00  0.00    -0.449 C  
HETATM    4  O   UNL     1     -12.774  15.017  64.669  1.00  0.00    -0.356 OA 
BRANCH   3   5
HETATM    5  O   UNL     1     -12.671  13.491  66.386  1.00  0.00    -0.257 OA 
BRANCH   5   6
HETATM    6  C   UNL     1     -12.021  14.240  67.416  1.00  0.00    -0.391 C  
HETATM    7  C   UNL     1     -11.191  14.364  69.802  1.00  0.00    -0.251 C  
HETATM    8  C   UNL     1      -9.874  12.059  68.134  1.00  0.00    -0.201 C  
HETATM    9  C   UNL     1     -11.314  12.092  68.630  1.00  0.00    -0.330 C  
HETATM   10  C   UNL     1     -11.940  13.501  68.758  1.00  0.00    -0.374 C  
BRANCH   7  11
HETATM   11  C   UNL     1     -11.881  15.706  70.079  1.00  0.00    -0.381 C  
BRANCH  11  12
HETATM   12  C   UNL     1     -12.443  15.789  71.496  1.00  0.00    -0.515 C  
HETATM   13  C   UNL     1     -13.878  15.282  71.535  1.00  0.00    -0.617 C  
ENDBRANCH  11  12
ENDBRANCH   7  11
ENDBRANCH   5   6
ENDBRANCH   3   5
ENDBRANCH   1   3
BRANCH   2  14
HETATM   14  C   UNL     1     -10.152  11.020  64.171  1.00  0.00    -0.403 A  
HETATM   15  C   UNL     1      -8.021   9.589  63.039  1.00  0.00    -0.135 A  
HETATM   16  C   UNL     1      -9.636  11.391  62.928  1.00  0.00    -0.366 A  
HETATM   17  C   UNL     1      -9.606   9.924  64.845  1.00  0.00    -0.356 A  
HETATM   18  C   UNL     1      -8.573  10.677  62.362  1.00  0.00    -0.294 A  
HETATM   19  C   UNL     1      -8.539   9.221  64.283  1.00  0.00    -0.214 A  
BRANCH  15  20
HETATM   20  O   UNL     1      -6.945   8.858  62.619  1.00  0.00    -0.095 OA 
HETATM   21  C   UNL     1      -7.127   7.449  62.563  1.00  0.00    -0.080 C  
ENDBRANCH  15  20
ENDBRANCH   2  14
TORSDOF 7
ENDMDL
MODEL       62
REMARK 921   NORMALIZED FREE ENERGY PREDICTED BY IDOCK:   -4.80 KCAL/MOL
REMARK 922        TOTAL FREE ENERGY PREDICTED BY IDOCK:   -7.88 KCAL/MOL
REMARK 923 INTER-LIGAND FREE ENERGY PREDICTED BY IDOCK:   -7.41 KCAL/MOL
REMARK 924 INTRA-LIGAND FREE ENERGY PREDICTED BY IDOCK:   -0.47 KCAL/MOL
REMARK 927      BINDING AFFINITY PREDICTED BY RF-SCORE:    0.00 PKD
ROOT
HETATM    1  C   UNL     1     -11.719  10.603  69.151  1.00  0.00    -0.324 C  
HETATM    2  C   UNL     1     -11.700  10.347  70.469  1.00  0.00    -0.434 C  
ENDROOT
BRANCH   1   3
HETATM    3  C   UNL     1     -11.843  11.967  68.588  1.00  0.00    -0.308 C  
HETATM    4  O   UNL     1     -11.962  12.955  69.299  1.00  0.00    -0.296 OA 
BRANCH   3   5
HETATM    5  O   UNL     1     -11.989  11.921  67.245  1.00  0.00    -0.605 OA 
BRANCH   5   6
HETATM    6  C   UNL     1     -11.872  13.199  66.615  1.00  0.00    -0.391 C  
HETATM    7  C   UNL     1     -10.715  14.675  64.918  1.00  0.00    -0.447 C  
HETATM    8  C   UNL     1     -12.093  12.156  63.658  1.00  0.00    -0.648 C  
HETATM    9  C   UNL     1     -10.834  12.150  64.517  1.00  0.00    -0.356 C  
HETATM   10  C   UNL     1     -10.746  13.274  65.576  1.00  0.00    -0.299 C  
BRANCH   7  11
HETATM   11  C   UNL     1     -10.461  15.806  65.923  1.00  0.00    -0.366 C  
BRANCH  11  12
HETATM   12  C   UNL     1     -10.630  17.188  65.297  1.00  0.00    -0.057 C  
HETATM   13  C   UNL     1     -10.170  18.274  66.260  1.00  0.00    -0.414 C  
ENDBRANCH  11  12
ENDBRANCH   7  11
ENDBRANCH   5   6
ENDBRANCH   3   5
ENDBRANCH   1   3
BRANCH   2  14
HETATM   14  C   UNL     1     -11.422   9.004  70.969  1.00  0.00    -0.358 A  
HETATM   15  C   UNL     1     -10.961   6.405  71.917  1.00  0.00    -0.253 A  
HETATM   16  C   UNL     1     -11.597   8.706  72.321  1.00  0.00    -0.424 A  
HETATM   17  C   UNL     1     -11.005   8.001  70.089  1.00  0.00    -0.226 A  
HETATM   18  C   UNL     1     -11.367   7.410  72.795  1.00  0.00    -0.356 A  
HETATM   19  C   UNL     1     -10.787   6.706  70.563  1.00  0.00    -0.310 A  
BRANCH  15  20
HETATM   20  O   UNL     1     -10.766   5.093  72.249  1.00  0.00    -0.217 OA 
HETATM   21  C   UNL     1     -11.033   4.741  73.600  1.00  0.00    -0.318 C  
ENDBRANCH  15  20
ENDBRANCH   2  14
TORSDOF 7
ENDMDL
MODEL       63
REMARK 921   NORMALIZED FREE ENERGY PREDICTED BY IDOCK:   -4.79 KCAL/MOL
REMARK 922        TOTAL FREE ENERGY PREDICTED BY IDOCK:   -7.87 KCAL/MOL
REMARK 923 INTER-LIGAND FREE ENERGY PREDICTED BY IDOCK:   -6.75 KCAL/MOL
REMARK 924 INTRA-LIGAND FREE ENERGY PREDICTED BY IDOCK:   -1.12 KCAL/MOL
REMARK 927      BINDING AFFINITY PREDICTED BY RF-SCORE:    0.00 PKD
ROOT
HETATM    1  C   UNL     1     -11.972  13.792  65.743  1.00  0.00    -0.423 C  
HETATM    2  C   UNL     1     -11.008  14.685  65.468  1.00  0.00    -0.344 C  
ENDROOT
BRANCH   1   3
HETATM    3  C   UNL     1     -12.160  12.537  64.980  1.00  0.00    -0.446 C  
HETATM    4  O   UNL     1     -13.228  12.245  64.461  1.00  0.00    -0.799 OA 
BRANCH   3   5
HETATM    5  O   UNL     1     -11.083  11.729  65.110  1.00  0.00    -0.308 OA 
BRANCH   5   6
HETATM    6  C   UNL     1     -11.015  11.070  66.376  1.00  0.00    -0.137 C  
HETATM    7  C   UNL     1      -9.632   9.844  68.103  1.00  0.00    -0.153 C  
HETATM    8  C   UNL     1      -8.618  12.752  67.519  1.00  0.00    -0.187 C  
HETATM    9  C   UNL     1      -8.504  11.560  66.576  1.00  0.00    -0.160 C  
HETATM   10  C   UNL     1      -9.627  10.503  66.703  1.00  0.00    -0.210 C  
BRANCH   7  11
HETATM   11  C   UNL     1     -10.621   8.675  68.214  1.00  0.00    -0.181 C  
BRANCH  11  12
HETATM   12  C   UNL     1     -10.255   7.515  67.291  1.00  0.00    -0.337 C  
HETATM   13  C   UNL     1     -11.160   6.318  67.549  1.00  0.00    -0.379 C  
ENDBRANCH  11  12
ENDBRANCH   7  11
ENDBRANCH   5   6
ENDBRANCH   3   5
ENDBRANCH   1   3
BRANCH   2  14
HETATM   14  C   UNL     1     -10.772  15.828  66.344  1.00  0.00    -0.277 A  
HETATM   15  C   UNL     1     -10.246  18.001  68.039  1.00  0.00    -0.382 A  
HETATM   16  C   UNL     1     -10.939  15.702  67.725  1.00  0.00    -0.316 A  
HETATM   17  C   UNL     1     -10.349  17.048  65.809  1.00  0.00    -0.275 A  
HETATM   18  C   UNL     1     -10.678  16.786  68.570  1.00  0.00    -0.358 A  
HETATM   19  C   UNL     1     -10.078  18.124  66.657  1.00  0.00    -0.376 A  
BRANCH  15  20
HETATM   20  O   UNL     1      -9.900  19.106  68.765  1.00  0.00    -0.400 OA 
HETATM   21  C   UNL     1      -8.527  19.471  68.738  1.00  0.00    -0.302 C  
ENDBRANCH  15  20
ENDBRANCH   2  14
TORSDOF 7
ENDMDL
MODEL       64
REMARK 921   NORMALIZED FREE ENERGY PREDICTED BY IDOCK:   -4.77 KCAL/MOL
REMARK 922        TOTAL FREE ENERGY PREDICTED BY IDOCK:   -7.84 KCAL/MOL
REMARK 923 INTER-LIGAND FREE ENERGY PREDICTED BY IDOCK:   -7.02 KCAL/MOL
REMARK 924 INTRA-LIGAND FREE ENERGY PREDICTED BY IDOCK:   -0.82 KCAL/MOL
REMARK 927      BINDING AFFINITY PREDICTED BY RF-SCORE:    0.00 PKD
ROOT
HETATM    1  C   UNL     1     -12.166   9.647  71.564  1.00  0.00    -0.483 C  
HETATM    2  C   UNL     1     -13.037  10.614  71.894  1.00  0.00    -0.563 C  
ENDROOT
BRANCH   1   3
HETATM    3  C   UNL     1     -12.375   8.218  71.892  1.00  0.00    -0.338 C  
HETATM    4  O   UNL     1     -13.149   7.512  71.261  1.00  0.00    -0.328 OA 
BRANCH   3   5
HETATM    5  O   UNL     1     -11.755   7.895  73.050  1.00  0.00    -0.305 OA 
BRANCH   5   6
HETATM    6  C   UNL     1     -10.996   6.686  72.971  1.00  0.00    -0.247 C  
HETATM    7  C   UNL     1      -8.901   5.497  72.201  1.00  0.00    -0.131 C  
HETATM    8  C   UNL     1      -8.344   7.859  74.185  1.00  0.00    -0.312 C  
HETATM    9  C   UNL     1      -8.802   7.997  72.738  1.00  0.00    -0.277 C  
HETATM   10  C   UNL     1      -9.675   6.837  72.205  1.00  0.00    -0.156 C  
BRANCH   7  11
HETATM   11  C   UNL     1      -9.674   4.357  71.525  1.00  0.00    -0.244 C  
BRANCH  11  12
HETATM   12  C   UNL     1      -9.851   3.150  72.443  1.00  0.00    -0.227 C  
HETATM   13  C   UNL     1      -9.352   3.465  73.847  1.00  0.00    -0.112 C  
ENDBRANCH  11  12
ENDBRANCH   7  11
ENDBRANCH   5   6
ENDBRANCH   3   5
ENDBRANCH   1   3
BRANCH   2  14
HETATM   14  C   UNL     1     -12.857  11.980  71.413  1.00  0.00    -0.391 A  
HETATM   15  C   UNL     1     -12.448  14.612  70.531  1.00  0.00    -0.347 A  
HETATM   16  C   UNL     1     -13.394  13.054  72.126  1.00  0.00    -0.622 A  
HETATM   17  C   UNL     1     -12.121  12.224  70.250  1.00  0.00    -0.376 A  
HETATM   18  C   UNL     1     -13.191  14.367  71.686  1.00  0.00    -0.425 A  
HETATM   19  C   UNL     1     -11.911  13.536  69.820  1.00  0.00    -0.405 A  
BRANCH  15  20
HETATM   20  O   UNL     1     -12.131  15.848  70.040  1.00  0.00    -0.336 OA 
HETATM   21  C   UNL     1     -11.443  15.871  68.796  1.00  0.00    -0.393 C  
ENDBRANCH  15  20
ENDBRANCH   2  14
TORSDOF 7
ENDMDL
MODEL       65
REMARK 921   NORMALIZED FREE ENERGY PREDICTED BY IDOCK:   -4.75 KCAL/MOL
REMARK 922        TOTAL FREE ENERGY PREDICTED BY IDOCK:   -7.82 KCAL/MOL
REMARK 923 INTER-LIGAND FREE ENERGY PREDICTED BY IDOCK:   -7.34 KCAL/MOL
REMARK 924 INTRA-LIGAND FREE ENERGY PREDICTED BY IDOCK:   -0.48 KCAL/MOL
REMARK 927      BINDING AFFINITY PREDICTED BY RF-SCORE:    0.00 PKD
ROOT
HETATM    1  C   UNL     1     -11.482  12.764  68.659  1.00  0.00    -0.341 C  
HETATM    2  C   UNL     1     -11.588  13.429  67.497  1.00  0.00    -0.382 C  
ENDROOT
BRANCH   1   3
HETATM    3  C   UNL     1     -11.827  11.332  68.811  1.00  0.00    -0.329 C  
HETATM    4  O   UNL     1     -12.026  10.605  67.848  1.00  0.00    -0.420 OA 
BRANCH   3   5
HETATM    5  O   UNL     1     -12.061  11.030  70.108  1.00  0.00    -0.297 OA 
BRANCH   5   6
HETATM    6  C   UNL     1     -11.590   9.733  70.484  1.00  0.00    -0.292 C  
HETATM    7  C   UNL     1     -11.408   7.927  72.245  1.00  0.00    -0.393 C  
HETATM    8  C   UNL     1     -14.363   8.625  71.466  1.00  0.00    -0.402 C  
HETATM    9  C   UNL     1     -13.419   9.510  72.270  1.00  0.00    -0.521 C  
HETATM   10  C   UNL     1     -11.917   9.356  71.935  1.00  0.00    -0.416 C  
BRANCH   7  11
HETATM   11  C   UNL     1      -9.889   7.782  72.084  1.00  0.00    -0.242 C  
BRANCH  11  12
HETATM   12  C   UNL     1      -9.134   8.121  73.366  1.00  0.00    -0.309 C  
HETATM   13  C   UNL     1      -9.222   6.973  74.362  1.00  0.00    -0.238 C  
ENDBRANCH  11  12
ENDBRANCH   7  11
ENDBRANCH   5   6
ENDBRANCH   3   5
ENDBRANCH   1   3
BRANCH   2  14
HETATM   14  C   UNL     1     -11.090  14.795  67.367  1.00  0.00    -0.327 A  
HETATM   15  C   UNL     1     -10.065  17.396  67.135  1.00  0.00    -0.307 A  
HETATM   16  C   UNL     1     -11.050  15.638  68.479  1.00  0.00    -0.322 A  
HETATM   17  C   UNL     1     -10.625  15.259  66.133  1.00  0.00    -0.318 A  
HETATM   18  C   UNL     1     -10.539  16.936  68.364  1.00  0.00    -0.365 A  
HETATM   19  C   UNL     1     -10.107  16.550  66.024  1.00  0.00    -0.368 A  
BRANCH  15  20
HETATM   20  O   UNL     1      -9.489  18.616  66.914  1.00  0.00    -0.283 OA 
HETATM   21  C   UNL     1     -10.349  19.744  67.011  1.00  0.00    -0.465 C  
ENDBRANCH  15  20
ENDBRANCH   2  14
TORSDOF 7
ENDMDL
MODEL       66
REMARK 921   NORMALIZED FREE ENERGY PREDICTED BY IDOCK:   -4.75 KCAL/MOL
REMARK 922        TOTAL FREE ENERGY PREDICTED BY IDOCK:   -7.81 KCAL/MOL
REMARK 923 INTER-LIGAND FREE ENERGY PREDICTED BY IDOCK:   -7.18 KCAL/MOL
REMARK 924 INTRA-LIGAND FREE ENERGY PREDICTED BY IDOCK:   -0.63 KCAL/MOL
REMARK 927      BINDING AFFINITY PREDICTED BY RF-SCORE:    0.00 PKD
ROOT
HETATM    1  C   UNL     1     -11.776  13.512  69.235  1.00  0.00    -0.382 C  
HETATM    2  C   UNL     1     -11.780  12.210  68.907  1.00  0.00    -0.381 C  
ENDROOT
BRANCH   1   3
HETATM    3  C   UNL     1     -11.908  14.602  68.241  1.00  0.00    -0.298 C  
HETATM    4  O   UNL     1     -11.941  14.385  67.038  1.00  0.00    -0.409 OA 
BRANCH   3   5
HETATM    5  O   UNL     1     -11.798  15.811  68.836  1.00  0.00    -0.393 OA 
BRANCH   5   6
HETATM    6  C   UNL     1     -10.461  16.134  69.227  1.00  0.00    -0.267 C  
HETATM    7  C   UNL     1      -8.148  16.920  68.571  1.00  0.00    -0.244 C  
HETATM    8  C   UNL     1     -10.405  19.004  67.946  1.00  0.00    -0.485 C  
HETATM    9  C   UNL     1     -10.172  17.691  67.208  1.00  0.00    -0.343 C  
HETATM   10  C   UNL     1      -9.560  16.551  68.057  1.00  0.00    -0.227 C  
BRANCH   7  11
HETATM   11  C   UNL     1      -7.442  15.754  69.276  1.00  0.00    -0.220 C  
BRANCH  11  12
HETATM   12  C   UNL     1      -5.923  15.824  69.135  1.00  0.00    -0.112 C  
HETATM   13  C   UNL     1      -5.311  16.594  70.297  1.00  0.00    -0.204 C  
ENDBRANCH  11  12
ENDBRANCH   7  11
ENDBRANCH   5   6
ENDBRANCH   3   5
ENDBRANCH   1   3
BRANCH   2  14
HETATM   14  C   UNL     1     -11.801  11.177  69.937  1.00  0.00    -0.439 A  
HETATM   15  C   UNL     1     -11.879   9.147  71.872  1.00  0.00    -0.369 A  
HETATM   16  C   UNL     1     -12.864  11.104  70.839  1.00  0.00    -0.374 A  
HETATM   17  C   UNL     1     -10.769  10.237  70.010  1.00  0.00    -0.345 A  
HETATM   18  C   UNL     1     -12.903  10.092  71.805  1.00  0.00    -0.554 A  
HETATM   19  C   UNL     1     -10.817   9.222  70.968  1.00  0.00    -0.385 A  
BRANCH  15  20
HETATM   20  O   UNL     1     -11.840   8.081  72.726  1.00  0.00    -0.372 OA 
HETATM   21  C   UNL     1     -10.553   7.696  73.191  1.00  0.00    -0.379 C  
ENDBRANCH  15  20
ENDBRANCH   2  14
TORSDOF 7
ENDMDL
MODEL       67
REMARK 921   NORMALIZED FREE ENERGY PREDICTED BY IDOCK:   -4.70 KCAL/MOL
REMARK 922        TOTAL FREE ENERGY PREDICTED BY IDOCK:   -7.75 KCAL/MOL
REMARK 923 INTER-LIGAND FREE ENERGY PREDICTED BY IDOCK:   -6.70 KCAL/MOL
REMARK 924 INTRA-LIGAND FREE ENERGY PREDICTED BY IDOCK:   -1.05 KCAL/MOL
REMARK 927      BINDING AFFINITY PREDICTED BY RF-SCORE:    0.00 PKD
ROOT
HETATM    1  C   UNL     1     -10.961  13.517  68.145  1.00  0.00    -0.275 C  
HETATM    2  C   UNL     1     -11.476  14.757  68.101  1.00  0.00    -0.343 C  
ENDROOT
BRANCH   1   3
HETATM    3  C   UNL     1     -11.790  12.291  68.149  1.00  0.00    -0.311 C  
HETATM    4  O   UNL     1     -11.967  11.629  69.163  1.00  0.00    -0.323 OA 
BRANCH   3   5
HETATM    5  O   UNL     1     -12.136  11.940  66.890  1.00  0.00    -0.599 OA 
BRANCH   5   6
HETATM    6  C   UNL     1     -11.015  11.679  66.043  1.00  0.00    -0.286 C  
HETATM    7  C   UNL     1     -10.076  11.470  63.704  1.00  0.00    -0.427 C  
HETATM    8  C   UNL     1     -11.246  14.308  64.336  1.00  0.00    -0.262 C  
HETATM    9  C   UNL     1     -12.056  13.034  64.129  1.00  0.00    -0.497 C  
HETATM   10  C   UNL     1     -11.349  11.723  64.546  1.00  0.00    -0.349 C  
BRANCH   7  11
HETATM   11  C   UNL     1      -9.439  10.100  63.973  1.00  0.00    -0.341 C  
BRANCH  11  12
HETATM   12  C   UNL     1      -7.932  10.192  64.191  1.00  0.00    -0.154 C  
HETATM   13  C   UNL     1      -7.620  10.572  65.632  1.00  0.00    -0.134 C  
ENDBRANCH  11  12
ENDBRANCH   7  11
ENDBRANCH   5   6
ENDBRANCH   3   5
ENDBRANCH   1   3
BRANCH   2  14
HETATM   14  C   UNL     1     -10.612  15.922  67.944  1.00  0.00    -0.300 A  
HETATM   15  C   UNL     1      -9.003  18.194  67.596  1.00  0.00    -0.259 A  
HETATM   16  C   UNL     1      -9.690  15.979  66.898  1.00  0.00    -0.244 A  
HETATM   17  C   UNL     1     -10.723  17.002  68.825  1.00  0.00    -0.313 A  
HETATM   18  C   UNL     1      -8.887  17.112  66.724  1.00  0.00    -0.270 A  
HETATM   19  C   UNL     1      -9.928  18.135  68.642  1.00  0.00    -0.409 A  
BRANCH  15  20
HETATM   20  O   UNL     1      -8.322  19.374  67.490  1.00  0.00    -0.280 OA 
HETATM   21  C   UNL     1      -8.209  19.919  66.182  1.00  0.00    -0.322 C  
ENDBRANCH  15  20
ENDBRANCH   2  14
TORSDOF 7
ENDMDL
MODEL       68
REMARK 921   NORMALIZED FREE ENERGY PREDICTED BY IDOCK:   -4.69 KCAL/MOL
REMARK 922        TOTAL FREE ENERGY PREDICTED BY IDOCK:   -7.74 KCAL/MOL
REMARK 923 INTER-LIGAND FREE ENERGY PREDICTED BY IDOCK:   -6.50 KCAL/MOL
REMARK 924 INTRA-LIGAND FREE ENERGY PREDICTED BY IDOCK:   -1.24 KCAL/MOL
REMARK 927      BINDING AFFINITY PREDICTED BY RF-SCORE:    0.00 PKD
ROOT
HETATM    1  C   UNL     1     -11.418  12.910  68.813  1.00  0.00    -0.345 C  
HETATM    2  C   UNL     1     -12.130  13.877  68.211  1.00  0.00    -0.322 C  
ENDROOT
BRANCH   1   3
HETATM    3  C   UNL     1     -12.013  11.646  69.301  1.00  0.00    -0.317 C  
HETATM    4  O   UNL     1     -12.222  11.441  70.489  1.00  0.00    -0.352 OA 
BRANCH   3   5
HETATM    5  O   UNL     1     -12.101  10.738  68.303  1.00  0.00    -0.496 OA 
BRANCH   5   6
HETATM    6  C   UNL     1     -11.004  10.789  67.388  1.00  0.00    -0.300 C  
HETATM    7  C   UNL     1      -8.630  10.126  66.822  1.00  0.00    -0.129 C  
HETATM    8  C   UNL     1     -10.557   7.683  67.203  1.00  0.00    -0.410 C  
HETATM    9  C   UNL     1     -10.043   8.596  68.309  1.00  0.00    -0.225 C  
HETATM   10  C   UNL     1      -9.752  10.055  67.886  1.00  0.00    -0.168 C  
BRANCH   7  11
HETATM   11  C   UNL     1      -8.198  11.562  66.499  1.00  0.00    -0.129 C  
BRANCH  11  12
HETATM   12  C   UNL     1      -7.837  12.356  67.752  1.00  0.00    -0.154 C  
HETATM   13  C   UNL     1      -7.772  13.846  67.444  1.00  0.00    -0.165 C  
ENDBRANCH  11  12
ENDBRANCH   7  11
ENDBRANCH   5   6
ENDBRANCH   3   5
ENDBRANCH   1   3
BRANCH   2  14
HETATM   14  C   UNL     1     -11.469  15.033  67.613  1.00  0.00    -0.344 A  
HETATM   15  C   UNL     1     -10.133  17.228  66.488  1.00  0.00    -0.309 A  
HETATM   16  C   UNL     1     -11.250  16.187  68.367  1.00  0.00    -0.358 A  
HETATM   17  C   UNL     1     -11.027  14.980  66.288  1.00  0.00    -0.338 A  
HETATM   18  C   UNL     1     -10.584  17.282  67.806  1.00  0.00    -0.367 A  
HETATM   19  C   UNL     1     -10.353  16.071  65.735  1.00  0.00    -0.398 A  
BRANCH  15  20
HETATM   20  O   UNL     1      -9.418  18.205  65.853  1.00  0.00    -0.518 OA 
HETATM   21  C   UNL     1      -9.257  19.426  66.564  1.00  0.00    -0.356 C  
ENDBRANCH  15  20
ENDBRANCH   2  14
TORSDOF 7
ENDMDL
MODEL       69
REMARK 921   NORMALIZED FREE ENERGY PREDICTED BY IDOCK:   -4.68 KCAL/MOL
REMARK 922        TOTAL FREE ENERGY PREDICTED BY IDOCK:   -7.72 KCAL/MOL
REMARK 923 INTER-LIGAND FREE ENERGY PREDICTED BY IDOCK:   -6.98 KCAL/MOL
REMARK 924 INTRA-LIGAND FREE ENERGY PREDICTED BY IDOCK:   -0.74 KCAL/MOL
REMARK 927      BINDING AFFINITY PREDICTED BY RF-SCORE:    0.00 PKD
ROOT
HETATM    1  C   UNL     1     -11.850  10.629  70.628  1.00  0.00    -0.463 C  
HETATM    2  C   UNL     1     -11.002   9.598  70.480  1.00  0.00    -0.374 C  
ENDROOT
BRANCH   1   3
HETATM    3  C   UNL     1     -11.909  11.775  69.693  1.00  0.00    -0.339 C  
HETATM    4  O   UNL     1     -11.858  12.934  70.081  1.00  0.00    -0.311 OA 
BRANCH   3   5
HETATM    5  O   UNL     1     -12.204  11.360  68.441  1.00  0.00    -0.571 OA 
BRANCH   5   6
HETATM    6  C   UNL     1     -11.776  12.268  67.423  1.00  0.00    -0.335 C  
HETATM    7  C   UNL     1      -9.879  13.297  66.103  1.00  0.00    -0.286 C  
HETATM    8  C   UNL     1     -10.087  10.185  65.783  1.00  0.00    -0.324 C  
HETATM    9  C   UNL     1      -9.624  10.926  67.032  1.00  0.00    -0.197 C  
HETATM   10  C   UNL     1     -10.252  12.323  67.247  1.00  0.00    -0.222 C  
BRANCH   7  11
HETATM   11  C   UNL     1     -10.344  14.736  66.364  1.00  0.00    -0.297 C  
BRANCH  11  12
HETATM   12  C   UNL     1     -10.760  15.453  65.082  1.00  0.00    -0.460 C  
HETATM   13  C   UNL     1     -12.076  14.896  64.558  1.00  0.00    -0.420 C  
ENDBRANCH  11  12
ENDBRANCH   7  11
ENDBRANCH   5   6
ENDBRANCH   3   5
ENDBRANCH   1   3
BRANCH   2  14
HETATM   14  C   UNL     1     -11.091   8.424  71.342  1.00  0.00    -0.312 A  
HETATM   15  C   UNL     1     -11.218   6.129  72.951  1.00  0.00    -0.215 A  
HETATM   16  C   UNL     1     -12.076   7.460  71.119  1.00  0.00    -0.357 A  
HETATM   17  C   UNL     1     -10.172   8.243  72.379  1.00  0.00    -0.397 A  
HETATM   18  C   UNL     1     -12.140   6.316  71.921  1.00  0.00    -0.311 A  
HETATM   19  C   UNL     1     -10.232   7.095  73.171  1.00  0.00    -0.317 A  
BRANCH  15  20
HETATM   20  O   UNL     1     -11.141   5.028  73.757  1.00  0.00    -0.308 OA 
HETATM   21  C   UNL     1     -10.809   3.803  73.116  1.00  0.00    -0.161 C  
ENDBRANCH  15  20
ENDBRANCH   2  14
TORSDOF 7
ENDMDL
MODEL       70
REMARK 921   NORMALIZED FREE ENERGY PREDICTED BY IDOCK:   -4.68 KCAL/MOL
REMARK 922        TOTAL FREE ENERGY PREDICTED BY IDOCK:   -7.72 KCAL/MOL
REMARK 923 INTER-LIGAND FREE ENERGY PREDICTED BY IDOCK:   -6.61 KCAL/MOL
REMARK 924 INTRA-LIGAND FREE ENERGY PREDICTED BY IDOCK:   -1.10 KCAL/MOL
REMARK 927      BINDING AFFINITY PREDICTED BY RF-SCORE:    0.00 PKD
ROOT
HETATM    1  C   UNL     1     -10.955   9.919  70.513  1.00  0.00    -0.391 C  
HETATM    2  C   UNL     1     -10.272  10.487  69.505  1.00  0.00    -0.230 C  
ENDROOT
BRANCH   1   3
HETATM    3  C   UNL     1     -10.327   9.055  71.537  1.00  0.00    -0.342 C  
HETATM    4  O   UNL     1      -9.165   9.204  71.890  1.00  0.00    -0.354 OA 
BRANCH   3   5
HETATM    5  O   UNL     1     -11.135   8.018  71.854  1.00  0.00    -0.250 OA 
BRANCH   5   6
HETATM    6  C   UNL     1     -11.343   7.107  70.773  1.00  0.00    -0.289 C  
HETATM    7  C   UNL     1     -10.435   5.271  69.289  1.00  0.00    -0.255 C  
HETATM    8  C   UNL     1     -10.487   4.514  72.330  1.00  0.00    -0.235 C  
HETATM    9  C   UNL     1      -9.544   5.516  71.675  1.00  0.00    -0.187 C  
HETATM   10  C   UNL     1     -10.112   6.254  70.440  1.00  0.00    -0.226 C  
BRANCH   7  11
HETATM   11  C   UNL     1     -10.843   5.979  67.990  1.00  0.00    -0.374 C  
BRANCH  11  12
HETATM   12  C   UNL     1      -9.638   6.381  67.144  1.00  0.00    -0.157 C  
HETATM   13  C   UNL     1      -9.691   7.864  66.802  1.00  0.00    -0.303 C  
ENDBRANCH  11  12
ENDBRANCH   7  11
ENDBRANCH   5   6
ENDBRANCH   3   5
ENDBRANCH   1   3
BRANCH   2  14
HETATM   14  C   UNL     1     -10.911  11.451  68.616  1.00  0.00    -0.267 A  
HETATM   15  C   UNL     1     -12.073  13.338  66.895  1.00  0.00    -0.332 A  
HETATM   16  C   UNL     1     -11.393  12.661  69.118  1.00  0.00    -0.339 A  
HETATM   17  C   UNL     1     -11.021  11.180  67.249  1.00  0.00    -0.354 A  
HETATM   18  C   UNL     1     -11.973  13.603  68.261  1.00  0.00    -0.385 A  
HETATM   19  C   UNL     1     -11.590  12.126  66.394  1.00  0.00    -0.429 A  
BRANCH  15  20
HETATM   20  O   UNL     1     -12.560  14.201  65.954  1.00  0.00    -0.486 OA 
HETATM   21  C   UNL     1     -11.864  14.238  64.715  1.00  0.00    -0.429 C  
ENDBRANCH  15  20
ENDBRANCH   2  14
TORSDOF 7
ENDMDL
MODEL       71
REMARK 921   NORMALIZED FREE ENERGY PREDICTED BY IDOCK:   -4.68 KCAL/MOL
REMARK 922        TOTAL FREE ENERGY PREDICTED BY IDOCK:   -7.71 KCAL/MOL
REMARK 923 INTER-LIGAND FREE ENERGY PREDICTED BY IDOCK:   -6.76 KCAL/MOL
REMARK 924 INTRA-LIGAND FREE ENERGY PREDICTED BY IDOCK:   -0.95 KCAL/MOL
REMARK 927      BINDING AFFINITY PREDICTED BY RF-SCORE:    0.00 PKD
ROOT
HETATM    1  C   UNL     1     -10.642  10.742  67.238  1.00  0.00    -0.304 C  
HETATM    2  C   UNL     1     -10.493   9.471  67.644  1.00  0.00    -0.321 C  
ENDROOT
BRANCH   1   3
HETATM    3  C   UNL     1     -10.569  11.157  65.818  1.00  0.00    -0.227 C  
HETATM    4  O   UNL     1     -10.281  10.372  64.926  1.00  0.00    -0.338 OA 
BRANCH   3   5
HETATM    5  O   UNL     1     -10.677  12.500  65.703  1.00  0.00    -0.256 OA 
BRANCH   5   6
HETATM    6  C   UNL     1     -11.414  13.105  66.768  1.00  0.00    -0.343 C  
HETATM    7  C   UNL     1     -11.432  14.614  68.798  1.00  0.00    -0.322 C  
HETATM    8  C   UNL     1     -10.532  16.062  66.167  1.00  0.00    -0.334 C  
HETATM    9  C   UNL     1      -9.722  15.027  66.939  1.00  0.00    -0.247 C  
HETATM   10  C   UNL     1     -10.553  13.968  67.701  1.00  0.00    -0.249 C  
BRANCH   7  11
HETATM   11  C   UNL     1     -12.144  13.583  69.684  1.00  0.00    -0.365 C  
BRANCH  11  12
HETATM   12  C   UNL     1     -12.716  14.205  70.955  1.00  0.00    -0.432 C  
HETATM   13  C   UNL     1     -13.162  13.124  71.929  1.00  0.00    -0.526 C  
ENDBRANCH  11  12
ENDBRANCH   7  11
ENDBRANCH   5   6
ENDBRANCH   3   5
ENDBRANCH   1   3
BRANCH   2  14
HETATM   14  C   UNL     1     -10.726   9.097  69.035  1.00  0.00    -0.176 A  
HETATM   15  C   UNL     1     -11.248   8.369  71.694  1.00  0.00    -0.278 A  
HETATM   16  C   UNL     1     -11.054  10.070  69.981  1.00  0.00    -0.350 A  
HETATM   17  C   UNL     1     -10.649   7.756  69.424  1.00  0.00    -0.211 A  
HETATM   18  C   UNL     1     -11.314   9.708  71.307  1.00  0.00    -0.458 A  
HETATM   19  C   UNL     1     -10.920   7.397  70.746  1.00  0.00    -0.272 A  
BRANCH  15  20
HETATM   20  O   UNL     1     -11.541   7.889  72.940  1.00  0.00    -0.383 OA 
HETATM   21  C   UNL     1     -10.492   7.203  73.611  1.00  0.00    -0.370 C  
ENDBRANCH  15  20
ENDBRANCH   2  14
TORSDOF 7
ENDMDL
MODEL       72
REMARK 921   NORMALIZED FREE ENERGY PREDICTED BY IDOCK:   -4.68 KCAL/MOL
REMARK 922        TOTAL FREE ENERGY PREDICTED BY IDOCK:   -7.71 KCAL/MOL
REMARK 923 INTER-LIGAND FREE ENERGY PREDICTED BY IDOCK:   -6.85 KCAL/MOL
REMARK 924 INTRA-LIGAND FREE ENERGY PREDICTED BY IDOCK:   -0.86 KCAL/MOL
REMARK 927      BINDING AFFINITY PREDICTED BY RF-SCORE:    0.00 PKD
ROOT
HETATM    1  C   UNL     1     -11.828  12.653  67.250  1.00  0.00    -0.395 C  
HETATM    2  C   UNL     1     -11.473  11.359  67.301  1.00  0.00    -0.301 C  
ENDROOT
BRANCH   1   3
HETATM    3  C   UNL     1     -12.166  13.356  65.991  1.00  0.00    -0.437 C  
HETATM    4  O   UNL     1     -12.466  12.753  64.970  1.00  0.00    -0.483 OA 
BRANCH   3   5
HETATM    5  O   UNL     1     -11.915  14.680  66.098  1.00  0.00    -0.338 OA 
BRANCH   5   6
HETATM    6  C   UNL     1     -10.567  14.976  66.471  1.00  0.00    -0.305 C  
HETATM    7  C   UNL     1      -8.950  16.444  67.747  1.00  0.00    -0.198 C  
HETATM    8  C   UNL     1     -11.063  15.022  69.574  1.00  0.00    -0.292 C  
HETATM    9  C   UNL     1     -11.344  16.165  68.607  1.00  0.00    -0.365 C  
HETATM   10  C   UNL     1     -10.432  16.220  67.360  1.00  0.00    -0.304 C  
BRANCH   7  11
HETATM   11  C   UNL     1      -8.039  16.670  66.534  1.00  0.00    -0.337 C  
BRANCH  11  12
HETATM   12  C   UNL     1      -7.975  18.138  66.119  1.00  0.00    -0.222 C  
HETATM   13  C   UNL     1      -6.536  18.635  66.119  1.00  0.00    -0.261 C  
ENDBRANCH  11  12
ENDBRANCH   7  11
ENDBRANCH   5   6
ENDBRANCH   3   5
ENDBRANCH   1   3
BRANCH   2  14
HETATM   14  C   UNL     1     -11.300  10.679  68.580  1.00  0.00    -0.345 A  
HETATM   15  C   UNL     1     -10.914   9.421  71.058  1.00  0.00    -0.338 A  
HETATM   16  C   UNL     1     -10.350   9.665  68.715  1.00  0.00    -0.233 A  
HETATM   17  C   UNL     1     -12.066  11.058  69.686  1.00  0.00    -0.411 A  
HETATM   18  C   UNL     1     -10.158   9.036  69.951  1.00  0.00    -0.213 A  
HETATM   19  C   UNL     1     -11.864  10.437  70.920  1.00  0.00    -0.475 A  
BRANCH  15  20
HETATM   20  O   UNL     1     -10.773   8.927  72.325  1.00  0.00    -0.320 OA 
HETATM   21  C   UNL     1     -11.693   7.913  72.709  1.00  0.00    -0.280 C  
ENDBRANCH  15  20
ENDBRANCH   2  14
TORSDOF 7
ENDMDL
MODEL       73
REMARK 921   NORMALIZED FREE ENERGY PREDICTED BY IDOCK:   -4.67 KCAL/MOL
REMARK 922        TOTAL FREE ENERGY PREDICTED BY IDOCK:   -7.70 KCAL/MOL
REMARK 923 INTER-LIGAND FREE ENERGY PREDICTED BY IDOCK:   -6.56 KCAL/MOL
REMARK 924 INTRA-LIGAND FREE ENERGY PREDICTED BY IDOCK:   -1.14 KCAL/MOL
REMARK 927      BINDING AFFINITY PREDICTED BY RF-SCORE:    0.00 PKD
ROOT
HETATM    1  C   UNL     1      -9.851   9.830  67.476  1.00  0.00    -0.209 C  
HETATM    2  C   UNL     1     -10.690  10.585  66.749  1.00  0.00    -0.252 C  
ENDROOT
BRANCH   1   3
HETATM    3  C   UNL     1      -9.349   8.510  67.029  1.00  0.00    -0.161 C  
HETATM    4  O   UNL     1      -9.130   8.262  65.851  1.00  0.00    -0.182 OA 
BRANCH   3   5
HETATM    5  O   UNL     1      -9.358   7.622  68.048  1.00  0.00    -0.140 OA 
BRANCH   5   6
HETATM    6  C   UNL     1      -9.690   8.206  69.310  1.00  0.00    -0.170 C  
HETATM    7  C   UNL     1     -11.280   8.358  71.271  1.00  0.00    -0.309 C  
HETATM    8  C   UNL     1     -10.061   5.499  70.864  1.00  0.00    -0.276 C  
HETATM    9  C   UNL     1     -11.097   6.164  69.967  1.00  0.00    -0.462 C  
HETATM   10  C   UNL     1     -11.019   7.707  69.891  1.00  0.00    -0.208 C  
BRANCH   7  11
HETATM   11  C   UNL     1     -11.377   9.888  71.205  1.00  0.00    -0.443 C  
BRANCH  11  12
HETATM   12  C   UNL     1     -12.811  10.387  71.357  1.00  0.00    -0.556 C  
HETATM   13  C   UNL     1     -13.621   9.438  72.229  1.00  0.00    -0.532 C  
ENDBRANCH  11  12
ENDBRANCH   7  11
ENDBRANCH   5   6
ENDBRANCH   3   5
ENDBRANCH   1   3
BRANCH   2  14
HETATM   14  C   UNL     1     -11.031  11.941  67.166  1.00  0.00    -0.319 A  
HETATM   15  C   UNL     1     -11.752  14.523  67.994  1.00  0.00    -0.342 A  
HETATM   16  C   UNL     1     -11.720  12.792  66.300  1.00  0.00    -0.460 A  
HETATM   17  C   UNL     1     -10.694  12.387  68.448  1.00  0.00    -0.254 A  
HETATM   18  C   UNL     1     -12.079  14.080  66.712  1.00  0.00    -0.480 A  
HETATM   19  C   UNL     1     -11.064  13.669  68.859  1.00  0.00    -0.292 A  
BRANCH  15  20
HETATM   20  O   UNL     1     -12.103  15.731  68.529  1.00  0.00    -0.233 OA 
HETATM   21  C   UNL     1     -11.455  16.092  69.742  1.00  0.00    -0.282 C  
ENDBRANCH  15  20
ENDBRANCH   2  14
TORSDOF 7
ENDMDL
MODEL       74
REMARK 921   NORMALIZED FREE ENERGY PREDICTED BY IDOCK:   -4.67 KCAL/MOL
REMARK 922        TOTAL FREE ENERGY PREDICTED BY IDOCK:   -7.70 KCAL/MOL
REMARK 923 INTER-LIGAND FREE ENERGY PREDICTED BY IDOCK:   -6.92 KCAL/MOL
REMARK 924 INTRA-LIGAND FREE ENERGY PREDICTED BY IDOCK:   -0.78 KCAL/MOL
REMARK 927      BINDING AFFINITY PREDICTED BY RF-SCORE:    0.00 PKD
ROOT
HETATM    1  C   UNL     1     -11.703  14.838  65.567  1.00  0.00    -0.274 C  
HETATM    2  C   UNL     1     -10.894  15.816  65.128  1.00  0.00    -0.444 C  
ENDROOT
BRANCH   1   3
HETATM    3  C   UNL     1     -12.297  13.812  64.679  1.00  0.00    -0.372 C  
HETATM    4  O   UNL     1     -12.709  14.081  63.560  1.00  0.00    -0.805 OA 
BRANCH   3   5
HETATM    5  O   UNL     1     -12.475  12.647  65.342  1.00  0.00    -0.601 OA 
BRANCH   5   6
HETATM    6  C   UNL     1     -11.286  12.164  65.973  1.00  0.00    -0.358 C  
HETATM    7  C   UNL     1      -9.471  10.408  66.104  1.00  0.00    -0.227 C  
HETATM    8  C   UNL     1      -9.581  11.894  63.346  1.00  0.00    -0.197 C  
HETATM    9  C   UNL     1     -10.600  10.883  63.858  1.00  0.00    -0.285 C  
HETATM   10  C   UNL     1     -10.777  10.837  65.393  1.00  0.00    -0.149 C  
BRANCH   7  11
HETATM   11  C   UNL     1      -9.651  10.189  67.612  1.00  0.00    -0.170 C  
BRANCH  11  12
HETATM   12  C   UNL     1     -10.647   9.075  67.923  1.00  0.00    -0.256 C  
HETATM   13  C   UNL     1     -10.207   7.766  67.282  1.00  0.00    -0.343 C  
ENDBRANCH  11  12
ENDBRANCH   7  11
ENDBRANCH   5   6
ENDBRANCH   3   5
ENDBRANCH   1   3
BRANCH   2  14
HETATM   14  C   UNL     1     -10.216  16.705  66.065  1.00  0.00    -0.366 A  
HETATM   15  C   UNL     1      -8.853  18.418  67.819  1.00  0.00    -0.278 A  
HETATM   16  C   UNL     1      -9.363  16.183  67.039  1.00  0.00    -0.232 A  
HETATM   17  C   UNL     1     -10.395  18.089  65.975  1.00  0.00    -0.333 A  
HETATM   18  C   UNL     1      -8.683  17.037  67.915  1.00  0.00    -0.216 A  
HETATM   19  C   UNL     1      -9.707  18.938  66.843  1.00  0.00    -0.356 A  
BRANCH  15  20
HETATM   20  O   UNL     1      -8.198  19.352  68.573  1.00  0.00    -0.339 OA 
HETATM   21  C   UNL     1      -6.850  19.052  68.911  1.00  0.00    -0.314 C  
ENDBRANCH  15  20
ENDBRANCH   2  14
TORSDOF 7
ENDMDL
MODEL       75
REMARK 921   NORMALIZED FREE ENERGY PREDICTED BY IDOCK:   -4.65 KCAL/MOL
REMARK 922        TOTAL FREE ENERGY PREDICTED BY IDOCK:   -7.67 KCAL/MOL
REMARK 923 INTER-LIGAND FREE ENERGY PREDICTED BY IDOCK:   -7.15 KCAL/MOL
REMARK 924 INTRA-LIGAND FREE ENERGY PREDICTED BY IDOCK:   -0.52 KCAL/MOL
REMARK 927      BINDING AFFINITY PREDICTED BY RF-SCORE:    0.00 PKD
ROOT
HETATM    1  C   UNL     1     -11.650  10.354  70.469  1.00  0.00    -0.433 C  
HETATM    2  C   UNL     1     -11.987  11.653  70.517  1.00  0.00    -0.413 C  
ENDROOT
BRANCH   1   3
HETATM    3  C   UNL     1     -11.850   9.418  71.598  1.00  0.00    -0.394 C  
HETATM    4  O   UNL     1     -12.938   9.276  72.139  1.00  0.00    -0.380 OA 
BRANCH   3   5
HETATM    5  O   UNL     1     -10.668   8.926  72.031  1.00  0.00    -0.339 OA 
BRANCH   5   6
HETATM    6  C   UNL     1     -10.805   7.824  72.931  1.00  0.00    -0.392 C  
HETATM    7  C   UNL     1      -9.855   5.684  73.889  1.00  0.00    -0.182 C  
HETATM    8  C   UNL     1      -8.027   8.188  74.357  1.00  0.00    -0.308 C  
HETATM    9  C   UNL     1      -8.263   7.490  73.022  1.00  0.00    -0.150 C  
HETATM   10  C   UNL     1      -9.647   6.820  72.858  1.00  0.00    -0.167 C  
BRANCH   7  11
HETATM   11  C   UNL     1     -11.144   4.886  73.652  1.00  0.00    -0.370 C  
BRANCH  11  12
HETATM   12  C   UNL     1     -10.887   3.385  73.549  1.00  0.00    -0.321 C  
HETATM   13  C   UNL     1      -9.903   3.083  72.428  1.00  0.00    -0.228 C  
ENDBRANCH  11  12
ENDBRANCH   7  11
ENDBRANCH   5   6
ENDBRANCH   3   5
ENDBRANCH   1   3
BRANCH   2  14
HETATM   14  C   UNL     1     -11.909  12.493  69.326  1.00  0.00    -0.360 A  
HETATM   15  C   UNL     1     -11.685  14.109  67.044  1.00  0.00    -0.405 A  
HETATM   16  C   UNL     1     -11.931  13.883  69.442  1.00  0.00    -0.402 A  
HETATM   17  C   UNL     1     -11.785  11.908  68.062  1.00  0.00    -0.382 A  
HETATM   18  C   UNL     1     -11.819  14.690  68.304  1.00  0.00    -0.333 A  
HETATM   19  C   UNL     1     -11.663  12.716  66.930  1.00  0.00    -0.453 A  
BRANCH  15  20
HETATM   20  O   UNL     1     -11.505  14.790  65.872  1.00  0.00    -0.351 OA 
HETATM   21  C   UNL     1     -10.236  14.643  65.249  1.00  0.00    -0.391 C  
ENDBRANCH  15  20
ENDBRANCH   2  14
TORSDOF 7
ENDMDL
MODEL       76
REMARK 921   NORMALIZED FREE ENERGY PREDICTED BY IDOCK:   -4.64 KCAL/MOL
REMARK 922        TOTAL FREE ENERGY PREDICTED BY IDOCK:   -7.67 KCAL/MOL
REMARK 923 INTER-LIGAND FREE ENERGY PREDICTED BY IDOCK:   -7.06 KCAL/MOL
REMARK 924 INTRA-LIGAND FREE ENERGY PREDICTED BY IDOCK:   -0.60 KCAL/MOL
REMARK 927      BINDING AFFINITY PREDICTED BY RF-SCORE:    0.00 PKD
ROOT
HETATM    1  C   UNL     1     -10.003  13.447  68.500  1.00  0.00    -0.193 C  
HETATM    2  C   UNL     1     -11.318  13.518  68.763  1.00  0.00    -0.329 C  
ENDROOT
BRANCH   1   3
HETATM    3  C   UNL     1      -9.454  12.934  67.224  1.00  0.00    -0.216 C  
HETATM    4  O   UNL     1      -8.823  11.889  67.161  1.00  0.00    -0.167 OA 
BRANCH   3   5
HETATM    5  O   UNL     1      -9.591  13.851  66.239  1.00  0.00    -0.283 OA 
BRANCH   5   6
HETATM    6  C   UNL     1      -9.790  13.273  64.947  1.00  0.00    -0.016 C  
HETATM    7  C   UNL     1     -11.288  11.999  63.357  1.00  0.00    -0.484 C  
HETATM    8  C   UNL     1     -12.517  14.712  64.336  1.00  0.00    -0.312 C  
HETATM    9  C   UNL     1     -12.339  13.456  65.180  1.00  0.00    -0.501 C  
HETATM   10  C   UNL     1     -11.139  12.559  64.792  1.00  0.00    -0.338 C  
BRANCH   7  11
HETATM   11  C   UNL     1     -10.205  10.974  62.996  1.00  0.00    -0.232 C  
BRANCH  11  12
HETATM   12  C   UNL     1      -9.766  10.144  64.199  1.00  0.00    -0.301 C  
HETATM   13  C   UNL     1      -8.526   9.326  63.865  1.00  0.00    -0.198 C  
ENDBRANCH  11  12
ENDBRANCH   7  11
ENDBRANCH   5   6
ENDBRANCH   3   5
ENDBRANCH   1   3
BRANCH   2  14
HETATM   14  C   UNL     1     -11.807  14.172  69.972  1.00  0.00    -0.388 A  
HETATM   15  C   UNL     1     -12.808  15.452  72.259  1.00  0.00    -0.380 A  
HETATM   16  C   UNL     1     -11.527  15.520  70.206  1.00  0.00    -0.352 A  
HETATM   17  C   UNL     1     -12.582  13.460  70.891  1.00  0.00    -0.406 A  
HETATM   18  C   UNL     1     -12.025  16.159  71.346  1.00  0.00    -0.451 A  
HETATM   19  C   UNL     1     -13.088  14.103  72.023  1.00  0.00    -0.472 A  
BRANCH  15  20
HETATM   20  O   UNL     1     -13.401  15.981  73.372  1.00  0.00    -0.579 OA 
HETATM   21  C   UNL     1     -12.629  15.956  74.566  1.00  0.00    -0.465 C  
ENDBRANCH  15  20
ENDBRANCH   2  14
TORSDOF 7
ENDMDL
MODEL       77
REMARK 921   NORMALIZED FREE ENERGY PREDICTED BY IDOCK:   -4.64 KCAL/MOL
REMARK 922        TOTAL FREE ENERGY PREDICTED BY IDOCK:   -7.67 KCAL/MOL
REMARK 923 INTER-LIGAND FREE ENERGY PREDICTED BY IDOCK:   -6.96 KCAL/MOL
REMARK 924 INTRA-LIGAND FREE ENERGY PREDICTED BY IDOCK:   -0.71 KCAL/MOL
REMARK 927      BINDING AFFINITY PREDICTED BY RF-SCORE:    0.00 PKD
ROOT
HETATM    1  C   UNL     1     -11.745  12.225  65.869  1.00  0.00    -0.451 C  
HETATM    2  C   UNL     1     -11.356  11.556  66.966  1.00  0.00    -0.340 C  
ENDROOT
BRANCH   1   3
HETATM    3  C   UNL     1     -12.363  13.570  65.912  1.00  0.00    -0.456 C  
HETATM    4  O   UNL     1     -13.102  13.975  65.026  1.00  0.00    -0.742 OA 
BRANCH   3   5
HETATM    5  O   UNL     1     -11.854  14.301  66.930  1.00  0.00    -0.398 OA 
BRANCH   5   6
HETATM    6  C   UNL     1     -11.011  15.371  66.496  1.00  0.00    -0.271 C  
HETATM    7  C   UNL     1      -9.639  17.414  67.080  1.00  0.00    -0.265 C  
HETATM    8  C   UNL     1      -8.656  14.796  68.497  1.00  0.00    -0.168 C  
HETATM    9  C   UNL     1      -9.935  15.559  68.818  1.00  0.00    -0.214 C  
HETATM   10  C   UNL     1     -10.577  16.311  67.628  1.00  0.00    -0.311 C  
BRANCH   7  11
HETATM   11  C   UNL     1     -10.303  18.291  66.011  1.00  0.00    -0.377 C  
BRANCH  11  12
HETATM   12  C   UNL     1     -10.159  19.781  66.310  1.00  0.00    -0.601 C  
HETATM   13  C   UNL     1     -10.223  20.037  67.809  1.00  0.00    -0.549 C  
ENDBRANCH  11  12
ENDBRANCH   7  11
ENDBRANCH   5   6
ENDBRANCH   3   5
ENDBRANCH   1   3
BRANCH   2  14
HETATM   14  C   UNL     1     -10.614  10.304  66.857  1.00  0.00    -0.282 A  
HETATM   15  C   UNL     1      -9.127   7.932  66.674  1.00  0.00    -0.163 A  
HETATM   16  C   UNL     1      -9.898  10.009  65.696  1.00  0.00    -0.363 A  
HETATM   17  C   UNL     1     -10.593   9.405  67.927  1.00  0.00    -0.293 A  
HETATM   18  C   UNL     1      -9.157   8.825  65.603  1.00  0.00    -0.247 A  
HETATM   19  C   UNL     1      -9.844   8.230  67.836  1.00  0.00    -0.207 A  
BRANCH  15  20
HETATM   20  O   UNL     1      -8.392   6.781  66.725  1.00  0.00    -0.112 OA 
HETATM   21  C   UNL     1      -8.909   5.673  65.999  1.00  0.00    -0.146 C  
ENDBRANCH  15  20
ENDBRANCH   2  14
TORSDOF 7
ENDMDL
MODEL       78
REMARK 921   NORMALIZED FREE ENERGY PREDICTED BY IDOCK:   -4.63 KCAL/MOL
REMARK 922        TOTAL FREE ENERGY PREDICTED BY IDOCK:   -7.64 KCAL/MOL
REMARK 923 INTER-LIGAND FREE ENERGY PREDICTED BY IDOCK:   -6.77 KCAL/MOL
REMARK 924 INTRA-LIGAND FREE ENERGY PREDICTED BY IDOCK:   -0.87 KCAL/MOL
REMARK 927      BINDING AFFINITY PREDICTED BY RF-SCORE:    0.00 PKD
ROOT
HETATM    1  C   UNL     1     -10.655  10.316  70.022  1.00  0.00    -0.321 C  
HETATM    2  C   UNL     1     -11.964  10.570  70.180  1.00  0.00    -0.398 C  
ENDROOT
BRANCH   1   3
HETATM    3  C   UNL     1     -10.135   9.084  69.386  1.00  0.00    -0.198 C  
HETATM    4  O   UNL     1     -10.508   8.715  68.281  1.00  0.00    -0.218 OA 
BRANCH   3   5
HETATM    5  O   UNL     1      -9.376   8.378  70.254  1.00  0.00    -0.160 OA 
BRANCH   5   6
HETATM    6  C   UNL     1      -9.871   7.060  70.501  1.00  0.00    -0.179 C  
HETATM    7  C   UNL     1     -10.580   5.294  72.168  1.00  0.00    -0.281 C  
HETATM    8  C   UNL     1     -12.278   7.924  72.328  1.00  0.00    -0.333 C  
HETATM    9  C   UNL     1     -10.829   7.768  72.773  1.00  0.00    -0.438 C  
HETATM   10  C   UNL     1     -10.003   6.720  71.992  1.00  0.00    -0.183 C  
BRANCH   7  11
HETATM   11  C   UNL     1      -9.694   4.206  71.545  1.00  0.00    -0.243 C  
BRANCH  11  12
HETATM   12  C   UNL     1      -8.923   3.412  72.597  1.00  0.00    -0.111 C  
HETATM   13  C   UNL     1      -7.694   2.758  71.982  1.00  0.00    -0.053 C  
ENDBRANCH  11  12
ENDBRANCH   7  11
ENDBRANCH   5   6
ENDBRANCH   3   5
ENDBRANCH   1   3
BRANCH   2  14
HETATM   14  C   UNL     1     -12.423  11.864  70.672  1.00  0.00    -0.347 A  
HETATM   15  C   UNL     1     -13.245  14.356  71.664  1.00  0.00    -0.350 A  
HETATM   16  C   UNL     1     -13.236  11.939  71.804  1.00  0.00    -0.426 A  
HETATM   17  C   UNL     1     -12.028  13.041  70.029  1.00  0.00    -0.383 A  
HETATM   18  C   UNL     1     -13.647  13.181  72.299  1.00  0.00    -0.677 A  
HETATM   19  C   UNL     1     -12.431  14.279  70.531  1.00  0.00    -0.428 A  
BRANCH  15  20
HETATM   20  O   UNL     1     -13.529  15.624  72.089  1.00  0.00    -0.452 OA 
HETATM   21  C   UNL     1     -13.113  15.952  73.408  1.00  0.00    -0.587 C  
ENDBRANCH  15  20
ENDBRANCH   2  14
TORSDOF 7
ENDMDL
MODEL       79
REMARK 921   NORMALIZED FREE ENERGY PREDICTED BY IDOCK:   -4.62 KCAL/MOL
REMARK 922        TOTAL FREE ENERGY PREDICTED BY IDOCK:   -7.64 KCAL/MOL
REMARK 923 INTER-LIGAND FREE ENERGY PREDICTED BY IDOCK:   -7.08 KCAL/MOL
REMARK 924 INTRA-LIGAND FREE ENERGY PREDICTED BY IDOCK:   -0.56 KCAL/MOL
REMARK 927      BINDING AFFINITY PREDICTED BY RF-SCORE:    0.00 PKD
ROOT
HETATM    1  C   UNL     1     -11.881  10.537  69.382  1.00  0.00    -0.271 C  
HETATM    2  C   UNL     1     -10.808   9.833  69.778  1.00  0.00    -0.285 C  
ENDROOT
BRANCH   1   3
HETATM    3  C   UNL     1     -11.809  11.656  68.415  1.00  0.00    -0.278 C  
HETATM    4  O   UNL     1     -11.835  11.474  67.206  1.00  0.00    -0.609 OA 
BRANCH   3   5
HETATM    5  O   UNL     1     -11.534  12.819  69.046  1.00  0.00    -0.271 OA 
BRANCH   5   6
HETATM    6  C   UNL     1     -10.713  13.703  68.279  1.00  0.00    -0.254 C  
HETATM    7  C   UNL     1     -10.392  15.972  67.207  1.00  0.00    -0.295 C  
HETATM    8  C   UNL     1     -10.772  16.096  70.316  1.00  0.00    -0.235 C  
HETATM    9  C   UNL     1     -11.855  15.763  69.297  1.00  0.00    -0.358 C  
HETATM   10  C   UNL     1     -11.361  15.067  68.007  1.00  0.00    -0.339 C  
BRANCH   7  11
HETATM   11  C   UNL     1     -10.012  15.386  65.841  1.00  0.00    -0.374 C  
BRANCH  11  12
HETATM   12  C   UNL     1     -11.111  15.577  64.800  1.00  0.00    -0.421 C  
HETATM   13  C   UNL     1     -11.944  14.311  64.658  1.00  0.00    -0.468 C  
ENDBRANCH  11  12
ENDBRANCH   7  11
ENDBRANCH   5   6
ENDBRANCH   3   5
ENDBRANCH   1   3
BRANCH   2  14
HETATM   14  C   UNL     1     -10.956   8.645  70.612  1.00  0.00    -0.274 A  
HETATM   15  C   UNL     1     -11.166   6.354  72.217  1.00  0.00    -0.276 A  
HETATM   16  C   UNL     1     -11.030   7.380  70.027  1.00  0.00    -0.264 A  
HETATM   17  C   UNL     1     -10.997   8.765  72.004  1.00  0.00    -0.438 A  
HETATM   18  C   UNL     1     -11.136   6.236  70.828  1.00  0.00    -0.377 A  
HETATM   19  C   UNL     1     -11.091   7.622  72.800  1.00  0.00    -0.437 A  
BRANCH  15  20
HETATM   20  O   UNL     1     -11.203   5.311  73.100  1.00  0.00    -0.299 OA 
HETATM   21  C   UNL     1     -10.240   5.340  74.146  1.00  0.00    -0.254 C  
ENDBRANCH  15  20
ENDBRANCH   2  14
TORSDOF 7
ENDMDL
MODEL       80
REMARK 921   NORMALIZED FREE ENERGY PREDICTED BY IDOCK:   -4.62 KCAL/MOL
REMARK 922        TOTAL FREE ENERGY PREDICTED BY IDOCK:   -7.63 KCAL/MOL
REMARK 923 INTER-LIGAND FREE ENERGY PREDICTED BY IDOCK:   -6.86 KCAL/MOL
REMARK 924 INTRA-LIGAND FREE ENERGY PREDICTED BY IDOCK:   -0.77 KCAL/MOL
REMARK 927      BINDING AFFINITY PREDICTED BY RF-SCORE:    0.00 PKD
ROOT
HETATM    1  C   UNL     1     -10.302  12.258  65.361  1.00  0.00    -0.298 C  
HETATM    2  C   UNL     1     -11.095  13.317  65.127  1.00  0.00    -0.315 C  
ENDROOT
BRANCH   1   3
HETATM    3  C   UNL     1     -10.277  11.054  64.500  1.00  0.00    -0.344 C  
HETATM    4  O   UNL     1     -10.592  11.092  63.318  1.00  0.00    -0.343 OA 
BRANCH   3   5
HETATM    5  O   UNL     1     -10.052   9.942  65.235  1.00  0.00    -0.313 OA 
BRANCH   5   6
HETATM    6  C   UNL     1     -10.042  10.182  66.644  1.00  0.00    -0.223 C  
HETATM    7  C   UNL     1     -10.460   9.323  68.986  1.00  0.00    -0.233 C  
HETATM    8  C   UNL     1      -8.299   7.682  67.415  1.00  0.00    -0.116 C  
HETATM    9  C   UNL     1      -9.798   7.677  67.141  1.00  0.00    -0.265 C  
HETATM   10  C   UNL     1     -10.540   8.993  67.476  1.00  0.00    -0.306 C  
BRANCH   7  11
HETATM   11  C   UNL     1     -11.321  10.529  69.384  1.00  0.00    -0.331 C  
BRANCH  11  12
HETATM   12  C   UNL     1     -11.857  10.415  70.808  1.00  0.00    -0.466 C  
HETATM   13  C   UNL     1     -11.860   8.963  71.267  1.00  0.00    -0.371 C  
ENDBRANCH  11  12
ENDBRANCH   7  11
ENDBRANCH   5   6
ENDBRANCH   3   5
ENDBRANCH   1   3
BRANCH   2  14
HETATM   14  C   UNL     1     -10.969  14.537  65.918  1.00  0.00    -0.320 A  
HETATM   15  C   UNL     1     -10.659  16.859  67.462  1.00  0.00    -0.307 A  
HETATM   16  C   UNL     1     -11.406  14.565  67.243  1.00  0.00    -0.363 A  
HETATM   17  C   UNL     1     -10.383  15.677  65.360  1.00  0.00    -0.421 A  
HETATM   18  C   UNL     1     -11.252  15.723  68.014  1.00  0.00    -0.338 A  
HETATM   19  C   UNL     1     -10.222  16.827  66.135  1.00  0.00    -0.363 A  
BRANCH  15  20
HETATM   20  O   UNL     1     -10.399  18.022  68.131  1.00  0.00    -0.364 OA 
HETATM   21  C   UNL     1     -10.759  19.224  67.463  1.00  0.00    -0.463 C  
ENDBRANCH  15  20
ENDBRANCH   2  14
TORSDOF 7
ENDMDL
MODEL       81
REMARK 921   NORMALIZED FREE ENERGY PREDICTED BY IDOCK:   -4.61 KCAL/MOL
REMARK 922        TOTAL FREE ENERGY PREDICTED BY IDOCK:   -7.62 KCAL/MOL
REMARK 923 INTER-LIGAND FREE ENERGY PREDICTED BY IDOCK:   -7.07 KCAL/MOL
REMARK 924 INTRA-LIGAND FREE ENERGY PREDICTED BY IDOCK:   -0.55 KCAL/MOL
REMARK 927      BINDING AFFINITY PREDICTED BY RF-SCORE:    0.00 PKD
ROOT
HETATM    1  C   UNL     1     -11.462  12.420  65.773  1.00  0.00    -0.416 C  
HETATM    2  C   UNL     1     -11.271  11.650  66.856  1.00  0.00    -0.376 C  
ENDROOT
BRANCH   1   3
HETATM    3  C   UNL     1     -12.034  13.784  65.835  1.00  0.00    -0.406 C  
HETATM    4  O   UNL     1     -13.076  14.079  65.265  1.00  0.00    -0.782 OA 
BRANCH   3   5
HETATM    5  O   UNL     1     -11.171  14.642  66.424  1.00  0.00    -0.327 OA 
BRANCH   5   6
HETATM    6  C   UNL     1     -11.625  15.126  67.691  1.00  0.00    -0.277 C  
HETATM    7  C   UNL     1     -11.070  16.118  69.950  1.00  0.00    -0.357 C  
HETATM    8  C   UNL     1     -10.179  17.913  67.540  1.00  0.00    -0.366 C  
HETATM    9  C   UNL     1      -9.538  16.595  67.957  1.00  0.00    -0.225 C  
HETATM   10  C   UNL     1     -10.491  15.574  68.622  1.00  0.00    -0.237 C  
BRANCH   7  11
HETATM   11  C   UNL     1     -11.887  15.073  70.723  1.00  0.00    -0.372 C  
BRANCH  11  12
HETATM   12  C   UNL     1     -11.937  15.366  72.220  1.00  0.00    -0.529 C  
HETATM   13  C   UNL     1     -13.363  15.256  72.741  1.00  0.00    -0.603 C  
ENDBRANCH  11  12
ENDBRANCH   7  11
ENDBRANCH   5   6
ENDBRANCH   3   5
ENDBRANCH   1   3
BRANCH   2  14
HETATM   14  C   UNL     1     -10.563  10.378  66.757  1.00  0.00    -0.270 A  
HETATM   15  C   UNL     1      -9.144   7.963  66.602  1.00  0.00    -0.163 A  
HETATM   16  C   UNL     1      -9.703  10.133  65.684  1.00  0.00    -0.322 A  
HETATM   17  C   UNL     1     -10.720   9.407  67.750  1.00  0.00    -0.290 A  
HETATM   18  C   UNL     1      -8.996   8.928  65.606  1.00  0.00    -0.249 A  
HETATM   19  C   UNL     1     -10.004   8.211  67.675  1.00  0.00    -0.240 A  
BRANCH  15  20
HETATM   20  O   UNL     1      -8.461   6.780  66.667  1.00  0.00    -0.114 OA 
HETATM   21  C   UNL     1      -8.231   6.119  65.430  1.00  0.00    -0.145 C  
ENDBRANCH  15  20
ENDBRANCH   2  14
TORSDOF 7
ENDMDL
MODEL       82
REMARK 921   NORMALIZED FREE ENERGY PREDICTED BY IDOCK:   -4.59 KCAL/MOL
REMARK 922        TOTAL FREE ENERGY PREDICTED BY IDOCK:   -7.59 KCAL/MOL
REMARK 923 INTER-LIGAND FREE ENERGY PREDICTED BY IDOCK:   -6.76 KCAL/MOL
REMARK 924 INTRA-LIGAND FREE ENERGY PREDICTED BY IDOCK:   -0.83 KCAL/MOL
REMARK 927      BINDING AFFINITY PREDICTED BY RF-SCORE:    0.00 PKD
ROOT
HETATM    1  C   UNL     1     -11.905  11.191  69.036  1.00  0.00    -0.418 C  
HETATM    2  C   UNL     1     -10.812  10.831  69.728  1.00  0.00    -0.284 C  
ENDROOT
BRANCH   1   3
HETATM    3  C   UNL     1     -11.866  12.101  67.869  1.00  0.00    -0.269 C  
HETATM    4  O   UNL     1     -11.875  11.685  66.719  1.00  0.00    -0.557 OA 
BRANCH   3   5
HETATM    5  O   UNL     1     -11.637  13.375  68.260  1.00  0.00    -0.299 OA 
BRANCH   5   6
HETATM    6  C   UNL     1     -10.968  14.163  67.273  1.00  0.00    -0.297 C  
HETATM    7  C   UNL     1      -8.897  15.424  66.554  1.00  0.00    -0.347 C  
HETATM    8  C   UNL     1      -8.387  12.378  67.092  1.00  0.00    -0.181 C  
HETATM    9  C   UNL     1      -8.669  13.437  68.151  1.00  0.00    -0.179 C  
HETATM   10  C   UNL     1      -9.562  14.613  67.692  1.00  0.00    -0.212 C  
BRANCH   7  11
HETATM   11  C   UNL     1      -9.674  16.695  66.187  1.00  0.00    -0.329 C  
BRANCH  11  12
HETATM   12  C   UNL     1      -8.890  17.967  66.498  1.00  0.00    -0.281 C  
HETATM   13  C   UNL     1      -8.029  17.777  67.739  1.00  0.00    -0.225 C  
ENDBRANCH  11  12
ENDBRANCH   7  11
ENDBRANCH   5   6
ENDBRANCH   3   5
ENDBRANCH   1   3
BRANCH   2  14
HETATM   14  C   UNL     1     -10.887   9.813  70.771  1.00  0.00    -0.403 A  
HETATM   15  C   UNL     1     -11.045   7.805  72.724  1.00  0.00    -0.398 A  
HETATM   16  C   UNL     1     -12.112   9.501  71.364  1.00  0.00    -0.459 A  
HETATM   17  C   UNL     1      -9.736   9.124  71.164  1.00  0.00    -0.360 A  
HETATM   18  C   UNL     1     -12.191   8.500  72.339  1.00  0.00    -0.432 A  
HETATM   19  C   UNL     1      -9.820   8.119  72.128  1.00  0.00    -0.313 A  
BRANCH  15  20
HETATM   20  O   UNL     1     -11.008   6.769  73.615  1.00  0.00    -0.226 OA 
HETATM   21  C   UNL     1      -9.755   6.521  74.238  1.00  0.00    -0.287 C  
ENDBRANCH  15  20
ENDBRANCH   2  14
TORSDOF 7
ENDMDL
MODEL       83
REMARK 921   NORMALIZED FREE ENERGY PREDICTED BY IDOCK:   -4.58 KCAL/MOL
REMARK 922        TOTAL FREE ENERGY PREDICTED BY IDOCK:   -7.58 KCAL/MOL
REMARK 923 INTER-LIGAND FREE ENERGY PREDICTED BY IDOCK:   -6.53 KCAL/MOL
REMARK 924 INTRA-LIGAND FREE ENERGY PREDICTED BY IDOCK:   -1.05 KCAL/MOL
REMARK 927      BINDING AFFINITY PREDICTED BY RF-SCORE:    0.00 PKD
ROOT
HETATM    1  C   UNL     1     -10.054   9.178  67.097  1.00  0.00    -0.301 C  
HETATM    2  C   UNL     1     -10.577   7.942  67.111  1.00  0.00    -0.383 C  
ENDROOT
BRANCH   1   3
HETATM    3  C   UNL     1     -10.171  10.098  65.942  1.00  0.00    -0.211 C  
HETATM    4  O   UNL     1      -9.835   9.770  64.813  1.00  0.00    -0.258 OA 
BRANCH   3   5
HETATM    5  O   UNL     1     -10.506  11.342  66.350  1.00  0.00    -0.237 OA 
BRANCH   5   6
HETATM    6  C   UNL     1     -11.359  11.355  67.497  1.00  0.00    -0.292 C  
HETATM    7  C   UNL     1     -11.887  12.288  69.788  1.00  0.00    -0.388 C  
HETATM    8  C   UNL     1     -11.861  14.458  67.526  1.00  0.00    -0.418 C  
HETATM    9  C   UNL     1     -10.640  13.745  68.094  1.00  0.00    -0.260 C  
HETATM   10  C   UNL     1     -10.889  12.307  68.605  1.00  0.00    -0.268 C  
BRANCH   7  11
HETATM   11  C   UNL     1     -12.032  10.902  70.430  1.00  0.00    -0.453 C  
BRANCH  11  12
HETATM   12  C   UNL     1     -12.969  10.915  71.636  1.00  0.00    -0.569 C  
HETATM   13  C   UNL     1     -13.320   9.496  72.059  1.00  0.00    -0.535 C  
ENDBRANCH  11  12
ENDBRANCH   7  11
ENDBRANCH   5   6
ENDBRANCH   3   5
ENDBRANCH   1   3
BRANCH   2  14
HETATM   14  C   UNL     1     -10.566   7.137  68.329  1.00  0.00    -0.230 A  
HETATM   15  C   UNL     1     -10.469   5.602  70.675  1.00  0.00    -0.270 A  
HETATM   16  C   UNL     1     -10.316   5.765  68.263  1.00  0.00    -0.265 A  
HETATM   17  C   UNL     1     -10.777   7.741  69.571  1.00  0.00    -0.200 A  
HETATM   18  C   UNL     1     -10.268   4.999  69.433  1.00  0.00    -0.268 A  
HETATM   19  C   UNL     1     -10.718   6.976  70.737  1.00  0.00    -0.252 A  
BRANCH  15  20
HETATM   20  O   UNL     1     -10.384   4.972  71.885  1.00  0.00    -0.202 OA 
HETATM   21  C   UNL     1     -10.812   5.722  73.014  1.00  0.00    -0.271 C  
ENDBRANCH  15  20
ENDBRANCH   2  14
TORSDOF 7
ENDMDL
MODEL       84
REMARK 921   NORMALIZED FREE ENERGY PREDICTED BY IDOCK:   -4.57 KCAL/MOL
REMARK 922        TOTAL FREE ENERGY PREDICTED BY IDOCK:   -7.56 KCAL/MOL
REMARK 923 INTER-LIGAND FREE ENERGY PREDICTED BY IDOCK:   -6.41 KCAL/MOL
REMARK 924 INTRA-LIGAND FREE ENERGY PREDICTED BY IDOCK:   -1.16 KCAL/MOL
REMARK 927      BINDING AFFINITY PREDICTED BY RF-SCORE:    0.00 PKD
ROOT
HETATM    1  C   UNL     1     -11.034  11.303  66.591  1.00  0.00    -0.326 C  
HETATM    2  C   UNL     1     -11.198  12.606  66.874  1.00  0.00    -0.348 C  
ENDROOT
BRANCH   1   3
HETATM    3  C   UNL     1     -10.423  10.814  65.335  1.00  0.00    -0.202 C  
HETATM    4  O   UNL     1     -10.580  11.390  64.267  1.00  0.00    -0.309 OA 
BRANCH   3   5
HETATM    5  O   UNL     1      -9.861   9.597  65.516  1.00  0.00    -0.302 OA 
BRANCH   5   6
HETATM    6  C   UNL     1     -10.263   8.959  66.730  1.00  0.00    -0.278 C  
HETATM    7  C   UNL     1      -9.621   7.671  68.810  1.00  0.00    -0.153 C  
HETATM    8  C   UNL     1      -8.262  10.489  68.610  1.00  0.00    -0.130 C  
HETATM    9  C   UNL     1      -7.930   9.274  67.752  1.00  0.00    -0.100 C  
HETATM   10  C   UNL     1      -9.106   8.302  67.494  1.00  0.00    -0.148 C  
BRANCH   7  11
HETATM   11  C   UNL     1     -10.673   6.578  68.581  1.00  0.00    -0.323 C  
BRANCH  11  12
HETATM   12  C   UNL     1     -11.529   6.327  69.820  1.00  0.00    -0.449 C  
HETATM   13  C   UNL     1     -11.349   7.447  70.834  1.00  0.00    -0.300 C  
ENDBRANCH  11  12
ENDBRANCH   7  11
ENDBRANCH   5   6
ENDBRANCH   3   5
ENDBRANCH   1   3
BRANCH   2  14
HETATM   14  C   UNL     1     -11.664  13.035  68.188  1.00  0.00    -0.391 A  
HETATM   15  C   UNL     1     -12.488  13.867  70.738  1.00  0.00    -0.375 A  
HETATM   16  C   UNL     1     -11.871  12.099  69.202  1.00  0.00    -0.361 A  
HETATM   17  C   UNL     1     -11.880  14.392  68.448  1.00  0.00    -0.354 A  
HETATM   18  C   UNL     1     -12.282  12.512  70.474  1.00  0.00    -0.382 A  
HETATM   19  C   UNL     1     -12.280  14.802  69.721  1.00  0.00    -0.337 A  
BRANCH  15  20
HETATM   20  O   UNL     1     -12.828  14.395  71.952  1.00  0.00    -0.323 OA 
HETATM   21  C   UNL     1     -14.205  14.689  72.146  1.00  0.00    -0.518 C  
ENDBRANCH  15  20
ENDBRANCH   2  14
TORSDOF 7
ENDMDL
MODEL       85
REMARK 921   NORMALIZED FREE ENERGY PREDICTED BY IDOCK:   -4.57 KCAL/MOL
REMARK 922        TOTAL FREE ENERGY PREDICTED BY IDOCK:   -7.56 KCAL/MOL
REMARK 923 INTER-LIGAND FREE ENERGY PREDICTED BY IDOCK:   -6.31 KCAL/MOL
REMARK 924 INTRA-LIGAND FREE ENERGY PREDICTED BY IDOCK:   -1.25 KCAL/MOL
REMARK 927      BINDING AFFINITY PREDICTED BY RF-SCORE:    0.00 PKD
ROOT
HETATM    1  C   UNL     1     -10.490   8.502  66.954  1.00  0.00    -0.345 C  
HETATM    2  C   UNL     1      -9.942   9.400  66.119  1.00  0.00    -0.351 C  
ENDROOT
BRANCH   1   3
HETATM    3  C   UNL     1      -9.915   7.159  67.196  1.00  0.00    -0.209 C  
HETATM    4  O   UNL     1      -9.978   6.265  66.363  1.00  0.00    -0.142 OA 
BRANCH   3   5
HETATM    5  O   UNL     1      -9.510   7.034  68.480  1.00  0.00    -0.135 OA 
BRANCH   5   6
HETATM    6  C   UNL     1     -10.274   7.820  69.397  1.00  0.00    -0.208 C  
HETATM    7  C   UNL     1     -10.350   9.215  71.505  1.00  0.00    -0.414 C  
HETATM    8  C   UNL     1      -8.419  10.356  69.315  1.00  0.00    -0.162 C  
HETATM    9  C   UNL     1      -8.183   9.103  70.149  1.00  0.00    -0.161 C  
HETATM   10  C   UNL     1      -9.458   8.345  70.586  1.00  0.00    -0.191 C  
BRANCH   7  11
HETATM   11  C   UNL     1     -11.539   8.445  72.094  1.00  0.00    -0.442 C  
BRANCH  11  12
HETATM   12  C   UNL     1     -11.098   7.313  73.019  1.00  0.00    -0.361 C  
HETATM   13  C   UNL     1     -11.545   5.965  72.469  1.00  0.00    -0.327 C  
ENDBRANCH  11  12
ENDBRANCH   7  11
ENDBRANCH   5   6
ENDBRANCH   3   5
ENDBRANCH   1   3
BRANCH   2  14
HETATM   14  C   UNL     1     -10.462  10.760  66.034  1.00  0.00    -0.273 A  
HETATM   15  C   UNL     1     -11.396  13.402  65.899  1.00  0.00    -0.309 A  
HETATM   16  C   UNL     1     -11.102  11.338  67.132  1.00  0.00    -0.364 A  
HETATM   17  C   UNL     1     -10.297  11.504  64.862  1.00  0.00    -0.340 A  
HETATM   18  C   UNL     1     -11.569  12.656  67.065  1.00  0.00    -0.431 A  
HETATM   19  C   UNL     1     -10.754  12.821  64.802  1.00  0.00    -0.340 A  
BRANCH  15  20
HETATM   20  O   UNL     1     -11.752  14.712  65.736  1.00  0.00    -0.352 OA 
HETATM   21  C   UNL     1     -10.817  15.535  65.051  1.00  0.00    -0.450 C  
ENDBRANCH  15  20
ENDBRANCH   2  14
TORSDOF 7
ENDMDL
MODEL       86
REMARK 921   NORMALIZED FREE ENERGY PREDICTED BY IDOCK:   -4.56 KCAL/MOL
REMARK 922        TOTAL FREE ENERGY PREDICTED BY IDOCK:   -7.55 KCAL/MOL
REMARK 923 INTER-LIGAND FREE ENERGY PREDICTED BY IDOCK:   -6.54 KCAL/MOL
REMARK 924 INTRA-LIGAND FREE ENERGY PREDICTED BY IDOCK:   -1.01 KCAL/MOL
REMARK 927      BINDING AFFINITY PREDICTED BY RF-SCORE:    0.00 PKD
ROOT
HETATM    1  C   UNL     1     -10.620  10.037  67.829  1.00  0.00    -0.311 C  
HETATM    2  C   UNL     1     -10.269   9.476  66.660  1.00  0.00    -0.310 C  
ENDROOT
BRANCH   1   3
HETATM    3  C   UNL     1     -11.095  11.434  67.950  1.00  0.00    -0.261 C  
HETATM    4  O   UNL     1     -10.790  12.145  68.898  1.00  0.00    -0.219 OA 
BRANCH   3   5
HETATM    5  O   UNL     1     -12.018  11.713  67.002  1.00  0.00    -0.593 OA 
BRANCH   5   6
HETATM    6  C   UNL     1     -11.876  13.017  66.434  1.00  0.00    -0.405 C  
HETATM    7  C   UNL     1     -10.775  14.522  64.726  1.00  0.00    -0.414 C  
HETATM    8  C   UNL     1     -12.399  12.161  63.455  1.00  0.00    -0.682 C  
HETATM    9  C   UNL     1     -11.077  12.035  64.202  1.00  0.00    -0.431 C  
HETATM   10  C   UNL     1     -10.836  13.089  65.308  1.00  0.00    -0.311 C  
BRANCH   7  11
HETATM   11  C   UNL     1     -10.372  15.577  65.765  1.00  0.00    -0.384 C  
BRANCH  11  12
HETATM   12  C   UNL     1      -8.939  15.392  66.255  1.00  0.00    -0.341 C  
HETATM   13  C   UNL     1      -8.918  15.041  67.737  1.00  0.00    -0.179 C  
ENDBRANCH  11  12
ENDBRANCH   7  11
ENDBRANCH   5   6
ENDBRANCH   3   5
ENDBRANCH   1   3
BRANCH   2  14
HETATM   14  C   UNL     1      -9.956   8.053  66.576  1.00  0.00    -0.283 A  
HETATM   15  C   UNL     1      -9.395   5.314  66.352  1.00  0.00    -0.148 A  
HETATM   16  C   UNL     1     -10.804   7.110  67.159  1.00  0.00    -0.403 A  
HETATM   17  C   UNL     1      -8.818   7.624  65.887  1.00  0.00    -0.163 A  
HETATM   18  C   UNL     1     -10.524   5.743  67.048  1.00  0.00    -0.342 A  
HETATM   19  C   UNL     1      -8.548   6.260  65.768  1.00  0.00    -0.153 A  
BRANCH  15  20
HETATM   20  O   UNL     1      -9.053   4.010  66.123  1.00  0.00    -0.127 OA 
HETATM   21  C   UNL     1      -7.875   3.547  66.770  1.00  0.00    -0.080 C  
ENDBRANCH  15  20
ENDBRANCH   2  14
TORSDOF 7
ENDMDL
MODEL       87
REMARK 921   NORMALIZED FREE ENERGY PREDICTED BY IDOCK:   -4.55 KCAL/MOL
REMARK 922        TOTAL FREE ENERGY PREDICTED BY IDOCK:   -7.54 KCAL/MOL
REMARK 923 INTER-LIGAND FREE ENERGY PREDICTED BY IDOCK:   -6.41 KCAL/MOL
REMARK 924 INTRA-LIGAND FREE ENERGY PREDICTED BY IDOCK:   -1.13 KCAL/MOL
REMARK 927      BINDING AFFINITY PREDICTED BY RF-SCORE:    0.00 PKD
ROOT
HETATM    1  C   UNL     1      -9.006  11.735  68.432  1.00  0.00    -0.168 C  
HETATM    2  C   UNL     1      -9.624  10.572  68.168  1.00  0.00    -0.163 C  
ENDROOT
BRANCH   1   3
HETATM    3  C   UNL     1      -8.215  12.483  67.429  1.00  0.00    -0.183 C  
HETATM    4  O   UNL     1      -7.229  12.002  66.888  1.00  0.00    -0.125 OA 
BRANCH   3   5
HETATM    5  O   UNL     1      -8.622  13.770  67.358  1.00  0.00    -0.181 OA 
BRANCH   5   6
HETATM    6  C   UNL     1      -9.675  14.085  68.272  1.00  0.00    -0.225 C  
HETATM    7  C   UNL     1     -11.863  15.272  68.722  1.00  0.00    -0.332 C  
HETATM    8  C   UNL     1     -12.038  13.153  66.419  1.00  0.00    -0.447 C  
HETATM    9  C   UNL     1     -11.320  14.495  66.345  1.00  0.00    -0.349 C  
HETATM   10  C   UNL     1     -10.745  15.016  67.683  1.00  0.00    -0.274 C  
BRANCH   7  11
HETATM   11  C   UNL     1     -11.351  15.945  70.003  1.00  0.00    -0.358 C  
BRANCH  11  12
HETATM   12  C   UNL     1     -11.766  15.189  71.262  1.00  0.00    -0.409 C  
HETATM   13  C   UNL     1     -11.971  16.151  72.424  1.00  0.00    -0.649 C  
ENDBRANCH  11  12
ENDBRANCH   7  11
ENDBRANCH   5   6
ENDBRANCH   3   5
ENDBRANCH   1   3
BRANCH   2  14
HETATM   14  C   UNL     1     -10.514   9.957  69.146  1.00  0.00    -0.235 A  
HETATM   15  C   UNL     1     -12.173   8.784  71.081  1.00  0.00    -0.244 A  
HETATM   16  C   UNL     1     -10.441   8.586  69.401  1.00  0.00    -0.223 A  
HETATM   17  C   UNL     1     -11.428  10.742  69.856  1.00  0.00    -0.398 A  
HETATM   18  C   UNL     1     -11.268   8.000  70.365  1.00  0.00    -0.230 A  
HETATM   19  C   UNL     1     -12.244  10.156  70.825  1.00  0.00    -0.434 A  
BRANCH  15  20
HETATM   20  O   UNL     1     -12.985   8.339  72.087  1.00  0.00    -0.326 OA 
HETATM   21  C   UNL     1     -14.201   7.722  71.685  1.00  0.00    -0.457 C  
ENDBRANCH  15  20
ENDBRANCH   2  14
TORSDOF 7
ENDMDL
MODEL       88
REMARK 921   NORMALIZED FREE ENERGY PREDICTED BY IDOCK:   -4.54 KCAL/MOL
REMARK 922        TOTAL FREE ENERGY PREDICTED BY IDOCK:   -7.52 KCAL/MOL
REMARK 923 INTER-LIGAND FREE ENERGY PREDICTED BY IDOCK:   -6.61 KCAL/MOL
REMARK 924 INTRA-LIGAND FREE ENERGY PREDICTED BY IDOCK:   -0.91 KCAL/MOL
REMARK 927      BINDING AFFINITY PREDICTED BY RF-SCORE:    0.00 PKD
ROOT
HETATM    1  C   UNL     1     -11.785  12.746  68.721  1.00  0.00    -0.363 C  
HETATM    2  C   UNL     1     -11.384  13.255  67.545  1.00  0.00    -0.329 C  
ENDROOT
BRANCH   1   3
HETATM    3  C   UNL     1     -11.946  11.295  68.967  1.00  0.00    -0.325 C  
HETATM    4  O   UNL     1     -12.037  10.833  70.096  1.00  0.00    -0.294 OA 
BRANCH   3   5
HETATM    5  O   UNL     1     -11.792  10.593  67.822  1.00  0.00    -0.460 OA 
BRANCH   5   6
HETATM    6  C   UNL     1     -10.701   9.669  67.863  1.00  0.00    -0.247 C  
HETATM    7  C   UNL     1      -9.056   8.211  66.613  1.00  0.00    -0.202 C  
HETATM    8  C   UNL     1      -8.824  11.256  65.904  1.00  0.00    -0.174 C  
HETATM    9  C   UNL     1      -9.961  10.328  65.496  1.00  0.00    -0.364 C  
HETATM   10  C   UNL     1     -10.261   9.173  66.479  1.00  0.00    -0.322 C  
BRANCH   7  11
HETATM   11  C   UNL     1      -9.371   6.963  67.448  1.00  0.00    -0.144 C  
BRANCH  11  12
HETATM   12  C   UNL     1     -10.631   6.246  66.969  1.00  0.00    -0.386 C  
HETATM   13  C   UNL     1     -10.282   4.893  66.366  1.00  0.00    -0.313 C  
ENDBRANCH  11  12
ENDBRANCH   7  11
ENDBRANCH   5   6
ENDBRANCH   3   5
ENDBRANCH   1   3
BRANCH   2  14
HETATM   14  C   UNL     1     -11.095  14.678  67.404  1.00  0.00    -0.331 A  
HETATM   15  C   UNL     1     -10.468  17.402  67.158  1.00  0.00    -0.305 A  
HETATM   16  C   UNL     1     -11.290  15.547  68.479  1.00  0.00    -0.356 A  
HETATM   17  C   UNL     1     -10.593  15.176  66.198  1.00  0.00    -0.318 A  
HETATM   18  C   UNL     1     -10.978  16.905  68.357  1.00  0.00    -0.296 A  
HETATM   19  C   UNL     1     -10.273  16.530  66.083  1.00  0.00    -0.360 A  
BRANCH  15  20
HETATM   20  O   UNL     1     -10.068  18.691  66.939  1.00  0.00    -0.326 OA 
HETATM   21  C   UNL     1     -10.628  19.675  67.799  1.00  0.00    -0.396 C  
ENDBRANCH  15  20
ENDBRANCH   2  14
TORSDOF 7
ENDMDL
MODEL       89
REMARK 921   NORMALIZED FREE ENERGY PREDICTED BY IDOCK:   -4.54 KCAL/MOL
REMARK 922        TOTAL FREE ENERGY PREDICTED BY IDOCK:   -7.52 KCAL/MOL
REMARK 923 INTER-LIGAND FREE ENERGY PREDICTED BY IDOCK:   -6.66 KCAL/MOL
REMARK 924 INTRA-LIGAND FREE ENERGY PREDICTED BY IDOCK:   -0.86 KCAL/MOL
REMARK 927      BINDING AFFINITY PREDICTED BY RF-SCORE:    0.00 PKD
ROOT
HETATM    1  C   UNL     1     -11.918  11.225  69.409  1.00  0.00    -0.410 C  
HETATM    2  C   UNL     1     -11.695  12.548  69.346  1.00  0.00    -0.383 C  
ENDROOT
BRANCH   1   3
HETATM    3  C   UNL     1     -11.285  10.249  68.493  1.00  0.00    -0.214 C  
HETATM    4  O   UNL     1     -10.588   9.331  68.901  1.00  0.00    -0.218 OA 
BRANCH   3   5
HETATM    5  O   UNL     1     -11.435  10.632  67.204  1.00  0.00    -0.359 OA 
BRANCH   5   6
HETATM    6  C   UNL     1     -10.377  10.188  66.352  1.00  0.00    -0.188 C  
HETATM    7  C   UNL     1      -8.457  10.765  64.810  1.00  0.00    -0.038 C  
HETATM    8  C   UNL     1      -8.095  11.856  67.727  1.00  0.00    -0.146 C  
HETATM    9  C   UNL     1      -9.086  12.379  66.694  1.00  0.00    -0.204 C  
HETATM   10  C   UNL     1      -9.604  11.331  65.681  1.00  0.00    -0.260 C  
BRANCH   7  11
HETATM   11  C   UNL     1      -8.952   9.849  63.684  1.00  0.00    -0.278 C  
BRANCH  11  12
HETATM   12  C   UNL     1      -7.821   9.041  63.052  1.00  0.00    -0.131 C  
HETATM   13  C   UNL     1      -7.861   7.596  63.529  1.00  0.00    -0.124 C  
ENDBRANCH  11  12
ENDBRANCH   7  11
ENDBRANCH   5   6
ENDBRANCH   3   5
ENDBRANCH   1   3
BRANCH   2  14
HETATM   14  C   UNL     1     -12.224  13.446  70.368  1.00  0.00    -0.415 A  
HETATM   15  C   UNL     1     -13.176  15.164  72.371  1.00  0.00    -0.395 A  
HETATM   16  C   UNL     1     -12.932  12.935  71.457  1.00  0.00    -0.388 A  
HETATM   17  C   UNL     1     -12.000  14.823  70.276  1.00  0.00    -0.367 A  
HETATM   18  C   UNL     1     -13.408  13.791  72.456  1.00  0.00    -0.656 A  
HETATM   19  C   UNL     1     -12.466  15.673  71.280  1.00  0.00    -0.503 A  
BRANCH  15  20
HETATM   20  O   UNL     1     -13.535  16.088  73.312  1.00  0.00    -0.598 OA 
HETATM   21  C   UNL     1     -12.630  16.267  74.394  1.00  0.00    -0.383 C  
ENDBRANCH  15  20
ENDBRANCH   2  14
TORSDOF 7
ENDMDL
MODEL       90
REMARK 921   NORMALIZED FREE ENERGY PREDICTED BY IDOCK:   -4.54 KCAL/MOL
REMARK 922        TOTAL FREE ENERGY PREDICTED BY IDOCK:   -7.52 KCAL/MOL
REMARK 923 INTER-LIGAND FREE ENERGY PREDICTED BY IDOCK:   -6.42 KCAL/MOL
REMARK 924 INTRA-LIGAND FREE ENERGY PREDICTED BY IDOCK:   -1.10 KCAL/MOL
REMARK 927      BINDING AFFINITY PREDICTED BY RF-SCORE:    0.00 PKD
ROOT
HETATM    1  C   UNL     1     -12.735   8.788  71.246  1.00  0.00    -0.267 C  
HETATM    2  C   UNL     1     -13.283   9.905  71.753  1.00  0.00    -0.535 C  
ENDROOT
BRANCH   1   3
HETATM    3  C   UNL     1     -13.233   7.427  71.549  1.00  0.00    -0.372 C  
HETATM    4  O   UNL     1     -14.283   7.236  72.145  1.00  0.00    -0.218 OA 
BRANCH   3   5
HETATM    5  O   UNL     1     -12.299   6.496  71.249  1.00  0.00    -0.317 OA 
BRANCH   5   6
HETATM    6  C   UNL     1     -11.496   6.839  70.117  1.00  0.00    -0.349 C  
HETATM    7  C   UNL     1      -9.195   7.184  69.125  1.00  0.00    -0.139 C  
HETATM    8  C   UNL     1      -9.680   4.274  70.185  1.00  0.00    -0.282 C  
HETATM    9  C   UNL     1      -9.500   5.519  71.044  1.00  0.00    -0.203 C  
HETATM   10  C   UNL     1      -9.989   6.842  70.408  1.00  0.00    -0.193 C  
BRANCH   7  11
HETATM   11  C   UNL     1      -9.536   8.568  68.557  1.00  0.00    -0.146 C  
BRANCH  11  12
HETATM   12  C   UNL     1      -9.021   9.701  69.442  1.00  0.00    -0.186 C  
HETATM   13  C   UNL     1      -7.576  10.035  69.100  1.00  0.00    -0.096 C  
ENDBRANCH  11  12
ENDBRANCH   7  11
ENDBRANCH   5   6
ENDBRANCH   3   5
ENDBRANCH   1   3
BRANCH   2  14
HETATM   14  C   UNL     1     -12.851  11.223  71.302  1.00  0.00    -0.491 A  
HETATM   15  C   UNL     1     -11.958  13.751  70.474  1.00  0.00    -0.296 A  
HETATM   16  C   UNL     1     -13.132  12.356  72.068  1.00  0.00    -0.470 A  
HETATM   17  C   UNL     1     -12.129  11.357  70.113  1.00  0.00    -0.439 A  
HETATM   18  C   UNL     1     -12.688  13.617  71.655  1.00  0.00    -0.396 A  
HETATM   19  C   UNL     1     -11.677  12.615  69.709  1.00  0.00    -0.354 A  
BRANCH  15  20
HETATM   20  O   UNL     1     -11.419  14.915  70.002  1.00  0.00    -0.253 OA 
HETATM   21  C   UNL     1     -11.417  16.015  70.902  1.00  0.00    -0.416 C  
ENDBRANCH  15  20
ENDBRANCH   2  14
TORSDOF 7
ENDMDL
MODEL       91
REMARK 921   NORMALIZED FREE ENERGY PREDICTED BY IDOCK:   -4.53 KCAL/MOL
REMARK 922        TOTAL FREE ENERGY PREDICTED BY IDOCK:   -7.50 KCAL/MOL
REMARK 923 INTER-LIGAND FREE ENERGY PREDICTED BY IDOCK:   -6.59 KCAL/MOL
REMARK 924 INTRA-LIGAND FREE ENERGY PREDICTED BY IDOCK:   -0.92 KCAL/MOL
REMARK 927      BINDING AFFINITY PREDICTED BY RF-SCORE:    0.00 PKD
ROOT
HETATM    1  C   UNL     1     -10.649   7.720  67.659  1.00  0.00    -0.283 C  
HETATM    2  C   UNL     1     -10.185   8.960  67.879  1.00  0.00    -0.274 C  
ENDROOT
BRANCH   1   3
HETATM    3  C   UNL     1     -10.585   6.635  68.665  1.00  0.00    -0.234 C  
HETATM    4  O   UNL     1      -9.661   5.834  68.700  1.00  0.00    -0.122 OA 
BRANCH   3   5
HETATM    5  O   UNL     1     -11.737   6.564  69.369  1.00  0.00    -0.295 OA 
BRANCH   5   6
HETATM    6  C   UNL     1     -11.541   6.588  70.785  1.00  0.00    -0.377 C  
HETATM    7  C   UNL     1     -11.361   7.932  72.920  1.00  0.00    -0.399 C  
HETATM    8  C   UNL     1     -14.121   8.248  71.468  1.00  0.00    -0.446 C  
HETATM    9  C   UNL     1     -12.791   8.819  70.992  1.00  0.00    -0.031 C  
HETATM   10  C   UNL     1     -11.539   8.001  71.384  1.00  0.00    -0.301 C  
BRANCH   7  11
HETATM   11  C   UNL     1     -10.042   7.272  73.344  1.00  0.00    -0.367 C  
BRANCH  11  12
HETATM   12  C   UNL     1      -8.849   8.212  73.197  1.00  0.00    -0.325 C  
HETATM   13  C   UNL     1      -7.885   8.043  74.363  1.00  0.00    -0.287 C  
ENDBRANCH  11  12
ENDBRANCH   7  11
ENDBRANCH   5   6
ENDBRANCH   3   5
ENDBRANCH   1   3
BRANCH   2  14
HETATM   14  C   UNL     1     -10.412  10.029  66.912  1.00  0.00    -0.284 A  
HETATM   15  C   UNL     1     -10.913  12.050  65.031  1.00  0.00    -0.306 A  
HETATM   16  C   UNL     1      -9.973   9.890  65.594  1.00  0.00    -0.353 A  
HETATM   17  C   UNL     1     -11.095  11.187  67.292  1.00  0.00    -0.366 A  
HETATM   18  C   UNL     1     -10.222  10.897  64.655  1.00  0.00    -0.411 A  
HETATM   19  C   UNL     1     -11.351  12.186  66.351  1.00  0.00    -0.411 A  
BRANCH  15  20
HETATM   20  O   UNL     1     -11.269  13.069  64.193  1.00  0.00    -0.362 OA 
HETATM   21  C   UNL     1     -10.965  14.384  64.640  1.00  0.00    -0.354 C  
ENDBRANCH  15  20
ENDBRANCH   2  14
TORSDOF 7
ENDMDL
MODEL       92
REMARK 921   NORMALIZED FREE ENERGY PREDICTED BY IDOCK:   -4.50 KCAL/MOL
REMARK 922        TOTAL FREE ENERGY PREDICTED BY IDOCK:   -7.47 KCAL/MOL
REMARK 923 INTER-LIGAND FREE ENERGY PREDICTED BY IDOCK:   -6.15 KCAL/MOL
REMARK 924 INTRA-LIGAND FREE ENERGY PREDICTED BY IDOCK:   -1.32 KCAL/MOL
REMARK 927      BINDING AFFINITY PREDICTED BY RF-SCORE:    0.00 PKD
ROOT
HETATM    1  C   UNL     1     -11.690  13.969  69.582  1.00  0.00    -0.368 C  
HETATM    2  C   UNL     1     -11.881  13.124  68.556  1.00  0.00    -0.377 C  
ENDROOT
BRANCH   1   3
HETATM    3  C   UNL     1     -12.212  15.354  69.604  1.00  0.00    -0.282 C  
HETATM    4  O   UNL     1     -13.020  15.732  70.441  1.00  0.00    -0.409 OA 
BRANCH   3   5
HETATM    5  O   UNL     1     -11.820  16.033  68.502  1.00  0.00    -0.343 OA 
BRANCH   5   6
HETATM    6  C   UNL     1     -10.403  16.049  68.317  1.00  0.00    -0.261 C  
HETATM    7  C   UNL     1      -8.428  15.913  66.743  1.00  0.00    -0.297 C  
HETATM    8  C   UNL     1     -10.362  18.300  66.122  1.00  0.00    -0.414 C  
HETATM    9  C   UNL     1     -10.659  16.824  65.884  1.00  0.00    -0.255 C  
HETATM   10  C   UNL     1      -9.970  15.842  66.859  1.00  0.00    -0.247 C  
BRANCH   7  11
HETATM   11  C   UNL     1      -7.712  14.838  67.572  1.00  0.00    -0.215 C  
BRANCH  11  12
HETATM   12  C   UNL     1      -8.282  13.442  67.330  1.00  0.00    -0.188 C  
HETATM   13  C   UNL     1      -7.953  12.519  68.495  1.00  0.00    -0.097 C  
ENDBRANCH  11  12
ENDBRANCH   7  11
ENDBRANCH   5   6
ENDBRANCH   3   5
ENDBRANCH   1   3
BRANCH   2  14
HETATM   14  C   UNL     1     -11.478  11.725  68.652  1.00  0.00    -0.346 A  
HETATM   15  C   UNL     1     -10.631   9.057  68.844  1.00  0.00    -0.180 A  
HETATM   16  C   UNL     1     -11.093  11.024  67.508  1.00  0.00    -0.366 A  
HETATM   17  C   UNL     1     -11.448  11.086  69.895  1.00  0.00    -0.400 A  
HETATM   18  C   UNL     1     -10.671   9.693  67.603  1.00  0.00    -0.324 A  
HETATM   19  C   UNL     1     -11.016   9.762  69.987  1.00  0.00    -0.319 A  
BRANCH  15  20
HETATM   20  O   UNL     1     -10.179   7.787  69.070  1.00  0.00    -0.198 OA 
HETATM   21  C   UNL     1     -11.118   6.877  69.629  1.00  0.00    -0.258 C  
ENDBRANCH  15  20
ENDBRANCH   2  14
TORSDOF 7
ENDMDL
MODEL       93
REMARK 921   NORMALIZED FREE ENERGY PREDICTED BY IDOCK:   -4.49 KCAL/MOL
REMARK 922        TOTAL FREE ENERGY PREDICTED BY IDOCK:   -7.45 KCAL/MOL
REMARK 923 INTER-LIGAND FREE ENERGY PREDICTED BY IDOCK:   -6.87 KCAL/MOL
REMARK 924 INTRA-LIGAND FREE ENERGY PREDICTED BY IDOCK:   -0.58 KCAL/MOL
REMARK 927      BINDING AFFINITY PREDICTED BY RF-SCORE:    0.00 PKD
ROOT
HETATM    1  C   UNL     1     -11.099  10.834  69.525  1.00  0.00    -0.334 C  
HETATM    2  C   UNL     1     -10.954   9.520  69.291  1.00  0.00    -0.167 C  
ENDROOT
BRANCH   1   3
HETATM    3  C   UNL     1     -11.237  11.843  68.450  1.00  0.00    -0.258 C  
HETATM    4  O   UNL     1     -12.135  11.792  67.622  1.00  0.00    -0.598 OA 
BRANCH   3   5
HETATM    5  O   UNL     1     -10.163  12.664  68.420  1.00  0.00    -0.230 OA 
BRANCH   5   6
HETATM    6  C   UNL     1     -10.506  14.051  68.421  1.00  0.00    -0.253 C  
HETATM    7  C   UNL     1     -10.194  16.356  67.426  1.00  0.00    -0.281 C  
HETATM    8  C   UNL     1     -11.239  14.233  65.370  1.00  0.00    -0.329 C  
HETATM    9  C   UNL     1      -9.834  14.292  65.956  1.00  0.00    -0.336 C  
HETATM   10  C   UNL     1      -9.735  14.879  67.384  1.00  0.00    -0.217 C  
BRANCH   7  11
HETATM   11  C   UNL     1      -9.954  17.022  68.788  1.00  0.00    -0.293 C  
BRANCH  11  12
HETATM   12  C   UNL     1     -10.121  18.538  68.730  1.00  0.00    -0.394 C  
HETATM   13  C   UNL     1     -10.578  18.977  67.346  1.00  0.00    -0.559 C  
ENDBRANCH  11  12
ENDBRANCH   7  11
ENDBRANCH   5   6
ENDBRANCH   3   5
ENDBRANCH   1   3
BRANCH   2  14
HETATM   14  C   UNL     1     -10.977   8.556  70.386  1.00  0.00    -0.254 A  
HETATM   15  C   UNL     1     -10.946   6.694  72.484  1.00  0.00    -0.247 A  
HETATM   16  C   UNL     1     -11.130   7.194  70.122  1.00  0.00    -0.301 A  
HETATM   17  C   UNL     1     -10.817   8.989  71.706  1.00  0.00    -0.437 A  
HETATM   18  C   UNL     1     -11.116   6.265  71.168  1.00  0.00    -0.356 A  
HETATM   19  C   UNL     1     -10.792   8.058  72.746  1.00  0.00    -0.438 A  
BRANCH  15  20
HETATM   20  O   UNL     1     -10.852   5.880  73.578  1.00  0.00    -0.265 OA 
HETATM   21  C   UNL     1     -11.139   4.504  73.363  1.00  0.00    -0.322 C  
ENDBRANCH  15  20
ENDBRANCH   2  14
TORSDOF 7
ENDMDL
MODEL       94
REMARK 921   NORMALIZED FREE ENERGY PREDICTED BY IDOCK:   -4.48 KCAL/MOL
REMARK 922        TOTAL FREE ENERGY PREDICTED BY IDOCK:   -7.44 KCAL/MOL
REMARK 923 INTER-LIGAND FREE ENERGY PREDICTED BY IDOCK:   -6.08 KCAL/MOL
REMARK 924 INTRA-LIGAND FREE ENERGY PREDICTED BY IDOCK:   -1.35 KCAL/MOL
REMARK 927      BINDING AFFINITY PREDICTED BY RF-SCORE:    0.00 PKD
ROOT
HETATM    1  C   UNL     1     -11.762  13.775  69.601  1.00  0.00    -0.379 C  
HETATM    2  C   UNL     1     -11.992  13.381  68.338  1.00  0.00    -0.359 C  
ENDROOT
BRANCH   1   3
HETATM    3  C   UNL     1     -12.455  14.919  70.235  1.00  0.00    -0.336 C  
HETATM    4  O   UNL     1     -13.483  14.779  70.882  1.00  0.00    -0.365 OA 
BRANCH   3   5
HETATM    5  O   UNL     1     -11.906  16.091  69.844  1.00  0.00    -0.315 OA 
BRANCH   5   6
HETATM    6  C   UNL     1     -10.477  16.091  69.880  1.00  0.00    -0.287 C  
HETATM    7  C   UNL     1      -8.285  16.472  68.677  1.00  0.00    -0.234 C  
HETATM    8  C   UNL     1     -10.100  19.025  68.814  1.00  0.00    -0.429 C  
HETATM    9  C   UNL     1     -10.358  17.790  67.960  1.00  0.00    -0.395 C  
HETATM   10  C   UNL     1      -9.826  16.458  68.539  1.00  0.00    -0.231 C  
BRANCH   7  11
HETATM   11  C   UNL     1      -7.705  15.113  69.090  1.00  0.00    -0.195 C  
BRANCH  11  12
HETATM   12  C   UNL     1      -8.124  13.991  68.143  1.00  0.00    -0.151 C  
HETATM   13  C   UNL     1      -7.275  12.748  68.375  1.00  0.00    -0.115 C  
ENDBRANCH  11  12
ENDBRANCH   7  11
ENDBRANCH   5   6
ENDBRANCH   3   5
ENDBRANCH   1   3
BRANCH   2  14
HETATM   14  C   UNL     1     -11.395  12.156  67.815  1.00  0.00    -0.371 A  
HETATM   15  C   UNL     1     -10.315   9.783  66.778  1.00  0.00    -0.218 A  
HETATM   16  C   UNL     1     -11.441  10.976  68.560  1.00  0.00    -0.379 A  
HETATM   17  C   UNL     1     -10.798  12.151  66.551  1.00  0.00    -0.307 A  
HETATM   18  C   UNL     1     -10.902   9.793  68.044  1.00  0.00    -0.276 A  
HETATM   19  C   UNL     1     -10.271  10.965  66.034  1.00  0.00    -0.311 A  
BRANCH  15  20
HETATM   20  O   UNL     1      -9.814   8.680  66.145  1.00  0.00    -0.262 OA 
HETATM   21  C   UNL     1      -8.810   8.920  65.167  1.00  0.00    -0.166 C  
ENDBRANCH  15  20
ENDBRANCH   2  14
TORSDOF 7
ENDMDL
MODEL       95
REMARK 921   NORMALIZED FREE ENERGY PREDICTED BY IDOCK:   -4.48 KCAL/MOL
REMARK 922        TOTAL FREE ENERGY PREDICTED BY IDOCK:   -7.43 KCAL/MOL
REMARK 923 INTER-LIGAND FREE ENERGY PREDICTED BY IDOCK:   -6.41 KCAL/MOL
REMARK 924 INTRA-LIGAND FREE ENERGY PREDICTED BY IDOCK:   -1.02 KCAL/MOL
REMARK 927      BINDING AFFINITY PREDICTED BY RF-SCORE:    0.00 PKD
ROOT
HETATM    1  C   UNL     1      -9.413  12.999  68.275  1.00  0.00    -0.208 C  
HETATM    2  C   UNL     1      -9.336  11.658  68.274  1.00  0.00    -0.191 C  
ENDROOT
BRANCH   1   3
HETATM    3  C   UNL     1      -8.836  13.848  67.208  1.00  0.00    -0.221 C  
HETATM    4  O   UNL     1      -7.639  14.089  67.145  1.00  0.00    -0.123 OA 
BRANCH   3   5
HETATM    5  O   UNL     1      -9.813  14.433  66.479  1.00  0.00    -0.265 OA 
BRANCH   5   6
HETATM    6  C   UNL     1      -9.974  13.859  65.179  1.00  0.00    -0.218 C  
HETATM    7  C   UNL     1     -11.056  12.108  63.709  1.00  0.00    -0.505 C  
HETATM    8  C   UNL     1     -13.113  14.009  65.116  1.00  0.00    -0.107 C  
HETATM    9  C   UNL     1     -12.283  12.928  65.799  1.00  0.00    -0.498 C  
HETATM   10  C   UNL     1     -10.907  12.641  65.154  1.00  0.00    -0.321 C  
BRANCH   7  11
HETATM   11  C   UNL     1      -9.724  11.655  63.095  1.00  0.00    -0.385 C  
BRANCH  11  12
HETATM   12  C   UNL     1      -9.499  10.153  63.241  1.00  0.00    -0.302 C  
HETATM   13  C   UNL     1      -8.929   9.826  64.615  1.00  0.00    -0.270 C  
ENDBRANCH  11  12
ENDBRANCH   7  11
ENDBRANCH   5   6
ENDBRANCH   3   5
ENDBRANCH   1   3
BRANCH   2  14
HETATM   14  C   UNL     1     -10.053  10.865  69.268  1.00  0.00    -0.164 A  
HETATM   15  C   UNL     1     -11.403   9.385  71.232  1.00  0.00    -0.366 A  
HETATM   16  C   UNL     1      -9.434   9.772  69.876  1.00  0.00    -0.264 A  
HETATM   17  C   UNL     1     -11.356  11.213  69.637  1.00  0.00    -0.366 A  
HETATM   18  C   UNL     1     -10.107   9.033  70.855  1.00  0.00    -0.329 A  
HETATM   19  C   UNL     1     -12.020  10.480  70.622  1.00  0.00    -0.455 A  
BRANCH  15  20
HETATM   20  O   UNL     1     -12.134   8.781  72.217  1.00  0.00    -0.366 OA 
HETATM   21  C   UNL     1     -13.514   9.119  72.271  1.00  0.00    -0.486 C  
ENDBRANCH  15  20
ENDBRANCH   2  14
TORSDOF 7
ENDMDL
MODEL       96
REMARK 921   NORMALIZED FREE ENERGY PREDICTED BY IDOCK:   -4.47 KCAL/MOL
REMARK 922        TOTAL FREE ENERGY PREDICTED BY IDOCK:   -7.42 KCAL/MOL
REMARK 923 INTER-LIGAND FREE ENERGY PREDICTED BY IDOCK:   -6.55 KCAL/MOL
REMARK 924 INTRA-LIGAND FREE ENERGY PREDICTED BY IDOCK:   -0.86 KCAL/MOL
REMARK 927      BINDING AFFINITY PREDICTED BY RF-SCORE:    0.00 PKD
ROOT
HETATM    1  C   UNL     1     -10.460  12.687  67.857  1.00  0.00    -0.225 C  
HETATM    2  C   UNL     1      -9.759  13.381  66.946  1.00  0.00    -0.253 C  
ENDROOT
BRANCH   1   3
HETATM    3  C   UNL     1     -10.807  11.256  67.699  1.00  0.00    -0.238 C  
HETATM    4  O   UNL     1     -10.221  10.528  66.911  1.00  0.00    -0.210 OA 
BRANCH   3   5
HETATM    5  O   UNL     1     -11.934  10.956  68.384  1.00  0.00    -0.543 OA 
BRANCH   5   6
HETATM    6  C   UNL     1     -12.035  11.633  69.639  1.00  0.00    -0.324 C  
HETATM    7  C   UNL     1     -12.805  11.617  72.048  1.00  0.00    -0.250 C  
HETATM    8  C   UNL     1     -10.749   9.349  71.374  1.00  0.00    -0.407 C  
HETATM    9  C   UNL     1     -12.198   9.408  70.907  1.00  0.00    -0.297 C  
HETATM   10  C   UNL     1     -12.777  10.830  70.716  1.00  0.00    -0.451 C  
BRANCH   7  11
HETATM   11  C   UNL     1     -13.524  12.967  71.934  1.00  0.00    -0.498 C  
BRANCH  11  12
HETATM   12  C   UNL     1     -12.804  14.075  72.698  1.00  0.00    -0.403 C  
HETATM   13  C   UNL     1     -11.939  14.902  71.757  1.00  0.00    -0.435 C  
ENDBRANCH  11  12
ENDBRANCH   7  11
ENDBRANCH   5   6
ENDBRANCH   3   5
ENDBRANCH   1   3
BRANCH   2  14
HETATM   14  C   UNL     1      -9.314  14.743  67.222  1.00  0.00    -0.211 A  
HETATM   15  C   UNL     1      -8.387  17.340  67.743  1.00  0.00    -0.212 A  
HETATM   16  C   UNL     1      -9.000  15.131  68.526  1.00  0.00    -0.186 A  
HETATM   17  C   UNL     1      -9.173  15.661  66.177  1.00  0.00    -0.378 A  
HETATM   18  C   UNL     1      -8.538  16.426  68.787  1.00  0.00    -0.250 A  
HETATM   19  C   UNL     1      -8.702  16.949  66.439  1.00  0.00    -0.321 A  
BRANCH  15  20
HETATM   20  O   UNL     1      -7.887  18.606  67.865  1.00  0.00    -0.248 OA 
HETATM   21  C   UNL     1      -6.481  18.744  67.705  1.00  0.00    -0.211 C  
ENDBRANCH  15  20
ENDBRANCH   2  14
TORSDOF 7
ENDMDL
MODEL       97
REMARK 921   NORMALIZED FREE ENERGY PREDICTED BY IDOCK:   -4.45 KCAL/MOL
REMARK 922        TOTAL FREE ENERGY PREDICTED BY IDOCK:   -7.39 KCAL/MOL
REMARK 923 INTER-LIGAND FREE ENERGY PREDICTED BY IDOCK:   -6.36 KCAL/MOL
REMARK 924 INTRA-LIGAND FREE ENERGY PREDICTED BY IDOCK:   -1.03 KCAL/MOL
REMARK 927      BINDING AFFINITY PREDICTED BY RF-SCORE:    0.00 PKD
ROOT
HETATM    1  C   UNL     1     -12.160   9.916  71.492  1.00  0.00    -0.496 C  
HETATM    2  C   UNL     1     -12.824  10.979  71.010  1.00  0.00    -0.442 C  
ENDROOT
BRANCH   1   3
HETATM    3  C   UNL     1     -12.760   8.937  72.427  1.00  0.00    -0.368 C  
HETATM    4  O   UNL     1     -13.927   9.011  72.786  1.00  0.00    -0.450 OA 
BRANCH   3   5
HETATM    5  O   UNL     1     -11.814   8.117  72.937  1.00  0.00    -0.352 OA 
BRANCH   5   6
HETATM    6  C   UNL     1     -10.579   8.156  72.218  1.00  0.00    -0.309 C  
HETATM    7  C   UNL     1      -8.678   6.902  71.117  1.00  0.00    -0.135 C  
HETATM    8  C   UNL     1     -11.484   6.279  69.864  1.00  0.00    -0.459 C  
HETATM    9  C   UNL     1     -10.996   5.823  71.234  1.00  0.00    -0.299 C  
HETATM   10  C   UNL     1      -9.989   6.769  71.929  1.00  0.00    -0.187 C  
BRANCH   7  11
HETATM   11  C   UNL     1      -7.592   7.697  71.853  1.00  0.00    -0.086 C  
BRANCH  11  12
HETATM   12  C   UNL     1      -6.798   8.602  70.914  1.00  0.00    -0.061 C  
HETATM   13  C   UNL     1      -7.609   9.836  70.543  1.00  0.00    -0.110 C  
ENDBRANCH  11  12
ENDBRANCH   7  11
ENDBRANCH   5   6
ENDBRANCH   3   5
ENDBRANCH   1   3
BRANCH   2  14
HETATM   14  C   UNL     1     -12.237  11.824  69.975  1.00  0.00    -0.317 A  
HETATM   15  C   UNL     1     -11.040  13.437  68.016  1.00  0.00    -0.255 A  
HETATM   16  C   UNL     1     -12.079  13.194  70.190  1.00  0.00    -0.392 A  
HETATM   17  C   UNL     1     -11.803  11.261  68.771  1.00  0.00    -0.396 A  
HETATM   18  C   UNL     1     -11.483  13.999  69.214  1.00  0.00    -0.344 A  
HETATM   19  C   UNL     1     -11.198  12.065  67.804  1.00  0.00    -0.331 A  
BRANCH  15  20
HETATM   20  O   UNL     1     -10.388  14.107  67.019  1.00  0.00    -0.264 OA 
HETATM   21  C   UNL     1     -11.113  15.156  66.390  1.00  0.00    -0.312 C  
ENDBRANCH  15  20
ENDBRANCH   2  14
TORSDOF 7
ENDMDL
MODEL       98
REMARK 921   NORMALIZED FREE ENERGY PREDICTED BY IDOCK:   -4.44 KCAL/MOL
REMARK 922        TOTAL FREE ENERGY PREDICTED BY IDOCK:   -7.38 KCAL/MOL
REMARK 923 INTER-LIGAND FREE ENERGY PREDICTED BY IDOCK:   -6.41 KCAL/MOL
REMARK 924 INTRA-LIGAND FREE ENERGY PREDICTED BY IDOCK:   -0.97 KCAL/MOL
REMARK 927      BINDING AFFINITY PREDICTED BY RF-SCORE:    0.00 PKD
ROOT
HETATM    1  C   UNL     1     -10.443  11.252  68.504  1.00  0.00    -0.218 C  
HETATM    2  C   UNL     1     -11.480  12.000  68.092  1.00  0.00    -0.383 C  
ENDROOT
BRANCH   1   3
HETATM    3  C   UNL     1     -10.428   9.773  68.435  1.00  0.00    -0.218 C  
HETATM    4  O   UNL     1     -10.905   9.162  67.489  1.00  0.00    -0.242 OA 
BRANCH   3   5
HETATM    5  O   UNL     1     -10.003   9.241  69.603  1.00  0.00    -0.175 OA 
BRANCH   5   6
HETATM    6  C   UNL     1     -10.866   8.222  70.112  1.00  0.00    -0.237 C  
HETATM    7  C   UNL     1     -12.316   7.360  71.997  1.00  0.00    -0.301 C  
HETATM    8  C   UNL     1     -13.256  10.124  70.854  1.00  0.00    -0.360 C  
HETATM    9  C   UNL     1     -12.010   9.883  71.697  1.00  0.00    -0.427 C  
HETATM   10  C   UNL     1     -11.360   8.489  71.540  1.00  0.00    -0.348 C  
BRANCH   7  11
HETATM   11  C   UNL     1     -11.650   5.978  72.013  1.00  0.00    -0.333 C  
BRANCH  11  12
HETATM   12  C   UNL     1     -10.620   5.842  73.131  1.00  0.00    -0.270 C  
HETATM   13  C   UNL     1      -9.576   4.793  72.776  1.00  0.00    -0.160 C  
ENDBRANCH  11  12
ENDBRANCH   7  11
ENDBRANCH   5   6
ENDBRANCH   3   5
ENDBRANCH   1   3
BRANCH   2  14
HETATM   14  C   UNL     1     -11.381  13.455  68.041  1.00  0.00    -0.320 A  
HETATM   15  C   UNL     1     -11.122  16.248  67.975  1.00  0.00    -0.299 A  
HETATM   16  C   UNL     1     -11.808  14.228  69.122  1.00  0.00    -0.368 A  
HETATM   17  C   UNL     1     -10.830  14.082  66.920  1.00  0.00    -0.290 A  
HETATM   18  C   UNL     1     -11.680  15.621  69.089  1.00  0.00    -0.402 A  
HETATM   19  C   UNL     1     -10.694  15.471  66.895  1.00  0.00    -0.317 A  
BRANCH  15  20
HETATM   20  O   UNL     1     -10.888  17.589  67.854  1.00  0.00    -0.374 OA 
HETATM   21  C   UNL     1     -10.166  17.999  66.700  1.00  0.00    -0.373 C  
ENDBRANCH  15  20
ENDBRANCH   2  14
TORSDOF 7
ENDMDL
MODEL       99
REMARK 921   NORMALIZED FREE ENERGY PREDICTED BY IDOCK:   -4.44 KCAL/MOL
REMARK 922        TOTAL FREE ENERGY PREDICTED BY IDOCK:   -7.38 KCAL/MOL
REMARK 923 INTER-LIGAND FREE ENERGY PREDICTED BY IDOCK:   -6.60 KCAL/MOL
REMARK 924 INTRA-LIGAND FREE ENERGY PREDICTED BY IDOCK:   -0.77 KCAL/MOL
REMARK 927      BINDING AFFINITY PREDICTED BY RF-SCORE:    0.00 PKD
ROOT
HETATM    1  C   UNL     1     -11.014  13.048  64.699  1.00  0.00    -0.364 C  
HETATM    2  C   UNL     1     -11.818  13.743  65.520  1.00  0.00    -0.378 C  
ENDROOT
BRANCH   1   3
HETATM    3  C   UNL     1     -11.491  11.944  63.835  1.00  0.00    -0.426 C  
HETATM    4  O   UNL     1     -12.556  12.001  63.236  1.00  0.00    -0.613 OA 
BRANCH   3   5
HETATM    5  O   UNL     1     -10.699  10.856  63.963  1.00  0.00    -0.353 OA 
BRANCH   5   6
HETATM    6  C   UNL     1     -10.203  10.666  65.290  1.00  0.00    -0.282 C  
HETATM    7  C   UNL     1      -8.963   9.211  66.946  1.00  0.00    -0.143 C  
HETATM    8  C   UNL     1      -7.233  10.045  64.469  1.00  0.00    -0.139 C  
HETATM    9  C   UNL     1      -8.389   9.053  64.457  1.00  0.00    -0.182 C  
HETATM   10  C   UNL     1      -9.502   9.317  65.499  1.00  0.00    -0.309 C  
BRANCH   7  11
HETATM   11  C   UNL     1     -10.067   9.301  68.008  1.00  0.00    -0.234 C  
BRANCH  11  12
HETATM   12  C   UNL     1      -9.788  10.384  69.047  1.00  0.00    -0.222 C  
HETATM   13  C   UNL     1      -9.132  11.595  68.398  1.00  0.00    -0.180 C  
ENDBRANCH  11  12
ENDBRANCH   7  11
ENDBRANCH   5   6
ENDBRANCH   3   5
ENDBRANCH   1   3
BRANCH   2  14
HETATM   14  C   UNL     1     -11.326  14.918  66.233  1.00  0.00    -0.306 A  
HETATM   15  C   UNL     1     -10.446  17.211  67.589  1.00  0.00    -0.355 A  
HETATM   16  C   UNL     1     -10.658  15.931  65.544  1.00  0.00    -0.419 A  
HETATM   17  C   UNL     1     -11.547  15.048  67.607  1.00  0.00    -0.327 A  
HETATM   18  C   UNL     1     -10.218  17.075  66.219  1.00  0.00    -0.336 A  
HETATM   19  C   UNL     1     -11.117  16.195  68.276  1.00  0.00    -0.348 A  
BRANCH  15  20
HETATM   20  O   UNL     1     -10.122  18.304  68.342  1.00  0.00    -0.355 OA 
HETATM   21  C   UNL     1      -9.698  19.457  67.625  1.00  0.00    -0.331 C  
ENDBRANCH  15  20
ENDBRANCH   2  14
TORSDOF 7
ENDMDL
MODEL      100
REMARK 921   NORMALIZED FREE ENERGY PREDICTED BY IDOCK:   -4.43 KCAL/MOL
REMARK 922        TOTAL FREE ENERGY PREDICTED BY IDOCK:   -7.36 KCAL/MOL
REMARK 923 INTER-LIGAND FREE ENERGY PREDICTED BY IDOCK:   -6.62 KCAL/MOL
REMARK 924 INTRA-LIGAND FREE ENERGY PREDICTED BY IDOCK:   -0.75 KCAL/MOL
REMARK 927      BINDING AFFINITY PREDICTED BY RF-SCORE:    0.00 PKD
ROOT
HETATM    1  C   UNL     1     -11.541  10.818  68.522  1.00  0.00    -0.325 C  
HETATM    2  C   UNL     1     -11.273  12.118  68.724  1.00  0.00    -0.314 C  
ENDROOT
BRANCH   1   3
HETATM    3  C   UNL     1     -10.740   9.951  67.627  1.00  0.00    -0.281 C  
HETATM    4  O   UNL     1     -10.236  10.372  66.595  1.00  0.00    -0.219 OA 
BRANCH   3   5
HETATM    5  O   UNL     1     -10.817   8.658  68.014  1.00  0.00    -0.122 OA 
BRANCH   5   6
HETATM    6  C   UNL     1     -10.084   8.377  69.209  1.00  0.00    -0.202 C  
HETATM    7  C   UNL     1      -9.890   7.076  71.369  1.00  0.00    -0.180 C  
HETATM    8  C   UNL     1      -9.955   5.261  68.815  1.00  0.00    -0.243 C  
HETATM    9  C   UNL     1     -11.132   6.041  69.386  1.00  0.00    -0.445 C  
HETATM   10  C   UNL     1     -10.767   7.350  70.124  1.00  0.00    -0.254 C  
BRANCH   7  11
HETATM   11  C   UNL     1      -9.645   8.329  72.220  1.00  0.00    -0.355 C  
BRANCH  11  12
HETATM   12  C   UNL     1      -8.323   8.266  72.980  1.00  0.00    -0.246 C  
HETATM   13  C   UNL     1      -7.148   8.464  72.032  1.00  0.00    -0.107 C  
ENDBRANCH  11  12
ENDBRANCH   7  11
ENDBRANCH   5   6
ENDBRANCH   3   5
ENDBRANCH   1   3
BRANCH   2  14
HETATM   14  C   UNL     1     -11.998  12.885  69.732  1.00  0.00    -0.365 A  
HETATM   15  C   UNL     1     -13.330  14.363  71.710  1.00  0.00    -0.366 A  
HETATM   16  C   UNL     1     -12.633  12.234  70.791  1.00  0.00    -0.302 A  
HETATM   17  C   UNL     1     -12.038  14.280  69.657  1.00  0.00    -0.396 A  
HETATM   18  C   UNL     1     -13.297  12.970  71.778  1.00  0.00    -0.468 A  
HETATM   19  C   UNL     1     -12.693  15.013  70.649  1.00  0.00    -0.428 A  
BRANCH  15  20
HETATM   20  O   UNL     1     -13.891  15.189  72.644  1.00  0.00    -0.474 OA 
HETATM   21  C   UNL     1     -13.015  15.690  73.645  1.00  0.00    -0.526 C  
ENDBRANCH  15  20
ENDBRANCH   2  14
TORSDOF 7
ENDMDL
MODEL      101
REMARK 921   NORMALIZED FREE ENERGY PREDICTED BY IDOCK:   -4.40 KCAL/MOL
REMARK 922        TOTAL FREE ENERGY PREDICTED BY IDOCK:   -7.32 KCAL/MOL
REMARK 923 INTER-LIGAND FREE ENERGY PREDICTED BY IDOCK:   -6.37 KCAL/MOL
REMARK 924 INTRA-LIGAND FREE ENERGY PREDICTED BY IDOCK:   -0.95 KCAL/MOL
REMARK 927      BINDING AFFINITY PREDICTED BY RF-SCORE:    0.00 PKD
ROOT
HETATM    1  C   UNL     1     -11.312  11.969  68.453  1.00  0.00    -0.332 C  
HETATM    2  C   UNL     1     -11.955  11.708  69.603  1.00  0.00    -0.390 C  
ENDROOT
BRANCH   1   3
HETATM    3  C   UNL     1     -10.974  10.928  67.455  1.00  0.00    -0.293 C  
HETATM    4  O   UNL     1     -11.058  11.130  66.252  1.00  0.00    -0.229 OA 
BRANCH   3   5
HETATM    5  O   UNL     1     -10.760   9.736  68.056  1.00  0.00    -0.237 OA 
BRANCH   5   6
HETATM    6  C   UNL     1      -9.376   9.415  68.207  1.00  0.00    -0.133 C  
HETATM    7  C   UNL     1      -7.322   9.339  69.682  1.00  0.00    -0.068 C  
HETATM    8  C   UNL     1      -9.709   7.619  70.765  1.00  0.00    -0.173 C  
HETATM    9  C   UNL     1      -9.642   9.141  70.744  1.00  0.00    -0.338 C  
HETATM   10  C   UNL     1      -8.811   9.754  69.593  1.00  0.00    -0.224 C  
BRANCH   7  11
HETATM   11  C   UNL     1      -6.435  10.058  68.658  1.00  0.00    -0.049 C  
BRANCH  11  12
HETATM   12  C   UNL     1      -6.382  11.566  68.892  1.00  0.00    -0.059 C  
HETATM   13  C   UNL     1      -5.889  11.874  70.300  1.00  0.00    -0.164 C  
ENDBRANCH  11  12
ENDBRANCH   7  11
ENDBRANCH   5   6
ENDBRANCH   3   5
ENDBRANCH   1   3
BRANCH   2  14
HETATM   14  C   UNL     1     -12.398  12.789  70.477  1.00  0.00    -0.355 A  
HETATM   15  C   UNL     1     -13.187  14.857  72.201  1.00  0.00    -0.361 A  
HETATM   16  C   UNL     1     -13.212  12.517  71.577  1.00  0.00    -0.298 A  
HETATM   17  C   UNL     1     -11.984  14.102  70.233  1.00  0.00    -0.404 A  
HETATM   18  C   UNL     1     -13.607  13.548  72.437  1.00  0.00    -0.709 A  
HETATM   19  C   UNL     1     -12.371  15.127  71.099  1.00  0.00    -0.404 A  
BRANCH  15  20
HETATM   20  O   UNL     1     -13.455  15.932  73.002  1.00  0.00    -0.551 OA 
HETATM   21  C   UNL     1     -12.535  16.171  74.059  1.00  0.00    -0.595 C  
ENDBRANCH  15  20
ENDBRANCH   2  14
TORSDOF 7
ENDMDL
MODEL      102
REMARK 921   NORMALIZED FREE ENERGY PREDICTED BY IDOCK:   -4.39 KCAL/MOL
REMARK 922        TOTAL FREE ENERGY PREDICTED BY IDOCK:   -7.31 KCAL/MOL
REMARK 923 INTER-LIGAND FREE ENERGY PREDICTED BY IDOCK:   -6.66 KCAL/MOL
REMARK 924 INTRA-LIGAND FREE ENERGY PREDICTED BY IDOCK:   -0.65 KCAL/MOL
REMARK 927      BINDING AFFINITY PREDICTED BY RF-SCORE:    0.00 PKD
ROOT
HETATM    1  C   UNL     1     -11.145   9.597  70.981  1.00  0.00    -0.438 C  
HETATM    2  C   UNL     1     -10.454   9.906  69.872  1.00  0.00    -0.309 C  
ENDROOT
BRANCH   1   3
HETATM    3  C   UNL     1     -10.640   8.678  72.026  1.00  0.00    -0.351 C  
HETATM    4  O   UNL     1      -9.532   8.809  72.527  1.00  0.00    -0.290 OA 
BRANCH   3   5
HETATM    5  O   UNL     1     -11.473   7.625  72.184  1.00  0.00    -0.269 OA 
BRANCH   5   6
HETATM    6  C   UNL     1     -11.411   6.683  71.111  1.00  0.00    -0.306 C  
HETATM    7  C   UNL     1     -10.109   4.904  69.869  1.00  0.00    -0.332 C  
HETATM    8  C   UNL     1     -10.652   4.193  72.873  1.00  0.00    -0.245 C  
HETATM    9  C   UNL     1      -9.687   5.258  72.368  1.00  0.00    -0.183 C  
HETATM   10  C   UNL     1     -10.077   5.928  71.030  1.00  0.00    -0.252 C  
BRANCH   7  11
HETATM   11  C   UNL     1     -10.329   5.557  68.498  1.00  0.00    -0.247 C  
BRANCH  11  12
HETATM   12  C   UNL     1      -9.885   4.657  67.348  1.00  0.00    -0.207 C  
HETATM   13  C   UNL     1     -10.630   5.012  66.068  1.00  0.00    -0.286 C  
ENDBRANCH  11  12
ENDBRANCH   7  11
ENDBRANCH   5   6
ENDBRANCH   3   5
ENDBRANCH   1   3
BRANCH   2  14
HETATM   14  C   UNL     1     -10.932  10.933  68.953  1.00  0.00    -0.278 A  
HETATM   15  C   UNL     1     -11.781  12.940  67.185  1.00  0.00    -0.377 A  
HETATM   16  C   UNL     1     -11.441  12.137  69.444  1.00  0.00    -0.355 A  
HETATM   17  C   UNL     1     -10.856  10.730  67.572  1.00  0.00    -0.342 A  
HETATM   18  C   UNL     1     -11.865  13.137  68.563  1.00  0.00    -0.377 A  
HETATM   19  C   UNL     1     -11.270  11.735  66.695  1.00  0.00    -0.383 A  
BRANCH  15  20
HETATM   20  O   UNL     1     -12.104  13.863  66.231  1.00  0.00    -0.405 OA 
HETATM   21  C   UNL     1     -12.514  13.347  64.971  1.00  0.00    -0.428 C  
ENDBRANCH  15  20
ENDBRANCH   2  14
TORSDOF 7
ENDMDL
MODEL      103
REMARK 921   NORMALIZED FREE ENERGY PREDICTED BY IDOCK:   -4.39 KCAL/MOL
REMARK 922        TOTAL FREE ENERGY PREDICTED BY IDOCK:   -7.30 KCAL/MOL
REMARK 923 INTER-LIGAND FREE ENERGY PREDICTED BY IDOCK:   -6.10 KCAL/MOL
REMARK 924 INTRA-LIGAND FREE ENERGY PREDICTED BY IDOCK:   -1.20 KCAL/MOL
REMARK 927      BINDING AFFINITY PREDICTED BY RF-SCORE:    0.00 PKD
ROOT
HETATM    1  C   UNL     1     -12.102   9.147  71.034  1.00  0.00    -0.324 C  
HETATM    2  C   UNL     1     -11.805   8.266  72.004  1.00  0.00    -0.408 C  
ENDROOT
BRANCH   1   3
HETATM    3  C   UNL     1     -12.536  10.537  71.303  1.00  0.00    -0.419 C  
HETATM    4  O   UNL     1     -13.421  10.799  72.105  1.00  0.00    -0.379 OA 
BRANCH   3   5
HETATM    5  O   UNL     1     -11.963  11.396  70.430  1.00  0.00    -0.340 OA 
BRANCH   5   6
HETATM    6  C   UNL     1     -11.125  10.755  69.466  1.00  0.00    -0.278 C  
HETATM    7  C   UNL     1     -10.540  10.350  67.039  1.00  0.00    -0.305 C  
HETATM    8  C   UNL     1     -10.343  13.361  67.891  1.00  0.00    -0.238 C  
HETATM    9  C   UNL     1     -11.630  12.563  67.718  1.00  0.00    -0.401 C  
HETATM   10  C   UNL     1     -11.519  11.049  68.013  1.00  0.00    -0.365 C  
BRANCH   7  11
HETATM   11  C   UNL     1     -10.528   8.823  67.191  1.00  0.00    -0.354 C  
BRANCH  11  12
HETATM   12  C   UNL     1      -9.126   8.276  67.449  1.00  0.00    -0.155 C  
HETATM   13  C   UNL     1      -8.098   9.398  67.426  1.00  0.00    -0.110 C  
ENDBRANCH  11  12
ENDBRANCH   7  11
ENDBRANCH   5   6
ENDBRANCH   3   5
ENDBRANCH   1   3
BRANCH   2  14
HETATM   14  C   UNL     1     -11.237   6.961  71.682  1.00  0.00    -0.280 A  
HETATM   15  C   UNL     1     -10.076   4.483  71.063  1.00  0.00    -0.152 A  
HETATM   16  C   UNL     1     -11.058   6.580  70.351  1.00  0.00    -0.389 A  
HETATM   17  C   UNL     1     -10.843   6.095  72.707  1.00  0.00    -0.282 A  
HETATM   18  C   UNL     1     -10.479   5.344  70.042  1.00  0.00    -0.373 A  
HETATM   19  C   UNL     1     -10.256   4.868  72.394  1.00  0.00    -0.255 A  
BRANCH  15  20
HETATM   20  O   UNL     1      -9.445   3.284  70.886  1.00  0.00    -0.142 OA 
HETATM   21  C   UNL     1      -9.789   2.252  71.802  1.00  0.00    -0.152 C  
ENDBRANCH  15  20
ENDBRANCH   2  14
TORSDOF 7
ENDMDL
MODEL      104
REMARK 921   NORMALIZED FREE ENERGY PREDICTED BY IDOCK:   -4.34 KCAL/MOL
REMARK 922        TOTAL FREE ENERGY PREDICTED BY IDOCK:   -7.24 KCAL/MOL
REMARK 923 INTER-LIGAND FREE ENERGY PREDICTED BY IDOCK:   -6.68 KCAL/MOL
REMARK 924 INTRA-LIGAND FREE ENERGY PREDICTED BY IDOCK:   -0.56 KCAL/MOL
REMARK 927      BINDING AFFINITY PREDICTED BY RF-SCORE:    0.00 PKD
ROOT
HETATM    1  C   UNL     1     -10.667  13.348  66.521  1.00  0.00    -0.287 C  
HETATM    2  C   UNL     1     -11.297  14.431  67.006  1.00  0.00    -0.357 C  
ENDROOT
BRANCH   1   3
HETATM    3  C   UNL     1     -11.347  12.060  66.257  1.00  0.00    -0.357 C  
HETATM    4  O   UNL     1     -12.404  11.996  65.646  1.00  0.00    -0.470 OA 
BRANCH   3   5
HETATM    5  O   UNL     1     -10.745  11.052  66.928  1.00  0.00    -0.253 OA 
BRANCH   5   6
HETATM    6  C   UNL     1     -10.968  11.095  68.340  1.00  0.00    -0.227 C  
HETATM    7  C   UNL     1     -11.195   9.851  70.530  1.00  0.00    -0.399 C  
HETATM    8  C   UNL     1      -8.409   9.456  69.147  1.00  0.00    -0.125 C  
HETATM    9  C   UNL     1      -9.733   8.870  68.673  1.00  0.00    -0.169 C  
HETATM   10  C   UNL     1     -10.989   9.711  69.003  1.00  0.00    -0.161 C  
BRANCH   7  11
HETATM   11  C   UNL     1     -12.518  10.536  70.899  1.00  0.00    -0.488 C  
BRANCH  11  12
HETATM   12  C   UNL     1     -13.107  10.000  72.201  1.00  0.00    -0.482 C  
HETATM   13  C   UNL     1     -13.851   8.694  71.957  1.00  0.00    -0.491 C  
ENDBRANCH  11  12
ENDBRANCH   7  11
ENDBRANCH   5   6
ENDBRANCH   3   5
ENDBRANCH   1   3
BRANCH   2  14
HETATM   14  C   UNL     1     -10.613  15.716  67.102  1.00  0.00    -0.308 A  
HETATM   15  C   UNL     1      -9.349  18.217  67.239  1.00  0.00    -0.252 A  
HETATM   16  C   UNL     1      -9.601  16.044  66.199  1.00  0.00    -0.366 A  
HETATM   17  C   UNL     1     -10.988  16.639  68.083  1.00  0.00    -0.327 A  
HETATM   18  C   UNL     1      -8.969  17.291  66.267  1.00  0.00    -0.250 A  
HETATM   19  C   UNL     1     -10.363  17.886  68.142  1.00  0.00    -0.395 A  
BRANCH  15  20
HETATM   20  O   UNL     1      -8.852  19.484  67.365  1.00  0.00    -0.293 OA 
HETATM   21  C   UNL     1      -9.666  20.411  68.070  1.00  0.00    -0.219 C  
ENDBRANCH  15  20
ENDBRANCH   2  14
TORSDOF 7
ENDMDL
MODEL      105
REMARK 921   NORMALIZED FREE ENERGY PREDICTED BY IDOCK:   -4.33 KCAL/MOL
REMARK 922        TOTAL FREE ENERGY PREDICTED BY IDOCK:   -7.22 KCAL/MOL
REMARK 923 INTER-LIGAND FREE ENERGY PREDICTED BY IDOCK:   -6.30 KCAL/MOL
REMARK 924 INTRA-LIGAND FREE ENERGY PREDICTED BY IDOCK:   -0.92 KCAL/MOL
REMARK 927      BINDING AFFINITY PREDICTED BY RF-SCORE:    0.00 PKD
ROOT
HETATM    1  C   UNL     1     -10.287   8.732  69.102  1.00  0.00    -0.227 C  
HETATM    2  C   UNL     1     -11.137   8.853  70.135  1.00  0.00    -0.217 C  
ENDROOT
BRANCH   1   3
HETATM    3  C   UNL     1      -9.774   7.431  68.618  1.00  0.00    -0.152 C  
HETATM    4  O   UNL     1      -9.646   6.466  69.359  1.00  0.00    -0.142 OA 
BRANCH   3   5
HETATM    5  O   UNL     1      -9.316   7.536  67.350  1.00  0.00    -0.136 OA 
BRANCH   5   6
HETATM    6  C   UNL     1      -9.981   8.545  66.587  1.00  0.00    -0.293 C  
HETATM    7  C   UNL     1      -9.836  10.674  65.229  1.00  0.00    -0.334 C  
HETATM    8  C   UNL     1      -8.162   8.309  64.034  1.00  0.00    -0.098 C  
HETATM    9  C   UNL     1      -7.829   9.089  65.300  1.00  0.00    -0.102 C  
HETATM   10  C   UNL     1      -9.044   9.648  66.075  1.00  0.00    -0.212 C  
BRANCH   7  11
HETATM   11  C   UNL     1     -10.949  11.374  66.020  1.00  0.00    -0.286 C  
BRANCH  11  12
HETATM   12  C   UNL     1     -11.250  12.773  65.487  1.00  0.00    -0.329 C  
HETATM   13  C   UNL     1     -12.556  12.781  64.705  1.00  0.00    -0.518 C  
ENDBRANCH  11  12
ENDBRANCH   7  11
ENDBRANCH   5   6
ENDBRANCH   3   5
ENDBRANCH   1   3
BRANCH   2  14
HETATM   14  C   UNL     1     -11.730  10.143  70.472  1.00  0.00    -0.407 A  
HETATM   15  C   UNL     1     -12.813  12.636  71.167  1.00  0.00    -0.220 A  
HETATM   16  C   UNL     1     -12.611  10.253  71.549  1.00  0.00    -0.544 A  
HETATM   17  C   UNL     1     -11.396  11.282  69.734  1.00  0.00    -0.348 A  
HETATM   18  C   UNL     1     -13.152  11.496  71.896  1.00  0.00    -0.492 A  
HETATM   19  C   UNL     1     -11.929  12.523  70.090  1.00  0.00    -0.377 A  
BRANCH  15  20
HETATM   20  O   UNL     1     -13.225  13.908  71.448  1.00  0.00    -0.337 OA 
HETATM   21  C   UNL     1     -13.359  14.235  72.825  1.00  0.00    -0.525 C  
ENDBRANCH  15  20
ENDBRANCH   2  14
TORSDOF 7
ENDMDL
MODEL      106
REMARK 921   NORMALIZED FREE ENERGY PREDICTED BY IDOCK:   -4.33 KCAL/MOL
REMARK 922        TOTAL FREE ENERGY PREDICTED BY IDOCK:   -7.22 KCAL/MOL
REMARK 923 INTER-LIGAND FREE ENERGY PREDICTED BY IDOCK:   -6.33 KCAL/MOL
REMARK 924 INTRA-LIGAND FREE ENERGY PREDICTED BY IDOCK:   -0.89 KCAL/MOL
REMARK 927      BINDING AFFINITY PREDICTED BY RF-SCORE:    0.00 PKD
ROOT
HETATM    1  C   UNL     1     -10.372  10.778  68.945  1.00  0.00    -0.220 C  
HETATM    2  C   UNL     1     -11.133  10.613  67.851  1.00  0.00    -0.371 C  
ENDROOT
BRANCH   1   3
HETATM    3  C   UNL     1      -9.948   9.659  69.818  1.00  0.00    -0.227 C  
HETATM    4  O   UNL     1      -8.887   9.674  70.425  1.00  0.00    -0.235 OA 
BRANCH   3   5
HETATM    5  O   UNL     1     -10.785   8.605  69.689  1.00  0.00    -0.229 OA 
BRANCH   5   6
HETATM    6  C   UNL     1     -10.112   7.344  69.660  1.00  0.00    -0.186 C  
HETATM    7  C   UNL     1      -9.915   5.021  68.679  1.00  0.00    -0.215 C  
HETATM    8  C   UNL     1      -9.562   7.309  66.566  1.00  0.00    -0.211 C  
HETATM    9  C   UNL     1     -10.867   6.915  67.246  1.00  0.00    -0.426 C  
HETATM   10  C   UNL     1     -10.725   6.340  68.675  1.00  0.00    -0.357 C  
BRANCH   7  11
HETATM   11  C   UNL     1      -9.893   4.334  70.051  1.00  0.00    -0.275 C  
BRANCH  11  12
HETATM   12  C   UNL     1      -9.377   2.899  69.974  1.00  0.00    -0.212 C  
HETATM   13  C   UNL     1      -9.714   2.137  71.248  1.00  0.00    -0.201 C  
ENDBRANCH  11  12
ENDBRANCH   7  11
ENDBRANCH   5   6
ENDBRANCH   3   5
ENDBRANCH   1   3
BRANCH   2  14
HETATM   14  C   UNL     1     -11.392  11.726  66.944  1.00  0.00    -0.386 A  
HETATM   15  C   UNL     1     -11.822  13.895  65.216  1.00  0.00    -0.357 A  
HETATM   16  C   UNL     1     -11.969  12.904  67.421  1.00  0.00    -0.360 A  
HETATM   17  C   UNL     1     -11.037  11.630  65.595  1.00  0.00    -0.308 A  
HETATM   18  C   UNL     1     -12.185  13.986  66.560  1.00  0.00    -0.485 A  
HETATM   19  C   UNL     1     -11.243  12.715  64.741  1.00  0.00    -0.337 A  
BRANCH  15  20
HETATM   20  O   UNL     1     -11.924  14.902  64.297  1.00  0.00    -0.431 OA 
HETATM   21  C   UNL     1     -11.214  16.097  64.594  1.00  0.00    -0.298 C  
ENDBRANCH  15  20
ENDBRANCH   2  14
TORSDOF 7
ENDMDL
MODEL      107
REMARK 921   NORMALIZED FREE ENERGY PREDICTED BY IDOCK:   -4.31 KCAL/MOL
REMARK 922        TOTAL FREE ENERGY PREDICTED BY IDOCK:   -7.20 KCAL/MOL
REMARK 923 INTER-LIGAND FREE ENERGY PREDICTED BY IDOCK:   -6.44 KCAL/MOL
REMARK 924 INTRA-LIGAND FREE ENERGY PREDICTED BY IDOCK:   -0.76 KCAL/MOL
REMARK 927      BINDING AFFINITY PREDICTED BY RF-SCORE:    0.00 PKD
ROOT
HETATM    1  C   UNL     1     -11.491  15.025  68.177  1.00  0.00    -0.355 C  
HETATM    2  C   UNL     1     -11.484  15.048  69.519  1.00  0.00    -0.317 C  
ENDROOT
BRANCH   1   3
HETATM    3  C   UNL     1     -10.831  16.054  67.342  1.00  0.00    -0.277 C  
HETATM    4  O   UNL     1     -11.127  17.239  67.414  1.00  0.00    -0.126 OA 
BRANCH   3   5
HETATM    5  O   UNL     1     -10.036  15.481  66.410  1.00  0.00    -0.263 OA 
BRANCH   5   6
HETATM    6  C   UNL     1      -8.816  16.191  66.187  1.00  0.00    -0.332 C  
HETATM    7  C   UNL     1      -6.643  17.098  67.111  1.00  0.00    -0.210 C  
HETATM    8  C   UNL     1      -6.907  13.984  67.355  1.00  0.00    -0.025 C  
HETATM    9  C   UNL     1      -7.685  15.012  68.166  1.00  0.00    -0.115 C  
HETATM   10  C   UNL     1      -7.958  16.355  67.449  1.00  0.00    -0.179 C  
BRANCH   7  11
HETATM   11  C   UNL     1      -6.875  18.507  66.551  1.00  0.00    -0.230 C  
BRANCH  11  12
HETATM   12  C   UNL     1      -7.759  19.356  67.461  1.00  0.00    -0.289 C  
HETATM   13  C   UNL     1      -8.956  19.899  66.694  1.00  0.00    -0.452 C  
ENDBRANCH  11  12
ENDBRANCH   7  11
ENDBRANCH   5   6
ENDBRANCH   3   5
ENDBRANCH   1   3
BRANCH   2  14
HETATM   14  C   UNL     1     -12.017  13.929  70.291  1.00  0.00    -0.401 A  
HETATM   15  C   UNL     1     -13.103  11.780  71.730  1.00  0.00    -0.375 A  
HETATM   16  C   UNL     1     -12.838  14.164  71.395  1.00  0.00    -0.428 A  
HETATM   17  C   UNL     1     -11.730  12.615  69.911  1.00  0.00    -0.320 A  
HETATM   18  C   UNL     1     -13.380  13.092  72.114  1.00  0.00    -0.621 A  
HETATM   19  C   UNL     1     -12.281  11.548  70.624  1.00  0.00    -0.473 A  
BRANCH  15  20
HETATM   20  O   UNL     1     -13.622  10.658  72.312  1.00  0.00    -0.253 OA 
HETATM   21  C   UNL     1     -13.390   9.432  71.630  1.00  0.00    -0.404 C  
ENDBRANCH  15  20
ENDBRANCH   2  14
TORSDOF 7
ENDMDL
MODEL      108
REMARK 921   NORMALIZED FREE ENERGY PREDICTED BY IDOCK:   -4.30 KCAL/MOL
REMARK 922        TOTAL FREE ENERGY PREDICTED BY IDOCK:   -7.19 KCAL/MOL
REMARK 923 INTER-LIGAND FREE ENERGY PREDICTED BY IDOCK:   -6.52 KCAL/MOL
REMARK 924 INTRA-LIGAND FREE ENERGY PREDICTED BY IDOCK:   -0.67 KCAL/MOL
REMARK 927      BINDING AFFINITY PREDICTED BY RF-SCORE:    0.00 PKD
ROOT
HETATM    1  C   UNL     1      -9.978  13.277  67.544  1.00  0.00    -0.223 C  
HETATM    2  C   UNL     1      -9.394  14.260  66.840  1.00  0.00    -0.268 C  
ENDROOT
BRANCH   1   3
HETATM    3  C   UNL     1      -9.556  11.859  67.467  1.00  0.00    -0.175 C  
HETATM    4  O   UNL     1      -8.453  11.531  67.054  1.00  0.00    -0.151 OA 
BRANCH   3   5
HETATM    5  O   UNL     1     -10.594  11.034  67.728  1.00  0.00    -0.188 OA 
BRANCH   5   6
HETATM    6  C   UNL     1     -10.961  10.998  69.109  1.00  0.00    -0.237 C  
HETATM    7  C   UNL     1     -11.343   9.641  71.209  1.00  0.00    -0.458 C  
HETATM    8  C   UNL     1      -8.414   9.449  70.107  1.00  0.00    -0.224 C  
HETATM    9  C   UNL     1      -9.650   8.822  69.473  1.00  0.00    -0.167 C  
HETATM   10  C   UNL     1     -10.975   9.584  69.707  1.00  0.00    -0.245 C  
BRANCH   7  11
HETATM   11  C   UNL     1     -12.731  10.242  71.467  1.00  0.00    -0.557 C  
BRANCH  11  12
HETATM   12  C   UNL     1     -13.654   9.276  72.205  1.00  0.00    -0.536 C  
HETATM   13  C   UNL     1     -13.703   7.930  71.495  1.00  0.00    -0.384 C  
ENDBRANCH  11  12
ENDBRANCH   7  11
ENDBRANCH   5   6
ENDBRANCH   3   5
ENDBRANCH   1   3
BRANCH   2  14
HETATM   14  C   UNL     1      -9.748  15.657  67.069  1.00  0.00    -0.234 A  
HETATM   15  C   UNL     1     -10.354  18.363  67.498  1.00  0.00    -0.393 A  
HETATM   16  C   UNL     1      -9.659  16.205  68.350  1.00  0.00    -0.209 A  
HETATM   17  C   UNL     1     -10.150  16.464  66.001  1.00  0.00    -0.373 A  
HETATM   18  C   UNL     1      -9.962  17.554  68.565  1.00  0.00    -0.344 A  
HETATM   19  C   UNL     1     -10.441  17.812  66.217  1.00  0.00    -0.307 A  
BRANCH  15  20
HETATM   20  O   UNL     1     -10.614  19.703  67.572  1.00  0.00    -0.442 OA 
HETATM   21  C   UNL     1      -9.616  20.566  67.042  1.00  0.00    -0.400 C  
ENDBRANCH  15  20
ENDBRANCH   2  14
TORSDOF 7
ENDMDL
MODEL      109
REMARK 921   NORMALIZED FREE ENERGY PREDICTED BY IDOCK:   -4.26 KCAL/MOL
REMARK 922        TOTAL FREE ENERGY PREDICTED BY IDOCK:   -7.12 KCAL/MOL
REMARK 923 INTER-LIGAND FREE ENERGY PREDICTED BY IDOCK:   -6.55 KCAL/MOL
REMARK 924 INTRA-LIGAND FREE ENERGY PREDICTED BY IDOCK:   -0.57 KCAL/MOL
REMARK 927      BINDING AFFINITY PREDICTED BY RF-SCORE:    0.00 PKD
ROOT
HETATM    1  C   UNL     1     -10.987  10.564  69.963  1.00  0.00    -0.351 C  
HETATM    2  C   UNL     1     -11.518  11.682  69.443  1.00  0.00    -0.372 C  
ENDROOT
BRANCH   1   3
HETATM    3  C   UNL     1     -10.147   9.624  69.186  1.00  0.00    -0.189 C  
HETATM    4  O   UNL     1     -10.419   8.436  69.091  1.00  0.00    -0.220 OA 
BRANCH   3   5
HETATM    5  O   UNL     1      -9.000  10.220  68.789  1.00  0.00    -0.139 OA 
BRANCH   5   6
HETATM    6  C   UNL     1      -9.203  11.268  67.839  1.00  0.00    -0.157 C  
HETATM    7  C   UNL     1      -8.590  13.575  67.003  1.00  0.00    -0.169 C  
HETATM    8  C   UNL     1      -6.190  11.559  66.990  1.00  0.00    -0.134 C  
HETATM    9  C   UNL     1      -6.834  12.174  68.227  1.00  0.00    -0.069 C  
HETATM   10  C   UNL     1      -8.338  12.509  68.096  1.00  0.00    -0.175 C  
BRANCH   7  11
HETATM   11  C   UNL     1     -10.047  14.056  66.957  1.00  0.00    -0.255 C  
BRANCH  11  12
HETATM   12  C   UNL     1     -10.745  13.672  65.655  1.00  0.00    -0.283 C  
HETATM   13  C   UNL     1     -12.208  13.338  65.907  1.00  0.00    -0.497 C  
ENDBRANCH  11  12
ENDBRANCH   7  11
ENDBRANCH   5   6
ENDBRANCH   3   5
ENDBRANCH   1   3
BRANCH   2  14
HETATM   14  C   UNL     1     -12.208  12.650  70.290  1.00  0.00    -0.347 A  
HETATM   15  C   UNL     1     -13.471  14.519  71.958  1.00  0.00    -0.384 A  
HETATM   16  C   UNL     1     -12.820  12.237  71.475  1.00  0.00    -0.384 A  
HETATM   17  C   UNL     1     -12.236  14.001  69.934  1.00  0.00    -0.399 A  
HETATM   18  C   UNL     1     -13.451  13.169  72.307  1.00  0.00    -0.665 A  
HETATM   19  C   UNL     1     -12.857  14.930  70.771  1.00  0.00    -0.428 A  
BRANCH  15  20
HETATM   20  O   UNL     1     -13.998  15.527  72.717  1.00  0.00    -0.527 OA 
HETATM   21  C   UNL     1     -13.144  16.075  73.712  1.00  0.00    -0.409 C  
ENDBRANCH  15  20
ENDBRANCH   2  14
TORSDOF 7
ENDMDL
MODEL      110
REMARK 921   NORMALIZED FREE ENERGY PREDICTED BY IDOCK:   -4.25 KCAL/MOL
REMARK 922        TOTAL FREE ENERGY PREDICTED BY IDOCK:   -7.11 KCAL/MOL
REMARK 923 INTER-LIGAND FREE ENERGY PREDICTED BY IDOCK:   -6.57 KCAL/MOL
REMARK 924 INTRA-LIGAND FREE ENERGY PREDICTED BY IDOCK:   -0.54 KCAL/MOL
REMARK 927      BINDING AFFINITY PREDICTED BY RF-SCORE:    0.00 PKD
ROOT
HETATM    1  C   UNL     1     -11.176  12.139  69.211  1.00  0.00    -0.288 C  
HETATM    2  C   UNL     1     -12.009  13.024  68.640  1.00  0.00    -0.298 C  
ENDROOT
BRANCH   1   3
HETATM    3  C   UNL     1     -11.641  10.939  69.944  1.00  0.00    -0.331 C  
HETATM    4  O   UNL     1     -12.768  10.859  70.412  1.00  0.00    -0.309 OA 
BRANCH   3   5
HETATM    5  O   UNL     1     -10.617  10.084  70.164  1.00  0.00    -0.264 OA 
BRANCH   5   6
HETATM    6  C   UNL     1     -10.797   8.808  69.545  1.00  0.00    -0.142 C  
HETATM    7  C   UNL     1     -10.807   6.288  69.751  1.00  0.00    -0.399 C  
HETATM    8  C   UNL     1     -12.892   7.707  71.614  1.00  0.00    -0.378 C  
HETATM    9  C   UNL     1     -11.379   7.719  71.794  1.00  0.00    -0.302 C  
HETATM   10  C   UNL     1     -10.553   7.624  70.489  1.00  0.00    -0.229 C  
BRANCH   7  11
HETATM   11  C   UNL     1      -9.885   6.083  68.542  1.00  0.00    -0.156 C  
BRANCH  11  12
HETATM   12  C   UNL     1     -10.636   5.567  67.318  1.00  0.00    -0.294 C  
HETATM   13  C   UNL     1      -9.934   4.352  66.728  1.00  0.00    -0.223 C  
ENDBRANCH  11  12
ENDBRANCH   7  11
ENDBRANCH   5   6
ENDBRANCH   3   5
ENDBRANCH   1   3
BRANCH   2  14
HETATM   14  C   UNL     1     -11.497  14.103  67.801  1.00  0.00    -0.352 A  
HETATM   15  C   UNL     1     -10.583  16.205  66.184  1.00  0.00    -0.283 A  
HETATM   16  C   UNL     1     -11.494  13.973  66.412  1.00  0.00    -0.361 A  
HETATM   17  C   UNL     1     -11.033  15.286  68.384  1.00  0.00    -0.271 A  
HETATM   18  C   UNL     1     -11.037  15.021  65.604  1.00  0.00    -0.349 A  
HETATM   19  C   UNL     1     -10.588  16.333  67.576  1.00  0.00    -0.310 A  
BRANCH  15  20
HETATM   20  O   UNL     1     -10.174  17.316  65.501  1.00  0.00    -0.602 OA 
HETATM   21  C   UNL     1     -10.368  18.563  66.156  1.00  0.00    -0.426 C  
ENDBRANCH  15  20
ENDBRANCH   2  14
TORSDOF 7
ENDMDL
MODEL      111
REMARK 921   NORMALIZED FREE ENERGY PREDICTED BY IDOCK:   -4.24 KCAL/MOL
REMARK 922        TOTAL FREE ENERGY PREDICTED BY IDOCK:   -7.09 KCAL/MOL
REMARK 923 INTER-LIGAND FREE ENERGY PREDICTED BY IDOCK:   -6.48 KCAL/MOL
REMARK 924 INTRA-LIGAND FREE ENERGY PREDICTED BY IDOCK:   -0.61 KCAL/MOL
REMARK 927      BINDING AFFINITY PREDICTED BY RF-SCORE:    0.00 PKD
ROOT
HETATM    1  C   UNL     1     -10.838   9.936  68.892  1.00  0.00    -0.239 C  
HETATM    2  C   UNL     1      -9.883   9.739  69.816  1.00  0.00    -0.262 C  
ENDROOT
BRANCH   1   3
HETATM    3  C   UNL     1     -10.674  10.842  67.733  1.00  0.00    -0.235 C  
HETATM    4  O   UNL     1     -11.000  10.515  66.600  1.00  0.00    -0.160 OA 
BRANCH   3   5
HETATM    5  O   UNL     1      -9.970  11.944  68.079  1.00  0.00    -0.179 OA 
BRANCH   5   6
HETATM    6  C   UNL     1     -10.753  12.930  68.755  1.00  0.00    -0.218 C  
HETATM    7  C   UNL     1     -11.569  15.321  68.891  1.00  0.00    -0.365 C  
HETATM    8  C   UNL     1     -12.388  13.865  66.239  1.00  0.00    -0.489 C  
HETATM    9  C   UNL     1     -10.982  14.320  66.610  1.00  0.00    -0.310 C  
HETATM   10  C   UNL     1     -10.664  14.326  68.124  1.00  0.00    -0.249 C  
BRANCH   7  11
HETATM   11  C   UNL     1     -11.173  15.478  70.366  1.00  0.00    -0.356 C  
BRANCH  11  12
HETATM   12  C   UNL     1     -12.385  15.665  71.276  1.00  0.00    -0.484 C  
HETATM   13  C   UNL     1     -11.958  16.200  72.635  1.00  0.00    -0.653 C  
ENDBRANCH  11  12
ENDBRANCH   7  11
ENDBRANCH   5   6
ENDBRANCH   3   5
ENDBRANCH   1   3
BRANCH   2  14
HETATM   14  C   UNL     1     -10.040   8.722  70.850  1.00  0.00    -0.276 A  
HETATM   15  C   UNL     1     -10.396   6.808  72.871  1.00  0.00    -0.221 A  
HETATM   16  C   UNL     1      -9.322   8.815  72.044  1.00  0.00    -0.322 A  
HETATM   17  C   UNL     1     -10.932   7.662  70.663  1.00  0.00    -0.259 A  
HETATM   18  C   UNL     1      -9.499   7.861  73.052  1.00  0.00    -0.336 A  
HETATM   19  C   UNL     1     -11.114   6.717  71.675  1.00  0.00    -0.282 A  
BRANCH  15  20
HETATM   20  O   UNL     1     -10.699   5.855  73.803  1.00  0.00    -0.264 OA 
HETATM   21  C   UNL     1     -11.239   4.638  73.304  1.00  0.00    -0.325 C  
ENDBRANCH  15  20
ENDBRANCH   2  14
TORSDOF 7
ENDMDL
MODEL      112
REMARK 921   NORMALIZED FREE ENERGY PREDICTED BY IDOCK:   -4.23 KCAL/MOL
REMARK 922        TOTAL FREE ENERGY PREDICTED BY IDOCK:   -7.08 KCAL/MOL
REMARK 923 INTER-LIGAND FREE ENERGY PREDICTED BY IDOCK:   -6.38 KCAL/MOL
REMARK 924 INTRA-LIGAND FREE ENERGY PREDICTED BY IDOCK:   -0.71 KCAL/MOL
REMARK 927      BINDING AFFINITY PREDICTED BY RF-SCORE:    0.00 PKD
ROOT
HETATM    1  C   UNL     1     -11.227  13.040  68.664  1.00  0.00    -0.316 C  
HETATM    2  C   UNL     1     -11.909  14.188  68.523  1.00  0.00    -0.390 C  
ENDROOT
BRANCH   1   3
HETATM    3  C   UNL     1     -11.854  11.766  69.086  1.00  0.00    -0.326 C  
HETATM    4  O   UNL     1     -12.286  11.598  70.217  1.00  0.00    -0.301 OA 
BRANCH   3   5
HETATM    5  O   UNL     1     -11.705  10.818  68.134  1.00  0.00    -0.501 OA 
BRANCH   5   6
HETATM    6  C   UNL     1     -11.264   9.559  68.648  1.00  0.00     0.112 C  
HETATM    7  C   UNL     1      -9.870   7.470  68.347  1.00  0.00    -0.173 C  
HETATM    8  C   UNL     1      -8.185  10.114  68.341  1.00  0.00    -0.112 C  
HETATM    9  C   UNL     1      -9.124   9.651  67.234  1.00  0.00    -0.150 C  
HETATM   10  C   UNL     1     -10.329   8.798  67.698  1.00  0.00    -0.317 C  
BRANCH   7  11
HETATM   11  C   UNL     1     -11.034   6.524  68.669  1.00  0.00    -0.363 C  
BRANCH  11  12
HETATM   12  C   UNL     1     -10.909   5.899  70.056  1.00  0.00    -0.421 C  
HETATM   13  C   UNL     1     -11.630   6.746  71.095  1.00  0.00    -0.377 C  
ENDBRANCH  11  12
ENDBRANCH   7  11
ENDBRANCH   5   6
ENDBRANCH   3   5
ENDBRANCH   1   3
BRANCH   2  14
HETATM   14  C   UNL     1     -11.273  15.373  67.958  1.00  0.00    -0.326 A  
HETATM   15  C   UNL     1      -9.983  17.626  66.895  1.00  0.00    -0.323 A  
HETATM   16  C   UNL     1     -11.048  16.498  68.754  1.00  0.00    -0.309 A  
HETATM   17  C   UNL     1     -10.860  15.380  66.623  1.00  0.00    -0.302 A  
HETATM   18  C   UNL     1     -10.405  17.622  68.225  1.00  0.00    -0.384 A  
HETATM   19  C   UNL     1     -10.209  16.499  66.101  1.00  0.00    -0.360 A  
BRANCH  15  20
HETATM   20  O   UNL     1      -9.291  18.636  66.286  1.00  0.00    -0.373 OA 
HETATM   21  C   UNL     1      -9.278  19.886  66.963  1.00  0.00    -0.365 C  
ENDBRANCH  15  20
ENDBRANCH   2  14
TORSDOF 7
ENDMDL
MODEL      113
REMARK 921   NORMALIZED FREE ENERGY PREDICTED BY IDOCK:   -4.23 KCAL/MOL
REMARK 922        TOTAL FREE ENERGY PREDICTED BY IDOCK:   -7.08 KCAL/MOL
REMARK 923 INTER-LIGAND FREE ENERGY PREDICTED BY IDOCK:   -6.19 KCAL/MOL
REMARK 924 INTRA-LIGAND FREE ENERGY PREDICTED BY IDOCK:   -0.89 KCAL/MOL
REMARK 927      BINDING AFFINITY PREDICTED BY RF-SCORE:    0.00 PKD
ROOT
HETATM    1  C   UNL     1     -10.730   8.323  67.145  1.00  0.00    -0.240 C  
HETATM    2  C   UNL     1     -10.076   9.444  66.798  1.00  0.00    -0.325 C  
ENDROOT
BRANCH   1   3
HETATM    3  C   UNL     1     -10.143   6.969  67.026  1.00  0.00    -0.229 C  
HETATM    4  O   UNL     1      -9.372   6.671  66.125  1.00  0.00    -0.146 OA 
BRANCH   3   5
HETATM    5  O   UNL     1     -10.716   6.118  67.908  1.00  0.00    -0.240 OA 
BRANCH   5   6
HETATM    6  C   UNL     1     -10.701   6.598  69.254  1.00  0.00    -0.265 C  
HETATM    7  C   UNL     1     -10.598   6.088  71.729  1.00  0.00    -0.277 C  
HETATM    8  C   UNL     1      -8.090   5.087  70.137  1.00  0.00    -0.081 C  
HETATM    9  C   UNL     1      -9.489   4.488  70.068  1.00  0.00    -0.247 C  
HETATM   10  C   UNL     1     -10.650   5.482  70.306  1.00  0.00    -0.357 C  
BRANCH   7  11
HETATM   11  C   UNL     1     -11.823   6.949  72.061  1.00  0.00    -0.345 C  
BRANCH  11  12
HETATM   12  C   UNL     1     -11.439   8.304  72.650  1.00  0.00    -0.423 C  
HETATM   13  C   UNL     1     -11.284   9.344  71.550  1.00  0.00    -0.457 C  
ENDBRANCH  11  12
ENDBRANCH   7  11
ENDBRANCH   5   6
ENDBRANCH   3   5
ENDBRANCH   1   3
BRANCH   2  14
HETATM   14  C   UNL     1     -10.642  10.759  67.079  1.00  0.00    -0.312 A  
HETATM   15  C   UNL     1     -11.663  13.319  67.601  1.00  0.00    -0.366 A  
HETATM   16  C   UNL     1     -10.523  11.320  68.352  1.00  0.00    -0.219 A  
HETATM   17  C   UNL     1     -11.283  11.478  66.066  1.00  0.00    -0.240 A  
HETATM   18  C   UNL     1     -11.033  12.596  68.613  1.00  0.00    -0.292 A  
HETATM   19  C   UNL     1     -11.781  12.756  66.327  1.00  0.00    -0.460 A  
BRANCH  15  20
HETATM   20  O   UNL     1     -12.143  14.594  67.718  1.00  0.00    -0.314 OA 
HETATM   21  C   UNL     1     -11.298  15.524  68.384  1.00  0.00    -0.354 C  
ENDBRANCH  15  20
ENDBRANCH   2  14
TORSDOF 7
ENDMDL
MODEL      114
REMARK 921   NORMALIZED FREE ENERGY PREDICTED BY IDOCK:   -4.21 KCAL/MOL
REMARK 922        TOTAL FREE ENERGY PREDICTED BY IDOCK:   -7.06 KCAL/MOL
REMARK 923 INTER-LIGAND FREE ENERGY PREDICTED BY IDOCK:   -6.58 KCAL/MOL
REMARK 924 INTRA-LIGAND FREE ENERGY PREDICTED BY IDOCK:   -0.48 KCAL/MOL
REMARK 927      BINDING AFFINITY PREDICTED BY RF-SCORE:    0.00 PKD
ROOT
HETATM    1  C   UNL     1      -9.972  14.800  66.459  1.00  0.00    -0.283 C  
HETATM    2  C   UNL     1     -10.581  15.930  66.854  1.00  0.00    -0.309 C  
ENDROOT
BRANCH   1   3
HETATM    3  C   UNL     1     -10.680  13.512  66.283  1.00  0.00    -0.288 C  
HETATM    4  O   UNL     1     -11.694  13.237  66.909  1.00  0.00    -0.347 OA 
BRANCH   3   5
HETATM    5  O   UNL     1      -9.959  12.667  65.512  1.00  0.00    -0.264 OA 
BRANCH   5   6
HETATM    6  C   UNL     1      -9.681  11.415  66.144  1.00  0.00    -0.219 C  
HETATM    7  C   UNL     1      -9.732   8.888  66.050  1.00  0.00    -0.308 C  
HETATM    8  C   UNL     1      -8.007  10.193  63.781  1.00  0.00    -0.153 C  
HETATM    9  C   UNL     1      -9.527  10.224  63.877  1.00  0.00    -0.356 C  
HETATM   10  C   UNL     1     -10.103  10.197  65.312  1.00  0.00    -0.344 C  
BRANCH   7  11
HETATM   11  C   UNL     1     -10.422   8.750  67.414  1.00  0.00    -0.349 C  
BRANCH  11  12
HETATM   12  C   UNL     1     -10.144   7.401  68.072  1.00  0.00    -0.216 C  
HETATM   13  C   UNL     1     -10.960   6.301  67.408  1.00  0.00    -0.447 C  
ENDBRANCH  11  12
ENDBRANCH   7  11
ENDBRANCH   5   6
ENDBRANCH   3   5
ENDBRANCH   1   3
BRANCH   2  14
HETATM   14  C   UNL     1      -9.868  17.203  66.862  1.00  0.00    -0.285 A  
HETATM   15  C   UNL     1      -8.473  19.635  66.948  1.00  0.00    -0.307 A  
HETATM   16  C   UNL     1     -10.484  18.352  67.361  1.00  0.00    -0.443 A  
HETATM   17  C   UNL     1      -8.552  17.273  66.395  1.00  0.00    -0.294 A  
HETATM   18  C   UNL     1      -9.789  19.565  67.404  1.00  0.00    -0.470 A  
HETATM   19  C   UNL     1      -7.858  18.483  66.449  1.00  0.00    -0.296 A  
BRANCH  15  20
HETATM   20  O   UNL     1      -7.674  20.744  66.996  1.00  0.00    -0.294 OA 
HETATM   21  C   UNL     1      -6.534  20.660  67.841  1.00  0.00    -0.312 C  
ENDBRANCH  15  20
ENDBRANCH   2  14
TORSDOF 7
ENDMDL
MODEL      115
REMARK 921   NORMALIZED FREE ENERGY PREDICTED BY IDOCK:   -4.21 KCAL/MOL
REMARK 922        TOTAL FREE ENERGY PREDICTED BY IDOCK:   -7.05 KCAL/MOL
REMARK 923 INTER-LIGAND FREE ENERGY PREDICTED BY IDOCK:   -6.50 KCAL/MOL
REMARK 924 INTRA-LIGAND FREE ENERGY PREDICTED BY IDOCK:   -0.55 KCAL/MOL
REMARK 927      BINDING AFFINITY PREDICTED BY RF-SCORE:    0.00 PKD
ROOT
HETATM    1  C   UNL     1     -12.404  11.338  70.707  1.00  0.00    -0.495 C  
HETATM    2  C   UNL     1     -12.055  11.594  69.436  1.00  0.00    -0.328 C  
ENDROOT
BRANCH   1   3
HETATM    3  C   UNL     1     -12.628   9.971  71.231  1.00  0.00    -0.393 C  
HETATM    4  O   UNL     1     -13.729   9.440  71.211  1.00  0.00    -0.346 OA 
BRANCH   3   5
HETATM    5  O   UNL     1     -11.527   9.515  71.869  1.00  0.00    -0.355 OA 
BRANCH   5   6
HETATM    6  C   UNL     1     -11.053   8.264  71.364  1.00  0.00    -0.251 C  
HETATM    7  C   UNL     1      -9.190   6.561  71.212  1.00  0.00    -0.155 C  
HETATM    8  C   UNL     1     -10.190   7.068  74.139  1.00  0.00    -0.265 C  
HETATM    9  C   UNL     1      -9.376   8.039  73.292  1.00  0.00    -0.344 C  
HETATM   10  C   UNL     1      -9.608   7.944  71.766  1.00  0.00    -0.214 C  
BRANCH   7  11
HETATM   11  C   UNL     1      -9.248   6.484  69.680  1.00  0.00    -0.143 C  
BRANCH  11  12
HETATM   12  C   UNL     1     -10.200   5.397  69.188  1.00  0.00    -0.302 C  
HETATM   13  C   UNL     1      -9.725   4.829  67.858  1.00  0.00    -0.200 C  
ENDBRANCH  11  12
ENDBRANCH   7  11
ENDBRANCH   5   6
ENDBRANCH   3   5
ENDBRANCH   1   3
BRANCH   2  14
HETATM   14  C   UNL     1     -11.698  12.944  69.014  1.00  0.00    -0.375 A  
HETATM   15  C   UNL     1     -11.078  15.545  68.164  1.00  0.00    -0.325 A  
HETATM   16  C   UNL     1     -11.018  13.150  67.812  1.00  0.00    -0.272 A  
HETATM   17  C   UNL     1     -12.061  14.044  69.797  1.00  0.00    -0.405 A  
HETATM   18  C   UNL     1     -10.708  14.446  67.388  1.00  0.00    -0.280 A  
HETATM   19  C   UNL     1     -11.759  15.337  69.366  1.00  0.00    -0.361 A  
BRANCH  15  20
HETATM   20  O   UNL     1     -10.886  16.855  67.825  1.00  0.00    -0.345 OA 
HETATM   21  C   UNL     1      -9.959  17.581  68.621  1.00  0.00    -0.347 C  
ENDBRANCH  15  20
ENDBRANCH   2  14
TORSDOF 7
ENDMDL
MODEL      116
REMARK 921   NORMALIZED FREE ENERGY PREDICTED BY IDOCK:   -4.20 KCAL/MOL
REMARK 922        TOTAL FREE ENERGY PREDICTED BY IDOCK:   -7.04 KCAL/MOL
REMARK 923 INTER-LIGAND FREE ENERGY PREDICTED BY IDOCK:   -6.16 KCAL/MOL
REMARK 924 INTRA-LIGAND FREE ENERGY PREDICTED BY IDOCK:   -0.88 KCAL/MOL
REMARK 927      BINDING AFFINITY PREDICTED BY RF-SCORE:    0.00 PKD
ROOT
HETATM    1  C   UNL     1      -9.215   8.951  68.475  1.00  0.00    -0.137 C  
HETATM    2  C   UNL     1     -10.448   8.912  69.007  1.00  0.00    -0.231 C  
ENDROOT
BRANCH   1   3
HETATM    3  C   UNL     1      -8.774   9.991  67.518  1.00  0.00    -0.125 C  
HETATM    4  O   UNL     1      -8.047   9.734  66.569  1.00  0.00    -0.115 OA 
BRANCH   3   5
HETATM    5  O   UNL     1      -9.127  11.223  67.949  1.00  0.00    -0.142 OA 
BRANCH   5   6
HETATM    6  C   UNL     1      -9.852  11.981  66.977  1.00  0.00    -0.194 C  
HETATM    7  C   UNL     1     -12.078  12.770  66.073  1.00  0.00    -0.458 C  
HETATM    8  C   UNL     1     -11.538  13.662  69.030  1.00  0.00    -0.356 C  
HETATM    9  C   UNL     1     -11.848  12.244  68.567  1.00  0.00    -0.359 C  
HETATM   10  C   UNL     1     -11.375  11.892  67.137  1.00  0.00    -0.393 C  
BRANCH   7  11
HETATM   11  C   UNL     1     -11.761  12.341  64.635  1.00  0.00    -0.420 C  
BRANCH  11  12
HETATM   12  C   UNL     1     -12.168  13.397  63.610  1.00  0.00    -0.480 C  
HETATM   13  C   UNL     1     -12.195  14.780  64.246  1.00  0.00    -0.402 C  
ENDBRANCH  11  12
ENDBRANCH   7  11
ENDBRANCH   5   6
ENDBRANCH   3   5
ENDBRANCH   1   3
BRANCH   2  14
HETATM   14  C   UNL     1     -10.781   7.958  70.060  1.00  0.00    -0.244 A  
HETATM   15  C   UNL     1     -11.347   6.121  72.103  1.00  0.00    -0.299 A  
HETATM   16  C   UNL     1     -10.746   6.587  69.803  1.00  0.00    -0.322 A  
HETATM   17  C   UNL     1     -11.109   8.413  71.340  1.00  0.00    -0.312 A  
HETATM   18  C   UNL     1     -11.029   5.670  70.822  1.00  0.00    -0.257 A  
HETATM   19  C   UNL     1     -11.381   7.495  72.357  1.00  0.00    -0.360 A  
BRANCH  15  20
HETATM   20  O   UNL     1     -11.580   5.324  73.189  1.00  0.00    -0.297 OA 
HETATM   21  C   UNL     1     -10.539   5.261  74.155  1.00  0.00    -0.259 C  
ENDBRANCH  15  20
ENDBRANCH   2  14
TORSDOF 7
ENDMDL
MODEL      117
REMARK 921   NORMALIZED FREE ENERGY PREDICTED BY IDOCK:   -4.18 KCAL/MOL
REMARK 922        TOTAL FREE ENERGY PREDICTED BY IDOCK:   -7.01 KCAL/MOL
REMARK 923 INTER-LIGAND FREE ENERGY PREDICTED BY IDOCK:   -6.34 KCAL/MOL
REMARK 924 INTRA-LIGAND FREE ENERGY PREDICTED BY IDOCK:   -0.67 KCAL/MOL
REMARK 927      BINDING AFFINITY PREDICTED BY RF-SCORE:    0.00 PKD
ROOT
HETATM    1  C   UNL     1     -11.641  12.420  66.301  1.00  0.00    -0.449 C  
HETATM    2  C   UNL     1     -10.911  11.841  65.334  1.00  0.00    -0.352 C  
ENDROOT
BRANCH   1   3
HETATM    3  C   UNL     1     -12.446  13.645  66.091  1.00  0.00    -0.395 C  
HETATM    4  O   UNL     1     -12.921  13.931  65.001  1.00  0.00    -0.731 OA 
BRANCH   3   5
HETATM    5  O   UNL     1     -12.408  14.439  67.184  1.00  0.00    -0.335 OA 
BRANCH   5   6
HETATM    6  C   UNL     1     -11.127  14.475  67.818  1.00  0.00    -0.285 C  
HETATM    7  C   UNL     1      -9.574  15.561  69.492  1.00  0.00    -0.278 C  
HETATM    8  C   UNL     1     -12.196  14.417  70.773  1.00  0.00    -0.413 C  
HETATM    9  C   UNL     1     -12.102  15.648  69.881  1.00  0.00    -0.360 C  
HETATM   10  C   UNL     1     -10.970  15.620  68.827  1.00  0.00    -0.281 C  
BRANCH   7  11
HETATM   11  C   UNL     1      -8.423  15.699  68.488  1.00  0.00    -0.175 C  
BRANCH  11  12
HETATM   12  C   UNL     1      -7.628  16.987  68.688  1.00  0.00    -0.238 C  
HETATM   13  C   UNL     1      -8.126  18.078  67.750  1.00  0.00    -0.237 C  
ENDBRANCH  11  12
ENDBRANCH   7  11
ENDBRANCH   5   6
ENDBRANCH   3   5
ENDBRANCH   1   3
BRANCH   2  14
HETATM   14  C   UNL     1     -10.261  10.553  65.555  1.00  0.00    -0.325 A  
HETATM   15  C   UNL     1      -8.956   8.113  66.017  1.00  0.00    -0.171 A  
HETATM   16  C   UNL     1      -9.298  10.088  64.658  1.00  0.00    -0.338 A  
HETATM   17  C   UNL     1     -10.579   9.790  66.682  1.00  0.00    -0.178 A  
HETATM   18  C   UNL     1      -8.647   8.871  64.887  1.00  0.00    -0.198 A  
HETATM   19  C   UNL     1      -9.920   8.582  66.914  1.00  0.00    -0.335 A  
BRANCH  15  20
HETATM   20  O   UNL     1      -8.345   6.945  66.379  1.00  0.00    -0.114 OA 
HETATM   21  C   UNL     1      -8.386   5.893  65.424  1.00  0.00    -0.149 C  
ENDBRANCH  15  20
ENDBRANCH   2  14
TORSDOF 7
ENDMDL
MODEL      118
REMARK 921   NORMALIZED FREE ENERGY PREDICTED BY IDOCK:   -4.18 KCAL/MOL
REMARK 922        TOTAL FREE ENERGY PREDICTED BY IDOCK:   -7.01 KCAL/MOL
REMARK 923 INTER-LIGAND FREE ENERGY PREDICTED BY IDOCK:   -6.18 KCAL/MOL
REMARK 924 INTRA-LIGAND FREE ENERGY PREDICTED BY IDOCK:   -0.83 KCAL/MOL
REMARK 927      BINDING AFFINITY PREDICTED BY RF-SCORE:    0.00 PKD
ROOT
HETATM    1  C   UNL     1     -12.412   8.630  71.525  1.00  0.00    -0.364 C  
HETATM    2  C   UNL     1     -13.221   9.543  70.963  1.00  0.00    -0.250 C  
ENDROOT
BRANCH   1   3
HETATM    3  C   UNL     1     -12.589   7.170  71.354  1.00  0.00    -0.394 C  
HETATM    4  O   UNL     1     -13.131   6.477  72.204  1.00  0.00    -0.155 OA 
BRANCH   3   5
HETATM    5  O   UNL     1     -11.923   6.729  70.264  1.00  0.00    -0.352 OA 
BRANCH   5   6
HETATM    6  C   UNL     1     -10.555   7.143  70.225  1.00  0.00    -0.227 C  
HETATM    7  C   UNL     1      -8.154   6.735  70.907  1.00  0.00    -0.118 C  
HETATM    8  C   UNL     1      -9.389   4.406  69.211  1.00  0.00    -0.223 C  
HETATM    9  C   UNL     1      -9.745   4.746  70.653  1.00  0.00    -0.271 C  
HETATM   10  C   UNL     1      -9.615   6.239  71.034  1.00  0.00    -0.191 C  
BRANCH   7  11
HETATM   11  C   UNL     1      -7.955   8.162  71.434  1.00  0.00    -0.119 C  
BRANCH  11  12
HETATM   12  C   UNL     1      -7.376   8.184  72.847  1.00  0.00    -0.154 C  
HETATM   13  C   UNL     1      -8.486   8.096  73.884  1.00  0.00    -0.306 C  
ENDBRANCH  11  12
ENDBRANCH   7  11
ENDBRANCH   5   6
ENDBRANCH   3   5
ENDBRANCH   1   3
BRANCH   2  14
HETATM   14  C   UNL     1     -12.911  10.967  71.037  1.00  0.00    -0.472 A  
HETATM   15  C   UNL     1     -12.375  13.719  71.137  1.00  0.00    -0.345 A  
HETATM   16  C   UNL     1     -12.106  11.564  70.066  1.00  0.00    -0.408 A  
HETATM   17  C   UNL     1     -13.441  11.748  72.068  1.00  0.00    -0.319 A  
HETATM   18  C   UNL     1     -11.837  12.936  70.115  1.00  0.00    -0.319 A  
HETATM   19  C   UNL     1     -13.180  13.119  72.108  1.00  0.00    -0.561 A  
BRANCH  15  20
HETATM   20  O   UNL     1     -12.235  15.074  71.254  1.00  0.00    -0.278 OA 
HETATM   21  C   UNL     1     -11.887  15.774  70.067  1.00  0.00    -0.354 C  
ENDBRANCH  15  20
ENDBRANCH   2  14
TORSDOF 7
ENDMDL
MODEL      119
REMARK 921   NORMALIZED FREE ENERGY PREDICTED BY IDOCK:   -4.17 KCAL/MOL
REMARK 922        TOTAL FREE ENERGY PREDICTED BY IDOCK:   -7.00 KCAL/MOL
REMARK 923 INTER-LIGAND FREE ENERGY PREDICTED BY IDOCK:   -6.10 KCAL/MOL
REMARK 924 INTRA-LIGAND FREE ENERGY PREDICTED BY IDOCK:   -0.90 KCAL/MOL
REMARK 927      BINDING AFFINITY PREDICTED BY RF-SCORE:    0.00 PKD
ROOT
HETATM    1  C   UNL     1     -11.766   9.119  71.087  1.00  0.00    -0.380 C  
HETATM    2  C   UNL     1     -10.809   8.637  71.897  1.00  0.00    -0.419 C  
ENDROOT
BRANCH   1   3
HETATM    3  C   UNL     1     -12.094  10.559  70.981  1.00  0.00    -0.387 C  
HETATM    4  O   UNL     1     -13.136  11.023  71.423  1.00  0.00    -0.395 OA 
BRANCH   3   5
HETATM    5  O   UNL     1     -11.200  11.199  70.195  1.00  0.00    -0.250 OA 
BRANCH   5   6
HETATM    6  C   UNL     1     -11.694  11.482  68.883  1.00  0.00    -0.339 C  
HETATM    7  C   UNL     1     -11.225  11.785  66.417  1.00  0.00    -0.382 C  
HETATM    8  C   UNL     1     -10.474   8.939  67.495  1.00  0.00    -0.337 C  
HETATM    9  C   UNL     1      -9.731  10.234  67.799  1.00  0.00    -0.178 C  
HETATM   10  C   UNL     1     -10.601  11.513  67.806  1.00  0.00    -0.227 C  
BRANCH   7  11
HETATM   11  C   UNL     1     -11.958  13.131  66.339  1.00  0.00    -0.462 C  
BRANCH  11  12
HETATM   12  C   UNL     1     -12.157  13.603  64.901  1.00  0.00    -0.426 C  
HETATM   13  C   UNL     1     -12.204  12.417  63.948  1.00  0.00    -0.603 C  
ENDBRANCH  11  12
ENDBRANCH   7  11
ENDBRANCH   5   6
ENDBRANCH   3   5
ENDBRANCH   1   3
BRANCH   2  14
HETATM   14  C   UNL     1     -10.424   7.231  71.849  1.00  0.00    -0.224 A  
HETATM   15  C   UNL     1      -9.732   4.516  71.698  1.00  0.00    -0.175 A  
HETATM   16  C   UNL     1     -11.140   6.279  72.577  1.00  0.00    -0.307 A  
HETATM   17  C   UNL     1      -9.352   6.823  71.049  1.00  0.00    -0.160 A  
HETATM   18  C   UNL     1     -10.795   4.925  72.503  1.00  0.00    -0.234 A  
HETATM   19  C   UNL     1      -9.017   5.470  70.969  1.00  0.00    -0.153 A  
BRANCH  15  20
HETATM   20  O   UNL     1      -9.343   3.221  71.497  1.00  0.00    -0.111 OA 
HETATM   21  C   UNL     1      -9.778   2.616  70.287  1.00  0.00     0.053 C  
ENDBRANCH  15  20
ENDBRANCH   2  14
TORSDOF 7
ENDMDL
MODEL      120
REMARK 921   NORMALIZED FREE ENERGY PREDICTED BY IDOCK:   -4.14 KCAL/MOL
REMARK 922        TOTAL FREE ENERGY PREDICTED BY IDOCK:   -6.96 KCAL/MOL
REMARK 923 INTER-LIGAND FREE ENERGY PREDICTED BY IDOCK:   -6.29 KCAL/MOL
REMARK 924 INTRA-LIGAND FREE ENERGY PREDICTED BY IDOCK:   -0.67 KCAL/MOL
REMARK 927      BINDING AFFINITY PREDICTED BY RF-SCORE:    0.00 PKD
ROOT
HETATM    1  C   UNL     1     -12.684  11.043  71.188  1.00  0.00    -0.521 C  
HETATM    2  C   UNL     1     -12.470  10.032  72.045  1.00  0.00    -0.311 C  
ENDROOT
BRANCH   1   3
HETATM    3  C   UNL     1     -13.128  12.390  71.612  1.00  0.00    -0.307 C  
HETATM    4  O   UNL     1     -13.601  12.600  72.721  1.00  0.00    -0.376 OA 
BRANCH   3   5
HETATM    5  O   UNL     1     -13.107  13.254  70.572  1.00  0.00     0.041 OA 
BRANCH   5   6
HETATM    6  C   UNL     1     -11.795  13.714  70.241  1.00  0.00    -0.266 C  
HETATM    7  C   UNL     1     -10.244  15.649  69.743  1.00  0.00    -0.303 C  
HETATM    8  C   UNL     1     -11.545  15.785  72.592  1.00  0.00    -0.446 C  
HETATM    9  C   UNL     1     -12.265  16.017  71.269  1.00  0.00    -0.399 C  
HETATM   10  C   UNL     1     -11.702  15.235  70.060  1.00  0.00    -0.344 C  
BRANCH   7  11
HETATM   11  C   UNL     1      -9.708  15.019  68.451  1.00  0.00    -0.216 C  
BRANCH  11  12
HETATM   12  C   UNL     1     -10.212  15.736  67.201  1.00  0.00    -0.279 C  
HETATM   13  C   UNL     1      -9.553  15.168  65.952  1.00  0.00    -0.373 C  
ENDBRANCH  11  12
ENDBRANCH   7  11
ENDBRANCH   5   6
ENDBRANCH   3   5
ENDBRANCH   1   3
BRANCH   2  14
HETATM   14  C   UNL     1     -11.886   8.774  71.591  1.00  0.00    -0.399 A  
HETATM   15  C   UNL     1     -10.777   6.377  70.645  1.00  0.00    -0.257 A  
HETATM   16  C   UNL     1     -12.700   7.664  71.358  1.00  0.00    -0.357 A  
HETATM   17  C   UNL     1     -10.511   8.682  71.358  1.00  0.00    -0.327 A  
HETATM   18  C   UNL     1     -12.148   6.468  70.887  1.00  0.00    -0.293 A  
HETATM   19  C   UNL     1      -9.964   7.490  70.877  1.00  0.00    -0.181 A  
BRANCH  15  20
HETATM   20  O   UNL     1     -10.134   5.288  70.127  1.00  0.00    -0.218 OA 
HETATM   21  C   UNL     1      -9.844   5.333  68.736  1.00  0.00    -0.161 C  
ENDBRANCH  15  20
ENDBRANCH   2  14
TORSDOF 7
ENDMDL
MODEL      121
REMARK 921   NORMALIZED FREE ENERGY PREDICTED BY IDOCK:   -4.11 KCAL/MOL
REMARK 922        TOTAL FREE ENERGY PREDICTED BY IDOCK:   -6.92 KCAL/MOL
REMARK 923 INTER-LIGAND FREE ENERGY PREDICTED BY IDOCK:   -6.29 KCAL/MOL
REMARK 924 INTRA-LIGAND FREE ENERGY PREDICTED BY IDOCK:   -0.63 KCAL/MOL
REMARK 927      BINDING AFFINITY PREDICTED BY RF-SCORE:    0.00 PKD
ROOT
HETATM    1  C   UNL     1     -11.075  13.284  67.062  1.00  0.00    -0.304 C  
HETATM    2  C   UNL     1     -10.103  13.988  66.460  1.00  0.00    -0.287 C  
ENDROOT
BRANCH   1   3
HETATM    3  C   UNL     1     -11.305  11.842  66.819  1.00  0.00    -0.320 C  
HETATM    4  O   UNL     1     -11.026  11.308  65.754  1.00  0.00    -0.240 OA 
BRANCH   3   5
HETATM    5  O   UNL     1     -12.010  11.290  67.833  1.00  0.00    -0.630 OA 
BRANCH   5   6
HETATM    6  C   UNL     1     -11.264  10.334  68.591  1.00  0.00    -0.208 C  
HETATM    7  C   UNL     1     -10.185   9.682  70.784  1.00  0.00    -0.330 C  
HETATM    8  C   UNL     1     -13.279  10.144  70.996  1.00  0.00    -0.412 C  
HETATM    9  C   UNL     1     -12.225  11.227  70.796  1.00  0.00    -0.479 C  
HETATM   10  C   UNL     1     -10.959  10.788  70.025  1.00  0.00    -0.280 C  
BRANCH   7  11
HETATM   11  C   UNL     1      -8.838   9.338  70.135  1.00  0.00    -0.235 C  
BRANCH  11  12
HETATM   12  C   UNL     1      -8.439   7.882  70.363  1.00  0.00    -0.131 C  
HETATM   13  C   UNL     1      -7.317   7.478  69.417  1.00  0.00    -0.085 C  
ENDBRANCH  11  12
ENDBRANCH   7  11
ENDBRANCH   5   6
ENDBRANCH   3   5
ENDBRANCH   1   3
BRANCH   2  14
HETATM   14  C   UNL     1      -9.823  15.366  66.850  1.00  0.00    -0.251 A  
HETATM   15  C   UNL     1      -9.271  17.991  67.670  1.00  0.00    -0.259 A  
HETATM   16  C   UNL     1     -10.839  16.171  67.368  1.00  0.00    -0.265 A  
HETATM   17  C   UNL     1      -8.528  15.880  66.733  1.00  0.00    -0.297 A  
HETATM   18  C   UNL     1     -10.565  17.481  67.777  1.00  0.00    -0.375 A  
HETATM   19  C   UNL     1      -8.256  17.183  67.152  1.00  0.00    -0.214 A  
BRANCH  15  20
HETATM   20  O   UNL     1      -8.870  19.228  68.092  1.00  0.00    -0.308 OA 
HETATM   21  C   UNL     1      -9.722  20.314  67.753  1.00  0.00    -0.382 C  
ENDBRANCH  15  20
ENDBRANCH   2  14
TORSDOF 7
ENDMDL
MODEL      122
REMARK 921   NORMALIZED FREE ENERGY PREDICTED BY IDOCK:   -4.10 KCAL/MOL
REMARK 922        TOTAL FREE ENERGY PREDICTED BY IDOCK:   -6.91 KCAL/MOL
REMARK 923 INTER-LIGAND FREE ENERGY PREDICTED BY IDOCK:   -5.83 KCAL/MOL
REMARK 924 INTRA-LIGAND FREE ENERGY PREDICTED BY IDOCK:   -1.08 KCAL/MOL
REMARK 927      BINDING AFFINITY PREDICTED BY RF-SCORE:    0.00 PKD
ROOT
HETATM    1  C   UNL     1      -7.557  13.892  67.912  1.00  0.00    -0.158 C  
HETATM    2  C   UNL     1      -7.473  14.828  68.872  1.00  0.00    -0.137 C  
ENDROOT
BRANCH   1   3
HETATM    3  C   UNL     1      -6.987  12.533  68.048  1.00  0.00    -0.095 C  
HETATM    4  O   UNL     1      -5.845  12.342  68.443  1.00  0.00    -0.053 OA 
BRANCH   3   5
HETATM    5  O   UNL     1      -7.816  11.608  67.515  1.00  0.00    -0.122 OA 
BRANCH   5   6
HETATM    6  C   UNL     1      -8.999  12.168  66.940  1.00  0.00    -0.201 C  
HETATM    7  C   UNL     1     -10.851  12.013  65.224  1.00  0.00    -0.340 C  
HETATM    8  C   UNL     1     -10.776   9.589  67.211  1.00  0.00    -0.269 C  
HETATM    9  C   UNL     1      -9.768   9.867  66.103  1.00  0.00    -0.297 C  
HETATM   10  C   UNL     1      -9.554  11.360  65.759  1.00  0.00    -0.260 C  
BRANCH   7  11
HETATM   11  C   UNL     1     -10.638  13.445  64.716  1.00  0.00    -0.420 C  
BRANCH  11  12
HETATM   12  C   UNL     1     -11.689  14.414  65.252  1.00  0.00    -0.364 C  
HETATM   13  C   UNL     1     -12.131  14.006  66.651  1.00  0.00    -0.487 C  
ENDBRANCH  11  12
ENDBRANCH   7  11
ENDBRANCH   5   6
ENDBRANCH   3   5
ENDBRANCH   1   3
BRANCH   2  14
HETATM   14  C   UNL     1      -8.183  16.096  68.747  1.00  0.00    -0.216 A  
HETATM   15  C   UNL     1      -9.546  18.528  68.431  1.00  0.00    -0.354 A  
HETATM   16  C   UNL     1      -7.472  17.291  68.618  1.00  0.00    -0.251 A  
HETATM   17  C   UNL     1      -9.580  16.120  68.727  1.00  0.00    -0.235 A  
HETATM   18  C   UNL     1      -8.151  18.504  68.461  1.00  0.00    -0.354 A  
HETATM   19  C   UNL     1     -10.255  17.331  68.559  1.00  0.00    -0.358 A  
BRANCH  15  20
HETATM   20  O   UNL     1     -10.316  19.638  68.220  1.00  0.00    -0.431 OA 
HETATM   21  C   UNL     1      -9.880  20.518  67.192  1.00  0.00    -0.426 C  
ENDBRANCH  15  20
ENDBRANCH   2  14
TORSDOF 7
ENDMDL
MODEL      123
REMARK 921   NORMALIZED FREE ENERGY PREDICTED BY IDOCK:   -4.10 KCAL/MOL
REMARK 922        TOTAL FREE ENERGY PREDICTED BY IDOCK:   -6.89 KCAL/MOL
REMARK 923 INTER-LIGAND FREE ENERGY PREDICTED BY IDOCK:   -6.36 KCAL/MOL
REMARK 924 INTRA-LIGAND FREE ENERGY PREDICTED BY IDOCK:   -0.53 KCAL/MOL
REMARK 927      BINDING AFFINITY PREDICTED BY RF-SCORE:    0.00 PKD
ROOT
HETATM    1  C   UNL     1     -11.814  10.528  70.396  1.00  0.00    -0.431 C  
HETATM    2  C   UNL     1     -11.457  10.619  69.104  1.00  0.00    -0.349 C  
ENDROOT
BRANCH   1   3
HETATM    3  C   UNL     1     -12.679  11.521  71.073  1.00  0.00    -0.328 C  
HETATM    4  O   UNL     1     -13.248  11.275  72.127  1.00  0.00    -0.481 OA 
BRANCH   3   5
HETATM    5  O   UNL     1     -12.877  12.602  70.286  1.00  0.00     0.106 OA 
BRANCH   5   6
HETATM    6  C   UNL     1     -11.918  13.641  70.494  1.00  0.00    -0.280 C  
HETATM    7  C   UNL     1     -11.424  16.109  70.744  1.00  0.00    -0.408 C  
HETATM    8  C   UNL     1     -13.386  14.996  72.921  1.00  0.00    -0.585 C  
HETATM    9  C   UNL     1     -13.713  15.206  71.448  1.00  0.00    -0.577 C  
HETATM   10  C   UNL     1     -12.521  15.052  70.474  1.00  0.00    -0.425 C  
BRANCH   7  11
HETATM   11  C   UNL     1     -10.304  16.095  69.695  1.00  0.00    -0.271 C  
BRANCH  11  12
HETATM   12  C   UNL     1     -10.506  17.156  68.616  1.00  0.00    -0.366 C  
HETATM   13  C   UNL     1     -10.179  16.591  67.240  1.00  0.00    -0.287 C  
ENDBRANCH  11  12
ENDBRANCH   7  11
ENDBRANCH   5   6
ENDBRANCH   3   5
ENDBRANCH   1   3
BRANCH   2  14
HETATM   14  C   UNL     1     -10.732   9.536  68.449  1.00  0.00    -0.230 A  
HETATM   15  C   UNL     1      -9.404   7.424  67.166  1.00  0.00    -0.142 A  
HETATM   16  C   UNL     1     -10.474   8.346  69.133  1.00  0.00    -0.218 A  
HETATM   17  C   UNL     1     -10.316   9.672  67.121  1.00  0.00    -0.319 A  
HETATM   18  C   UNL     1      -9.811   7.293  68.493  1.00  0.00    -0.159 A  
HETATM   19  C   UNL     1      -9.665   8.615  66.483  1.00  0.00    -0.325 A  
BRANCH  15  20
HETATM   20  O   UNL     1      -8.807   6.446  66.419  1.00  0.00    -0.132 OA 
HETATM   21  C   UNL     1      -9.431   5.169  66.444  1.00  0.00    -0.153 C  
ENDBRANCH  15  20
ENDBRANCH   2  14
TORSDOF 7
ENDMDL
MODEL      124
REMARK 921   NORMALIZED FREE ENERGY PREDICTED BY IDOCK:   -4.09 KCAL/MOL
REMARK 922        TOTAL FREE ENERGY PREDICTED BY IDOCK:   -6.88 KCAL/MOL
REMARK 923 INTER-LIGAND FREE ENERGY PREDICTED BY IDOCK:   -6.35 KCAL/MOL
REMARK 924 INTRA-LIGAND FREE ENERGY PREDICTED BY IDOCK:   -0.54 KCAL/MOL
REMARK 927      BINDING AFFINITY PREDICTED BY RF-SCORE:    0.00 PKD
ROOT
HETATM    1  C   UNL     1      -9.022  11.522  68.632  1.00  0.00    -0.115 C  
HETATM    2  C   UNL     1      -9.489  10.263  68.646  1.00  0.00    -0.169 C  
ENDROOT
BRANCH   1   3
HETATM    3  C   UNL     1      -8.654  12.240  67.390  1.00  0.00    -0.178 C  
HETATM    4  O   UNL     1      -7.492  12.488  67.102  1.00  0.00    -0.143 OA 
BRANCH   3   5
HETATM    5  O   UNL     1      -9.755  12.715  66.765  1.00  0.00    -0.227 OA 
BRANCH   5   6
HETATM    6  C   UNL     1      -9.989  14.105  67.001  1.00  0.00    -0.260 C  
HETATM    7  C   UNL     1     -10.212  16.447  66.073  1.00  0.00    -0.373 C  
HETATM    8  C   UNL     1     -12.311  14.431  64.907  1.00  0.00    -0.414 C  
HETATM    9  C   UNL     1     -10.819  14.447  64.597  1.00  0.00    -0.363 C  
HETATM   10  C   UNL     1      -9.909  14.968  65.734  1.00  0.00    -0.386 C  
BRANCH   7  11
HETATM   11  C   UNL     1      -9.221  17.050  67.078  1.00  0.00    -0.247 C  
BRANCH  11  12
HETATM   12  C   UNL     1      -9.806  18.246  67.825  1.00  0.00    -0.328 C  
HETATM   13  C   UNL     1     -10.451  19.224  66.852  1.00  0.00    -0.547 C  
ENDBRANCH  11  12
ENDBRANCH   7  11
ENDBRANCH   5   6
ENDBRANCH   3   5
ENDBRANCH   1   3
BRANCH   2  14
HETATM   14  C   UNL     1      -9.979   9.660  69.881  1.00  0.00    -0.273 A  
HETATM   15  C   UNL     1     -10.957   8.446  72.214  1.00  0.00    -0.361 A  
HETATM   16  C   UNL     1     -11.226  10.021  70.394  1.00  0.00    -0.393 A  
HETATM   17  C   UNL     1      -9.215   8.695  70.543  1.00  0.00    -0.201 A  
HETATM   18  C   UNL     1     -11.714   9.417  71.558  1.00  0.00    -0.465 A  
HETATM   19  C   UNL     1      -9.709   8.086  71.698  1.00  0.00    -0.222 A  
BRANCH  15  20
HETATM   20  O   UNL     1     -11.353   7.743  73.317  1.00  0.00    -0.321 OA 
HETATM   21  C   UNL     1     -10.379   6.886  73.898  1.00  0.00    -0.365 C  
ENDBRANCH  15  20
ENDBRANCH   2  14
TORSDOF 7
ENDMDL
MODEL      125
REMARK 921   NORMALIZED FREE ENERGY PREDICTED BY IDOCK:   -4.08 KCAL/MOL
REMARK 922        TOTAL FREE ENERGY PREDICTED BY IDOCK:   -6.87 KCAL/MOL
REMARK 923 INTER-LIGAND FREE ENERGY PREDICTED BY IDOCK:   -5.93 KCAL/MOL
REMARK 924 INTRA-LIGAND FREE ENERGY PREDICTED BY IDOCK:   -0.94 KCAL/MOL
REMARK 927      BINDING AFFINITY PREDICTED BY RF-SCORE:    0.00 PKD
ROOT
HETATM    1  C   UNL     1     -10.519   8.421  67.611  1.00  0.00    -0.307 C  
HETATM    2  C   UNL     1     -10.849   9.509  68.326  1.00  0.00    -0.194 C  
ENDROOT
BRANCH   1   3
HETATM    3  C   UNL     1     -10.423   7.063  68.194  1.00  0.00    -0.201 C  
HETATM    4  O   UNL     1      -9.471   6.327  67.976  1.00  0.00    -0.118 OA 
BRANCH   3   5
HETATM    5  O   UNL     1     -11.579   6.720  68.806  1.00  0.00    -0.010 OA 
BRANCH   5   6
HETATM    6  C   UNL     1     -11.385   6.045  70.051  1.00  0.00    -0.284 C  
HETATM    7  C   UNL     1     -11.092   6.178  72.560  1.00  0.00    -0.313 C  
HETATM    8  C   UNL     1     -13.811   7.368  71.550  1.00  0.00    -0.483 C  
HETATM    9  C   UNL     1     -12.434   7.991  71.352  1.00  0.00    -0.320 C  
HETATM   10  C   UNL     1     -11.259   6.990  71.253  1.00  0.00    -0.296 C  
BRANCH   7  11
HETATM   11  C   UNL     1      -9.837   5.295  72.562  1.00  0.00    -0.195 C  
BRANCH  11  12
HETATM   12  C   UNL     1     -10.165   3.819  72.775  1.00  0.00    -0.236 C  
HETATM   13  C   UNL     1      -9.760   2.998  71.559  1.00  0.00    -0.223 C  
ENDBRANCH  11  12
ENDBRANCH   7  11
ENDBRANCH   5   6
ENDBRANCH   3   5
ENDBRANCH   1   3
BRANCH   2  14
HETATM   14  C   UNL     1     -11.078  10.793  67.673  1.00  0.00    -0.384 A  
HETATM   15  C   UNL     1     -11.591  13.246  66.410  1.00  0.00    -0.347 A  
HETATM   16  C   UNL     1     -11.003  10.900  66.283  1.00  0.00    -0.130 A  
HETATM   17  C   UNL     1     -11.401  11.920  68.434  1.00  0.00    -0.331 A  
HETATM   18  C   UNL     1     -11.258  12.123  65.652  1.00  0.00    -0.381 A  
HETATM   19  C   UNL     1     -11.666  13.136  67.801  1.00  0.00    -0.401 A  
BRANCH  15  20
HETATM   20  O   UNL     1     -11.921  14.473  65.906  1.00  0.00    -0.366 OA 
HETATM   21  C   UNL     1     -11.103  14.959  64.850  1.00  0.00    -0.414 C  
ENDBRANCH  15  20
ENDBRANCH   2  14
TORSDOF 7
ENDMDL
MODEL      126
REMARK 921   NORMALIZED FREE ENERGY PREDICTED BY IDOCK:   -4.06 KCAL/MOL
REMARK 922        TOTAL FREE ENERGY PREDICTED BY IDOCK:   -6.84 KCAL/MOL
REMARK 923 INTER-LIGAND FREE ENERGY PREDICTED BY IDOCK:   -5.93 KCAL/MOL
REMARK 924 INTRA-LIGAND FREE ENERGY PREDICTED BY IDOCK:   -0.91 KCAL/MOL
REMARK 927      BINDING AFFINITY PREDICTED BY RF-SCORE:    0.00 PKD
ROOT
HETATM    1  C   UNL     1      -8.564  11.106  67.917  1.00  0.00    -0.135 C  
HETATM    2  C   UNL     1      -9.824  10.656  67.797  1.00  0.00    -0.187 C  
ENDROOT
BRANCH   1   3
HETATM    3  C   UNL     1      -8.165  12.500  67.613  1.00  0.00    -0.172 C  
HETATM    4  O   UNL     1      -7.066  12.776  67.154  1.00  0.00    -0.116 OA 
BRANCH   3   5
HETATM    5  O   UNL     1      -9.084  13.375  68.079  1.00  0.00    -0.190 OA 
BRANCH   5   6
HETATM    6  C   UNL     1      -9.924  13.918  67.057  1.00  0.00    -0.258 C  
HETATM    7  C   UNL     1     -12.255  14.341  66.174  1.00  0.00    -0.430 C  
HETATM    8  C   UNL     1     -11.712  15.665  68.963  1.00  0.00    -0.408 C  
HETATM    9  C   UNL     1     -11.878  14.173  68.700  1.00  0.00    -0.383 C  
HETATM   10  C   UNL     1     -11.421  13.690  67.303  1.00  0.00    -0.370 C  
BRANCH   7  11
HETATM   11  C   UNL     1     -11.945  13.763  64.787  1.00  0.00    -0.429 C  
BRANCH  11  12
HETATM   12  C   UNL     1     -12.339  12.293  64.668  1.00  0.00    -0.449 C  
HETATM   13  C   UNL     1     -11.111  11.426  64.423  1.00  0.00    -0.329 C  
ENDBRANCH  11  12
ENDBRANCH   7  11
ENDBRANCH   5   6
ENDBRANCH   3   5
ENDBRANCH   1   3
BRANCH   2  14
HETATM   14  C   UNL     1     -10.189   9.320  68.255  1.00  0.00    -0.236 A  
HETATM   15  C   UNL     1     -10.818   6.732  69.137  1.00  0.00    -0.258 A  
HETATM   16  C   UNL     1     -10.393   8.291  67.334  1.00  0.00    -0.350 A  
HETATM   17  C   UNL     1     -10.310   9.055  69.622  1.00  0.00    -0.217 A  
HETATM   18  C   UNL     1     -10.707   7.000  67.773  1.00  0.00    -0.300 A  
HETATM   19  C   UNL     1     -10.613   7.763  70.058  1.00  0.00    -0.238 A  
BRANCH  15  20
HETATM   20  O   UNL     1     -11.057   5.503  69.687  1.00  0.00    -0.249 OA 
HETATM   21  C   UNL     1      -9.953   4.607  69.725  1.00  0.00    -0.225 C  
ENDBRANCH  15  20
ENDBRANCH   2  14
TORSDOF 7
ENDMDL
MODEL      127
REMARK 921   NORMALIZED FREE ENERGY PREDICTED BY IDOCK:   -4.05 KCAL/MOL
REMARK 922        TOTAL FREE ENERGY PREDICTED BY IDOCK:   -6.83 KCAL/MOL
REMARK 923 INTER-LIGAND FREE ENERGY PREDICTED BY IDOCK:   -5.50 KCAL/MOL
REMARK 924 INTRA-LIGAND FREE ENERGY PREDICTED BY IDOCK:   -1.33 KCAL/MOL
REMARK 927      BINDING AFFINITY PREDICTED BY RF-SCORE:    0.00 PKD
ROOT
HETATM    1  C   UNL     1     -10.086  11.266  64.850  1.00  0.00    -0.333 C  
HETATM    2  C   UNL     1     -10.385  12.525  64.491  1.00  0.00    -0.362 C  
ENDROOT
BRANCH   1   3
HETATM    3  C   UNL     1      -9.577  10.248  63.903  1.00  0.00    -0.293 C  
HETATM    4  O   UNL     1      -9.757  10.335  62.696  1.00  0.00    -0.288 OA 
BRANCH   3   5
HETATM    5  O   UNL     1      -9.082   9.179  64.566  1.00  0.00    -0.159 OA 
BRANCH   5   6
HETATM    6  C   UNL     1      -8.964   9.387  65.975  1.00  0.00    -0.168 C  
HETATM    7  C   UNL     1      -9.599   8.692  68.323  1.00  0.00    -0.160 C  
HETATM    8  C   UNL     1      -8.145   6.439  66.698  1.00  0.00    -0.110 C  
HETATM    9  C   UNL     1      -9.565   6.939  66.458  1.00  0.00    -0.197 C  
HETATM   10  C   UNL     1      -9.815   8.424  66.814  1.00  0.00    -0.329 C  
BRANCH   7  11
HETATM   11  C   UNL     1      -9.998  10.112  68.744  1.00  0.00    -0.187 C  
BRANCH  11  12
HETATM   12  C   UNL     1      -8.812  10.918  69.269  1.00  0.00     0.020 C  
HETATM   13  C   UNL     1      -8.488  12.071  68.329  1.00  0.00    -0.167 C  
ENDBRANCH  11  12
ENDBRANCH   7  11
ENDBRANCH   5   6
ENDBRANCH   3   5
ENDBRANCH   1   3
BRANCH   2  14
HETATM   14  C   UNL     1     -10.736  13.527  65.492  1.00  0.00    -0.293 A  
HETATM   15  C   UNL     1     -11.350  15.433  67.457  1.00  0.00    -0.269 A  
HETATM   16  C   UNL     1     -11.538  13.182  66.582  1.00  0.00    -0.403 A  
HETATM   17  C   UNL     1     -10.248  14.832  65.380  1.00  0.00    -0.415 A  
HETATM   18  C   UNL     1     -11.845  14.133  67.562  1.00  0.00    -0.437 A  
HETATM   19  C   UNL     1     -10.547  15.775  66.365  1.00  0.00    -0.307 A  
BRANCH  15  20
HETATM   20  O   UNL     1     -11.529  16.426  68.379  1.00  0.00    -0.338 OA 
HETATM   21  C   UNL     1     -10.749  17.600  68.196  1.00  0.00    -0.307 C  
ENDBRANCH  15  20
ENDBRANCH   2  14
TORSDOF 7
ENDMDL
MODEL      128
REMARK 921   NORMALIZED FREE ENERGY PREDICTED BY IDOCK:   -4.05 KCAL/MOL
REMARK 922        TOTAL FREE ENERGY PREDICTED BY IDOCK:   -6.83 KCAL/MOL
REMARK 923 INTER-LIGAND FREE ENERGY PREDICTED BY IDOCK:   -5.95 KCAL/MOL
REMARK 924 INTRA-LIGAND FREE ENERGY PREDICTED BY IDOCK:   -0.87 KCAL/MOL
REMARK 927      BINDING AFFINITY PREDICTED BY RF-SCORE:    0.00 PKD
ROOT
HETATM    1  C   UNL     1     -12.249  12.731  70.229  1.00  0.00    -0.351 C  
HETATM    2  C   UNL     1     -11.451  12.975  69.176  1.00  0.00    -0.353 C  
ENDROOT
BRANCH   1   3
HETATM    3  C   UNL     1     -12.494  11.373  70.766  1.00  0.00    -0.365 C  
HETATM    4  O   UNL     1     -12.916  11.189  71.899  1.00  0.00    -0.458 OA 
BRANCH   3   5
HETATM    5  O   UNL     1     -12.020  10.429  69.922  1.00  0.00    -0.260 OA 
BRANCH   5   6
HETATM    6  C   UNL     1     -11.093   9.530  70.535  1.00  0.00    -0.283 C  
HETATM    7  C   UNL     1      -9.257   7.810  70.276  1.00  0.00    -0.156 C  
HETATM    8  C   UNL     1      -8.533  10.610  69.065  1.00  0.00    -0.148 C  
HETATM    9  C   UNL     1      -9.543   9.623  68.492  1.00  0.00    -0.152 C  
HETATM   10  C   UNL     1     -10.258   8.726  69.530  1.00  0.00    -0.208 C  
BRANCH   7  11
HETATM   11  C   UNL     1      -9.943   6.790  71.193  1.00  0.00    -0.194 C  
BRANCH  11  12
HETATM   12  C   UNL     1      -9.699   7.081  72.672  1.00  0.00    -0.173 C  
HETATM   13  C   UNL     1     -11.013   7.099  73.441  1.00  0.00    -0.277 C  
ENDBRANCH  11  12
ENDBRANCH   7  11
ENDBRANCH   5   6
ENDBRANCH   3   5
ENDBRANCH   1   3
BRANCH   2  14
HETATM   14  C   UNL     1     -11.124  14.342  68.785  1.00  0.00    -0.275 A  
HETATM   15  C   UNL     1     -10.422  16.953  68.036  1.00  0.00    -0.347 A  
HETATM   16  C   UNL     1     -10.911  15.321  69.757  1.00  0.00    -0.300 A  
HETATM   17  C   UNL     1     -10.995  14.674  67.433  1.00  0.00    -0.309 A  
HETATM   18  C   UNL     1     -10.561  16.624  69.384  1.00  0.00    -0.333 A  
HETATM   19  C   UNL     1     -10.636  15.972  67.065  1.00  0.00    -0.302 A  
BRANCH  15  20
HETATM   20  O   UNL     1     -10.025  18.170  67.554  1.00  0.00    -0.306 OA 
HETATM   21  C   UNL     1      -9.691  19.151  68.527  1.00  0.00    -0.406 C  
ENDBRANCH  15  20
ENDBRANCH   2  14
TORSDOF 7
ENDMDL
MODEL      129
REMARK 921   NORMALIZED FREE ENERGY PREDICTED BY IDOCK:   -4.02 KCAL/MOL
REMARK 922        TOTAL FREE ENERGY PREDICTED BY IDOCK:   -6.79 KCAL/MOL
REMARK 923 INTER-LIGAND FREE ENERGY PREDICTED BY IDOCK:   -5.89 KCAL/MOL
REMARK 924 INTRA-LIGAND FREE ENERGY PREDICTED BY IDOCK:   -0.90 KCAL/MOL
REMARK 927      BINDING AFFINITY PREDICTED BY RF-SCORE:    0.00 PKD
ROOT
HETATM    1  C   UNL     1     -12.387  10.494  69.760  1.00  0.00    -0.200 C  
HETATM    2  C   UNL     1     -11.174  10.983  69.453  1.00  0.00    -0.332 C  
ENDROOT
BRANCH   1   3
HETATM    3  C   UNL     1     -12.687   9.805  71.036  1.00  0.00    -0.304 C  
HETATM    4  O   UNL     1     -12.636  10.381  72.114  1.00  0.00    -0.281 OA 
BRANCH   3   5
HETATM    5  O   UNL     1     -12.828   8.474  70.843  1.00  0.00    -0.051 OA 
BRANCH   5   6
HETATM    6  C   UNL     1     -11.980   7.684  71.679  1.00  0.00    -0.299 C  
HETATM    7  C   UNL     1     -10.470   5.672  71.940  1.00  0.00    -0.279 C  
HETATM    8  C   UNL     1      -9.486   7.703  69.765  1.00  0.00    -0.156 C  
HETATM    9  C   UNL     1     -10.696   6.785  69.647  1.00  0.00    -0.290 C  
HETATM   10  C   UNL     1     -11.405   6.445  70.979  1.00  0.00    -0.386 C  
BRANCH   7  11
HETATM   11  C   UNL     1     -11.185   5.172  73.202  1.00  0.00    -0.398 C  
BRANCH  11  12
HETATM   12  C   UNL     1     -10.683   3.802  73.650  1.00  0.00    -0.308 C  
HETATM   13  C   UNL     1     -11.647   2.707  73.215  1.00  0.00    -0.062 C  
ENDBRANCH  11  12
ENDBRANCH   7  11
ENDBRANCH   5   6
ENDBRANCH   3   5
ENDBRANCH   1   3
BRANCH   2  14
HETATM   14  C   UNL     1     -10.972  11.785  68.251  1.00  0.00    -0.274 A  
HETATM   15  C   UNL     1     -10.545  13.378  65.982  1.00  0.00    -0.287 A  
HETATM   16  C   UNL     1     -11.878  12.793  67.917  1.00  0.00    -0.392 A  
HETATM   17  C   UNL     1      -9.854  11.568  67.442  1.00  0.00    -0.202 A  
HETATM   18  C   UNL     1     -11.666  13.588  66.785  1.00  0.00    -0.430 A  
HETATM   19  C   UNL     1      -9.639  12.369  66.319  1.00  0.00    -0.245 A  
BRANCH  15  20
HETATM   20  O   UNL     1     -10.200  14.128  64.892  1.00  0.00    -0.412 OA 
HETATM   21  C   UNL     1     -10.934  15.329  64.697  1.00  0.00    -0.304 C  
ENDBRANCH  15  20
ENDBRANCH   2  14
TORSDOF 7
ENDMDL
MODEL      130
REMARK 921   NORMALIZED FREE ENERGY PREDICTED BY IDOCK:   -4.02 KCAL/MOL
REMARK 922        TOTAL FREE ENERGY PREDICTED BY IDOCK:   -6.78 KCAL/MOL
REMARK 923 INTER-LIGAND FREE ENERGY PREDICTED BY IDOCK:   -5.80 KCAL/MOL
REMARK 924 INTRA-LIGAND FREE ENERGY PREDICTED BY IDOCK:   -0.98 KCAL/MOL
REMARK 927      BINDING AFFINITY PREDICTED BY RF-SCORE:    0.00 PKD
ROOT
HETATM    1  C   UNL     1     -12.160  10.224  69.914  1.00  0.00    -0.178 C  
HETATM    2  C   UNL     1     -11.528  11.409  69.939  1.00  0.00    -0.353 C  
ENDROOT
BRANCH   1   3
HETATM    3  C   UNL     1     -12.260   9.329  71.090  1.00  0.00    -0.301 C  
HETATM    4  O   UNL     1     -12.551   9.747  72.202  1.00  0.00    -0.358 OA 
BRANCH   3   5
HETATM    5  O   UNL     1     -11.816   8.088  70.788  1.00  0.00    -0.261 OA 
BRANCH   5   6
HETATM    6  C   UNL     1     -10.394   8.007  70.664  1.00  0.00    -0.202 C  
HETATM    7  C   UNL     1      -8.376   6.894  69.621  1.00  0.00    -0.133 C  
HETATM    8  C   UNL     1     -10.305   8.208  67.528  1.00  0.00    -0.330 C  
HETATM    9  C   UNL     1     -10.588   6.947  68.335  1.00  0.00    -0.249 C  
HETATM   10  C   UNL     1      -9.920   6.886  69.729  1.00  0.00    -0.187 C  
BRANCH   7  11
HETATM   11  C   UNL     1      -7.678   6.667  70.969  1.00  0.00    -0.097 C  
BRANCH  11  12
HETATM   12  C   UNL     1      -6.799   5.420  70.965  1.00  0.00    -0.045 C  
HETATM   13  C   UNL     1      -7.501   4.270  70.255  1.00  0.00    -0.046 C  
ENDBRANCH  11  12
ENDBRANCH   7  11
ENDBRANCH   5   6
ENDBRANCH   3   5
ENDBRANCH   1   3
BRANCH   2  14
HETATM   14  C   UNL     1     -11.591  12.317  68.799  1.00  0.00    -0.380 A  
HETATM   15  C   UNL     1     -11.637  14.070  66.609  1.00  0.00    -0.382 A  
HETATM   16  C   UNL     1     -11.692  13.694  69.001  1.00  0.00    -0.375 A  
HETATM   17  C   UNL     1     -11.522  11.814  67.496  1.00  0.00    -0.373 A  
HETATM   18  C   UNL     1     -11.716  14.569  67.909  1.00  0.00    -0.381 A  
HETATM   19  C   UNL     1     -11.535  12.691  66.410  1.00  0.00    -0.409 A  
BRANCH  15  20
HETATM   20  O   UNL     1     -11.588  14.826  65.471  1.00  0.00    -0.342 OA 
HETATM   21  C   UNL     1     -12.235  14.282  64.328  1.00  0.00    -0.423 C  
ENDBRANCH  15  20
ENDBRANCH   2  14
TORSDOF 7
ENDMDL
MODEL      131
REMARK 921   NORMALIZED FREE ENERGY PREDICTED BY IDOCK:   -4.01 KCAL/MOL
REMARK 922        TOTAL FREE ENERGY PREDICTED BY IDOCK:   -6.77 KCAL/MOL
REMARK 923 INTER-LIGAND FREE ENERGY PREDICTED BY IDOCK:   -5.91 KCAL/MOL
REMARK 924 INTRA-LIGAND FREE ENERGY PREDICTED BY IDOCK:   -0.86 KCAL/MOL
REMARK 927      BINDING AFFINITY PREDICTED BY RF-SCORE:    0.00 PKD
ROOT
HETATM    1  C   UNL     1      -7.624  14.173  67.792  1.00  0.00    -0.175 C  
HETATM    2  C   UNL     1      -7.069  15.179  68.488  1.00  0.00    -0.110 C  
ENDROOT
BRANCH   1   3
HETATM    3  C   UNL     1      -7.701  12.782  68.294  1.00  0.00    -0.136 C  
HETATM    4  O   UNL     1      -6.847  12.308  69.030  1.00  0.00    -0.097 OA 
BRANCH   3   5
HETATM    5  O   UNL     1      -8.703  12.106  67.688  1.00  0.00    -0.157 OA 
BRANCH   5   6
HETATM    6  C   UNL     1      -9.547  12.937  66.887  1.00  0.00    -0.240 C  
HETATM    7  C   UNL     1     -11.812  13.344  65.839  1.00  0.00    -0.414 C  
HETATM    8  C   UNL     1     -11.893  13.161  68.967  1.00  0.00    -0.358 C  
HETATM    9  C   UNL     1     -11.655  12.000  68.010  1.00  0.00    -0.407 C  
HETATM   10  C   UNL     1     -10.956  12.367  66.680  1.00  0.00    -0.309 C  
BRANCH   7  11
HETATM   11  C   UNL     1     -11.232  13.602  64.442  1.00  0.00    -0.382 C  
BRANCH  11  12
HETATM   12  C   UNL     1     -11.217  12.343  63.578  1.00  0.00    -0.540 C  
HETATM   13  C   UNL     1     -12.636  11.890  63.263  1.00  0.00    -0.473 C  
ENDBRANCH  11  12
ENDBRANCH   7  11
ENDBRANCH   5   6
ENDBRANCH   3   5
ENDBRANCH   1   3
BRANCH   2  14
HETATM   14  C   UNL     1      -7.158  16.556  68.013  1.00  0.00    -0.152 A  
HETATM   15  C   UNL     1      -7.252  19.205  67.095  1.00  0.00    -0.208 A  
HETATM   16  C   UNL     1      -7.074  17.618  68.915  1.00  0.00    -0.254 A  
HETATM   17  C   UNL     1      -7.298  16.821  66.648  1.00  0.00    -0.297 A  
HETATM   18  C   UNL     1      -7.122  18.940  68.458  1.00  0.00    -0.306 A  
HETATM   19  C   UNL     1      -7.334  18.141  66.194  1.00  0.00    -0.309 A  
BRANCH  15  20
HETATM   20  O   UNL     1      -7.247  20.448  66.526  1.00  0.00    -0.263 OA 
HETATM   21  C   UNL     1      -6.090  21.241  66.760  1.00  0.00    -0.327 C  
ENDBRANCH  15  20
ENDBRANCH   2  14
TORSDOF 7
ENDMDL
MODEL      132
REMARK 921   NORMALIZED FREE ENERGY PREDICTED BY IDOCK:   -4.01 KCAL/MOL
REMARK 922        TOTAL FREE ENERGY PREDICTED BY IDOCK:   -6.77 KCAL/MOL
REMARK 923 INTER-LIGAND FREE ENERGY PREDICTED BY IDOCK:   -5.87 KCAL/MOL
REMARK 924 INTRA-LIGAND FREE ENERGY PREDICTED BY IDOCK:   -0.89 KCAL/MOL
REMARK 927      BINDING AFFINITY PREDICTED BY RF-SCORE:    0.00 PKD
ROOT
HETATM    1  C   UNL     1      -8.457  13.098  67.390  1.00  0.00    -0.201 C  
HETATM    2  C   UNL     1      -9.677  12.589  67.631  1.00  0.00    -0.196 C  
ENDROOT
BRANCH   1   3
HETATM    3  C   UNL     1      -8.065  14.479  67.754  1.00  0.00    -0.158 C  
HETATM    4  O   UNL     1      -7.279  15.130  67.081  1.00  0.00    -0.187 OA 
BRANCH   3   5
HETATM    5  O   UNL     1      -8.537  14.806  68.978  1.00  0.00    -0.177 OA 
BRANCH   5   6
HETATM    6  C   UNL     1      -8.802  16.203  69.131  1.00  0.00    -0.239 C  
HETATM    7  C   UNL     1     -10.290  18.187  68.640  1.00  0.00    -0.315 C  
HETATM    8  C   UNL     1     -11.741  15.888  70.201  1.00  0.00    -0.342 C  
HETATM    9  C   UNL     1     -11.312  15.843  68.739  1.00  0.00    -0.378 C  
HETATM   10  C   UNL     1     -10.058  16.678  68.389  1.00  0.00    -0.268 C  
BRANCH   7  11
HETATM   11  C   UNL     1      -9.131  19.064  68.149  1.00  0.00    -0.364 C  
BRANCH  11  12
HETATM   12  C   UNL     1      -9.236  19.387  66.660  1.00  0.00    -0.393 C  
HETATM   13  C   UNL     1     -10.627  19.903  66.319  1.00  0.00    -0.534 C  
ENDBRANCH  11  12
ENDBRANCH   7  11
ENDBRANCH   5   6
ENDBRANCH   3   5
ENDBRANCH   1   3
BRANCH   2  14
HETATM   14  C   UNL     1      -9.961  11.178  67.392  1.00  0.00    -0.204 A  
HETATM   15  C   UNL     1     -10.439   8.448  66.957  1.00  0.00    -0.305 A  
HETATM   16  C   UNL     1      -9.626  10.590  66.171  1.00  0.00    -0.237 A  
HETATM   17  C   UNL     1     -10.547  10.400  68.395  1.00  0.00    -0.238 A  
HETATM   18  C   UNL     1      -9.864   9.228  65.953  1.00  0.00    -0.335 A  
HETATM   19  C   UNL     1     -10.773   9.040  68.178  1.00  0.00    -0.165 A  
BRANCH  15  20
HETATM   20  O   UNL     1     -10.661   7.101  66.884  1.00  0.00    -0.330 OA 
HETATM   21  C   UNL     1     -10.871   6.433  68.121  1.00  0.00    -0.308 C  
ENDBRANCH  15  20
ENDBRANCH   2  14
TORSDOF 7
ENDMDL
MODEL      133
REMARK 921   NORMALIZED FREE ENERGY PREDICTED BY IDOCK:   -4.01 KCAL/MOL
REMARK 922        TOTAL FREE ENERGY PREDICTED BY IDOCK:   -6.77 KCAL/MOL
REMARK 923 INTER-LIGAND FREE ENERGY PREDICTED BY IDOCK:   -5.78 KCAL/MOL
REMARK 924 INTRA-LIGAND FREE ENERGY PREDICTED BY IDOCK:   -0.99 KCAL/MOL
REMARK 927      BINDING AFFINITY PREDICTED BY RF-SCORE:    0.00 PKD
ROOT
HETATM    1  C   UNL     1     -11.755   9.699  71.165  1.00  0.00    -0.450 C  
HETATM    2  C   UNL     1     -12.719  10.569  71.509  1.00  0.00    -0.558 C  
ENDROOT
BRANCH   1   3
HETATM    3  C   UNL     1     -11.895   8.232  71.306  1.00  0.00    -0.288 C  
HETATM    4  O   UNL     1     -12.215   7.708  72.364  1.00  0.00    -0.258 OA 
BRANCH   3   5
HETATM    5  O   UNL     1     -11.450   7.598  70.198  1.00  0.00    -0.199 OA 
BRANCH   5   6
HETATM    6  C   UNL     1     -11.259   8.469  69.081  1.00  0.00     0.345 C  
HETATM    7  C   UNL     1      -9.887   9.121  67.059  1.00  0.00    -0.267 C  
HETATM    8  C   UNL     1     -11.039   6.209  66.907  1.00  0.00    -0.301 C  
HETATM    9  C   UNL     1      -9.917   6.679  67.824  1.00  0.00    -0.158 C  
HETATM   10  C   UNL     1      -9.996   8.159  68.267  1.00  0.00    -0.212 C  
BRANCH   7  11
HETATM   11  C   UNL     1      -9.794  10.596  67.471  1.00  0.00    -0.194 C  
BRANCH  11  12
HETATM   12  C   UNL     1      -9.422  11.504  66.301  1.00  0.00    -0.235 C  
HETATM   13  C   UNL     1      -9.565  10.763  64.979  1.00  0.00    -0.305 C  
ENDBRANCH  11  12
ENDBRANCH   7  11
ENDBRANCH   5   6
ENDBRANCH   3   5
ENDBRANCH   1   3
BRANCH   2  14
HETATM   14  C   UNL     1     -12.588  11.991  71.206  1.00  0.00    -0.357 A  
HETATM   15  C   UNL     1     -12.272  14.725  70.664  1.00  0.00    -0.319 A  
HETATM   16  C   UNL     1     -13.105  12.947  72.082  1.00  0.00    -0.466 A  
HETATM   17  C   UNL     1     -11.918  12.404  70.051  1.00  0.00    -0.372 A  
HETATM   18  C   UNL     1     -12.948  14.311  71.811  1.00  0.00    -0.430 A  
HETATM   19  C   UNL     1     -11.754  13.766  69.790  1.00  0.00    -0.367 A  
BRANCH  15  20
HETATM   20  O   UNL     1     -12.002  16.022  70.327  1.00  0.00    -0.328 OA 
HETATM   21  C   UNL     1     -11.838  16.290  68.941  1.00  0.00    -0.060 C  
ENDBRANCH  15  20
ENDBRANCH   2  14
TORSDOF 7
ENDMDL
MODEL      134
REMARK 921   NORMALIZED FREE ENERGY PREDICTED BY IDOCK:   -4.00 KCAL/MOL
REMARK 922        TOTAL FREE ENERGY PREDICTED BY IDOCK:   -6.76 KCAL/MOL
REMARK 923 INTER-LIGAND FREE ENERGY PREDICTED BY IDOCK:   -5.92 KCAL/MOL
REMARK 924 INTRA-LIGAND FREE ENERGY PREDICTED BY IDOCK:   -0.84 KCAL/MOL
REMARK 927      BINDING AFFINITY PREDICTED BY RF-SCORE:    0.00 PKD
ROOT
HETATM    1  C   UNL     1     -11.684  12.475  66.256  1.00  0.00    -0.462 C  
HETATM    2  C   UNL     1     -10.907  11.754  65.431  1.00  0.00    -0.347 C  
ENDROOT
BRANCH   1   3
HETATM    3  C   UNL     1     -12.353  13.732  65.851  1.00  0.00    -0.476 C  
HETATM    4  O   UNL     1     -12.833  13.884  64.736  1.00  0.00    -0.679 OA 
BRANCH   3   5
HETATM    5  O   UNL     1     -12.185  14.691  66.789  1.00  0.00    -0.314 OA 
BRANCH   5   6
HETATM    6  C   UNL     1     -10.850  14.763  67.296  1.00  0.00    -0.309 C  
HETATM    7  C   UNL     1      -8.476  15.592  67.020  1.00  0.00    -0.257 C  
HETATM    8  C   UNL     1     -10.598  17.894  67.173  1.00  0.00    -0.315 C  
HETATM    9  C   UNL     1     -10.403  16.936  66.005  1.00  0.00    -0.335 C  
HETATM   10  C   UNL     1      -9.884  15.528  66.380  1.00  0.00    -0.298 C  
BRANCH   7  11
HETATM   11  C   UNL     1      -7.858  14.207  67.254  1.00  0.00    -0.154 C  
BRANCH  11  12
HETATM   12  C   UNL     1      -6.673  14.254  68.215  1.00  0.00    -0.108 C  
HETATM   13  C   UNL     1      -6.563  12.953  68.997  1.00  0.00    -0.102 C  
ENDBRANCH  11  12
ENDBRANCH   7  11
ENDBRANCH   5   6
ENDBRANCH   3   5
ENDBRANCH   1   3
BRANCH   2  14
HETATM   14  C   UNL     1     -10.398  10.447  65.834  1.00  0.00    -0.261 A  
HETATM   15  C   UNL     1      -9.363   7.968  66.644  1.00  0.00    -0.197 A  
HETATM   16  C   UNL     1      -9.441   9.794  65.055  1.00  0.00    -0.337 A  
HETATM   17  C   UNL     1     -10.846   9.853  67.017  1.00  0.00    -0.186 A  
HETATM   18  C   UNL     1      -8.924   8.557  65.458  1.00  0.00    -0.182 A  
HETATM   19  C   UNL     1     -10.321   8.624  67.422  1.00  0.00    -0.353 A  
BRANCH  15  20
HETATM   20  O   UNL     1      -8.889   6.799  67.171  1.00  0.00    -0.117 OA 
HETATM   21  C   UNL     1      -8.995   5.649  66.343  1.00  0.00    -0.134 C  
ENDBRANCH  15  20
ENDBRANCH   2  14
TORSDOF 7
ENDMDL
MODEL      135
REMARK 921   NORMALIZED FREE ENERGY PREDICTED BY IDOCK:   -4.00 KCAL/MOL
REMARK 922        TOTAL FREE ENERGY PREDICTED BY IDOCK:   -6.76 KCAL/MOL
REMARK 923 INTER-LIGAND FREE ENERGY PREDICTED BY IDOCK:   -5.92 KCAL/MOL
REMARK 924 INTRA-LIGAND FREE ENERGY PREDICTED BY IDOCK:   -0.83 KCAL/MOL
REMARK 927      BINDING AFFINITY PREDICTED BY RF-SCORE:    0.00 PKD
ROOT
HETATM    1  C   UNL     1      -8.742  13.160  68.266  1.00  0.00    -0.165 C  
HETATM    2  C   UNL     1      -8.994  13.864  67.151  1.00  0.00    -0.242 C  
ENDROOT
BRANCH   1   3
HETATM    3  C   UNL     1      -8.053  11.849  68.263  1.00  0.00    -0.154 C  
HETATM    4  O   UNL     1      -7.044  11.647  67.602  1.00  0.00    -0.083 OA 
BRANCH   3   5
HETATM    5  O   UNL     1      -8.786  10.918  68.914  1.00  0.00    -0.163 OA 
BRANCH   5   6
HETATM    6  C   UNL     1      -8.967   9.712  68.169  1.00  0.00    -0.123 C  
HETATM    7  C   UNL     1     -10.534   8.115  66.989  1.00  0.00    -0.396 C  
HETATM    8  C   UNL     1     -10.548  11.008  65.781  1.00  0.00    -0.260 C  
HETATM    9  C   UNL     1     -11.137  10.598  67.125  1.00  0.00    -0.267 C  
HETATM   10  C   UNL     1     -10.433   9.413  67.826  1.00  0.00    -0.310 C  
BRANCH   7  11
HETATM   11  C   UNL     1      -9.993   6.881  67.724  1.00  0.00    -0.180 C  
BRANCH  11  12
HETATM   12  C   UNL     1     -11.053   6.215  68.598  1.00  0.00    -0.378 C  
HETATM   13  C   UNL     1     -10.414   5.570  69.820  1.00  0.00    -0.389 C  
ENDBRANCH  11  12
ENDBRANCH   7  11
ENDBRANCH   5   6
ENDBRANCH   3   5
ENDBRANCH   1   3
BRANCH   2  14
HETATM   14  C   UNL     1      -9.537  15.217  67.226  1.00  0.00    -0.211 A  
HETATM   15  C   UNL     1     -10.512  17.842  67.389  1.00  0.00    -0.383 A  
HETATM   16  C   UNL     1     -10.036  15.709  68.433  1.00  0.00    -0.214 A  
HETATM   17  C   UNL     1      -9.534  16.038  66.095  1.00  0.00    -0.371 A  
HETATM   18  C   UNL     1     -10.523  17.019  68.515  1.00  0.00    -0.373 A  
HETATM   19  C   UNL     1     -10.011  17.347  66.183  1.00  0.00    -0.281 A  
BRANCH  15  20
HETATM   20  O   UNL     1     -10.901  19.153  67.362  1.00  0.00    -0.483 OA 
HETATM   21  C   UNL     1     -10.399  19.934  66.286  1.00  0.00    -0.495 C  
ENDBRANCH  15  20
ENDBRANCH   2  14
TORSDOF 7
ENDMDL
MODEL      136
REMARK 921   NORMALIZED FREE ENERGY PREDICTED BY IDOCK:   -3.99 KCAL/MOL
REMARK 922        TOTAL FREE ENERGY PREDICTED BY IDOCK:   -6.75 KCAL/MOL
REMARK 923 INTER-LIGAND FREE ENERGY PREDICTED BY IDOCK:   -6.17 KCAL/MOL
REMARK 924 INTRA-LIGAND FREE ENERGY PREDICTED BY IDOCK:   -0.58 KCAL/MOL
REMARK 927      BINDING AFFINITY PREDICTED BY RF-SCORE:    0.00 PKD
ROOT
HETATM    1  C   UNL     1     -12.183  10.568  71.158  1.00  0.00    -0.496 C  
HETATM    2  C   UNL     1     -11.131   9.734  71.108  1.00  0.00    -0.414 C  
ENDROOT
BRANCH   1   3
HETATM    3  C   UNL     1     -12.252  11.837  70.398  1.00  0.00    -0.330 C  
HETATM    4  O   UNL     1     -12.773  12.843  70.859  1.00  0.00    -0.296 OA 
BRANCH   3   5
HETATM    5  O   UNL     1     -11.845  11.656  69.122  1.00  0.00    -0.292 OA 
BRANCH   5   6
HETATM    6  C   UNL     1     -10.923  12.651  68.671  1.00  0.00    -0.256 C  
HETATM    7  C   UNL     1      -9.515  13.603  66.798  1.00  0.00    -0.275 C  
HETATM    8  C   UNL     1     -12.584  13.555  66.160  1.00  0.00    -0.355 C  
HETATM    9  C   UNL     1     -11.668  12.339  66.235  1.00  0.00    -0.431 C  
HETATM   10  C   UNL     1     -10.477  12.464  67.214  1.00  0.00    -0.237 C  
BRANCH   7  11
HETATM   11  C   UNL     1      -8.237  13.651  67.646  1.00  0.00    -0.178 C  
BRANCH  11  12
HETATM   12  C   UNL     1      -7.865  15.073  68.056  1.00  0.00    -0.129 C  
HETATM   13  C   UNL     1      -7.956  15.239  69.567  1.00  0.00    -0.199 C  
ENDBRANCH  11  12
ENDBRANCH   7  11
ENDBRANCH   5   6
ENDBRANCH   3   5
ENDBRANCH   1   3
BRANCH   2  14
HETATM   14  C   UNL     1     -11.180   8.427  71.755  1.00  0.00    -0.360 A  
HETATM   15  C   UNL     1     -11.327   5.939  73.044  1.00  0.00    -0.170 A  
HETATM   16  C   UNL     1     -10.386   8.164  72.873  1.00  0.00    -0.333 A  
HETATM   17  C   UNL     1     -12.043   7.437  71.274  1.00  0.00    -0.359 A  
HETATM   18  C   UNL     1     -10.459   6.924  73.516  1.00  0.00    -0.382 A  
HETATM   19  C   UNL     1     -12.121   6.205  71.925  1.00  0.00    -0.225 A  
BRANCH  15  20
HETATM   20  O   UNL     1     -11.530   4.718  73.624  1.00  0.00    -0.273 OA 
HETATM   21  C   UNL     1     -10.386   3.884  73.749  1.00  0.00    -0.174 C  
ENDBRANCH  15  20
ENDBRANCH   2  14
TORSDOF 7
ENDMDL
MODEL      137
REMARK 921   NORMALIZED FREE ENERGY PREDICTED BY IDOCK:   -3.98 KCAL/MOL
REMARK 922        TOTAL FREE ENERGY PREDICTED BY IDOCK:   -6.74 KCAL/MOL
REMARK 923 INTER-LIGAND FREE ENERGY PREDICTED BY IDOCK:   -5.79 KCAL/MOL
REMARK 924 INTRA-LIGAND FREE ENERGY PREDICTED BY IDOCK:   -0.95 KCAL/MOL
REMARK 927      BINDING AFFINITY PREDICTED BY RF-SCORE:    0.00 PKD
ROOT
HETATM    1  C   UNL     1      -7.892  13.429  68.096  1.00  0.00    -0.145 C  
HETATM    2  C   UNL     1      -7.133  14.441  67.647  1.00  0.00    -0.202 C  
ENDROOT
BRANCH   1   3
HETATM    3  C   UNL     1      -7.333  12.190  68.684  1.00  0.00    -0.109 C  
HETATM    4  O   UNL     1      -6.360  12.204  69.425  1.00  0.00    -0.098 OA 
BRANCH   3   5
HETATM    5  O   UNL     1      -7.917  11.096  68.146  1.00  0.00    -0.113 OA 
BRANCH   5   6
HETATM    6  C   UNL     1      -8.731  11.386  67.007  1.00  0.00    -0.160 C  
HETATM    7  C   UNL     1     -10.874  10.989  65.724  1.00  0.00    -0.167 C  
HETATM    8  C   UNL     1     -11.333  12.117  68.613  1.00  0.00    -0.330 C  
HETATM    9  C   UNL     1     -10.861  10.710  68.268  1.00  0.00    -0.287 C  
HETATM   10  C   UNL     1     -10.039  10.586  66.963  1.00  0.00    -0.259 C  
BRANCH   7  11
HETATM   11  C   UNL     1     -10.150  10.721  64.398  1.00  0.00    -0.419 C  
BRANCH  11  12
HETATM   12  C   UNL     1     -10.468  11.774  63.339  1.00  0.00    -0.485 C  
HETATM   13  C   UNL     1     -11.766  12.496  63.672  1.00  0.00    -0.594 C  
ENDBRANCH  11  12
ENDBRANCH   7  11
ENDBRANCH   5   6
ENDBRANCH   3   5
ENDBRANCH   1   3
BRANCH   2  14
HETATM   14  C   UNL     1      -7.737  15.699  67.220  1.00  0.00    -0.239 A  
HETATM   15  C   UNL     1      -8.869  18.107  66.330  1.00  0.00    -0.236 A  
HETATM   16  C   UNL     1      -7.022  16.893  67.320  1.00  0.00    -0.197 A  
HETATM   17  C   UNL     1      -9.027  15.711  66.682  1.00  0.00    -0.317 A  
HETATM   18  C   UNL     1      -7.586  18.095  66.877  1.00  0.00    -0.239 A  
HETATM   19  C   UNL     1      -9.583  16.910  66.231  1.00  0.00    -0.300 A  
BRANCH  15  20
HETATM   20  O   UNL     1      -9.498  19.203  65.808  1.00  0.00    -0.398 OA 
HETATM   21  C   UNL     1     -10.525  19.776  66.606  1.00  0.00    -0.497 C  
ENDBRANCH  15  20
ENDBRANCH   2  14
TORSDOF 7
ENDMDL
MODEL      138
REMARK 921   NORMALIZED FREE ENERGY PREDICTED BY IDOCK:   -3.98 KCAL/MOL
REMARK 922        TOTAL FREE ENERGY PREDICTED BY IDOCK:   -6.73 KCAL/MOL
REMARK 923 INTER-LIGAND FREE ENERGY PREDICTED BY IDOCK:   -5.99 KCAL/MOL
REMARK 924 INTRA-LIGAND FREE ENERGY PREDICTED BY IDOCK:   -0.74 KCAL/MOL
REMARK 927      BINDING AFFINITY PREDICTED BY RF-SCORE:    0.00 PKD
ROOT
HETATM    1  C   UNL     1     -10.592   9.232  67.183  1.00  0.00    -0.286 C  
HETATM    2  C   UNL     1      -9.432   8.578  67.007  1.00  0.00    -0.223 C  
ENDROOT
BRANCH   1   3
HETATM    3  C   UNL     1     -10.670  10.658  67.575  1.00  0.00    -0.272 C  
HETATM    4  O   UNL     1      -9.677  11.367  67.650  1.00  0.00    -0.169 OA 
BRANCH   3   5
HETATM    5  O   UNL     1     -11.916  10.972  67.997  1.00  0.00    -0.623 OA 
BRANCH   5   6
HETATM    6  C   UNL     1     -11.932  11.711  69.221  1.00  0.00    -0.317 C  
HETATM    7  C   UNL     1     -12.586  11.837  71.661  1.00  0.00    -0.249 C  
HETATM    8  C   UNL     1     -10.644   9.466  71.004  1.00  0.00    -0.400 C  
HETATM    9  C   UNL     1     -12.111   9.556  70.602  1.00  0.00    -0.230 C  
HETATM   10  C   UNL     1     -12.649  10.988  70.369  1.00  0.00    -0.349 C  
BRANCH   7  11
HETATM   11  C   UNL     1     -13.263  13.206  71.514  1.00  0.00    -0.368 C  
BRANCH  11  12
HETATM   12  C   UNL     1     -12.290  14.362  71.734  1.00  0.00    -0.390 C  
HETATM   13  C   UNL     1     -13.042  15.679  71.872  1.00  0.00    -0.545 C  
ENDBRANCH  11  12
ENDBRANCH   7  11
ENDBRANCH   5   6
ENDBRANCH   3   5
ENDBRANCH   1   3
BRANCH   2  14
HETATM   14  C   UNL     1      -9.412   7.220  66.472  1.00  0.00    -0.218 A  
HETATM   15  C   UNL     1      -9.411   4.634  65.385  1.00  0.00    -0.171 A  
HETATM   16  C   UNL     1     -10.448   6.332  66.766  1.00  0.00    -0.311 A  
HETATM   17  C   UNL     1      -8.367   6.809  65.639  1.00  0.00    -0.147 A  
HETATM   18  C   UNL     1     -10.448   5.041  66.224  1.00  0.00    -0.352 A  
HETATM   19  C   UNL     1      -8.376   5.525  65.092  1.00  0.00    -0.146 A  
BRANCH  15  20
HETATM   20  O   UNL     1      -9.335   3.426  64.749  1.00  0.00    -0.136 OA 
HETATM   21  C   UNL     1      -8.773   3.439  63.443  1.00  0.00    -0.093 C  
ENDBRANCH  15  20
ENDBRANCH   2  14
TORSDOF 7
ENDMDL
MODEL      139
REMARK 921   NORMALIZED FREE ENERGY PREDICTED BY IDOCK:   -3.97 KCAL/MOL
REMARK 922        TOTAL FREE ENERGY PREDICTED BY IDOCK:   -6.71 KCAL/MOL
REMARK 923 INTER-LIGAND FREE ENERGY PREDICTED BY IDOCK:   -6.11 KCAL/MOL
REMARK 924 INTRA-LIGAND FREE ENERGY PREDICTED BY IDOCK:   -0.60 KCAL/MOL
REMARK 927      BINDING AFFINITY PREDICTED BY RF-SCORE:    0.00 PKD
ROOT
HETATM    1  C   UNL     1     -10.956  13.452  68.395  1.00  0.00    -0.291 C  
HETATM    2  C   UNL     1     -10.694  14.387  67.468  1.00  0.00    -0.271 C  
ENDROOT
BRANCH   1   3
HETATM    3  C   UNL     1     -11.428  12.088  68.065  1.00  0.00    -0.328 C  
HETATM    4  O   UNL     1     -12.065  11.849  67.049  1.00  0.00    -0.600 OA 
BRANCH   3   5
HETATM    5  O   UNL     1     -11.220  11.244  69.100  1.00  0.00    -0.230 OA 
BRANCH   5   6
HETATM    6  C   UNL     1     -11.032   9.885  68.698  1.00  0.00    -0.179 C  
HETATM    7  C   UNL     1      -9.458   8.048  67.960  1.00  0.00    -0.157 C  
HETATM    8  C   UNL     1      -8.792   9.205  70.796  1.00  0.00    -0.291 C  
HETATM    9  C   UNL     1      -8.585   9.922  69.467  1.00  0.00    -0.194 C  
HETATM   10  C   UNL     1      -9.579   9.542  68.345  1.00  0.00    -0.152 C  
BRANCH   7  11
HETATM   11  C   UNL     1     -10.308   7.671  66.739  1.00  0.00    -0.343 C  
BRANCH  11  12
HETATM   12  C   UNL     1     -11.127   6.404  66.970  1.00  0.00    -0.405 C  
HETATM   13  C   UNL     1     -10.413   5.190  66.392  1.00  0.00    -0.356 C  
ENDBRANCH  11  12
ENDBRANCH   7  11
ENDBRANCH   5   6
ENDBRANCH   3   5
ENDBRANCH   1   3
BRANCH   2  14
HETATM   14  C   UNL     1     -10.086  15.661  67.838  1.00  0.00    -0.225 A  
HETATM   15  C   UNL     1      -8.897  18.120  68.479  1.00  0.00    -0.299 A  
HETATM   16  C   UNL     1      -8.740  15.719  68.205  1.00  0.00    -0.173 A  
HETATM   17  C   UNL     1     -10.841  16.837  67.801  1.00  0.00    -0.285 A  
HETATM   18  C   UNL     1      -8.146  16.945  68.525  1.00  0.00    -0.244 A  
HETATM   19  C   UNL     1     -10.243  18.060  68.111  1.00  0.00    -0.392 A  
BRANCH  15  20
HETATM   20  O   UNL     1      -8.414  19.378  68.708  1.00  0.00    -0.366 OA 
HETATM   21  C   UNL     1      -8.192  20.185  67.558  1.00  0.00    -0.329 C  
ENDBRANCH  15  20
ENDBRANCH   2  14
TORSDOF 7
ENDMDL
MODEL      140
REMARK 921   NORMALIZED FREE ENERGY PREDICTED BY IDOCK:   -3.95 KCAL/MOL
REMARK 922        TOTAL FREE ENERGY PREDICTED BY IDOCK:   -6.69 KCAL/MOL
REMARK 923 INTER-LIGAND FREE ENERGY PREDICTED BY IDOCK:   -5.92 KCAL/MOL
REMARK 924 INTRA-LIGAND FREE ENERGY PREDICTED BY IDOCK:   -0.77 KCAL/MOL
REMARK 927      BINDING AFFINITY PREDICTED BY RF-SCORE:    0.00 PKD
ROOT
HETATM    1  C   UNL     1     -12.388  11.104  70.695  1.00  0.00    -0.482 C  
HETATM    2  C   UNL     1     -12.527  10.234  71.708  1.00  0.00    -0.431 C  
ENDROOT
BRANCH   1   3
HETATM    3  C   UNL     1     -12.801  12.524  70.779  1.00  0.00    -0.017 C  
HETATM    4  O   UNL     1     -13.522  12.939  71.675  1.00  0.00    -0.336 OA 
BRANCH   3   5
HETATM    5  O   UNL     1     -12.434  13.198  69.666  1.00  0.00    -0.125 OA 
BRANCH   5   6
HETATM    6  C   UNL     1     -11.291  12.641  69.014  1.00  0.00    -0.292 C  
HETATM    7  C   UNL     1     -10.190  11.860  66.875  1.00  0.00    -0.233 C  
HETATM    8  C   UNL     1     -10.998  14.889  66.837  1.00  0.00    -0.327 C  
HETATM    9  C   UNL     1     -11.958  13.708  66.778  1.00  0.00    -0.458 C  
HETATM   10  C   UNL     1     -11.484  12.429  67.506  1.00  0.00    -0.410 C  
BRANCH   7  11
HETATM   11  C   UNL     1      -9.780  10.503  67.461  1.00  0.00    -0.190 C  
BRANCH  11  12
HETATM   12  C   UNL     1      -9.394   9.496  66.380  1.00  0.00    -0.231 C  
HETATM   13  C   UNL     1      -8.013   9.811  65.821  1.00  0.00    -0.116 C  
ENDBRANCH  11  12
ENDBRANCH   7  11
ENDBRANCH   5   6
ENDBRANCH   3   5
ENDBRANCH   1   3
BRANCH   2  14
HETATM   14  C   UNL     1     -11.964   8.890  71.624  1.00  0.00    -0.415 A  
HETATM   15  C   UNL     1     -10.872   6.317  71.389  1.00  0.00    -0.261 A  
HETATM   16  C   UNL     1     -12.787   7.798  71.344  1.00  0.00    -0.328 A  
HETATM   17  C   UNL     1     -10.591   8.692  71.796  1.00  0.00    -0.395 A  
HETATM   18  C   UNL     1     -12.243   6.514  71.228  1.00  0.00    -0.287 A  
HETATM   19  C   UNL     1     -10.050   7.412  71.668  1.00  0.00    -0.200 A  
BRANCH  15  20
HETATM   20  O   UNL     1     -10.219   5.125  71.237  1.00  0.00    -0.209 OA 
HETATM   21  C   UNL     1     -10.271   4.235  72.344  1.00  0.00    -0.181 C  
ENDBRANCH  15  20
ENDBRANCH   2  14
TORSDOF 7
ENDMDL
MODEL      141
REMARK 921   NORMALIZED FREE ENERGY PREDICTED BY IDOCK:   -3.94 KCAL/MOL
REMARK 922        TOTAL FREE ENERGY PREDICTED BY IDOCK:   -6.68 KCAL/MOL
REMARK 923 INTER-LIGAND FREE ENERGY PREDICTED BY IDOCK:   -5.83 KCAL/MOL
REMARK 924 INTRA-LIGAND FREE ENERGY PREDICTED BY IDOCK:   -0.84 KCAL/MOL
REMARK 927      BINDING AFFINITY PREDICTED BY RF-SCORE:    0.00 PKD
ROOT
HETATM    1  C   UNL     1      -8.163  12.244  67.478  1.00  0.00    -0.170 C  
HETATM    2  C   UNL     1      -8.339  11.616  68.652  1.00  0.00    -0.100 C  
ENDROOT
BRANCH   1   3
HETATM    3  C   UNL     1      -7.312  13.446  67.318  1.00  0.00    -0.023 C  
HETATM    4  O   UNL     1      -6.097  13.405  67.452  1.00  0.00    -0.315 OA 
BRANCH   3   5
HETATM    5  O   UNL     1      -8.070  14.559  67.199  1.00  0.00    -0.202 OA 
BRANCH   5   6
HETATM    6  C   UNL     1      -9.324  14.328  66.552  1.00  0.00    -0.271 C  
HETATM    7  C   UNL     1     -11.847  14.232  66.701  1.00  0.00    -0.442 C  
HETATM    8  C   UNL     1     -10.656  17.049  67.390  1.00  0.00    -0.289 C  
HETATM    9  C   UNL     1     -10.554  15.800  68.256  1.00  0.00    -0.271 C  
HETATM   10  C   UNL     1     -10.533  14.458  67.487  1.00  0.00    -0.252 C  
BRANCH   7  11
HETATM   11  C   UNL     1     -11.933  12.840  66.061  1.00  0.00    -0.491 C  
BRANCH  11  12
HETATM   12  C   UNL     1     -12.714  12.851  64.749  1.00  0.00    -0.442 C  
HETATM   13  C   UNL     1     -11.843  12.360  63.601  1.00  0.00    -0.610 C  
ENDBRANCH  11  12
ENDBRANCH   7  11
ENDBRANCH   5   6
ENDBRANCH   3   5
ENDBRANCH   1   3
BRANCH   2  14
HETATM   14  C   UNL     1      -9.062  10.351  68.723  1.00  0.00    -0.165 A  
HETATM   15  C   UNL     1     -10.390   7.882  68.842  1.00  0.00    -0.213 A  
HETATM   16  C   UNL     1      -9.666   9.819  67.582  1.00  0.00    -0.186 A  
HETATM   17  C   UNL     1      -9.132   9.649  69.930  1.00  0.00    -0.250 A  
HETATM   18  C   UNL     1     -10.329   8.588  67.641  1.00  0.00    -0.317 A  
HETATM   19  C   UNL     1      -9.785   8.416  69.983  1.00  0.00    -0.176 A  
BRANCH  15  20
HETATM   20  O   UNL     1     -10.952   6.647  69.008  1.00  0.00    -0.265 OA 
HETATM   21  C   UNL     1     -11.562   6.399  70.268  1.00  0.00    -0.383 C  
ENDBRANCH  15  20
ENDBRANCH   2  14
TORSDOF 7
ENDMDL
MODEL      142
REMARK 921   NORMALIZED FREE ENERGY PREDICTED BY IDOCK:   -3.93 KCAL/MOL
REMARK 922        TOTAL FREE ENERGY PREDICTED BY IDOCK:   -6.66 KCAL/MOL
REMARK 923 INTER-LIGAND FREE ENERGY PREDICTED BY IDOCK:   -5.85 KCAL/MOL
REMARK 924 INTRA-LIGAND FREE ENERGY PREDICTED BY IDOCK:   -0.81 KCAL/MOL
REMARK 927      BINDING AFFINITY PREDICTED BY RF-SCORE:    0.00 PKD
ROOT
HETATM    1  C   UNL     1     -10.982  13.927  66.681  1.00  0.00    -0.302 C  
HETATM    2  C   UNL     1      -9.712  14.363  66.705  1.00  0.00    -0.278 C  
ENDROOT
BRANCH   1   3
HETATM    3  C   UNL     1     -11.366  12.525  66.964  1.00  0.00    -0.328 C  
HETATM    4  O   UNL     1     -12.248  11.954  66.339  1.00  0.00    -0.476 OA 
BRANCH   3   5
HETATM    5  O   UNL     1     -10.755  12.076  68.084  1.00  0.00    -0.200 OA 
BRANCH   5   6
HETATM    6  C   UNL     1     -10.676  10.651  68.157  1.00  0.00    -0.225 C  
HETATM    7  C   UNL     1      -9.413   8.526  67.619  1.00  0.00    -0.173 C  
HETATM    8  C   UNL     1      -7.799  10.523  69.418  1.00  0.00    -0.151 C  
HETATM    9  C   UNL     1      -8.120  10.711  67.940  1.00  0.00    -0.111 C  
HETATM   10  C   UNL     1      -9.441  10.065  67.459  1.00  0.00    -0.169 C  
BRANCH   7  11
HETATM   11  C   UNL     1     -10.636   7.835  67.001  1.00  0.00    -0.396 C  
BRANCH  11  12
HETATM   12  C   UNL     1     -10.939   6.492  67.660  1.00  0.00    -0.426 C  
HETATM   13  C   UNL     1      -9.963   6.218  68.796  1.00  0.00    -0.173 C  
ENDBRANCH  11  12
ENDBRANCH   7  11
ENDBRANCH   5   6
ENDBRANCH   3   5
ENDBRANCH   1   3
BRANCH   2  14
HETATM   14  C   UNL     1      -9.405  15.783  66.570  1.00  0.00    -0.312 A  
HETATM   15  C   UNL     1      -8.810  18.519  66.385  1.00  0.00    -0.256 A  
HETATM   16  C   UNL     1     -10.430  16.730  66.584  1.00  0.00    -0.258 A  
HETATM   17  C   UNL     1      -8.077  16.207  66.453  1.00  0.00    -0.305 A  
HETATM   18  C   UNL     1     -10.135  18.095  66.491  1.00  0.00    -0.389 A  
HETATM   19  C   UNL     1      -7.785  17.569  66.372  1.00  0.00    -0.332 A  
BRANCH  15  20
HETATM   20  O   UNL     1      -8.395  19.821  66.351  1.00  0.00    -0.322 OA 
HETATM   21  C   UNL     1      -7.017  20.034  66.072  1.00  0.00    -0.267 C  
ENDBRANCH  15  20
ENDBRANCH   2  14
TORSDOF 7
ENDMDL
MODEL      143
REMARK 921   NORMALIZED FREE ENERGY PREDICTED BY IDOCK:   -3.91 KCAL/MOL
REMARK 922        TOTAL FREE ENERGY PREDICTED BY IDOCK:   -6.63 KCAL/MOL
REMARK 923 INTER-LIGAND FREE ENERGY PREDICTED BY IDOCK:   -5.80 KCAL/MOL
REMARK 924 INTRA-LIGAND FREE ENERGY PREDICTED BY IDOCK:   -0.83 KCAL/MOL
REMARK 927      BINDING AFFINITY PREDICTED BY RF-SCORE:    0.00 PKD
ROOT
HETATM    1  C   UNL     1      -9.836  10.179  67.481  1.00  0.00    -0.211 C  
HETATM    2  C   UNL     1     -10.733   9.277  67.911  1.00  0.00    -0.248 C  
ENDROOT
BRANCH   1   3
HETATM    3  C   UNL     1      -9.835  10.736  66.109  1.00  0.00    -0.221 C  
HETATM    4  O   UNL     1      -9.022  10.387  65.265  1.00  0.00    -0.168 OA 
BRANCH   3   5
HETATM    5  O   UNL     1     -10.703  11.768  66.009  1.00  0.00    -0.261 OA 
BRANCH   5   6
HETATM    6  C   UNL     1     -10.134  13.028  66.374  1.00  0.00    -0.279 C  
HETATM    7  C   UNL     1     -10.473  15.467  66.951  1.00  0.00    -0.301 C  
HETATM    8  C   UNL     1     -11.926  13.501  68.913  1.00  0.00    -0.378 C  
HETATM    9  C   UNL     1     -12.328  13.782  67.470  1.00  0.00    -0.110 C  
HETATM   10  C   UNL     1     -11.167  14.153  66.517  1.00  0.00    -0.333 C  
BRANCH   7  11
HETATM   11  C   UNL     1      -9.427  15.956  65.940  1.00  0.00    -0.372 C  
BRANCH  11  12
HETATM   12  C   UNL     1      -8.085  16.268  66.597  1.00  0.00    -0.323 C  
HETATM   13  C   UNL     1      -7.760  17.751  66.478  1.00  0.00    -0.298 C  
ENDBRANCH  11  12
ENDBRANCH   7  11
ENDBRANCH   5   6
ENDBRANCH   3   5
ENDBRANCH   1   3
BRANCH   2  14
HETATM   14  C   UNL     1     -10.780   8.877  69.314  1.00  0.00    -0.177 A  
HETATM   15  C   UNL     1     -10.942   8.082  72.000  1.00  0.00    -0.282 A  
HETATM   16  C   UNL     1     -11.306   9.743  70.275  1.00  0.00    -0.333 A  
HETATM   17  C   UNL     1     -10.325   7.613  69.700  1.00  0.00    -0.213 A  
HETATM   18  C   UNL     1     -11.387   9.347  71.615  1.00  0.00    -0.452 A  
HETATM   19  C   UNL     1     -10.417   7.218  71.036  1.00  0.00    -0.226 A  
BRANCH  15  20
HETATM   20  O   UNL     1     -11.027   7.562  73.261  1.00  0.00    -0.393 OA 
HETATM   21  C   UNL     1     -10.881   6.152  73.370  1.00  0.00    -0.221 C  
ENDBRANCH  15  20
ENDBRANCH   2  14
TORSDOF 7
ENDMDL
MODEL      144
REMARK 921   NORMALIZED FREE ENERGY PREDICTED BY IDOCK:   -3.91 KCAL/MOL
REMARK 922        TOTAL FREE ENERGY PREDICTED BY IDOCK:   -6.63 KCAL/MOL
REMARK 923 INTER-LIGAND FREE ENERGY PREDICTED BY IDOCK:   -5.48 KCAL/MOL
REMARK 924 INTRA-LIGAND FREE ENERGY PREDICTED BY IDOCK:   -1.15 KCAL/MOL
REMARK 927      BINDING AFFINITY PREDICTED BY RF-SCORE:    0.00 PKD
ROOT
HETATM    1  C   UNL     1      -9.060   8.780  68.595  1.00  0.00    -0.141 C  
HETATM    2  C   UNL     1     -10.387   8.968  68.521  1.00  0.00    -0.233 C  
ENDROOT
BRANCH   1   3
HETATM    3  C   UNL     1      -8.339   7.749  67.814  1.00  0.00    -0.125 C  
HETATM    4  O   UNL     1      -7.743   8.016  66.779  1.00  0.00    -0.095 OA 
BRANCH   3   5
HETATM    5  O   UNL     1      -8.595   6.513  68.297  1.00  0.00    -0.116 OA 
BRANCH   5   6
HETATM    6  C   UNL     1      -8.275   6.365  69.682  1.00  0.00    -0.126 C  
HETATM    7  C   UNL     1      -9.018   5.733  72.016  1.00  0.00    -0.140 C  
HETATM    8  C   UNL     1      -9.246   3.387  69.950  1.00  0.00    -0.222 C  
HETATM    9  C   UNL     1     -10.134   4.624  69.998  1.00  0.00    -0.267 C  
HETATM   10  C   UNL     1      -9.460   5.905  70.542  1.00  0.00    -0.196 C  
BRANCH   7  11
HETATM   11  C   UNL     1      -8.497   7.033  72.643  1.00  0.00    -0.124 C  
BRANCH  11  12
HETATM   12  C   UNL     1      -9.564   8.124  72.690  1.00  0.00    -0.352 C  
HETATM   13  C   UNL     1     -10.898   7.552  73.149  1.00  0.00    -0.448 C  
ENDBRANCH  11  12
ENDBRANCH   7  11
ENDBRANCH   5   6
ENDBRANCH   3   5
ENDBRANCH   1   3
BRANCH   2  14
HETATM   14  C   UNL     1     -11.023  10.095  69.195  1.00  0.00    -0.270 A  
HETATM   15  C   UNL     1     -12.184  12.271  70.532  1.00  0.00    -0.300 A  
HETATM   16  C   UNL     1     -11.751   9.894  70.369  1.00  0.00    -0.333 A  
HETATM   17  C   UNL     1     -10.884  11.388  68.683  1.00  0.00    -0.249 A  
HETATM   18  C   UNL     1     -12.331  10.978  71.036  1.00  0.00    -0.490 A  
HETATM   19  C   UNL     1     -11.455  12.470  69.357  1.00  0.00    -0.327 A  
BRANCH  15  20
HETATM   20  O   UNL     1     -12.649  13.411  71.127  1.00  0.00    -0.358 OA 
HETATM   21  C   UNL     1     -13.625  13.234  72.145  1.00  0.00    -0.562 C  
ENDBRANCH  15  20
ENDBRANCH   2  14
TORSDOF 7
ENDMDL
MODEL      145
REMARK 921   NORMALIZED FREE ENERGY PREDICTED BY IDOCK:   -3.90 KCAL/MOL
REMARK 922        TOTAL FREE ENERGY PREDICTED BY IDOCK:   -6.62 KCAL/MOL
REMARK 923 INTER-LIGAND FREE ENERGY PREDICTED BY IDOCK:   -5.53 KCAL/MOL
REMARK 924 INTRA-LIGAND FREE ENERGY PREDICTED BY IDOCK:   -1.10 KCAL/MOL
REMARK 927      BINDING AFFINITY PREDICTED BY RF-SCORE:    0.00 PKD
ROOT
HETATM    1  C   UNL     1     -10.421  12.917  66.003  1.00  0.00    -0.290 C  
HETATM    2  C   UNL     1     -11.137  11.782  66.047  1.00  0.00    -0.363 C  
ENDROOT
BRANCH   1   3
HETATM    3  C   UNL     1     -10.784  14.076  65.157  1.00  0.00    -0.382 C  
HETATM    4  O   UNL     1     -11.361  13.944  64.087  1.00  0.00    -0.329 OA 
BRANCH   3   5
HETATM    5  O   UNL     1     -10.234  15.214  65.638  1.00  0.00    -0.307 OA 
BRANCH   5   6
HETATM    6  C   UNL     1      -9.469  15.017  66.830  1.00  0.00    -0.246 C  
HETATM    7  C   UNL     1      -9.001  15.667  69.229  1.00  0.00    -0.267 C  
HETATM    8  C   UNL     1     -11.921  14.629  68.758  1.00  0.00    -0.301 C  
HETATM    9  C   UNL     1     -11.360  15.963  68.283  1.00  0.00    -0.342 C  
HETATM   10  C   UNL     1      -9.846  15.974  67.969  1.00  0.00    -0.222 C  
BRANCH   7  11
HETATM   11  C   UNL     1      -7.493  15.832  68.996  1.00  0.00    -0.186 C  
BRANCH  11  12
HETATM   12  C   UNL     1      -6.721  14.541  69.255  1.00  0.00    -0.127 C  
HETATM   13  C   UNL     1      -5.782  14.705  70.442  1.00  0.00    -0.146 C  
ENDBRANCH  11  12
ENDBRANCH   7  11
ENDBRANCH   5   6
ENDBRANCH   3   5
ENDBRANCH   1   3
BRANCH   2  14
HETATM   14  C   UNL     1     -10.822  10.733  67.011  1.00  0.00    -0.311 A  
HETATM   15  C   UNL     1     -10.153   8.754  68.885  1.00  0.00    -0.198 A  
HETATM   16  C   UNL     1     -10.008   9.660  66.643  1.00  0.00    -0.301 A  
HETATM   17  C   UNL     1     -11.310  10.811  68.319  1.00  0.00    -0.376 A  
HETATM   18  C   UNL     1      -9.674   8.672  67.577  1.00  0.00    -0.212 A  
HETATM   19  C   UNL     1     -10.966   9.830  69.251  1.00  0.00    -0.222 A  
BRANCH  15  20
HETATM   20  O   UNL     1      -9.845   7.888  69.897  1.00  0.00    -0.179 OA 
HETATM   21  C   UNL     1     -10.725   7.891  71.014  1.00  0.00    -0.220 C  
ENDBRANCH  15  20
ENDBRANCH   2  14
TORSDOF 7
ENDMDL
MODEL      146
REMARK 921   NORMALIZED FREE ENERGY PREDICTED BY IDOCK:   -3.90 KCAL/MOL
REMARK 922        TOTAL FREE ENERGY PREDICTED BY IDOCK:   -6.62 KCAL/MOL
REMARK 923 INTER-LIGAND FREE ENERGY PREDICTED BY IDOCK:   -5.85 KCAL/MOL
REMARK 924 INTRA-LIGAND FREE ENERGY PREDICTED BY IDOCK:   -0.76 KCAL/MOL
REMARK 927      BINDING AFFINITY PREDICTED BY RF-SCORE:    0.00 PKD
ROOT
HETATM    1  C   UNL     1     -11.373  10.309  69.055  1.00  0.00    -0.237 C  
HETATM    2  C   UNL     1     -10.934  11.536  69.379  1.00  0.00    -0.233 C  
ENDROOT
BRANCH   1   3
HETATM    3  C   UNL     1     -10.519   9.281  68.420  1.00  0.00    -0.206 C  
HETATM    4  O   UNL     1      -9.576   8.766  69.005  1.00  0.00    -0.159 OA 
BRANCH   3   5
HETATM    5  O   UNL     1     -10.813   9.155  67.106  1.00  0.00    -0.212 OA 
BRANCH   5   6
HETATM    6  C   UNL     1     -10.994  10.407  66.440  1.00  0.00     0.101 C  
HETATM    7  C   UNL     1      -9.965  12.455  65.371  1.00  0.00    -0.253 C  
HETATM    8  C   UNL     1      -9.145   9.767  63.981  1.00  0.00    -0.280 C  
HETATM    9  C   UNL     1      -8.677  10.243  65.351  1.00  0.00    -0.183 C  
HETATM   10  C   UNL     1      -9.680  11.132  66.123  1.00  0.00    -0.253 C  
BRANCH   7  11
HETATM   11  C   UNL     1     -10.824  13.435  66.181  1.00  0.00    -0.287 C  
BRANCH  11  12
HETATM   12  C   UNL     1      -9.988  14.299  67.122  1.00  0.00    -0.255 C  
HETATM   13  C   UNL     1      -8.920  15.058  66.347  1.00  0.00    -0.286 C  
ENDBRANCH  11  12
ENDBRANCH   7  11
ENDBRANCH   5   6
ENDBRANCH   3   5
ENDBRANCH   1   3
BRANCH   2  14
HETATM   14  C   UNL     1     -11.774  12.456  70.141  1.00  0.00    -0.266 A  
HETATM   15  C   UNL     1     -13.445  14.206  71.560  1.00  0.00    -0.344 A  
HETATM   16  C   UNL     1     -11.895  13.789  69.746  1.00  0.00    -0.394 A  
HETATM   17  C   UNL     1     -12.484  11.999  71.255  1.00  0.00    -0.303 A  
HETATM   18  C   UNL     1     -12.728  14.663  70.454  1.00  0.00    -0.370 A  
HETATM   19  C   UNL     1     -13.323  12.871  71.952  1.00  0.00    -0.530 A  
BRANCH  15  20
HETATM   20  O   UNL     1     -14.334  14.946  72.288  1.00  0.00    -0.480 OA 
HETATM   21  C   UNL     1     -13.774  15.889  73.192  1.00  0.00    -0.421 C  
ENDBRANCH  15  20
ENDBRANCH   2  14
TORSDOF 7
ENDMDL
MODEL      147
REMARK 921   NORMALIZED FREE ENERGY PREDICTED BY IDOCK:   -3.89 KCAL/MOL
REMARK 922        TOTAL FREE ENERGY PREDICTED BY IDOCK:   -6.60 KCAL/MOL
REMARK 923 INTER-LIGAND FREE ENERGY PREDICTED BY IDOCK:   -5.49 KCAL/MOL
REMARK 924 INTRA-LIGAND FREE ENERGY PREDICTED BY IDOCK:   -1.11 KCAL/MOL
REMARK 927      BINDING AFFINITY PREDICTED BY RF-SCORE:    0.00 PKD
ROOT
HETATM    1  C   UNL     1     -11.748   8.739  71.761  1.00  0.00    -0.416 C  
HETATM    2  C   UNL     1     -12.633   9.418  71.014  1.00  0.00    -0.291 C  
ENDROOT
BRANCH   1   3
HETATM    3  C   UNL     1     -11.545   7.276  71.653  1.00  0.00    -0.274 C  
HETATM    4  O   UNL     1     -11.897   6.505  72.534  1.00  0.00    -0.229 OA 
BRANCH   3   5
HETATM    5  O   UNL     1     -10.781   6.974  70.579  1.00  0.00    -0.226 OA 
BRANCH   5   6
HETATM    6  C   UNL     1      -9.379   6.979  70.858  1.00  0.00    -0.157 C  
HETATM    7  C   UNL     1      -7.013   7.316  70.031  1.00  0.00    -0.060 C  
HETATM    8  C   UNL     1      -8.813   9.868  69.756  1.00  0.00    -0.229 C  
HETATM    9  C   UNL     1      -8.928   8.599  68.920  1.00  0.00    -0.142 C  
HETATM   10  C   UNL     1      -8.508   7.293  69.634  1.00  0.00    -0.133 C  
BRANCH   7  11
HETATM   11  C   UNL     1      -6.518   5.976  70.591  1.00  0.00    -0.040 C  
BRANCH  11  12
HETATM   12  C   UNL     1      -5.926   5.077  69.509  1.00  0.00    -0.021 C  
HETATM   13  C   UNL     1      -6.912   3.983  69.120  1.00  0.00    -0.046 C  
ENDBRANCH  11  12
ENDBRANCH   7  11
ENDBRANCH   5   6
ENDBRANCH   3   5
ENDBRANCH   1   3
BRANCH   2  14
HETATM   14  C   UNL     1     -12.684  10.876  71.051  1.00  0.00    -0.505 A  
HETATM   15  C   UNL     1     -12.841  13.677  71.078  1.00  0.00    -0.287 A  
HETATM   16  C   UNL     1     -12.030  11.628  70.074  1.00  0.00    -0.429 A  
HETATM   17  C   UNL     1     -13.411  11.528  72.051  1.00  0.00    -0.397 A  
HETATM   18  C   UNL     1     -12.108  13.025  70.087  1.00  0.00    -0.377 A  
HETATM   19  C   UNL     1     -13.495  12.922  72.055  1.00  0.00    -0.568 A  
BRANCH  15  20
HETATM   20  O   UNL     1     -13.041  15.027  71.158  1.00  0.00    -0.355 OA 
HETATM   21  C   UNL     1     -12.315  15.825  70.233  1.00  0.00    -0.310 C  
ENDBRANCH  15  20
ENDBRANCH   2  14
TORSDOF 7
ENDMDL
MODEL      148
REMARK 921   NORMALIZED FREE ENERGY PREDICTED BY IDOCK:   -3.89 KCAL/MOL
REMARK 922        TOTAL FREE ENERGY PREDICTED BY IDOCK:   -6.60 KCAL/MOL
REMARK 923 INTER-LIGAND FREE ENERGY PREDICTED BY IDOCK:   -5.85 KCAL/MOL
REMARK 924 INTRA-LIGAND FREE ENERGY PREDICTED BY IDOCK:   -0.75 KCAL/MOL
REMARK 927      BINDING AFFINITY PREDICTED BY RF-SCORE:    0.00 PKD
ROOT
HETATM    1  C   UNL     1      -9.081  10.470  68.539  1.00  0.00    -0.154 C  
HETATM    2  C   UNL     1     -10.028  10.027  67.696  1.00  0.00    -0.214 C  
ENDROOT
BRANCH   1   3
HETATM    3  C   UNL     1      -8.324   9.583  69.452  1.00  0.00    -0.140 C  
HETATM    4  O   UNL     1      -7.327   8.975  69.090  1.00  0.00    -0.069 OA 
BRANCH   3   5
HETATM    5  O   UNL     1      -8.986   9.416  70.619  1.00  0.00    -0.238 OA 
BRANCH   5   6
HETATM    6  C   UNL     1      -9.474   8.087  70.812  1.00  0.00    -0.161 C  
HETATM    7  C   UNL     1     -10.831   6.462  72.196  1.00  0.00    -0.272 C  
HETATM    8  C   UNL     1     -12.509   8.860  71.076  1.00  0.00    -0.181 C  
HETATM    9  C   UNL     1     -11.467   8.940  72.184  1.00  0.00    -0.387 C  
HETATM   10  C   UNL     1     -10.312   7.916  72.086  1.00  0.00    -0.297 C  
BRANCH   7  11
HETATM   11  C   UNL     1      -9.702   5.425  72.270  1.00  0.00    -0.187 C  
BRANCH  11  12
HETATM   12  C   UNL     1     -10.024   4.158  71.482  1.00  0.00    -0.230 C  
HETATM   13  C   UNL     1      -9.898   4.409  69.986  1.00  0.00    -0.294 C  
ENDBRANCH  11  12
ENDBRANCH   7  11
ENDBRANCH   5   6
ENDBRANCH   3   5
ENDBRANCH   1   3
BRANCH   2  14
HETATM   14  C   UNL     1     -10.633  10.919  66.712  1.00  0.00    -0.313 A  
HETATM   15  C   UNL     1     -11.736  12.680  64.828  1.00  0.00    -0.352 A  
HETATM   16  C   UNL     1     -11.468  11.959  67.124  1.00  0.00    -0.386 A  
HETATM   17  C   UNL     1     -10.357  10.754  65.352  1.00  0.00    -0.315 A  
HETATM   18  C   UNL     1     -12.019  12.837  66.185  1.00  0.00    -0.476 A  
HETATM   19  C   UNL     1     -10.900  11.638  64.419  1.00  0.00    -0.399 A  
BRANCH  15  20
HETATM   20  O   UNL     1     -12.163  13.509  63.828  1.00  0.00    -0.596 OA 
HETATM   21  C   UNL     1     -12.302  14.882  64.168  1.00  0.00    -0.185 C  
ENDBRANCH  15  20
ENDBRANCH   2  14
TORSDOF 7
ENDMDL
MODEL      149
REMARK 921   NORMALIZED FREE ENERGY PREDICTED BY IDOCK:   -3.89 KCAL/MOL
REMARK 922        TOTAL FREE ENERGY PREDICTED BY IDOCK:   -6.60 KCAL/MOL
REMARK 923 INTER-LIGAND FREE ENERGY PREDICTED BY IDOCK:   -5.87 KCAL/MOL
REMARK 924 INTRA-LIGAND FREE ENERGY PREDICTED BY IDOCK:   -0.73 KCAL/MOL
REMARK 927      BINDING AFFINITY PREDICTED BY RF-SCORE:    0.00 PKD
ROOT
HETATM    1  C   UNL     1     -11.007  12.536  68.498  1.00  0.00    -0.280 C  
HETATM    2  C   UNL     1     -11.569  13.116  67.425  1.00  0.00    -0.403 C  
ENDROOT
BRANCH   1   3
HETATM    3  C   UNL     1     -11.328  11.160  68.942  1.00  0.00    -0.278 C  
HETATM    4  O   UNL     1     -12.282  10.540  68.496  1.00  0.00    -0.279 OA 
BRANCH   3   5
HETATM    5  O   UNL     1     -10.556  10.802  69.993  1.00  0.00    -0.181 OA 
BRANCH   5   6
HETATM    6  C   UNL     1      -9.944   9.519  69.839  1.00  0.00    -0.230 C  
HETATM    7  C   UNL     1      -8.275   8.052  68.632  1.00  0.00    -0.126 C  
HETATM    8  C   UNL     1      -6.973  10.520  70.062  1.00  0.00    -0.150 C  
HETATM    9  C   UNL     1      -7.841  10.568  68.810  1.00  0.00    -0.116 C  
HETATM   10  C   UNL     1      -8.914   9.460  68.703  1.00  0.00    -0.132 C  
BRANCH   7  11
HETATM   11  C   UNL     1      -9.296   6.940  68.358  1.00  0.00    -0.129 C  
BRANCH  11  12
HETATM   12  C   UNL     1      -9.939   7.068  66.979  1.00  0.00    -0.273 C  
HETATM   13  C   UNL     1     -10.840   5.875  66.693  1.00  0.00    -0.292 C  
ENDBRANCH  11  12
ENDBRANCH   7  11
ENDBRANCH   5   6
ENDBRANCH   3   5
ENDBRANCH   1   3
BRANCH   2  14
HETATM   14  C   UNL     1     -11.104  14.413  66.944  1.00  0.00    -0.325 A  
HETATM   15  C   UNL     1     -10.283  16.933  66.024  1.00  0.00    -0.336 A  
HETATM   16  C   UNL     1     -11.096  14.696  65.577  1.00  0.00    -0.345 A  
HETATM   17  C   UNL     1     -10.692  15.392  67.853  1.00  0.00    -0.286 A  
HETATM   18  C   UNL     1     -10.685  15.952  65.117  1.00  0.00    -0.449 A  
HETATM   19  C   UNL     1     -10.293  16.648  67.391  1.00  0.00    -0.292 A  
BRANCH  15  20
HETATM   20  O   UNL     1      -9.923  18.211  65.700  1.00  0.00    -0.514 OA 
HETATM   21  C   UNL     1     -10.544  19.247  66.450  1.00  0.00    -0.450 C  
ENDBRANCH  15  20
ENDBRANCH   2  14
TORSDOF 7
ENDMDL
MODEL      150
REMARK 921   NORMALIZED FREE ENERGY PREDICTED BY IDOCK:   -3.87 KCAL/MOL
REMARK 922        TOTAL FREE ENERGY PREDICTED BY IDOCK:   -6.57 KCAL/MOL
REMARK 923 INTER-LIGAND FREE ENERGY PREDICTED BY IDOCK:   -5.64 KCAL/MOL
REMARK 924 INTRA-LIGAND FREE ENERGY PREDICTED BY IDOCK:   -0.93 KCAL/MOL
REMARK 927      BINDING AFFINITY PREDICTED BY RF-SCORE:    0.00 PKD
ROOT
HETATM    1  C   UNL     1     -11.491   9.636  70.085  1.00  0.00    -0.238 C  
HETATM    2  C   UNL     1     -10.377  10.269  69.681  1.00  0.00    -0.281 C  
ENDROOT
BRANCH   1   3
HETATM    3  C   UNL     1     -11.505   8.620  71.162  1.00  0.00    -0.280 C  
HETATM    4  O   UNL     1     -11.115   8.867  72.294  1.00  0.00    -0.339 OA 
BRANCH   3   5
HETATM    5  O   UNL     1     -11.816   7.401  70.668  1.00  0.00    -0.286 OA 
BRANCH   5   6
HETATM    6  C   UNL     1     -10.743   6.460  70.753  1.00  0.00    -0.250 C  
HETATM    7  C   UNL     1      -9.484   4.520  69.730  1.00  0.00    -0.247 C  
HETATM    8  C   UNL     1      -9.502   7.089  67.934  1.00  0.00    -0.128 C  
HETATM    9  C   UNL     1     -10.694   6.179  68.203  1.00  0.00    -0.367 C  
HETATM   10  C   UNL     1     -10.694   5.473  69.579  1.00  0.00    -0.332 C  
BRANCH   7  11
HETATM   11  C   UNL     1      -9.537   3.678  71.011  1.00  0.00    -0.246 C  
BRANCH  11  12
HETATM   12  C   UNL     1      -9.202   2.210  70.757  1.00  0.00    -0.187 C  
HETATM   13  C   UNL     1      -8.314   2.067  69.529  1.00  0.00    -0.072 C  
ENDBRANCH  11  12
ENDBRANCH   7  11
ENDBRANCH   5   6
ENDBRANCH   3   5
ENDBRANCH   1   3
BRANCH   2  14
HETATM   14  C   UNL     1     -10.444  11.369  68.724  1.00  0.00    -0.228 A  
HETATM   15  C   UNL     1     -10.579  13.532  66.943  1.00  0.00    -0.270 A  
HETATM   16  C   UNL     1     -11.680  11.827  68.264  1.00  0.00    -0.377 A  
HETATM   17  C   UNL     1      -9.271  11.989  68.284  1.00  0.00    -0.192 A  
HETATM   18  C   UNL     1     -11.748  12.905  67.375  1.00  0.00    -0.428 A  
HETATM   19  C   UNL     1      -9.343  13.072  67.406  1.00  0.00    -0.209 A  
BRANCH  15  20
HETATM   20  O   UNL     1     -10.522  14.629  66.130  1.00  0.00    -0.285 OA 
HETATM   21  C   UNL     1     -10.806  14.406  64.754  1.00  0.00    -0.399 C  
ENDBRANCH  15  20
ENDBRANCH   2  14
TORSDOF 7
ENDMDL
MODEL      151
REMARK 921   NORMALIZED FREE ENERGY PREDICTED BY IDOCK:   -3.86 KCAL/MOL
REMARK 922        TOTAL FREE ENERGY PREDICTED BY IDOCK:   -6.56 KCAL/MOL
REMARK 923 INTER-LIGAND FREE ENERGY PREDICTED BY IDOCK:   -5.61 KCAL/MOL
REMARK 924 INTRA-LIGAND FREE ENERGY PREDICTED BY IDOCK:   -0.94 KCAL/MOL
REMARK 927      BINDING AFFINITY PREDICTED BY RF-SCORE:    0.00 PKD
ROOT
HETATM    1  C   UNL     1      -8.509  12.646  68.173  1.00  0.00    -0.177 C  
HETATM    2  C   UNL     1      -7.983  11.422  68.003  1.00  0.00    -0.127 C  
ENDROOT
BRANCH   1   3
HETATM    3  C   UNL     1      -7.690  13.872  68.310  1.00  0.00    -0.136 C  
HETATM    4  O   UNL     1      -6.604  13.869  68.872  1.00  0.00    -0.091 OA 
BRANCH   3   5
HETATM    5  O   UNL     1      -8.384  14.961  67.910  1.00  0.00    -0.135 OA 
BRANCH   5   6
HETATM    6  C   UNL     1      -8.931  14.837  66.595  1.00  0.00    -0.255 C  
HETATM    7  C   UNL     1     -10.917  15.077  65.048  1.00  0.00    -0.436 C  
HETATM    8  C   UNL     1     -10.049  17.768  66.401  1.00  0.00    -0.357 C  
HETATM    9  C   UNL     1     -10.729  16.596  67.098  1.00  0.00    -0.202 C  
HETATM   10  C   UNL     1     -10.419  15.201  66.508  1.00  0.00    -0.292 C  
BRANCH   7  11
HETATM   11  C   UNL     1     -10.778  13.657  64.483  1.00  0.00    -0.420 C  
BRANCH  11  12
HETATM   12  C   UNL     1     -11.935  12.751  64.897  1.00  0.00    -0.451 C  
HETATM   13  C   UNL     1     -12.507  12.024  63.688  1.00  0.00    -0.637 C  
ENDBRANCH  11  12
ENDBRANCH   7  11
ENDBRANCH   5   6
ENDBRANCH   3   5
ENDBRANCH   1   3
BRANCH   2  14
HETATM   14  C   UNL     1      -8.836  10.272  67.721  1.00  0.00    -0.125 A  
HETATM   15  C   UNL     1     -10.414   8.018  67.175  1.00  0.00    -0.338 A  
HETATM   16  C   UNL     1      -9.112   9.908  66.402  1.00  0.00    -0.179 A  
HETATM   17  C   UNL     1      -9.359   9.511  68.771  1.00  0.00    -0.146 A  
HETATM   18  C   UNL     1      -9.900   8.784  66.129  1.00  0.00    -0.297 A  
HETATM   19  C   UNL     1     -10.135   8.384  68.495  1.00  0.00    -0.218 A  
BRANCH  15  20
HETATM   20  O   UNL     1     -11.140   6.868  67.034  1.00  0.00    -0.389 OA 
HETATM   21  C   UNL     1     -10.593   5.702  67.636  1.00  0.00    -0.204 C  
ENDBRANCH  15  20
ENDBRANCH   2  14
TORSDOF 7
ENDMDL
MODEL      152
REMARK 921   NORMALIZED FREE ENERGY PREDICTED BY IDOCK:   -3.84 KCAL/MOL
REMARK 922        TOTAL FREE ENERGY PREDICTED BY IDOCK:   -6.53 KCAL/MOL
REMARK 923 INTER-LIGAND FREE ENERGY PREDICTED BY IDOCK:   -5.43 KCAL/MOL
REMARK 924 INTRA-LIGAND FREE ENERGY PREDICTED BY IDOCK:   -1.10 KCAL/MOL
REMARK 927      BINDING AFFINITY PREDICTED BY RF-SCORE:    0.00 PKD
ROOT
HETATM    1  C   UNL     1      -8.186  13.215  67.439  1.00  0.00    -0.187 C  
HETATM    2  C   UNL     1      -7.726  11.986  67.156  1.00  0.00    -0.161 C  
ENDROOT
BRANCH   1   3
HETATM    3  C   UNL     1      -7.350  14.435  67.362  1.00  0.00    -0.142 C  
HETATM    4  O   UNL     1      -6.128  14.387  67.369  1.00  0.00    -0.341 OA 
BRANCH   3   5
HETATM    5  O   UNL     1      -8.111  15.547  67.470  1.00  0.00    -0.143 OA 
BRANCH   5   6
HETATM    6  C   UNL     1      -9.515  15.280  67.457  1.00  0.00    -0.202 C  
HETATM    7  C   UNL     1     -11.782  15.580  68.538  1.00  0.00    -0.351 C  
HETATM    8  C   UNL     1     -10.444  18.276  67.663  1.00  0.00    -0.431 C  
HETATM    9  C   UNL     1     -10.002  17.396  68.825  1.00  0.00    -0.329 C  
HETATM   10  C   UNL     1     -10.269  15.882  68.651  1.00  0.00    -0.223 C  
BRANCH   7  11
HETATM   11  C   UNL     1     -12.097  14.078  68.531  1.00  0.00    -0.329 C  
BRANCH  11  12
HETATM   12  C   UNL     1     -11.682  13.392  69.830  1.00  0.00    -0.337 C  
HETATM   13  C   UNL     1     -12.633  13.760  70.960  1.00  0.00    -0.446 C  
ENDBRANCH  11  12
ENDBRANCH   7  11
ENDBRANCH   5   6
ENDBRANCH   3   5
ENDBRANCH   1   3
BRANCH   2  14
HETATM   14  C   UNL     1      -8.630  10.842  67.100  1.00  0.00    -0.128 A  
HETATM   15  C   UNL     1     -10.317   8.601  67.030  1.00  0.00    -0.298 A  
HETATM   16  C   UNL     1      -8.549   9.931  66.046  1.00  0.00    -0.147 A  
HETATM   17  C   UNL     1      -9.565  10.635  68.119  1.00  0.00    -0.165 A  
HETATM   18  C   UNL     1      -9.390   8.813  66.010  1.00  0.00    -0.296 A  
HETATM   19  C   UNL     1     -10.396   9.513  68.086  1.00  0.00    -0.251 A  
BRANCH  15  20
HETATM   20  O   UNL     1     -11.144   7.518  67.137  1.00  0.00    -0.216 OA 
HETATM   21  C   UNL     1     -10.558   6.251  66.868  1.00  0.00    -0.305 C  
ENDBRANCH  15  20
ENDBRANCH   2  14
TORSDOF 7
ENDMDL
MODEL      153
REMARK 921   NORMALIZED FREE ENERGY PREDICTED BY IDOCK:   -3.82 KCAL/MOL
REMARK 922        TOTAL FREE ENERGY PREDICTED BY IDOCK:   -6.51 KCAL/MOL
REMARK 923 INTER-LIGAND FREE ENERGY PREDICTED BY IDOCK:   -5.95 KCAL/MOL
REMARK 924 INTRA-LIGAND FREE ENERGY PREDICTED BY IDOCK:   -0.56 KCAL/MOL
REMARK 927      BINDING AFFINITY PREDICTED BY RF-SCORE:    0.00 PKD
ROOT
HETATM    1  C   UNL     1     -10.501  13.502  66.993  1.00  0.00    -0.265 C  
HETATM    2  C   UNL     1     -10.813  14.628  66.330  1.00  0.00    -0.315 C  
ENDROOT
BRANCH   1   3
HETATM    3  C   UNL     1     -10.957  12.157  66.573  1.00  0.00    -0.284 C  
HETATM    4  O   UNL     1     -12.134  11.827  66.615  1.00  0.00    -0.527 OA 
BRANCH   3   5
HETATM    5  O   UNL     1      -9.903  11.344  66.336  1.00  0.00    -0.202 OA 
BRANCH   5   6
HETATM    6  C   UNL     1      -9.478  10.612  67.488  1.00  0.00    -0.153 C  
HETATM    7  C   UNL     1      -9.446   8.433  68.773  1.00  0.00    -0.147 C  
HETATM    8  C   UNL     1      -8.162   8.226  65.921  1.00  0.00    -0.119 C  
HETATM    9  C   UNL     1      -9.647   8.386  66.223  1.00  0.00    -0.286 C  
HETATM   10  C   UNL     1      -9.982   9.162  67.518  1.00  0.00    -0.258 C  
BRANCH   7  11
HETATM   11  C   UNL     1      -9.901   9.084  70.087  1.00  0.00    -0.213 C  
BRANCH  11  12
HETATM   12  C   UNL     1     -11.325   8.686  70.469  1.00  0.00    -0.241 C  
HETATM   13  C   UNL     1     -11.802   9.490  71.671  1.00  0.00    -0.468 C  
ENDBRANCH  11  12
ENDBRANCH   7  11
ENDBRANCH   5   6
ENDBRANCH   3   5
ENDBRANCH   1   3
BRANCH   2  14
HETATM   14  C   UNL     1     -10.212  15.905  66.698  1.00  0.00    -0.293 A  
HETATM   15  C   UNL     1      -9.013  18.326  67.455  1.00  0.00    -0.253 A  
HETATM   16  C   UNL     1     -10.739  16.653  67.753  1.00  0.00    -0.327 A  
HETATM   17  C   UNL     1      -9.088  16.375  66.014  1.00  0.00    -0.317 A  
HETATM   18  C   UNL     1     -10.141  17.861  68.131  1.00  0.00    -0.368 A  
HETATM   19  C   UNL     1      -8.488  17.575  66.400  1.00  0.00    -0.287 A  
BRANCH  15  20
HETATM   20  O   UNL     1      -8.308  19.454  67.772  1.00  0.00    -0.290 OA 
HETATM   21  C   UNL     1      -7.610  19.431  69.010  1.00  0.00    -0.334 C  
ENDBRANCH  15  20
ENDBRANCH   2  14
TORSDOF 7
ENDMDL
MODEL      154
REMARK 921   NORMALIZED FREE ENERGY PREDICTED BY IDOCK:   -3.82 KCAL/MOL
REMARK 922        TOTAL FREE ENERGY PREDICTED BY IDOCK:   -6.51 KCAL/MOL
REMARK 923 INTER-LIGAND FREE ENERGY PREDICTED BY IDOCK:   -5.96 KCAL/MOL
REMARK 924 INTRA-LIGAND FREE ENERGY PREDICTED BY IDOCK:   -0.55 KCAL/MOL
REMARK 927      BINDING AFFINITY PREDICTED BY RF-SCORE:    0.00 PKD
ROOT
HETATM    1  C   UNL     1     -10.629  11.580  67.341  1.00  0.00    -0.252 C  
HETATM    2  C   UNL     1     -11.197  10.646  68.122  1.00  0.00    -0.366 C  
ENDROOT
BRANCH   1   3
HETATM    3  C   UNL     1     -11.046  13.001  67.337  1.00  0.00    -0.272 C  
HETATM    4  O   UNL     1     -11.153  13.644  66.302  1.00  0.00    -0.298 OA 
BRANCH   3   5
HETATM    5  O   UNL     1     -11.095  13.491  68.596  1.00  0.00    -0.247 OA 
BRANCH   5   6
HETATM    6  C   UNL     1     -10.382  14.719  68.757  1.00  0.00    -0.248 C  
HETATM    7  C   UNL     1     -10.435  17.203  69.229  1.00  0.00    -0.267 C  
HETATM    8  C   UNL     1     -11.588  15.459  71.565  1.00  0.00    -0.475 C  
HETATM    9  C   UNL     1     -12.254  15.697  70.215  1.00  0.00    -0.416 C  
HETATM   10  C   UNL     1     -11.288  15.928  69.029  1.00  0.00    -0.371 C  
BRANCH   7  11
HETATM   11  C   UNL     1      -9.585  17.558  68.001  1.00  0.00    -0.282 C  
BRANCH  11  12
HETATM   12  C   UNL     1      -9.535  19.061  67.744  1.00  0.00    -0.353 C  
HETATM   13  C   UNL     1     -10.795  19.526  67.026  1.00  0.00    -0.542 C  
ENDBRANCH  11  12
ENDBRANCH   7  11
ENDBRANCH   5   6
ENDBRANCH   3   5
ENDBRANCH   1   3
BRANCH   2  14
HETATM   14  C   UNL     1     -10.648   9.297  68.198  1.00  0.00    -0.248 A  
HETATM   15  C   UNL     1      -9.521   6.731  68.340  1.00  0.00    -0.126 A  
HETATM   16  C   UNL     1     -10.400   8.571  67.032  1.00  0.00    -0.379 A  
HETATM   17  C   UNL     1     -10.339   8.733  69.440  1.00  0.00    -0.217 A  
HETATM   18  C   UNL     1      -9.838   7.291  67.102  1.00  0.00    -0.242 A  
HETATM   19  C   UNL     1      -9.769   7.461  69.506  1.00  0.00    -0.159 A  
BRANCH  15  20
HETATM   20  O   UNL     1      -8.914   5.522  68.531  1.00  0.00    -0.110 OA 
HETATM   21  C   UNL     1      -7.809   5.508  69.425  1.00  0.00    -0.087 C  
ENDBRANCH  15  20
ENDBRANCH   2  14
TORSDOF 7
ENDMDL
MODEL      155
REMARK 921   NORMALIZED FREE ENERGY PREDICTED BY IDOCK:   -3.81 KCAL/MOL
REMARK 922        TOTAL FREE ENERGY PREDICTED BY IDOCK:   -6.49 KCAL/MOL
REMARK 923 INTER-LIGAND FREE ENERGY PREDICTED BY IDOCK:   -5.45 KCAL/MOL
REMARK 924 INTRA-LIGAND FREE ENERGY PREDICTED BY IDOCK:   -1.04 KCAL/MOL
REMARK 927      BINDING AFFINITY PREDICTED BY RF-SCORE:    0.00 PKD
ROOT
HETATM    1  C   UNL     1      -9.949   9.307  66.897  1.00  0.00    -0.298 C  
HETATM    2  C   UNL     1     -10.598   8.170  67.198  1.00  0.00    -0.355 C  
ENDROOT
BRANCH   1   3
HETATM    3  C   UNL     1     -10.411  10.256  65.859  1.00  0.00    -0.171 C  
HETATM    4  O   UNL     1      -9.793  10.432  64.818  1.00  0.00    -0.294 OA 
BRANCH   3   5
HETATM    5  O   UNL     1     -11.453  10.990  66.308  1.00  0.00    -0.131 OA 
BRANCH   5   6
HETATM    6  C   UNL     1     -11.058  12.163  67.024  1.00  0.00    -0.294 C  
HETATM    7  C   UNL     1     -11.437  13.740  68.964  1.00  0.00    -0.349 C  
HETATM    8  C   UNL     1     -10.839  10.792  69.845  1.00  0.00    -0.264 C  
HETATM    9  C   UNL     1     -12.122  11.285  69.188  1.00  0.00    -0.348 C  
HETATM   10  C   UNL     1     -11.958  12.484  68.225  1.00  0.00    -0.274 C  
BRANCH   7  11
HETATM   11  C   UNL     1     -11.419  14.994  68.080  1.00  0.00    -0.357 C  
BRANCH  11  12
HETATM   12  C   UNL     1     -10.091  15.742  68.158  1.00  0.00    -0.220 C  
HETATM   13  C   UNL     1     -10.320  17.214  68.472  1.00  0.00    -0.364 C  
ENDBRANCH  11  12
ENDBRANCH   7  11
ENDBRANCH   5   6
ENDBRANCH   3   5
ENDBRANCH   1   3
BRANCH   2  14
HETATM   14  C   UNL     1     -10.185   7.349  68.332  1.00  0.00    -0.207 A  
HETATM   15  C   UNL     1      -9.354   5.727  70.465  1.00  0.00    -0.162 A  
HETATM   16  C   UNL     1     -10.944   6.241  68.713  1.00  0.00    -0.424 A  
HETATM   17  C   UNL     1      -9.011   7.652  69.027  1.00  0.00    -0.137 A  
HETATM   18  C   UNL     1     -10.531   5.432  69.777  1.00  0.00    -0.378 A  
HETATM   19  C   UNL     1      -8.595   6.836  70.081  1.00  0.00    -0.140 A  
BRANCH  15  20
HETATM   20  O   UNL     1      -8.817   4.978  71.475  1.00  0.00    -0.128 OA 
HETATM   21  C   UNL     1      -9.736   4.456  72.425  1.00  0.00    -0.157 C  
ENDBRANCH  15  20
ENDBRANCH   2  14
TORSDOF 7
ENDMDL
MODEL      156
REMARK 921   NORMALIZED FREE ENERGY PREDICTED BY IDOCK:   -3.81 KCAL/MOL
REMARK 922        TOTAL FREE ENERGY PREDICTED BY IDOCK:   -6.48 KCAL/MOL
REMARK 923 INTER-LIGAND FREE ENERGY PREDICTED BY IDOCK:   -5.52 KCAL/MOL
REMARK 924 INTRA-LIGAND FREE ENERGY PREDICTED BY IDOCK:   -0.96 KCAL/MOL
REMARK 927      BINDING AFFINITY PREDICTED BY RF-SCORE:    0.00 PKD
ROOT
HETATM    1  C   UNL     1     -11.044  13.196  68.411  1.00  0.00    -0.298 C  
HETATM    2  C   UNL     1     -11.944  13.040  69.396  1.00  0.00    -0.338 C  
ENDROOT
BRANCH   1   3
HETATM    3  C   UNL     1     -10.793  14.490  67.735  1.00  0.00    -0.264 C  
HETATM    4  O   UNL     1     -11.700  15.253  67.435  1.00  0.00    -0.268 OA 
BRANCH   3   5
HETATM    5  O   UNL     1      -9.499  14.591  67.356  1.00  0.00    -0.195 OA 
BRANCH   5   6
HETATM    6  C   UNL     1      -8.640  13.651  68.005  1.00  0.00    -0.175 C  
HETATM    7  C   UNL     1      -6.312  12.717  68.332  1.00  0.00    -0.078 C  
HETATM    8  C   UNL     1      -6.561  15.754  69.071  1.00  0.00    -0.134 C  
HETATM    9  C   UNL     1      -6.601  15.171  67.664  1.00  0.00    -0.195 C  
HETATM   10  C   UNL     1      -7.176  13.739  67.554  1.00  0.00    -0.173 C  
BRANCH   7  11
HETATM   11  C   UNL     1      -6.754  11.265  68.110  1.00  0.00    -0.058 C  
BRANCH  11  12
HETATM   12  C   UNL     1      -7.511  10.699  69.309  1.00  0.00    -0.130 C  
HETATM   13  C   UNL     1      -7.848   9.231  69.087  1.00  0.00    -0.086 C  
ENDBRANCH  11  12
ENDBRANCH   7  11
ENDBRANCH   5   6
ENDBRANCH   3   5
ENDBRANCH   1   3
BRANCH   2  14
HETATM   14  C   UNL     1     -12.041  11.783  70.129  1.00  0.00    -0.398 A  
HETATM   15  C   UNL     1     -12.174   9.389  71.586  1.00  0.00    -0.390 A  
HETATM   16  C   UNL     1     -11.242  10.695  69.772  1.00  0.00    -0.363 A  
HETATM   17  C   UNL     1     -12.917  11.668  71.213  1.00  0.00    -0.368 A  
HETATM   18  C   UNL     1     -11.308   9.501  70.498  1.00  0.00    -0.343 A  
HETATM   19  C   UNL     1     -12.972  10.479  71.942  1.00  0.00    -0.553 A  
BRANCH  15  20
HETATM   20  O   UNL     1     -12.280   8.300  72.406  1.00  0.00    -0.361 OA 
HETATM   21  C   UNL     1     -12.239   7.029  71.770  1.00  0.00    -0.351 C  
ENDBRANCH  15  20
ENDBRANCH   2  14
TORSDOF 7
ENDMDL
MODEL      157
REMARK 921   NORMALIZED FREE ENERGY PREDICTED BY IDOCK:   -3.79 KCAL/MOL
REMARK 922        TOTAL FREE ENERGY PREDICTED BY IDOCK:   -6.47 KCAL/MOL
REMARK 923 INTER-LIGAND FREE ENERGY PREDICTED BY IDOCK:   -5.76 KCAL/MOL
REMARK 924 INTRA-LIGAND FREE ENERGY PREDICTED BY IDOCK:   -0.70 KCAL/MOL
REMARK 927      BINDING AFFINITY PREDICTED BY RF-SCORE:    0.00 PKD
ROOT
HETATM    1  C   UNL     1     -10.661  12.021  66.469  1.00  0.00    -0.293 C  
HETATM    2  C   UNL     1     -11.253  13.226  66.446  1.00  0.00    -0.325 C  
ENDROOT
BRANCH   1   3
HETATM    3  C   UNL     1     -10.109  11.363  65.263  1.00  0.00    -0.268 C  
HETATM    4  O   UNL     1     -10.811  11.057  64.309  1.00  0.00    -0.353 OA 
BRANCH   3   5
HETATM    5  O   UNL     1      -8.820  11.004  65.459  1.00  0.00    -0.195 OA 
BRANCH   5   6
HETATM    6  C   UNL     1      -8.654  10.004  66.467  1.00  0.00    -0.125 C  
HETATM    7  C   UNL     1      -8.694   7.559  67.113  1.00  0.00    -0.121 C  
HETATM    8  C   UNL     1      -6.611   8.229  64.868  1.00  0.00    -0.063 C  
HETATM    9  C   UNL     1      -8.126   8.215  64.705  1.00  0.00    -0.152 C  
HETATM   10  C   UNL     1      -8.934   8.578  65.973  1.00  0.00    -0.228 C  
BRANCH   7  11
HETATM   11  C   UNL     1      -9.602   7.790  68.328  1.00  0.00    -0.162 C  
BRANCH  11  12
HETATM   12  C   UNL     1     -10.842   6.900  68.305  1.00  0.00    -0.244 C  
HETATM   13  C   UNL     1     -10.770   5.850  69.405  1.00  0.00    -0.406 C  
ENDBRANCH  11  12
ENDBRANCH   7  11
ENDBRANCH   5   6
ENDBRANCH   3   5
ENDBRANCH   1   3
BRANCH   2  14
HETATM   14  C   UNL     1     -11.641  13.894  67.684  1.00  0.00    -0.381 A  
HETATM   15  C   UNL     1     -12.317  15.167  70.091  1.00  0.00    -0.341 A  
HETATM   16  C   UNL     1     -12.142  13.154  68.757  1.00  0.00    -0.226 A  
HETATM   17  C   UNL     1     -11.487  15.278  67.814  1.00  0.00    -0.312 A  
HETATM   18  C   UNL     1     -12.480  13.788  69.957  1.00  0.00    -0.301 A  
HETATM   19  C   UNL     1     -11.815  15.906  69.017  1.00  0.00    -0.328 A  
BRANCH  15  20
HETATM   20  O   UNL     1     -12.552  15.886  71.230  1.00  0.00    -0.454 OA 
HETATM   21  C   UNL     1     -13.651  15.461  72.025  1.00  0.00    -0.487 C  
ENDBRANCH  15  20
ENDBRANCH   2  14
TORSDOF 7
ENDMDL
MODEL      158
REMARK 921   NORMALIZED FREE ENERGY PREDICTED BY IDOCK:   -3.77 KCAL/MOL
REMARK 922        TOTAL FREE ENERGY PREDICTED BY IDOCK:   -6.43 KCAL/MOL
REMARK 923 INTER-LIGAND FREE ENERGY PREDICTED BY IDOCK:   -5.88 KCAL/MOL
REMARK 924 INTRA-LIGAND FREE ENERGY PREDICTED BY IDOCK:   -0.55 KCAL/MOL
REMARK 927      BINDING AFFINITY PREDICTED BY RF-SCORE:    0.00 PKD
ROOT
HETATM    1  C   UNL     1      -9.128   9.319  67.588  1.00  0.00    -0.136 C  
HETATM    2  C   UNL     1     -10.291   8.705  67.859  1.00  0.00    -0.286 C  
ENDROOT
BRANCH   1   3
HETATM    3  C   UNL     1      -8.967  10.321  66.511  1.00  0.00    -0.144 C  
HETATM    4  O   UNL     1      -7.944  10.979  66.382  1.00  0.00    -0.156 OA 
BRANCH   3   5
HETATM    5  O   UNL     1     -10.134  10.515  65.856  1.00  0.00    -0.242 OA 
BRANCH   5   6
HETATM    6  C   UNL     1     -10.768  11.755  66.177  1.00  0.00    -0.277 C  
HETATM    7  C   UNL     1     -11.291  14.145  65.533  1.00  0.00    -0.319 C  
HETATM    8  C   UNL     1     -12.380  12.029  63.492  1.00  0.00    -0.661 C  
HETATM    9  C   UNL     1     -10.916  12.401  63.698  1.00  0.00    -0.525 C  
HETATM   10  C   UNL     1     -10.541  12.853  65.129  1.00  0.00    -0.321 C  
BRANCH   7  11
HETATM   11  C   UNL     1     -10.822  14.716  66.878  1.00  0.00    -0.305 C  
BRANCH  11  12
HETATM   12  C   UNL     1     -10.443  16.192  66.781  1.00  0.00    -0.294 C  
HETATM   13  C   UNL     1     -10.515  16.672  65.338  1.00  0.00    -0.253 C  
ENDBRANCH  11  12
ENDBRANCH   7  11
ENDBRANCH   5   6
ENDBRANCH   3   5
ENDBRANCH   1   3
BRANCH   2  14
HETATM   14  C   UNL     1     -10.430   7.842  69.027  1.00  0.00    -0.215 A  
HETATM   15  C   UNL     1     -10.622   6.167  71.270  1.00  0.00    -0.243 A  
HETATM   16  C   UNL     1     -10.681   6.478  68.869  1.00  0.00    -0.318 A  
HETATM   17  C   UNL     1     -10.283   8.371  70.313  1.00  0.00    -0.204 A  
HETATM   18  C   UNL     1     -10.778   5.642  69.987  1.00  0.00    -0.390 A  
HETATM   19  C   UNL     1     -10.370   7.532  71.425  1.00  0.00    -0.209 A  
BRANCH  15  20
HETATM   20  O   UNL     1     -10.633   5.443  72.429  1.00  0.00    -0.208 OA 
HETATM   21  C   UNL     1     -10.148   4.110  72.341  1.00  0.00    -0.177 C  
ENDBRANCH  15  20
ENDBRANCH   2  14
TORSDOF 7
ENDMDL
MODEL      159
REMARK 921   NORMALIZED FREE ENERGY PREDICTED BY IDOCK:   -3.76 KCAL/MOL
REMARK 922        TOTAL FREE ENERGY PREDICTED BY IDOCK:   -6.42 KCAL/MOL
REMARK 923 INTER-LIGAND FREE ENERGY PREDICTED BY IDOCK:   -5.47 KCAL/MOL
REMARK 924 INTRA-LIGAND FREE ENERGY PREDICTED BY IDOCK:   -0.95 KCAL/MOL
REMARK 927      BINDING AFFINITY PREDICTED BY RF-SCORE:    0.00 PKD
ROOT
HETATM    1  C   UNL     1      -8.735  11.419  68.271  1.00  0.00    -0.160 C  
HETATM    2  C   UNL     1      -9.547  11.855  67.294  1.00  0.00    -0.181 C  
ENDROOT
BRANCH   1   3
HETATM    3  C   UNL     1      -8.639   9.998  68.675  1.00  0.00    -0.123 C  
HETATM    4  O   UNL     1      -8.492   9.098  67.860  1.00  0.00    -0.117 OA 
BRANCH   3   5
HETATM    5  O   UNL     1      -8.918   9.853  69.990  1.00  0.00    -0.217 OA 
BRANCH   5   6
HETATM    6  C   UNL     1      -9.977   8.928  70.249  1.00  0.00    -0.186 C  
HETATM    7  C   UNL     1     -12.139   8.398  71.451  1.00  0.00    -0.337 C  
HETATM    8  C   UNL     1     -12.334  10.890  69.559  1.00  0.00    -0.241 C  
HETATM    9  C   UNL     1     -11.579  10.829  70.881  1.00  0.00    -0.233 C  
HETATM   10  C   UNL     1     -11.012   9.441  71.259  1.00  0.00    -0.440 C  
BRANCH   7  11
HETATM   11  C   UNL     1     -11.630   7.054  71.988  1.00  0.00    -0.322 C  
BRANCH  11  12
HETATM   12  C   UNL     1     -10.927   7.195  73.336  1.00  0.00    -0.277 C  
HETATM   13  C   UNL     1     -10.117   5.946  73.653  1.00  0.00    -0.213 C  
ENDBRANCH  11  12
ENDBRANCH   7  11
ENDBRANCH   5   6
ENDBRANCH   3   5
ENDBRANCH   1   3
BRANCH   2  14
HETATM   14  C   UNL     1      -9.489  13.238  66.833  1.00  0.00    -0.249 A  
HETATM   15  C   UNL     1      -9.437  15.915  65.993  1.00  0.00    -0.354 A  
HETATM   16  C   UNL     1     -10.269  13.653  65.752  1.00  0.00    -0.317 A  
HETATM   17  C   UNL     1      -8.673  14.164  67.490  1.00  0.00    -0.208 A  
HETATM   18  C   UNL     1     -10.243  14.988  65.332  1.00  0.00    -0.411 A  
HETATM   19  C   UNL     1      -8.658  15.497  67.075  1.00  0.00    -0.262 A  
BRANCH  15  20
HETATM   20  O   UNL     1      -9.375  17.252  65.716  1.00  0.00    -0.514 OA 
HETATM   21  C   UNL     1     -10.621  17.927  65.604  1.00  0.00    -0.109 C  
ENDBRANCH  15  20
ENDBRANCH   2  14
TORSDOF 7
ENDMDL
MODEL      160
REMARK 921   NORMALIZED FREE ENERGY PREDICTED BY IDOCK:   -3.76 KCAL/MOL
REMARK 922        TOTAL FREE ENERGY PREDICTED BY IDOCK:   -6.42 KCAL/MOL
REMARK 923 INTER-LIGAND FREE ENERGY PREDICTED BY IDOCK:   -5.44 KCAL/MOL
REMARK 924 INTRA-LIGAND FREE ENERGY PREDICTED BY IDOCK:   -0.98 KCAL/MOL
REMARK 927      BINDING AFFINITY PREDICTED BY RF-SCORE:    0.00 PKD
ROOT
HETATM    1  C   UNL     1      -8.440  12.014  67.772  1.00  0.00    -0.157 C  
HETATM    2  C   UNL     1      -7.833  10.873  67.406  1.00  0.00    -0.113 C  
ENDROOT
BRANCH   1   3
HETATM    3  C   UNL     1      -7.893  13.357  67.477  1.00  0.00    -0.176 C  
HETATM    4  O   UNL     1      -6.707  13.539  67.240  1.00  0.00    -0.211 OA 
BRANCH   3   5
HETATM    5  O   UNL     1      -8.824  14.314  67.691  1.00  0.00    -0.177 OA 
BRANCH   5   6
HETATM    6  C   UNL     1      -9.790  13.956  68.683  1.00  0.00    -0.175 C  
HETATM    7  C   UNL     1     -12.179  14.053  69.507  1.00  0.00    -0.355 C  
HETATM    8  C   UNL     1     -11.874  12.686  66.702  1.00  0.00    -0.449 C  
HETATM    9  C   UNL     1     -11.710  14.173  66.995  1.00  0.00    -0.430 C  
HETATM   10  C   UNL     1     -11.191  14.518  68.410  1.00  0.00    -0.290 C  
BRANCH   7  11
HETATM   11  C   UNL     1     -11.782  14.523  70.913  1.00  0.00    -0.308 C  
BRANCH  11  12
HETATM   12  C   UNL     1     -12.628  15.701  71.392  1.00  0.00    -0.519 C  
HETATM   13  C   UNL     1     -12.052  16.291  72.671  1.00  0.00    -0.628 C  
ENDBRANCH  11  12
ENDBRANCH   7  11
ENDBRANCH   5   6
ENDBRANCH   3   5
ENDBRANCH   1   3
BRANCH   2  14
HETATM   14  C   UNL     1      -8.491   9.583  67.587  1.00  0.00    -0.122 A  
HETATM   15  C   UNL     1      -9.756   7.115  68.008  1.00  0.00    -0.138 A  
HETATM   16  C   UNL     1      -7.734   8.433  67.818  1.00  0.00    -0.103 A  
HETATM   17  C   UNL     1      -9.886   9.495  67.557  1.00  0.00    -0.213 A  
HETATM   18  C   UNL     1      -8.364   7.201  68.028  1.00  0.00    -0.119 A  
HETATM   19  C   UNL     1     -10.512   8.267  67.777  1.00  0.00    -0.280 A  
BRANCH  15  20
HETATM   20  O   UNL     1     -10.484   5.985  68.261  1.00  0.00    -0.185 OA 
HETATM   21  C   UNL     1     -10.396   5.465  69.581  1.00  0.00    -0.291 C  
ENDBRANCH  15  20
ENDBRANCH   2  14
TORSDOF 7
ENDMDL
MODEL      161
REMARK 921   NORMALIZED FREE ENERGY PREDICTED BY IDOCK:   -3.76 KCAL/MOL
REMARK 922        TOTAL FREE ENERGY PREDICTED BY IDOCK:   -6.42 KCAL/MOL
REMARK 923 INTER-LIGAND FREE ENERGY PREDICTED BY IDOCK:   -5.59 KCAL/MOL
REMARK 924 INTRA-LIGAND FREE ENERGY PREDICTED BY IDOCK:   -0.83 KCAL/MOL
REMARK 927      BINDING AFFINITY PREDICTED BY RF-SCORE:    0.00 PKD
ROOT
HETATM    1  C   UNL     1      -7.766  13.373  68.170  1.00  0.00    -0.143 C  
HETATM    2  C   UNL     1      -8.044  14.131  67.097  1.00  0.00    -0.139 C  
ENDROOT
BRANCH   1   3
HETATM    3  C   UNL     1      -6.917  12.161  68.113  1.00  0.00    -0.082 C  
HETATM    4  O   UNL     1      -5.713  12.200  68.319  1.00  0.00    -0.050 OA 
BRANCH   3   5
HETATM    5  O   UNL     1      -7.616  11.107  67.634  1.00  0.00    -0.099 OA 
BRANCH   5   6
HETATM    6  C   UNL     1      -8.925  10.988  68.198  1.00  0.00    -0.152 C  
HETATM    7  C   UNL     1     -11.431  10.970  67.859  1.00  0.00    -0.358 C  
HETATM    8  C   UNL     1      -9.934   8.721  66.270  1.00  0.00    -0.315 C  
HETATM    9  C   UNL     1      -9.898  10.211  65.955  1.00  0.00    -0.308 C  
HETATM   10  C   UNL     1     -10.055  11.151  67.173  1.00  0.00    -0.223 C  
BRANCH   7  11
HETATM   11  C   UNL     1     -11.691  11.999  68.967  1.00  0.00    -0.382 C  
BRANCH  11  12
HETATM   12  C   UNL     1     -11.936  13.400  68.414  1.00  0.00    -0.359 C  
HETATM   13  C   UNL     1     -12.083  13.361  66.899  1.00  0.00    -0.406 C  
ENDBRANCH  11  12
ENDBRANCH   7  11
ENDBRANCH   5   6
ENDBRANCH   3   5
ENDBRANCH   1   3
BRANCH   2  14
HETATM   14  C   UNL     1      -8.757  15.396  67.237  1.00  0.00    -0.215 A  
HETATM   15  C   UNL     1     -10.064  17.861  67.534  1.00  0.00    -0.342 A  
HETATM   16  C   UNL     1      -9.404  15.711  68.433  1.00  0.00    -0.195 A  
HETATM   17  C   UNL     1      -8.772  16.314  66.182  1.00  0.00    -0.353 A  
HETATM   18  C   UNL     1     -10.057  16.940  68.582  1.00  0.00    -0.291 A  
HETATM   19  C   UNL     1      -9.415  17.544  66.338  1.00  0.00    -0.276 A  
BRANCH  15  20
HETATM   20  O   UNL     1     -10.611  19.113  67.583  1.00  0.00    -0.434 OA 
HETATM   21  C   UNL     1     -10.647  19.831  66.356  1.00  0.00    -0.464 C  
ENDBRANCH  15  20
ENDBRANCH   2  14
TORSDOF 7
ENDMDL
MODEL      162
REMARK 921   NORMALIZED FREE ENERGY PREDICTED BY IDOCK:   -3.75 KCAL/MOL
REMARK 922        TOTAL FREE ENERGY PREDICTED BY IDOCK:   -6.41 KCAL/MOL
REMARK 923 INTER-LIGAND FREE ENERGY PREDICTED BY IDOCK:   -4.93 KCAL/MOL
REMARK 924 INTRA-LIGAND FREE ENERGY PREDICTED BY IDOCK:   -1.49 KCAL/MOL
REMARK 927      BINDING AFFINITY PREDICTED BY RF-SCORE:    0.00 PKD
ROOT
HETATM    1  C   UNL     1      -9.329   6.778  66.332  1.00  0.00    -0.175 C  
HETATM    2  C   UNL     1      -8.997   8.006  65.900  1.00  0.00    -0.181 C  
ENDROOT
BRANCH   1   3
HETATM    3  C   UNL     1      -8.449   5.597  66.181  1.00  0.00    -0.128 C  
HETATM    4  O   UNL     1      -8.057   5.214  65.087  1.00  0.00    -0.108 OA 
BRANCH   3   5
HETATM    5  O   UNL     1      -8.318   4.941  67.356  1.00  0.00    -0.106 OA 
BRANCH   5   6
HETATM    6  C   UNL     1      -9.091   5.511  68.415  1.00  0.00    -0.111 C  
HETATM    7  C   UNL     1      -9.217   6.309  70.811  1.00  0.00    -0.160 C  
HETATM    8  C   UNL     1      -7.099   7.848  69.086  1.00  0.00    -0.069 C  
HETATM    9  C   UNL     1      -6.982   6.407  69.568  1.00  0.00    -0.071 C  
HETATM   10  C   UNL     1      -8.321   5.651  69.734  1.00  0.00    -0.107 C  
BRANCH   7  11
HETATM   11  C   UNL     1     -10.479   5.495  71.123  1.00  0.00    -0.304 C  
BRANCH  11  12
HETATM   12  C   UNL     1     -11.747   6.343  71.065  1.00  0.00    -0.358 C  
HETATM   13  C   UNL     1     -11.410   7.791  70.736  1.00  0.00    -0.291 C  
ENDBRANCH  11  12
ENDBRANCH   7  11
ENDBRANCH   5   6
ENDBRANCH   3   5
ENDBRANCH   1   3
BRANCH   2  14
HETATM   14  C   UNL     1      -9.833   9.161  66.211  1.00  0.00    -0.359 A  
HETATM   15  C   UNL     1     -11.379  11.419  66.831  1.00  0.00    -0.210 A  
HETATM   16  C   UNL     1     -10.352   9.329  67.496  1.00  0.00    -0.323 A  
HETATM   17  C   UNL     1     -10.097  10.121  65.230  1.00  0.00    -0.344 A  
HETATM   18  C   UNL     1     -11.123  10.455  67.806  1.00  0.00    -0.365 A  
HETATM   19  C   UNL     1     -10.858  11.248  65.545  1.00  0.00    -0.244 A  
BRANCH  15  20
HETATM   20  O   UNL     1     -12.062  12.586  67.029  1.00  0.00    -0.521 OA 
HETATM   21  C   UNL     1     -11.790  13.637  66.112  1.00  0.00    -0.392 C  
ENDBRANCH  15  20
ENDBRANCH   2  14
TORSDOF 7
ENDMDL
MODEL      163
REMARK 921   NORMALIZED FREE ENERGY PREDICTED BY IDOCK:   -3.75 KCAL/MOL
REMARK 922        TOTAL FREE ENERGY PREDICTED BY IDOCK:   -6.40 KCAL/MOL
REMARK 923 INTER-LIGAND FREE ENERGY PREDICTED BY IDOCK:   -5.83 KCAL/MOL
REMARK 924 INTRA-LIGAND FREE ENERGY PREDICTED BY IDOCK:   -0.57 KCAL/MOL
REMARK 927      BINDING AFFINITY PREDICTED BY RF-SCORE:    0.00 PKD
ROOT
HETATM    1  C   UNL     1     -11.796  11.776  70.327  1.00  0.00    -0.382 C  
HETATM    2  C   UNL     1     -12.075  12.551  69.265  1.00  0.00    -0.214 C  
ENDROOT
BRANCH   1   3
HETATM    3  C   UNL     1     -12.271  10.380  70.462  1.00  0.00    -0.323 C  
HETATM    4  O   UNL     1     -13.339  10.104  70.991  1.00  0.00    -0.387 OA 
BRANCH   3   5
HETATM    5  O   UNL     1     -11.304   9.506  70.102  1.00  0.00    -0.239 OA 
BRANCH   5   6
HETATM    6  C   UNL     1     -11.029   9.506  68.700  1.00  0.00    -0.072 C  
HETATM    7  C   UNL     1      -9.569   8.735  66.783  1.00  0.00    -0.267 C  
HETATM    8  C   UNL     1     -10.908   6.383  68.365  1.00  0.00    -0.383 C  
HETATM    9  C   UNL     1      -9.779   7.272  68.872  1.00  0.00    -0.148 C  
HETATM   10  C   UNL     1      -9.770   8.716  68.318  1.00  0.00    -0.171 C  
BRANCH   7  11
HETATM   11  C   UNL     1      -9.389  10.150  66.218  1.00  0.00    -0.214 C  
BRANCH  11  12
HETATM   12  C   UNL     1      -9.846  10.259  64.766  1.00  0.00    -0.403 C  
HETATM   13  C   UNL     1     -10.791  11.439  64.587  1.00  0.00    -0.359 C  
ENDBRANCH  11  12
ENDBRANCH   7  11
ENDBRANCH   5   6
ENDBRANCH   3   5
ENDBRANCH   1   3
BRANCH   2  14
HETATM   14  C   UNL     1     -11.455  13.863  69.113  1.00  0.00    -0.345 A  
HETATM   15  C   UNL     1     -10.208  16.364  68.864  1.00  0.00    -0.258 A  
HETATM   16  C   UNL     1     -11.734  14.883  70.024  1.00  0.00    -0.338 A  
HETATM   17  C   UNL     1     -10.557  14.098  68.068  1.00  0.00    -0.241 A  
HETATM   18  C   UNL     1     -11.113  16.131  69.900  1.00  0.00    -0.357 A  
HETATM   19  C   UNL     1      -9.931  15.341  67.953  1.00  0.00    -0.228 A  
BRANCH  15  20
HETATM   20  O   UNL     1      -9.495  17.515  68.678  1.00  0.00    -0.274 OA 
HETATM   21  C   UNL     1      -8.304  17.399  67.910  1.00  0.00    -0.230 C  
ENDBRANCH  15  20
ENDBRANCH   2  14
TORSDOF 7
ENDMDL
MODEL      164
REMARK 921   NORMALIZED FREE ENERGY PREDICTED BY IDOCK:   -3.74 KCAL/MOL
REMARK 922        TOTAL FREE ENERGY PREDICTED BY IDOCK:   -6.40 KCAL/MOL
REMARK 923 INTER-LIGAND FREE ENERGY PREDICTED BY IDOCK:   -5.87 KCAL/MOL
REMARK 924 INTRA-LIGAND FREE ENERGY PREDICTED BY IDOCK:   -0.52 KCAL/MOL
REMARK 927      BINDING AFFINITY PREDICTED BY RF-SCORE:    0.00 PKD
ROOT
HETATM    1  C   UNL     1     -11.036  11.846  68.357  1.00  0.00    -0.292 C  
HETATM    2  C   UNL     1     -11.896  11.490  69.325  1.00  0.00    -0.414 C  
ENDROOT
BRANCH   1   3
HETATM    3  C   UNL     1     -10.679  10.965  67.222  1.00  0.00    -0.268 C  
HETATM    4  O   UNL     1     -11.149  11.122  66.104  1.00  0.00    -0.211 OA 
BRANCH   3   5
HETATM    5  O   UNL     1      -9.945   9.910  67.643  1.00  0.00    -0.158 OA 
BRANCH   5   6
HETATM    6  C   UNL     1      -9.374   9.150  66.575  1.00  0.00    -0.190 C  
HETATM    7  C   UNL     1      -7.342   8.553  65.194  1.00  0.00    -0.081 C  
HETATM    8  C   UNL     1      -7.015   7.916  68.246  1.00  0.00    -0.073 C  
HETATM    9  C   UNL     1      -7.036   9.306  67.621  1.00  0.00    -0.082 C  
HETATM   10  C   UNL     1      -7.887   9.443  66.337  1.00  0.00    -0.100 C  
BRANCH   7  11
HETATM   11  C   UNL     1      -8.056   8.786  63.856  1.00  0.00    -0.165 C  
BRANCH  11  12
HETATM   12  C   UNL     1      -8.287  10.268  63.571  1.00  0.00    -0.169 C  
HETATM   13  C   UNL     1      -9.430  10.454  62.583  1.00  0.00    -0.324 C  
ENDBRANCH  11  12
ENDBRANCH   7  11
ENDBRANCH   5   6
ENDBRANCH   3   5
ENDBRANCH   1   3
BRANCH   2  14
HETATM   14  C   UNL     1     -12.329  12.451  70.334  1.00  0.00    -0.307 A  
HETATM   15  C   UNL     1     -13.099  14.282  72.315  1.00  0.00    -0.405 A  
HETATM   16  C   UNL     1     -13.121  12.037  71.407  1.00  0.00    -0.295 A  
HETATM   17  C   UNL     1     -11.929  13.787  70.248  1.00  0.00    -0.397 A  
HETATM   18  C   UNL     1     -13.506  12.950  72.395  1.00  0.00    -0.573 A  
HETATM   19  C   UNL     1     -12.306  14.693  71.241  1.00  0.00    -0.407 A  
BRANCH  15  20
HETATM   20  O   UNL     1     -13.358  15.247  73.248  1.00  0.00    -0.474 OA 
HETATM   21  C   UNL     1     -12.532  15.240  74.405  1.00  0.00    -0.490 C  
ENDBRANCH  15  20
ENDBRANCH   2  14
TORSDOF 7
ENDMDL
MODEL      165
REMARK 921   NORMALIZED FREE ENERGY PREDICTED BY IDOCK:   -3.74 KCAL/MOL
REMARK 922        TOTAL FREE ENERGY PREDICTED BY IDOCK:   -6.39 KCAL/MOL
REMARK 923 INTER-LIGAND FREE ENERGY PREDICTED BY IDOCK:   -6.15 KCAL/MOL
REMARK 924 INTRA-LIGAND FREE ENERGY PREDICTED BY IDOCK:   -0.24 KCAL/MOL
REMARK 927      BINDING AFFINITY PREDICTED BY RF-SCORE:    0.00 PKD
ROOT
HETATM    1  C   UNL     1      -8.156  15.313  66.759  1.00  0.00    -0.166 C  
HETATM    2  C   UNL     1      -9.192  15.842  66.087  1.00  0.00    -0.385 C  
ENDROOT
BRANCH   1   3
HETATM    3  C   UNL     1      -7.146  16.130  67.470  1.00  0.00    -0.163 C  
HETATM    4  O   UNL     1      -5.958  16.086  67.187  1.00  0.00    -0.306 OA 
BRANCH   3   5
HETATM    5  O   UNL     1      -7.694  16.744  68.543  1.00  0.00    -0.200 OA 
BRANCH   5   6
HETATM    6  C   UNL     1      -8.965  16.209  68.919  1.00  0.00    -0.247 C  
HETATM    7  C   UNL     1     -11.260  16.584  69.914  1.00  0.00    -0.159 C  
HETATM    8  C   UNL     1     -10.706  18.308  67.355  1.00  0.00    -0.377 C  
HETATM    9  C   UNL     1     -10.074  18.515  68.725  1.00  0.00    -0.394 C  
HETATM   10  C   UNL     1      -9.897  17.235  69.576  1.00  0.00     0.149 C  
BRANCH   7  11
HETATM   11  C   UNL     1     -11.139  15.409  70.893  1.00  0.00    -0.374 C  
BRANCH  11  12
HETATM   12  C   UNL     1     -12.354  15.289  71.810  1.00  0.00    -0.429 C  
HETATM   13  C   UNL     1     -13.157  14.040  71.476  1.00  0.00    -0.436 C  
ENDBRANCH  11  12
ENDBRANCH   7  11
ENDBRANCH   5   6
ENDBRANCH   3   5
ENDBRANCH   1   3
BRANCH   2  14
HETATM   14  C   UNL     1     -10.240  14.990  65.534  1.00  0.00    -0.406 A  
HETATM   15  C   UNL     1     -12.215  13.345  64.408  1.00  0.00    -0.389 A  
HETATM   16  C   UNL     1     -11.281  15.547  64.790  1.00  0.00    -0.399 A  
HETATM   17  C   UNL     1     -10.192  13.605  65.724  1.00  0.00    -0.317 A  
HETATM   18  C   UNL     1     -12.267  14.728  64.229  1.00  0.00    -0.402 A  
HETATM   19  C   UNL     1     -11.171  12.790  65.153  1.00  0.00    -0.327 A  
BRANCH  15  20
HETATM   20  O   UNL     1     -13.081  12.441  63.859  1.00  0.00    -0.763 OA 
HETATM   21  C   UNL     1     -12.511  11.481  62.979  1.00  0.00     0.344 C  
ENDBRANCH  15  20
ENDBRANCH   2  14
TORSDOF 7
ENDMDL
MODEL      166
REMARK 921   NORMALIZED FREE ENERGY PREDICTED BY IDOCK:   -3.73 KCAL/MOL
REMARK 922        TOTAL FREE ENERGY PREDICTED BY IDOCK:   -6.38 KCAL/MOL
REMARK 923 INTER-LIGAND FREE ENERGY PREDICTED BY IDOCK:   -6.09 KCAL/MOL
REMARK 924 INTRA-LIGAND FREE ENERGY PREDICTED BY IDOCK:   -0.29 KCAL/MOL
REMARK 927      BINDING AFFINITY PREDICTED BY RF-SCORE:    0.00 PKD
ROOT
HETATM    1  C   UNL     1     -12.163  12.986  70.142  1.00  0.00    -0.342 C  
HETATM    2  C   UNL     1     -11.311  12.651  69.160  1.00  0.00    -0.339 C  
ENDROOT
BRANCH   1   3
HETATM    3  C   UNL     1     -12.685  12.017  71.133  1.00  0.00    -0.266 C  
HETATM    4  O   UNL     1     -12.704  12.259  72.331  1.00  0.00     0.038 OA 
BRANCH   3   5
HETATM    5  O   UNL     1     -12.938  10.823  70.550  1.00  0.00    -0.299 OA 
BRANCH   5   6
HETATM    6  C   UNL     1     -12.071   9.777  70.994  1.00  0.00    -0.346 C  
HETATM    7  C   UNL     1     -11.496   8.042  72.743  1.00  0.00    -0.420 C  
HETATM    8  C   UNL     1     -14.317   7.625  71.443  1.00  0.00    -0.537 C  
HETATM    9  C   UNL     1     -13.937   8.736  72.414  1.00  0.00    -0.482 C  
HETATM   10  C   UNL     1     -12.460   9.190  72.358  1.00  0.00    -0.350 C  
BRANCH   7  11
HETATM   11  C   UNL     1     -10.035   8.498  72.861  1.00  0.00    -0.086 C  
BRANCH  11  12
HETATM   12  C   UNL     1      -9.190   8.054  71.669  1.00  0.00    -0.196 C  
HETATM   13  C   UNL     1      -8.339   9.207  71.155  1.00  0.00    -0.157 C  
ENDBRANCH  11  12
ENDBRANCH   7  11
ENDBRANCH   5   6
ENDBRANCH   3   5
ENDBRANCH   1   3
BRANCH   2  14
HETATM   14  C   UNL     1     -10.711  13.673  68.308  1.00  0.00    -0.266 A  
HETATM   15  C   UNL     1      -9.490  15.600  66.674  1.00  0.00    -0.259 A  
HETATM   16  C   UNL     1     -10.098  14.791  68.875  1.00  0.00    -0.237 A  
HETATM   17  C   UNL     1     -10.721  13.522  66.918  1.00  0.00    -0.274 A  
HETATM   18  C   UNL     1      -9.490  15.753  68.061  1.00  0.00    -0.202 A  
HETATM   19  C   UNL     1     -10.104  14.478  66.109  1.00  0.00    -0.319 A  
BRANCH  15  20
HETATM   20  O   UNL     1      -8.877  16.436  65.784  1.00  0.00    -0.446 OA 
HETATM   21  C   UNL     1      -7.845  17.262  66.307  1.00  0.00    -0.309 C  
ENDBRANCH  15  20
ENDBRANCH   2  14
TORSDOF 7
ENDMDL
MODEL      167
REMARK 921   NORMALIZED FREE ENERGY PREDICTED BY IDOCK:   -3.73 KCAL/MOL
REMARK 922        TOTAL FREE ENERGY PREDICTED BY IDOCK:   -6.38 KCAL/MOL
REMARK 923 INTER-LIGAND FREE ENERGY PREDICTED BY IDOCK:   -5.61 KCAL/MOL
REMARK 924 INTRA-LIGAND FREE ENERGY PREDICTED BY IDOCK:   -0.76 KCAL/MOL
REMARK 927      BINDING AFFINITY PREDICTED BY RF-SCORE:    0.00 PKD
ROOT
HETATM    1  C   UNL     1     -10.867  14.632  65.942  1.00  0.00    -0.312 C  
HETATM    2  C   UNL     1     -11.090  15.955  66.001  1.00  0.00    -0.037 C  
ENDROOT
BRANCH   1   3
HETATM    3  C   UNL     1     -11.800  13.677  65.302  1.00  0.00    -0.349 C  
HETATM    4  O   UNL     1     -12.935  13.996  64.975  1.00  0.00    -0.728 OA 
BRANCH   3   5
HETATM    5  O   UNL     1     -11.291  12.424  65.316  1.00  0.00    -0.310 OA 
BRANCH   5   6
HETATM    6  C   UNL     1     -10.001  12.341  65.926  1.00  0.00    -0.254 C  
HETATM    7  C   UNL     1      -8.210  10.921  67.010  1.00  0.00    -0.134 C  
HETATM    8  C   UNL     1      -8.882  10.063  64.070  1.00  0.00    -0.246 C  
HETATM    9  C   UNL     1      -9.780   9.866  65.286  1.00  0.00    -0.383 C  
HETATM   10  C   UNL     1      -9.633  10.929  66.400  1.00  0.00    -0.229 C  
BRANCH   7  11
HETATM   11  C   UNL     1      -8.073  11.844  68.228  1.00  0.00    -0.154 C  
BRANCH  11  12
HETATM   12  C   UNL     1      -6.784  11.591  69.006  1.00  0.00    -0.098 C  
HETATM   13  C   UNL     1      -6.165  10.260  68.604  1.00  0.00    -0.047 C  
ENDBRANCH  11  12
ENDBRANCH   7  11
ENDBRANCH   5   6
ENDBRANCH   3   5
ENDBRANCH   1   3
BRANCH   2  14
HETATM   14  C   UNL     1     -10.068  16.866  66.505  1.00  0.00    -0.320 A  
HETATM   15  C   UNL     1      -8.093  18.572  67.535  1.00  0.00    -0.251 A  
HETATM   16  C   UNL     1     -10.413  17.893  67.385  1.00  0.00    -0.390 A  
HETATM   17  C   UNL     1      -8.732  16.697  66.132  1.00  0.00    -0.322 A  
HETATM   18  C   UNL     1      -9.429  18.745  67.899  1.00  0.00    -0.339 A  
HETATM   19  C   UNL     1      -7.751  17.542  66.655  1.00  0.00    -0.289 A  
BRANCH  15  20
HETATM   20  O   UNL     1      -7.040  19.297  68.017  1.00  0.00    -0.243 OA 
HETATM   21  C   UNL     1      -5.971  19.532  67.110  1.00  0.00    -0.178 C  
ENDBRANCH  15  20
ENDBRANCH   2  14
TORSDOF 7
ENDMDL
MODEL      168
REMARK 921   NORMALIZED FREE ENERGY PREDICTED BY IDOCK:   -3.72 KCAL/MOL
REMARK 922        TOTAL FREE ENERGY PREDICTED BY IDOCK:   -6.36 KCAL/MOL
REMARK 923 INTER-LIGAND FREE ENERGY PREDICTED BY IDOCK:   -5.27 KCAL/MOL
REMARK 924 INTRA-LIGAND FREE ENERGY PREDICTED BY IDOCK:   -1.08 KCAL/MOL
REMARK 927      BINDING AFFINITY PREDICTED BY RF-SCORE:    0.00 PKD
ROOT
HETATM    1  C   UNL     1      -6.971  15.760  67.538  1.00  0.00    -0.216 C  
HETATM    2  C   UNL     1      -7.917  15.448  68.439  1.00  0.00    -0.131 C  
ENDROOT
BRANCH   1   3
HETATM    3  C   UNL     1      -5.871  16.713  67.811  1.00  0.00    -0.135 C  
HETATM    4  O   UNL     1      -5.167  16.626  68.807  1.00  0.00    -0.119 OA 
BRANCH   3   5
HETATM    5  O   UNL     1      -5.896  17.741  66.933  1.00  0.00    -0.131 OA 
BRANCH   5   6
HETATM    6  C   UNL     1      -7.160  18.406  66.872  1.00  0.00    -0.200 C  
HETATM    7  C   UNL     1      -8.756  20.108  67.847  1.00  0.00    -0.274 C  
HETATM    8  C   UNL     1      -6.019  21.335  66.935  1.00  0.00    -0.390 C  
HETATM    9  C   UNL     1      -6.236  20.433  68.145  1.00  0.00    -0.323 C  
HETATM   10  C   UNL     1      -7.386  19.408  68.012  1.00  0.00    -0.309 C  
BRANCH   7  11
HETATM   11  C   UNL     1      -9.939  19.131  67.879  1.00  0.00    -0.445 C  
BRANCH  11  12
HETATM   12  C   UNL     1     -10.727  19.129  66.572  1.00  0.00    -0.456 C  
HETATM   13  C   UNL     1     -10.639  17.769  65.893  1.00  0.00    -0.205 C  
ENDBRANCH  11  12
ENDBRANCH   7  11
ENDBRANCH   5   6
ENDBRANCH   3   5
ENDBRANCH   1   3
BRANCH   2  14
HETATM   14  C   UNL     1      -8.887  14.391  68.171  1.00  0.00    -0.180 A  
HETATM   15  C   UNL     1     -10.724  12.353  67.587  1.00  0.00    -0.221 A  
HETATM   16  C   UNL     1     -10.137  14.702  67.633  1.00  0.00    -0.228 A  
HETATM   17  C   UNL     1      -8.558  13.056  68.427  1.00  0.00    -0.116 A  
HETATM   18  C   UNL     1     -11.054  13.686  67.342  1.00  0.00    -0.299 A  
HETATM   19  C   UNL     1      -9.471  12.044  68.125  1.00  0.00    -0.200 A  
BRANCH  15  20
HETATM   20  O   UNL     1     -11.508  11.274  67.287  1.00  0.00    -0.464 OA 
HETATM   21  C   UNL     1     -10.997  10.002  67.665  1.00  0.00    -0.234 C  
ENDBRANCH  15  20
ENDBRANCH   2  14
TORSDOF 7
ENDMDL
MODEL      169
REMARK 921   NORMALIZED FREE ENERGY PREDICTED BY IDOCK:   -3.71 KCAL/MOL
REMARK 922        TOTAL FREE ENERGY PREDICTED BY IDOCK:   -6.35 KCAL/MOL
REMARK 923 INTER-LIGAND FREE ENERGY PREDICTED BY IDOCK:   -5.75 KCAL/MOL
REMARK 924 INTRA-LIGAND FREE ENERGY PREDICTED BY IDOCK:   -0.60 KCAL/MOL
REMARK 927      BINDING AFFINITY PREDICTED BY RF-SCORE:    0.00 PKD
ROOT
HETATM    1  C   UNL     1      -9.424   9.347  66.198  1.00  0.00    -0.287 C  
HETATM    2  C   UNL     1      -9.204   8.127  66.716  1.00  0.00    -0.206 C  
ENDROOT
BRANCH   1   3
HETATM    3  C   UNL     1      -8.933   9.767  64.866  1.00  0.00    -0.216 C  
HETATM    4  O   UNL     1      -7.816   9.474  64.463  1.00  0.00    -0.115 OA 
BRANCH   3   5
HETATM    5  O   UNL     1      -9.793  10.636  64.289  1.00  0.00    -0.278 OA 
BRANCH   5   6
HETATM    6  C   UNL     1     -10.095  11.768  65.108  1.00  0.00    -0.259 C  
HETATM    7  C   UNL     1     -10.910  14.156  65.279  1.00  0.00    -0.356 C  
HETATM    8  C   UNL     1     -13.024  12.194  64.051  1.00  0.00    -0.293 C  
HETATM    9  C   UNL     1     -11.749  12.675  63.369  1.00  0.00    -0.571 C  
HETATM   10  C   UNL     1     -10.569  12.994  64.316  1.00  0.00    -0.434 C  
BRANCH   7  11
HETATM   11  C   UNL     1      -9.710  14.613  66.120  1.00  0.00    -0.344 C  
BRANCH  11  12
HETATM   12  C   UNL     1     -10.136  15.333  67.396  1.00  0.00    -0.232 C  
HETATM   13  C   UNL     1      -9.526  14.663  68.620  1.00  0.00    -0.211 C  
ENDBRANCH  11  12
ENDBRANCH   7  11
ENDBRANCH   5   6
ENDBRANCH   3   5
ENDBRANCH   1   3
BRANCH   2  14
HETATM   14  C   UNL     1      -9.840   7.716  67.963  1.00  0.00    -0.188 A  
HETATM   15  C   UNL     1     -11.111   6.982  70.354  1.00  0.00    -0.287 A  
HETATM   16  C   UNL     1      -9.417   8.254  69.180  1.00  0.00    -0.155 A  
HETATM   17  C   UNL     1     -10.896   6.801  67.944  1.00  0.00    -0.320 A  
HETATM   18  C   UNL     1     -10.050   7.888  70.373  1.00  0.00    -0.194 A  
HETATM   19  C   UNL     1     -11.533   6.446  69.135  1.00  0.00    -0.265 A  
BRANCH  15  20
HETATM   20  O   UNL     1     -11.845   6.599  71.442  1.00  0.00    -0.307 OA 
HETATM   21  C   UNL     1     -11.773   7.449  72.579  1.00  0.00    -0.234 C  
ENDBRANCH  15  20
ENDBRANCH   2  14
TORSDOF 7
ENDMDL
MODEL      170
REMARK 921   NORMALIZED FREE ENERGY PREDICTED BY IDOCK:   -3.69 KCAL/MOL
REMARK 922        TOTAL FREE ENERGY PREDICTED BY IDOCK:   -6.33 KCAL/MOL
REMARK 923 INTER-LIGAND FREE ENERGY PREDICTED BY IDOCK:   -5.17 KCAL/MOL
REMARK 924 INTRA-LIGAND FREE ENERGY PREDICTED BY IDOCK:   -1.16 KCAL/MOL
REMARK 927      BINDING AFFINITY PREDICTED BY RF-SCORE:    0.00 PKD
ROOT
HETATM    1  C   UNL     1     -10.905  12.908  67.984  1.00  0.00    -0.261 C  
HETATM    2  C   UNL     1     -11.701  11.835  68.121  1.00  0.00    -0.377 C  
ENDROOT
BRANCH   1   3
HETATM    3  C   UNL     1     -11.353  14.181  67.375  1.00  0.00    -0.327 C  
HETATM    4  O   UNL     1     -12.406  14.272  66.759  1.00  0.00    -0.429 OA 
BRANCH   3   5
HETATM    5  O   UNL     1     -10.379  15.116  67.442  1.00  0.00    -0.239 OA 
BRANCH   5   6
HETATM    6  C   UNL     1      -9.200  14.663  68.113  1.00  0.00    -0.192 C  
HETATM    7  C   UNL     1      -6.692  14.342  68.096  1.00  0.00    -0.129 C  
HETATM    8  C   UNL     1      -7.575  17.336  67.811  1.00  0.00    -0.189 C  
HETATM    9  C   UNL     1      -7.724  16.256  66.747  1.00  0.00    -0.295 C  
HETATM   10  C   UNL     1      -7.919  14.818  67.283  1.00  0.00    -0.232 C  
BRANCH   7  11
HETATM   11  C   UNL     1      -6.776  12.865  68.503  1.00  0.00    -0.091 C  
BRANCH  11  12
HETATM   12  C   UNL     1      -6.946  11.940  67.300  1.00  0.00    -0.145 C  
HETATM   13  C   UNL     1      -7.268  10.523  67.754  1.00  0.00    -0.085 C  
ENDBRANCH  11  12
ENDBRANCH   7  11
ENDBRANCH   5   6
ENDBRANCH   3   5
ENDBRANCH   1   3
BRANCH   2  14
HETATM   14  C   UNL     1     -11.255  10.661  68.865  1.00  0.00    -0.333 A  
HETATM   15  C   UNL     1     -10.466   8.376  70.288  1.00  0.00    -0.218 A  
HETATM   16  C   UNL     1     -11.397  10.611  70.253  1.00  0.00    -0.401 A  
HETATM   17  C   UNL     1     -10.708   9.568  68.188  1.00  0.00    -0.247 A  
HETATM   18  C   UNL     1     -11.003   9.472  70.963  1.00  0.00    -0.424 A  
HETATM   19  C   UNL     1     -10.326   8.428  68.899  1.00  0.00    -0.231 A  
BRANCH  15  20
HETATM   20  O   UNL     1     -10.106   7.189  70.863  1.00  0.00    -0.193 OA 
HETATM   21  C   UNL     1      -9.061   7.249  71.825  1.00  0.00    -0.130 C  
ENDBRANCH  15  20
ENDBRANCH   2  14
TORSDOF 7
ENDMDL
MODEL      171
REMARK 921   NORMALIZED FREE ENERGY PREDICTED BY IDOCK:   -3.65 KCAL/MOL
REMARK 922        TOTAL FREE ENERGY PREDICTED BY IDOCK:   -6.27 KCAL/MOL
REMARK 923 INTER-LIGAND FREE ENERGY PREDICTED BY IDOCK:   -5.56 KCAL/MOL
REMARK 924 INTRA-LIGAND FREE ENERGY PREDICTED BY IDOCK:   -0.71 KCAL/MOL
REMARK 927      BINDING AFFINITY PREDICTED BY RF-SCORE:    0.00 PKD
ROOT
HETATM    1  C   UNL     1      -9.558  10.347  69.354  1.00  0.00    -0.213 C  
HETATM    2  C   UNL     1     -10.812  10.654  68.986  1.00  0.00    -0.277 C  
ENDROOT
BRANCH   1   3
HETATM    3  C   UNL     1      -8.796   9.214  68.781  1.00  0.00    -0.132 C  
HETATM    4  O   UNL     1      -8.149   9.321  67.748  1.00  0.00    -0.103 OA 
BRANCH   3   5
HETATM    5  O   UNL     1      -9.073   8.066  69.439  1.00  0.00    -0.148 OA 
BRANCH   5   6
HETATM    6  C   UNL     1      -9.249   8.245  70.846  1.00  0.00    -0.155 C  
HETATM    7  C   UNL     1      -8.540   7.668  73.204  1.00  0.00    -0.214 C  
HETATM    8  C   UNL     1      -6.256   8.958  71.488  1.00  0.00    -0.069 C  
HETATM    9  C   UNL     1      -6.822   7.554  71.311  1.00  0.00    -0.050 C  
HETATM   10  C   UNL     1      -8.309   7.384  71.700  1.00  0.00    -0.107 C  
BRANCH   7  11
HETATM   11  C   UNL     1      -9.968   7.348  73.665  1.00  0.00    -0.379 C  
BRANCH  11  12
HETATM   12  C   UNL     1     -10.172   5.860  73.938  1.00  0.00    -0.262 C  
HETATM   13  C   UNL     1     -11.400   5.342  73.202  1.00  0.00    -0.358 C  
ENDBRANCH  11  12
ENDBRANCH   7  11
ENDBRANCH   5   6
ENDBRANCH   3   5
ENDBRANCH   1   3
BRANCH   2  14
HETATM   14  C   UNL     1     -11.459  11.869  69.469  1.00  0.00    -0.357 A  
HETATM   15  C   UNL     1     -12.644  14.218  70.446  1.00  0.00    -0.343 A  
HETATM   16  C   UNL     1     -12.297  11.825  70.584  1.00  0.00    -0.421 A  
HETATM   17  C   UNL     1     -11.220  13.092  68.835  1.00  0.00    -0.324 A  
HETATM   18  C   UNL     1     -12.889  12.995  71.072  1.00  0.00    -0.281 A  
HETATM   19  C   UNL     1     -11.803  14.260  69.330  1.00  0.00    -0.372 A  
BRANCH  15  20
HETATM   20  O   UNL     1     -13.112  15.431  70.865  1.00  0.00    -0.455 OA 
HETATM   21  C   UNL     1     -14.096  15.404  71.891  1.00  0.00    -0.537 C  
ENDBRANCH  15  20
ENDBRANCH   2  14
TORSDOF 7
ENDMDL
MODEL      172
REMARK 921   NORMALIZED FREE ENERGY PREDICTED BY IDOCK:   -3.64 KCAL/MOL
REMARK 922        TOTAL FREE ENERGY PREDICTED BY IDOCK:   -6.25 KCAL/MOL
REMARK 923 INTER-LIGAND FREE ENERGY PREDICTED BY IDOCK:   -5.52 KCAL/MOL
REMARK 924 INTRA-LIGAND FREE ENERGY PREDICTED BY IDOCK:   -0.72 KCAL/MOL
REMARK 927      BINDING AFFINITY PREDICTED BY RF-SCORE:    0.00 PKD
ROOT
HETATM    1  C   UNL     1     -10.508   8.105  68.450  1.00  0.00    -0.205 C  
HETATM    2  C   UNL     1     -10.783   9.419  68.444  1.00  0.00    -0.213 C  
ENDROOT
BRANCH   1   3
HETATM    3  C   UNL     1     -10.690   7.240  69.638  1.00  0.00    -0.236 C  
HETATM    4  O   UNL     1     -10.638   7.681  70.777  1.00  0.00    -0.216 OA 
BRANCH   3   5
HETATM    5  O   UNL     1     -10.726   5.936  69.283  1.00  0.00    -0.272 OA 
BRANCH   5   6
HETATM    6  C   UNL     1     -10.288   5.052  70.317  1.00  0.00    -0.229 C  
HETATM    7  C   UNL     1      -8.668   3.274  71.099  1.00  0.00    -0.125 C  
HETATM    8  C   UNL     1      -7.285   5.978  70.324  1.00  0.00    -0.076 C  
HETATM    9  C   UNL     1      -7.911   4.985  69.353  1.00  0.00    -0.075 C  
HETATM   10  C   UNL     1      -9.100   4.169  69.913  1.00  0.00    -0.179 C  
BRANCH   7  11
HETATM   11  C   UNL     1      -9.779   2.327  71.573  1.00  0.00    -0.224 C  
BRANCH  11  12
HETATM   12  C   UNL     1      -9.901   2.290  73.094  1.00  0.00    -0.165 C  
HETATM   13  C   UNL     1     -11.070   3.147  73.560  1.00  0.00    -0.316 C  
ENDBRANCH  11  12
ENDBRANCH   7  11
ENDBRANCH   5   6
ENDBRANCH   3   5
ENDBRANCH   1   3
BRANCH   2  14
HETATM   14  C   UNL     1     -10.731  10.191  67.207  1.00  0.00    -0.316 A  
HETATM   15  C   UNL     1     -10.693  11.636  64.803  1.00  0.00    -0.309 A  
HETATM   16  C   UNL     1     -10.012   9.715  66.110  1.00  0.00    -0.346 A  
HETATM   17  C   UNL     1     -11.426  11.400  67.104  1.00  0.00    -0.268 A  
HETATM   18  C   UNL     1      -9.992  10.435  64.910  1.00  0.00    -0.409 A  
HETATM   19  C   UNL     1     -11.413  12.111  65.902  1.00  0.00    -0.418 A  
BRANCH  15  20
HETATM   20  O   UNL     1     -10.799  12.394  63.669  1.00  0.00    -0.411 OA 
HETATM   21  C   UNL     1     -12.073  12.974  63.419  1.00  0.00    -0.515 C  
ENDBRANCH  15  20
ENDBRANCH   2  14
TORSDOF 7
ENDMDL
MODEL      173
REMARK 921   NORMALIZED FREE ENERGY PREDICTED BY IDOCK:   -3.63 KCAL/MOL
REMARK 922        TOTAL FREE ENERGY PREDICTED BY IDOCK:   -6.24 KCAL/MOL
REMARK 923 INTER-LIGAND FREE ENERGY PREDICTED BY IDOCK:   -5.38 KCAL/MOL
REMARK 924 INTRA-LIGAND FREE ENERGY PREDICTED BY IDOCK:   -0.86 KCAL/MOL
REMARK 927      BINDING AFFINITY PREDICTED BY RF-SCORE:    0.00 PKD
ROOT
HETATM    1  C   UNL     1      -9.521  10.318  69.402  1.00  0.00    -0.225 C  
HETATM    2  C   UNL     1     -10.814  10.565  69.136  1.00  0.00    -0.277 C  
ENDROOT
BRANCH   1   3
HETATM    3  C   UNL     1      -8.773   9.180  68.820  1.00  0.00    -0.132 C  
HETATM    4  O   UNL     1      -8.298   9.222  67.694  1.00  0.00    -0.115 OA 
BRANCH   3   5
HETATM    5  O   UNL     1      -8.864   8.089  69.614  1.00  0.00    -0.139 OA 
BRANCH   5   6
HETATM    6  C   UNL     1      -8.607   6.862  68.926  1.00  0.00    -0.131 C  
HETATM    7  C   UNL     1      -9.398   4.556  68.252  1.00  0.00    -0.190 C  
HETATM    8  C   UNL     1     -11.236   6.869  67.203  1.00  0.00    -0.218 C  
HETATM    9  C   UNL     1     -11.118   6.409  68.651  1.00  0.00    -0.393 C  
HETATM   10  C   UNL     1      -9.739   5.835  69.055  1.00  0.00    -0.180 C  
BRANCH   7  11
HETATM   11  C   UNL     1      -8.118   3.864  68.739  1.00  0.00    -0.075 C  
BRANCH  11  12
HETATM   12  C   UNL     1      -8.359   2.999  69.973  1.00  0.00    -0.080 C  
HETATM   13  C   UNL     1      -7.361   3.339  71.072  1.00  0.00    -0.033 C  
ENDBRANCH  11  12
ENDBRANCH   7  11
ENDBRANCH   5   6
ENDBRANCH   3   5
ENDBRANCH   1   3
BRANCH   2  14
HETATM   14  C   UNL     1     -11.458  11.784  69.614  1.00  0.00    -0.341 A  
HETATM   15  C   UNL     1     -12.634  14.145  70.572  1.00  0.00    -0.342 A  
HETATM   16  C   UNL     1     -12.161  11.782  70.820  1.00  0.00    -0.424 A  
HETATM   17  C   UNL     1     -11.351  12.969  68.880  1.00  0.00    -0.333 A  
HETATM   18  C   UNL     1     -12.749  12.959  71.298  1.00  0.00    -0.371 A  
HETATM   19  C   UNL     1     -11.928  14.144  69.365  1.00  0.00    -0.382 A  
BRANCH  15  20
HETATM   20  O   UNL     1     -13.108  15.365  70.965  1.00  0.00    -0.454 OA 
HETATM   21  C   UNL     1     -13.967  15.368  72.098  1.00  0.00    -0.549 C  
ENDBRANCH  15  20
ENDBRANCH   2  14
TORSDOF 7
ENDMDL
MODEL      174
REMARK 921   NORMALIZED FREE ENERGY PREDICTED BY IDOCK:   -3.63 KCAL/MOL
REMARK 922        TOTAL FREE ENERGY PREDICTED BY IDOCK:   -6.23 KCAL/MOL
REMARK 923 INTER-LIGAND FREE ENERGY PREDICTED BY IDOCK:   -5.33 KCAL/MOL
REMARK 924 INTRA-LIGAND FREE ENERGY PREDICTED BY IDOCK:   -0.90 KCAL/MOL
REMARK 927      BINDING AFFINITY PREDICTED BY RF-SCORE:    0.00 PKD
ROOT
HETATM    1  C   UNL     1      -9.295   9.551  69.851  1.00  0.00    -0.247 C  
HETATM    2  C   UNL     1      -8.893  10.562  69.063  1.00  0.00    -0.174 C  
ENDROOT
BRANCH   1   3
HETATM    3  C   UNL     1      -8.455   8.973  70.925  1.00  0.00    -0.208 C  
HETATM    4  O   UNL     1      -7.508   9.579  71.407  1.00  0.00    -0.326 OA 
BRANCH   3   5
HETATM    5  O   UNL     1      -8.768   7.675  71.134  1.00  0.00    -0.132 OA 
BRANCH   5   6
HETATM    6  C   UNL     1      -9.130   6.977  69.940  1.00  0.00    -0.141 C  
HETATM    7  C   UNL     1     -10.441   5.116  68.837  1.00  0.00    -0.131 C  
HETATM    8  C   UNL     1     -12.241   7.203  70.333  1.00  0.00    -0.083 C  
HETATM    9  C   UNL     1     -11.329   6.175  70.991  1.00  0.00    -0.348 C  
HETATM   10  C   UNL     1     -10.069   5.788  70.181  1.00  0.00    -0.274 C  
BRANCH   7  11
HETATM   11  C   UNL     1      -9.223   4.569  68.082  1.00  0.00    -0.170 C  
BRANCH  11  12
HETATM   12  C   UNL     1      -9.127   5.116  66.660  1.00  0.00    -0.120 C  
HETATM   13  C   UNL     1     -10.190   4.488  65.769  1.00  0.00    -0.289 C  
ENDBRANCH  11  12
ENDBRANCH   7  11
ENDBRANCH   5   6
ENDBRANCH   3   5
ENDBRANCH   1   3
BRANCH   2  14
HETATM   14  C   UNL     1      -9.816  11.193  68.125  1.00  0.00    -0.188 A  
HETATM   15  C   UNL     1     -11.628  12.342  66.317  1.00  0.00    -0.385 A  
HETATM   16  C   UNL     1      -9.578  11.127  66.751  1.00  0.00    -0.215 A  
HETATM   17  C   UNL     1     -10.959  11.845  68.596  1.00  0.00    -0.271 A  
HETATM   18  C   UNL     1     -10.481  11.700  65.849  1.00  0.00    -0.300 A  
HETATM   19  C   UNL     1     -11.864  12.407  67.693  1.00  0.00    -0.363 A  
BRANCH  15  20
HETATM   20  O   UNL     1     -12.610  12.881  65.534  1.00  0.00    -0.559 OA 
HETATM   21  C   UNL     1     -12.405  12.805  64.129  1.00  0.00    -0.407 C  
ENDBRANCH  15  20
ENDBRANCH   2  14
TORSDOF 7
ENDMDL
MODEL      175
REMARK 921   NORMALIZED FREE ENERGY PREDICTED BY IDOCK:   -3.59 KCAL/MOL
REMARK 922        TOTAL FREE ENERGY PREDICTED BY IDOCK:   -6.19 KCAL/MOL
REMARK 923 INTER-LIGAND FREE ENERGY PREDICTED BY IDOCK:   -5.68 KCAL/MOL
REMARK 924 INTRA-LIGAND FREE ENERGY PREDICTED BY IDOCK:   -0.50 KCAL/MOL
REMARK 927      BINDING AFFINITY PREDICTED BY RF-SCORE:    0.00 PKD
ROOT
HETATM    1  C   UNL     1     -11.056  11.690  68.435  1.00  0.00    -0.285 C  
HETATM    2  C   UNL     1     -10.155  10.826  67.939  1.00  0.00    -0.197 C  
ENDROOT
BRANCH   1   3
HETATM    3  C   UNL     1     -11.055  13.137  68.122  1.00  0.00    -0.255 C  
HETATM    4  O   UNL     1     -12.084  13.751  67.880  1.00  0.00    -0.365 OA 
BRANCH   3   5
HETATM    5  O   UNL     1      -9.791  13.594  67.967  1.00  0.00    -0.228 OA 
BRANCH   5   6
HETATM    6  C   UNL     1      -9.725  14.980  67.623  1.00  0.00    -0.215 C  
HETATM    7  C   UNL     1      -8.807  17.286  68.108  1.00  0.00    -0.239 C  
HETATM    8  C   UNL     1      -6.590  15.158  67.486  1.00  0.00    -0.167 C  
HETATM    9  C   UNL     1      -7.435  15.224  68.752  1.00  0.00    -0.135 C  
HETATM   10  C   UNL     1      -8.855  15.811  68.574  1.00  0.00    -0.193 C  
BRANCH   7  11
HETATM   11  C   UNL     1     -10.188  17.953  68.080  1.00  0.00    -0.386 C  
BRANCH  11  12
HETATM   12  C   UNL     1     -10.114  19.454  68.347  1.00  0.00    -0.538 C  
HETATM   13  C   UNL     1     -10.396  20.241  67.075  1.00  0.00    -0.421 C  
ENDBRANCH  11  12
ENDBRANCH   7  11
ENDBRANCH   5   6
ENDBRANCH   3   5
ENDBRANCH   1   3
BRANCH   2  14
HETATM   14  C   UNL     1     -10.294   9.390  68.157  1.00  0.00    -0.255 A  
HETATM   15  C   UNL     1     -10.486   6.622  68.568  1.00  0.00    -0.213 A  
HETATM   16  C   UNL     1     -10.436   8.524  67.071  1.00  0.00    -0.362 A  
HETATM   17  C   UNL     1     -10.258   8.869  69.454  1.00  0.00    -0.210 A  
HETATM   18  C   UNL     1     -10.532   7.143  67.276  1.00  0.00    -0.372 A  
HETATM   19  C   UNL     1     -10.343   7.490  69.654  1.00  0.00    -0.225 A  
BRANCH  15  20
HETATM   20  O   UNL     1     -10.507   5.293  68.888  1.00  0.00    -0.193 OA 
HETATM   21  C   UNL     1     -10.378   4.977  70.268  1.00  0.00    -0.229 C  
ENDBRANCH  15  20
ENDBRANCH   2  14
TORSDOF 7
ENDMDL
MODEL      176
REMARK 921   NORMALIZED FREE ENERGY PREDICTED BY IDOCK:   -3.59 KCAL/MOL
REMARK 922        TOTAL FREE ENERGY PREDICTED BY IDOCK:   -6.18 KCAL/MOL
REMARK 923 INTER-LIGAND FREE ENERGY PREDICTED BY IDOCK:   -5.62 KCAL/MOL
REMARK 924 INTRA-LIGAND FREE ENERGY PREDICTED BY IDOCK:   -0.56 KCAL/MOL
REMARK 927      BINDING AFFINITY PREDICTED BY RF-SCORE:    0.00 PKD
ROOT
HETATM    1  C   UNL     1     -10.354   6.407  68.916  1.00  0.00    -0.237 C  
HETATM    2  C   UNL     1     -11.039   6.552  70.062  1.00  0.00    -0.422 C  
ENDROOT
BRANCH   1   3
HETATM    3  C   UNL     1     -10.569   7.261  67.726  1.00  0.00    -0.221 C  
HETATM    4  O   UNL     1     -11.100   6.837  66.709  1.00  0.00    -0.338 OA 
BRANCH   3   5
HETATM    5  O   UNL     1      -9.946   8.453  67.870  1.00  0.00    -0.166 OA 
BRANCH   5   6
HETATM    6  C   UNL     1     -10.658   9.542  67.278  1.00  0.00    -0.248 C  
HETATM    7  C   UNL     1     -10.595  11.786  66.113  1.00  0.00    -0.301 C  
HETATM    8  C   UNL     1      -9.129   9.510  64.532  1.00  0.00    -0.250 C  
HETATM    9  C   UNL     1      -8.640  10.161  65.820  1.00  0.00    -0.159 C  
HETATM   10  C   UNL     1      -9.749  10.669  66.771  1.00  0.00    -0.222 C  
BRANCH   7  11
HETATM   11  C   UNL     1     -11.596  12.431  67.080  1.00  0.00    -0.435 C  
BRANCH  11  12
HETATM   12  C   UNL     1     -12.015  13.830  66.636  1.00  0.00    -0.469 C  
HETATM   13  C   UNL     1     -12.615  13.793  65.237  1.00  0.00    -0.510 C  
ENDBRANCH  11  12
ENDBRANCH   7  11
ENDBRANCH   5   6
ENDBRANCH   3   5
ENDBRANCH   1   3
BRANCH   2  14
HETATM   14  C   UNL     1     -10.681   5.786  71.251  1.00  0.00    -0.323 A  
HETATM   15  C   UNL     1     -10.029   4.253  73.509  1.00  0.00    -0.132 A  
HETATM   16  C   UNL     1     -11.546   5.739  72.345  1.00  0.00    -0.320 A  
HETATM   17  C   UNL     1      -9.480   5.070  71.291  1.00  0.00    -0.209 A  
HETATM   18  C   UNL     1     -11.221   4.975  73.472  1.00  0.00    -0.341 A  
HETATM   19  C   UNL     1      -9.164   4.301  72.412  1.00  0.00    -0.149 A  
BRANCH  15  20
HETATM   20  O   UNL     1      -9.634   3.425  74.523  1.00  0.00    -0.096 OA 
HETATM   21  C   UNL     1      -8.399   2.746  74.334  1.00  0.00    -0.068 C  
ENDBRANCH  15  20
ENDBRANCH   2  14
TORSDOF 7
ENDMDL
MODEL      177
REMARK 921   NORMALIZED FREE ENERGY PREDICTED BY IDOCK:   -3.54 KCAL/MOL
REMARK 922        TOTAL FREE ENERGY PREDICTED BY IDOCK:   -6.12 KCAL/MOL
REMARK 923 INTER-LIGAND FREE ENERGY PREDICTED BY IDOCK:   -5.59 KCAL/MOL
REMARK 924 INTRA-LIGAND FREE ENERGY PREDICTED BY IDOCK:   -0.53 KCAL/MOL
REMARK 927      BINDING AFFINITY PREDICTED BY RF-SCORE:    0.00 PKD
ROOT
HETATM    1  C   UNL     1      -8.518  10.019  66.754  1.00  0.00    -0.125 C  
HETATM    2  C   UNL     1      -9.666   9.324  66.819  1.00  0.00    -0.260 C  
ENDROOT
BRANCH   1   3
HETATM    3  C   UNL     1      -8.409  11.448  67.126  1.00  0.00    -0.155 C  
HETATM    4  O   UNL     1      -7.779  11.818  68.106  1.00  0.00    -0.109 OA 
BRANCH   3   5
HETATM    5  O   UNL     1      -9.228  12.207  66.364  1.00  0.00    -0.219 OA 
BRANCH   5   6
HETATM    6  C   UNL     1     -10.229  12.896  67.116  1.00  0.00    -0.239 C  
HETATM    7  C   UNL     1     -11.426  15.060  67.646  1.00  0.00    -0.344 C  
HETATM    8  C   UNL     1     -11.699  14.178  64.651  1.00  0.00    -0.427 C  
HETATM    9  C   UNL     1     -10.435  14.711  65.313  1.00  0.00    -0.420 C  
HETATM   10  C   UNL     1     -10.294  14.401  66.822  1.00  0.00    -0.273 C  
BRANCH   7  11
HETATM   11  C   UNL     1     -11.229  14.916  69.161  1.00  0.00    -0.293 C  
BRANCH  11  12
HETATM   12  C   UNL     1     -12.375  14.159  69.827  1.00  0.00    -0.350 C  
HETATM   13  C   UNL     1     -12.291  14.281  71.342  1.00  0.00    -0.431 C  
ENDBRANCH  11  12
ENDBRANCH   7  11
ENDBRANCH   5   6
ENDBRANCH   3   5
ENDBRANCH   1   3
BRANCH   2  14
HETATM   14  C   UNL     1      -9.685   7.884  66.588  1.00  0.00    -0.305 A  
HETATM   15  C   UNL     1      -9.761   5.126  66.081  1.00  0.00    -0.176 A  
HETATM   16  C   UNL     1     -10.742   7.108  67.067  1.00  0.00    -0.420 A  
HETATM   17  C   UNL     1      -8.657   7.276  65.861  1.00  0.00    -0.159 A  
HETATM   18  C   UNL     1     -10.780   5.732  66.815  1.00  0.00    -0.369 A  
HETATM   19  C   UNL     1      -8.704   5.905  65.602  1.00  0.00    -0.149 A  
BRANCH  15  20
HETATM   20  O   UNL     1      -9.721   3.808  65.718  1.00  0.00    -0.179 OA 
HETATM   21  C   UNL     1     -10.006   3.523  64.355  1.00  0.00    -0.185 C  
ENDBRANCH  15  20
ENDBRANCH   2  14
TORSDOF 7
ENDMDL
MODEL      178
REMARK 921   NORMALIZED FREE ENERGY PREDICTED BY IDOCK:   -3.53 KCAL/MOL
REMARK 922        TOTAL FREE ENERGY PREDICTED BY IDOCK:   -6.10 KCAL/MOL
REMARK 923 INTER-LIGAND FREE ENERGY PREDICTED BY IDOCK:   -4.89 KCAL/MOL
REMARK 924 INTRA-LIGAND FREE ENERGY PREDICTED BY IDOCK:   -1.21 KCAL/MOL
REMARK 927      BINDING AFFINITY PREDICTED BY RF-SCORE:    0.00 PKD
ROOT
HETATM    1  C   UNL     1      -9.673   5.692  67.614  1.00  0.00    -0.135 C  
HETATM    2  C   UNL     1     -10.805   5.879  68.313  1.00  0.00    -0.325 C  
ENDROOT
BRANCH   1   3
HETATM    3  C   UNL     1      -9.595   5.828  66.141  1.00  0.00    -0.099 C  
HETATM    4  O   UNL     1      -9.974   4.944  65.386  1.00  0.00    -0.123 OA 
BRANCH   3   5
HETATM    5  O   UNL     1      -8.901   6.935  65.797  1.00  0.00    -0.145 OA 
BRANCH   5   6
HETATM    6  C   UNL     1      -9.539   8.153  66.190  1.00  0.00    -0.118 C  
HETATM    7  C   UNL     1      -9.390  10.391  67.359  1.00  0.00    -0.162 C  
HETATM    8  C   UNL     1      -7.383  10.089  64.970  1.00  0.00    -0.140 C  
HETATM    9  C   UNL     1      -7.287   9.376  66.314  1.00  0.00    -0.096 C  
HETATM   10  C   UNL     1      -8.637   9.085  67.010  1.00  0.00    -0.120 C  
BRANCH   7  11
HETATM   11  C   UNL     1     -10.653  10.150  68.198  1.00  0.00    -0.262 C  
BRANCH  11  12
HETATM   12  C   UNL     1     -10.330   9.840  69.657  1.00  0.00    -0.259 C  
HETATM   13  C   UNL     1     -11.417  10.383  70.575  1.00  0.00    -0.431 C  
ENDBRANCH  11  12
ENDBRANCH   7  11
ENDBRANCH   5   6
ENDBRANCH   3   5
ENDBRANCH   1   3
BRANCH   2  14
HETATM   14  C   UNL     1     -10.792   5.884  69.772  1.00  0.00    -0.447 A  
HETATM   15  C   UNL     1     -10.724   5.955  72.576  1.00  0.00    -0.234 A  
HETATM   16  C   UNL     1      -9.788   5.210  70.470  1.00  0.00    -0.285 A  
HETATM   17  C   UNL     1     -11.770   6.588  70.480  1.00  0.00    -0.438 A  
HETATM   18  C   UNL     1      -9.754   5.244  71.868  1.00  0.00    -0.204 A  
HETATM   19  C   UNL     1     -11.727   6.629  71.875  1.00  0.00    -0.355 A  
BRANCH  15  20
HETATM   20  O   UNL     1     -10.758   6.113  73.933  1.00  0.00    -0.249 OA 
HETATM   21  C   UNL     1      -9.530   6.473  74.554  1.00  0.00    -0.260 C  
ENDBRANCH  15  20
ENDBRANCH   2  14
TORSDOF 7
ENDMDL
MODEL      179
REMARK 921   NORMALIZED FREE ENERGY PREDICTED BY IDOCK:   -3.51 KCAL/MOL
REMARK 922        TOTAL FREE ENERGY PREDICTED BY IDOCK:   -6.07 KCAL/MOL
REMARK 923 INTER-LIGAND FREE ENERGY PREDICTED BY IDOCK:   -5.01 KCAL/MOL
REMARK 924 INTRA-LIGAND FREE ENERGY PREDICTED BY IDOCK:   -1.06 KCAL/MOL
REMARK 927      BINDING AFFINITY PREDICTED BY RF-SCORE:    0.00 PKD
ROOT
HETATM    1  C   UNL     1      -8.291   8.889  69.553  1.00  0.00    -0.119 C  
HETATM    2  C   UNL     1      -8.590   9.012  68.250  1.00  0.00    -0.130 C  
ENDROOT
BRANCH   1   3
HETATM    3  C   UNL     1      -7.237   7.983  70.064  1.00  0.00    -0.061 C  
HETATM    4  O   UNL     1      -6.055   8.143  69.794  1.00  0.00    -0.029 OA 
BRANCH   3   5
HETATM    5  O   UNL     1      -7.782   6.909  70.678  1.00  0.00    -0.093 OA 
BRANCH   5   6
HETATM    6  C   UNL     1      -9.122   7.128  71.125  1.00  0.00    -0.152 C  
HETATM    7  C   UNL     1     -11.485   6.262  71.377  1.00  0.00    -0.352 C  
HETATM    8  C   UNL     1      -9.345   4.515  72.858  1.00  0.00    -0.145 C  
HETATM    9  C   UNL     1      -9.535   4.605  71.349  1.00  0.00    -0.217 C  
HETATM   10  C   UNL     1     -10.071   5.959  70.827  1.00  0.00    -0.253 C  
BRANCH   7  11
HETATM   11  C   UNL     1     -12.119   7.512  70.753  1.00  0.00    -0.190 C  
BRANCH  11  12
HETATM   12  C   UNL     1     -13.108   8.194  71.694  1.00  0.00    -0.358 C  
HETATM   13  C   UNL     1     -13.048   9.707  71.533  1.00  0.00    -0.488 C  
ENDBRANCH  11  12
ENDBRANCH   7  11
ENDBRANCH   5   6
ENDBRANCH   3   5
ENDBRANCH   1   3
BRANCH   2  14
HETATM   14  C   UNL     1      -9.530  10.030  67.790  1.00  0.00    -0.157 A  
HETATM   15  C   UNL     1     -11.366  11.934  66.858  1.00  0.00    -0.330 A  
HETATM   16  C   UNL     1      -9.227  10.815  66.676  1.00  0.00    -0.184 A  
HETATM   17  C   UNL     1     -10.752  10.205  68.445  1.00  0.00    -0.266 A  
HETATM   18  C   UNL     1     -10.142  11.765  66.211  1.00  0.00    -0.248 A  
HETATM   19  C   UNL     1     -11.667  11.147  67.972  1.00  0.00    -0.288 A  
BRANCH  15  20
HETATM   20  O   UNL     1     -12.362  12.782  66.461  1.00  0.00    -0.476 OA 
HETATM   21  C   UNL     1     -12.486  12.993  65.060  1.00  0.00    -0.477 C  
ENDBRANCH  15  20
ENDBRANCH   2  14
TORSDOF 7
ENDMDL
MODEL      180
REMARK 921   NORMALIZED FREE ENERGY PREDICTED BY IDOCK:   -3.51 KCAL/MOL
REMARK 922        TOTAL FREE ENERGY PREDICTED BY IDOCK:   -6.07 KCAL/MOL
REMARK 923 INTER-LIGAND FREE ENERGY PREDICTED BY IDOCK:   -6.22 KCAL/MOL
REMARK 924 INTRA-LIGAND FREE ENERGY PREDICTED BY IDOCK:    0.15 KCAL/MOL
REMARK 927      BINDING AFFINITY PREDICTED BY RF-SCORE:    0.00 PKD
ROOT
HETATM    1  C   UNL     1     -10.913  11.888  68.326  1.00  0.00    -0.273 C  
HETATM    2  C   UNL     1     -11.823  11.555  69.256  1.00  0.00    -0.414 C  
ENDROOT
BRANCH   1   3
HETATM    3  C   UNL     1     -10.542  11.004  67.198  1.00  0.00    -0.250 C  
HETATM    4  O   UNL     1     -10.086  11.442  66.151  1.00  0.00    -0.216 OA 
BRANCH   3   5
HETATM    5  O   UNL     1     -10.946   9.735  67.428  1.00  0.00    -0.259 OA 
BRANCH   5   6
HETATM    6  C   UNL     1     -10.036   8.749  66.935  1.00  0.00    -0.278 C  
HETATM    7  C   UNL     1      -8.328   6.948  67.421  1.00  0.00    -0.122 C  
HETATM    8  C   UNL     1     -11.155   6.355  68.637  1.00  0.00    -0.393 C  
HETATM    9  C   UNL     1     -10.179   7.418  69.124  1.00  0.00    -0.196 C  
HETATM   10  C   UNL     1      -9.257   8.021  68.038  1.00  0.00    -0.139 C  
BRANCH   7  11
HETATM   11  C   UNL     1      -7.285   7.536  66.461  1.00  0.00    -0.076 C  
BRANCH  11  12
HETATM   12  C   UNL     1      -7.446   9.043  66.280  1.00  0.00    -0.092 C  
HETATM   13  C   UNL     1      -6.095   9.741  66.353  1.00  0.00    -0.064 C  
ENDBRANCH  11  12
ENDBRANCH   7  11
ENDBRANCH   5   6
ENDBRANCH   3   5
ENDBRANCH   1   3
BRANCH   2  14
HETATM   14  C   UNL     1     -12.261  12.523  70.256  1.00  0.00    -0.345 A  
HETATM   15  C   UNL     1     -13.041  14.372  72.217  1.00  0.00    -0.389 A  
HETATM   16  C   UNL     1     -12.990  12.104  71.371  1.00  0.00    -0.357 A  
HETATM   17  C   UNL     1     -11.930  13.874  70.118  1.00  0.00    -0.402 A  
HETATM   18  C   UNL     1     -13.379  13.025  72.349  1.00  0.00    -0.563 A  
HETATM   19  C   UNL     1     -12.311  14.789  71.101  1.00  0.00    -0.397 A  
BRANCH  15  20
HETATM   20  O   UNL     1     -13.309  15.350  73.134  1.00  0.00    -0.484 OA 
HETATM   21  C   UNL     1     -12.242  16.241  73.432  1.00  0.00    -0.516 C  
ENDBRANCH  15  20
ENDBRANCH   2  14
TORSDOF 7
ENDMDL
MODEL      181
REMARK 921   NORMALIZED FREE ENERGY PREDICTED BY IDOCK:   -3.50 KCAL/MOL
REMARK 922        TOTAL FREE ENERGY PREDICTED BY IDOCK:   -6.06 KCAL/MOL
REMARK 923 INTER-LIGAND FREE ENERGY PREDICTED BY IDOCK:   -5.09 KCAL/MOL
REMARK 924 INTRA-LIGAND FREE ENERGY PREDICTED BY IDOCK:   -0.97 KCAL/MOL
REMARK 927      BINDING AFFINITY PREDICTED BY RF-SCORE:    0.00 PKD
ROOT
HETATM    1  C   UNL     1      -8.730   7.238  67.732  1.00  0.00    -0.126 C  
HETATM    2  C   UNL     1      -8.852   6.043  68.333  1.00  0.00    -0.112 C  
ENDROOT
BRANCH   1   3
HETATM    3  C   UNL     1      -8.129   7.417  66.391  1.00  0.00    -0.118 C  
HETATM    4  O   UNL     1      -6.980   7.081  66.142  1.00  0.00    -0.062 OA 
BRANCH   3   5
HETATM    5  O   UNL     1      -8.943   8.145  65.593  1.00  0.00    -0.158 OA 
BRANCH   5   6
HETATM    6  C   UNL     1      -9.981   8.823  66.305  1.00  0.00    -0.245 C  
HETATM    7  C   UNL     1     -10.907  10.986  67.235  1.00  0.00    -0.335 C  
HETATM    8  C   UNL     1     -10.524  11.021  64.124  1.00  0.00    -0.434 C  
HETATM    9  C   UNL     1      -9.408  11.048  65.161  1.00  0.00    -0.249 C  
HETATM   10  C   UNL     1      -9.721  10.324  66.492  1.00  0.00    -0.243 C  
BRANCH   7  11
HETATM   11  C   UNL     1     -11.140  10.402  68.635  1.00  0.00    -0.313 C  
BRANCH  11  12
HETATM   12  C   UNL     1     -12.259  11.120  69.384  1.00  0.00    -0.329 C  
HETATM   13  C   UNL     1     -12.282  10.700  70.848  1.00  0.00    -0.497 C  
ENDBRANCH  11  12
ENDBRANCH   7  11
ENDBRANCH   5   6
ENDBRANCH   3   5
ENDBRANCH   1   3
BRANCH   2  14
HETATM   14  C   UNL     1      -9.588   5.905  69.585  1.00  0.00    -0.183 A  
HETATM   15  C   UNL     1     -11.049   5.588  71.959  1.00  0.00    -0.184 A  
HETATM   16  C   UNL     1     -10.716   6.690  69.829  1.00  0.00    -0.304 A  
HETATM   17  C   UNL     1      -9.184   4.964  70.537  1.00  0.00    -0.196 A  
HETATM   18  C   UNL     1     -11.445   6.533  71.013  1.00  0.00    -0.392 A  
HETATM   19  C   UNL     1      -9.920   4.802  71.712  1.00  0.00    -0.255 A  
BRANCH  15  20
HETATM   20  O   UNL     1     -11.713   5.301  73.119  1.00  0.00    -0.268 OA 
HETATM   21  C   UNL     1     -11.478   4.013  73.675  1.00  0.00    -0.089 C  
ENDBRANCH  15  20
ENDBRANCH   2  14
TORSDOF 7
ENDMDL
MODEL      182
REMARK 921   NORMALIZED FREE ENERGY PREDICTED BY IDOCK:   -3.49 KCAL/MOL
REMARK 922        TOTAL FREE ENERGY PREDICTED BY IDOCK:   -6.04 KCAL/MOL
REMARK 923 INTER-LIGAND FREE ENERGY PREDICTED BY IDOCK:   -5.02 KCAL/MOL
REMARK 924 INTRA-LIGAND FREE ENERGY PREDICTED BY IDOCK:   -1.02 KCAL/MOL
REMARK 927      BINDING AFFINITY PREDICTED BY RF-SCORE:    0.00 PKD
ROOT
HETATM    1  C   UNL     1      -9.183   7.149  70.466  1.00  0.00    -0.158 C  
HETATM    2  C   UNL     1      -9.451   7.485  69.194  1.00  0.00    -0.150 C  
ENDROOT
BRANCH   1   3
HETATM    3  C   UNL     1      -9.339   8.082  71.605  1.00  0.00    -0.160 C  
HETATM    4  O   UNL     1      -8.511   8.945  71.857  1.00  0.00    -0.348 OA 
BRANCH   3   5
HETATM    5  O   UNL     1     -10.383   7.718  72.384  1.00  0.00    -0.215 OA 
BRANCH   5   6
HETATM    6  C   UNL     1     -11.414   8.706  72.451  1.00  0.00    -0.299 C  
HETATM    7  C   UNL     1     -13.463   9.765  71.413  1.00  0.00    -0.397 C  
HETATM    8  C   UNL     1     -13.824   6.723  72.077  1.00  0.00    -0.065 C  
HETATM    9  C   UNL     1     -12.958   7.297  70.963  1.00  0.00    -0.233 C  
HETATM   10  C   UNL     1     -12.358   8.695  71.241  1.00  0.00    -0.298 C  
BRANCH   7  11
HETATM   11  C   UNL     1     -12.908  11.191  71.525  1.00  0.00    -0.542 C  
BRANCH  11  12
HETATM   12  C   UNL     1     -12.221  11.649  70.241  1.00  0.00    -0.401 C  
HETATM   13  C   UNL     1     -12.294  13.164  70.103  1.00  0.00    -0.284 C  
ENDBRANCH  11  12
ENDBRANCH   7  11
ENDBRANCH   5   6
ENDBRANCH   3   5
ENDBRANCH   1   3
BRANCH   2  14
HETATM   14  C   UNL     1      -9.427   6.484  68.132  1.00  0.00    -0.114 A  
HETATM   15  C   UNL     1      -9.387   4.505  66.144  1.00  0.00    -0.156 A  
HETATM   16  C   UNL     1      -8.220   5.904  67.738  1.00  0.00    -0.105 A  
HETATM   17  C   UNL     1     -10.618   6.078  67.522  1.00  0.00    -0.345 A  
HETATM   18  C   UNL     1      -8.199   4.918  66.746  1.00  0.00    -0.107 A  
HETATM   19  C   UNL     1     -10.595   5.086  66.540  1.00  0.00    -0.289 A  
BRANCH  15  20
HETATM   20  O   UNL     1      -9.500   3.510  65.213  1.00  0.00    -0.153 OA 
HETATM   21  C   UNL     1     -10.562   3.644  64.277  1.00  0.00    -0.199 C  
ENDBRANCH  15  20
ENDBRANCH   2  14
TORSDOF 7
ENDMDL
MODEL      183
REMARK 921   NORMALIZED FREE ENERGY PREDICTED BY IDOCK:   -3.47 KCAL/MOL
REMARK 922        TOTAL FREE ENERGY PREDICTED BY IDOCK:   -6.01 KCAL/MOL
REMARK 923 INTER-LIGAND FREE ENERGY PREDICTED BY IDOCK:   -4.77 KCAL/MOL
REMARK 924 INTRA-LIGAND FREE ENERGY PREDICTED BY IDOCK:   -1.24 KCAL/MOL
REMARK 927      BINDING AFFINITY PREDICTED BY RF-SCORE:    0.00 PKD
ROOT
HETATM    1  C   UNL     1     -10.490  13.595  67.130  1.00  0.00    -0.264 C  
HETATM    2  C   UNL     1     -10.616  14.660  66.321  1.00  0.00    -0.306 C  
ENDROOT
BRANCH   1   3
HETATM    3  C   UNL     1     -11.081  12.271  66.830  1.00  0.00    -0.290 C  
HETATM    4  O   UNL     1     -12.255  12.016  67.060  1.00  0.00    -0.516 OA 
BRANCH   3   5
HETATM    5  O   UNL     1     -10.124  11.389  66.465  1.00  0.00    -0.205 OA 
BRANCH   5   6
HETATM    6  C   UNL     1      -8.819  11.967  66.379  1.00  0.00    -0.152 C  
HETATM    7  C   UNL     1      -6.386  11.923  67.068  1.00  0.00    -0.141 C  
HETATM    8  C   UNL     1      -7.316   9.323  65.585  1.00  0.00    -0.093 C  
HETATM    9  C   UNL     1      -7.713   9.736  66.997  1.00  0.00    -0.095 C  
HETATM   10  C   UNL     1      -7.773  11.261  67.251  1.00  0.00    -0.138 C  
BRANCH   7  11
HETATM   11  C   UNL     1      -6.369  13.404  67.472  1.00  0.00    -0.112 C  
BRANCH  11  12
HETATM   12  C   UNL     1      -6.699  13.607  68.948  1.00  0.00    -0.108 C  
HETATM   13  C   UNL     1      -6.851  15.088  69.266  1.00  0.00    -0.149 C  
ENDBRANCH  11  12
ENDBRANCH   7  11
ENDBRANCH   5   6
ENDBRANCH   3   5
ENDBRANCH   1   3
BRANCH   2  14
HETATM   14  C   UNL     1      -9.887  15.895  66.589  1.00  0.00    -0.267 A  
HETATM   15  C   UNL     1      -8.459  18.240  67.168  1.00  0.00    -0.250 A  
HETATM   16  C   UNL     1     -10.489  16.926  67.312  1.00  0.00    -0.301 A  
HETATM   17  C   UNL     1      -8.569  16.042  66.146  1.00  0.00    -0.315 A  
HETATM   18  C   UNL     1      -9.778  18.096  67.601  1.00  0.00    -0.293 A  
HETATM   19  C   UNL     1      -7.859  17.207  66.445  1.00  0.00    -0.352 A  
BRANCH  15  20
HETATM   20  O   UNL     1      -7.647  19.305  67.442  1.00  0.00    -0.232 OA 
HETATM   21  C   UNL     1      -7.985  20.532  66.809  1.00  0.00    -0.189 C  
ENDBRANCH  15  20
ENDBRANCH   2  14
TORSDOF 7
ENDMDL
MODEL      184
REMARK 921   NORMALIZED FREE ENERGY PREDICTED BY IDOCK:   -3.46 KCAL/MOL
REMARK 922        TOTAL FREE ENERGY PREDICTED BY IDOCK:   -6.00 KCAL/MOL
REMARK 923 INTER-LIGAND FREE ENERGY PREDICTED BY IDOCK:   -5.18 KCAL/MOL
REMARK 924 INTRA-LIGAND FREE ENERGY PREDICTED BY IDOCK:   -0.82 KCAL/MOL
REMARK 927      BINDING AFFINITY PREDICTED BY RF-SCORE:    0.00 PKD
ROOT
HETATM    1  C   UNL     1      -8.570  10.258  69.488  1.00  0.00    -0.153 C  
HETATM    2  C   UNL     1      -9.553  10.202  68.576  1.00  0.00    -0.158 C  
ENDROOT
BRANCH   1   3
HETATM    3  C   UNL     1      -7.915   9.055  70.053  1.00  0.00    -0.113 C  
HETATM    4  O   UNL     1      -7.041   9.130  70.905  1.00  0.00    -0.087 OA 
BRANCH   3   5
HETATM    5  O   UNL     1      -8.281   7.945  69.374  1.00  0.00    -0.126 OA 
BRANCH   5   6
HETATM    6  C   UNL     1      -9.008   7.005  70.170  1.00  0.00    -0.145 C  
HETATM    7  C   UNL     1     -11.227   5.976  70.811  1.00  0.00    -0.340 C  
HETATM    8  C   UNL     1     -10.502   5.607  67.784  1.00  0.00    -0.275 C  
HETATM    9  C   UNL     1     -10.911   6.914  68.452  1.00  0.00    -0.198 C  
HETATM   10  C   UNL     1     -10.525   7.047  69.943  1.00  0.00    -0.234 C  
BRANCH   7  11
HETATM   11  C   UNL     1     -11.001   6.177  72.316  1.00  0.00    -0.302 C  
BRANCH  11  12
HETATM   12  C   UNL     1     -11.037   4.862  73.090  1.00  0.00    -0.396 C  
HETATM   13  C   UNL     1      -9.803   4.024  72.783  1.00  0.00    -0.200 C  
ENDBRANCH  11  12
ENDBRANCH   7  11
ENDBRANCH   5   6
ENDBRANCH   3   5
ENDBRANCH   1   3
BRANCH   2  14
HETATM   14  C   UNL     1     -10.056  11.417  67.941  1.00  0.00    -0.198 A  
HETATM   15  C   UNL     1     -11.041  13.710  66.660  1.00  0.00    -0.306 A  
HETATM   16  C   UNL     1      -9.213  12.198  67.149  1.00  0.00    -0.193 A  
HETATM   17  C   UNL     1     -11.394  11.790  68.101  1.00  0.00    -0.348 A  
HETATM   18  C   UNL     1      -9.703  13.343  66.510  1.00  0.00    -0.284 A  
HETATM   19  C   UNL     1     -11.882  12.926  67.453  1.00  0.00    -0.418 A  
BRANCH  15  20
HETATM   20  O   UNL     1     -11.647  14.766  66.039  1.00  0.00    -0.349 OA 
HETATM   21  C   UNL     1     -11.406  14.896  64.644  1.00  0.00    -0.357 C  
ENDBRANCH  15  20
ENDBRANCH   2  14
TORSDOF 7
ENDMDL
MODEL      185
REMARK 921   NORMALIZED FREE ENERGY PREDICTED BY IDOCK:   -3.44 KCAL/MOL
REMARK 922        TOTAL FREE ENERGY PREDICTED BY IDOCK:   -5.97 KCAL/MOL
REMARK 923 INTER-LIGAND FREE ENERGY PREDICTED BY IDOCK:   -5.08 KCAL/MOL
REMARK 924 INTRA-LIGAND FREE ENERGY PREDICTED BY IDOCK:   -0.90 KCAL/MOL
REMARK 927      BINDING AFFINITY PREDICTED BY RF-SCORE:    0.00 PKD
ROOT
HETATM    1  C   UNL     1     -10.350  10.436  67.737  1.00  0.00    -0.245 C  
HETATM    2  C   UNL     1     -11.501  11.112  67.586  1.00  0.00    -0.328 C  
ENDROOT
BRANCH   1   3
HETATM    3  C   UNL     1      -9.929   9.334  66.842  1.00  0.00    -0.233 C  
HETATM    4  O   UNL     1     -10.451   8.228  66.883  1.00  0.00    -0.319 OA 
BRANCH   3   5
HETATM    5  O   UNL     1      -8.816   9.671  66.154  1.00  0.00    -0.142 OA 
BRANCH   5   6
HETATM    6  C   UNL     1      -8.047  10.699  66.783  1.00  0.00    -0.131 C  
HETATM    7  C   UNL     1      -5.875  11.422  67.859  1.00  0.00    -0.044 C  
HETATM    8  C   UNL     1      -5.549  10.478  64.887  1.00  0.00    -0.135 C  
HETATM    9  C   UNL     1      -5.847   9.581  66.082  1.00  0.00    -0.057 C  
HETATM   10  C   UNL     1      -6.651  10.242  67.226  1.00  0.00    -0.068 C  
BRANCH   7  11
HETATM   11  C   UNL     1      -6.565  11.997  69.103  1.00  0.00    -0.107 C  
BRANCH  11  12
HETATM   12  C   UNL     1      -7.018  13.441  68.901  1.00  0.00    -0.102 C  
HETATM   13  C   UNL     1      -6.303  14.067  67.712  1.00  0.00    -0.170 C  
ENDBRANCH  11  12
ENDBRANCH   7  11
ENDBRANCH   5   6
ENDBRANCH   3   5
ENDBRANCH   1   3
BRANCH   2  14
HETATM   14  C   UNL     1     -11.793  12.287  68.400  1.00  0.00    -0.358 A  
HETATM   15  C   UNL     1     -12.281  14.553  69.980  1.00  0.00    -0.342 A  
HETATM   16  C   UNL     1     -12.028  12.154  69.770  1.00  0.00    -0.372 A  
HETATM   17  C   UNL     1     -11.812  13.557  67.817  1.00  0.00    -0.398 A  
HETATM   18  C   UNL     1     -12.272  13.283  70.558  1.00  0.00    -0.416 A  
HETATM   19  C   UNL     1     -12.045  14.683  68.609  1.00  0.00    -0.237 A  
BRANCH  15  20
HETATM   20  O   UNL     1     -12.445  15.730  70.655  1.00  0.00    -0.420 OA 
HETATM   21  C   UNL     1     -11.602  15.930  71.782  1.00  0.00    -0.455 C  
ENDBRANCH  15  20
ENDBRANCH   2  14
TORSDOF 7
ENDMDL
MODEL      186
REMARK 921   NORMALIZED FREE ENERGY PREDICTED BY IDOCK:   -3.41 KCAL/MOL
REMARK 922        TOTAL FREE ENERGY PREDICTED BY IDOCK:   -5.93 KCAL/MOL
REMARK 923 INTER-LIGAND FREE ENERGY PREDICTED BY IDOCK:   -4.83 KCAL/MOL
REMARK 924 INTRA-LIGAND FREE ENERGY PREDICTED BY IDOCK:   -1.10 KCAL/MOL
REMARK 927      BINDING AFFINITY PREDICTED BY RF-SCORE:    0.00 PKD
ROOT
HETATM    1  C   UNL     1     -10.723   7.308  67.231  1.00  0.00    -0.391 C  
HETATM    2  C   UNL     1     -10.465   8.419  67.939  1.00  0.00    -0.255 C  
ENDROOT
BRANCH   1   3
HETATM    3  C   UNL     1     -10.643   5.943  67.799  1.00  0.00    -0.259 C  
HETATM    4  O   UNL     1     -10.721   5.734  69.002  1.00  0.00    -0.274 OA 
BRANCH   3   5
HETATM    5  O   UNL     1     -10.296   5.046  66.849  1.00  0.00    -0.228 OA 
BRANCH   5   6
HETATM    6  C   UNL     1      -9.179   5.458  66.058  1.00  0.00    -0.158 C  
HETATM    7  C   UNL     1      -6.713   6.001  65.916  1.00  0.00    -0.052 C  
HETATM    8  C   UNL     1      -7.299   3.059  66.827  1.00  0.00    -0.070 C  
HETATM    9  C   UNL     1      -7.532   4.315  67.658  1.00  0.00    -0.069 C  
HETATM   10  C   UNL     1      -7.874   5.590  66.854  1.00  0.00    -0.101 C  
BRANCH   7  11
HETATM   11  C   UNL     1      -6.946   7.351  65.225  1.00  0.00    -0.059 C  
BRANCH  11  12
HETATM   12  C   UNL     1      -7.031   8.506  66.220  1.00  0.00    -0.077 C  
HETATM   13  C   UNL     1      -5.897   8.426  67.233  1.00  0.00    -0.043 C  
ENDBRANCH  11  12
ENDBRANCH   7  11
ENDBRANCH   5   6
ENDBRANCH   3   5
ENDBRANCH   1   3
BRANCH   2  14
HETATM   14  C   UNL     1     -10.708   9.742  67.373  1.00  0.00    -0.314 A  
HETATM   15  C   UNL     1     -11.109  12.308  66.313  1.00  0.00    -0.302 A  
HETATM   16  C   UNL     1     -11.339  10.728  68.134  1.00  0.00    -0.377 A  
HETATM   17  C   UNL     1     -10.286  10.038  66.074  1.00  0.00    -0.277 A  
HETATM   18  C   UNL     1     -11.540  12.008  67.606  1.00  0.00    -0.392 A  
HETATM   19  C   UNL     1     -10.478  11.320  65.554  1.00  0.00    -0.323 A  
BRANCH  15  20
HETATM   20  O   UNL     1     -11.193  13.535  65.715  1.00  0.00    -0.297 OA 
HETATM   21  C   UNL     1     -12.503  14.049  65.518  1.00  0.00    -0.509 C  
ENDBRANCH  15  20
ENDBRANCH   2  14
TORSDOF 7
ENDMDL
MODEL      187
REMARK 921   NORMALIZED FREE ENERGY PREDICTED BY IDOCK:   -3.41 KCAL/MOL
REMARK 922        TOTAL FREE ENERGY PREDICTED BY IDOCK:   -5.93 KCAL/MOL
REMARK 923 INTER-LIGAND FREE ENERGY PREDICTED BY IDOCK:   -5.35 KCAL/MOL
REMARK 924 INTRA-LIGAND FREE ENERGY PREDICTED BY IDOCK:   -0.58 KCAL/MOL
REMARK 927      BINDING AFFINITY PREDICTED BY RF-SCORE:    0.00 PKD
ROOT
HETATM    1  C   UNL     1      -8.651  10.139  66.536  1.00  0.00    -0.132 C  
HETATM    2  C   UNL     1      -9.779   9.438  66.737  1.00  0.00    -0.257 C  
ENDROOT
BRANCH   1   3
HETATM    3  C   UNL     1      -8.556  11.603  66.741  1.00  0.00    -0.180 C  
HETATM    4  O   UNL     1      -7.661  12.109  67.403  1.00  0.00    -0.136 OA 
BRANCH   3   5
HETATM    5  O   UNL     1      -9.658  12.227  66.270  1.00  0.00    -0.235 OA 
BRANCH   5   6
HETATM    6  C   UNL     1      -9.952  13.452  66.946  1.00  0.00    -0.252 C  
HETATM    7  C   UNL     1     -10.512  15.915  66.811  1.00  0.00    -0.309 C  
HETATM    8  C   UNL     1     -12.624  14.070  65.411  1.00  0.00    -0.529 C  
HETATM    9  C   UNL     1     -11.216  14.359  64.906  1.00  0.00    -0.392 C  
HETATM   10  C   UNL     1     -10.162  14.643  66.002  1.00  0.00    -0.326 C  
BRANCH   7  11
HETATM   11  C   UNL     1      -9.408  16.324  67.795  1.00  0.00    -0.216 C  
BRANCH  11  12
HETATM   12  C   UNL     1      -8.363  17.232  67.152  1.00  0.00    -0.220 C  
HETATM   13  C   UNL     1      -8.877  18.662  67.059  1.00  0.00    -0.286 C  
ENDBRANCH  11  12
ENDBRANCH   7  11
ENDBRANCH   5   6
ENDBRANCH   3   5
ENDBRANCH   1   3
BRANCH   2  14
HETATM   14  C   UNL     1      -9.777   7.980  66.667  1.00  0.00    -0.313 A  
HETATM   15  C   UNL     1      -9.810   5.182  66.468  1.00  0.00    -0.192 A  
HETATM   16  C   UNL     1     -10.847   7.249  67.187  1.00  0.00    -0.378 A  
HETATM   17  C   UNL     1      -8.715   7.308  66.054  1.00  0.00    -0.168 A  
HETATM   18  C   UNL     1     -10.864   5.853  67.089  1.00  0.00    -0.373 A  
HETATM   19  C   UNL     1      -8.741   5.916  65.948  1.00  0.00    -0.152 A  
BRANCH  15  20
HETATM   20  O   UNL     1      -9.745   3.833  66.257  1.00  0.00    -0.189 OA 
HETATM   21  C   UNL     1      -8.564   3.352  65.629  1.00  0.00    -0.116 C  
ENDBRANCH  15  20
ENDBRANCH   2  14
TORSDOF 7
ENDMDL
MODEL      188
REMARK 921   NORMALIZED FREE ENERGY PREDICTED BY IDOCK:   -3.41 KCAL/MOL
REMARK 922        TOTAL FREE ENERGY PREDICTED BY IDOCK:   -5.93 KCAL/MOL
REMARK 923 INTER-LIGAND FREE ENERGY PREDICTED BY IDOCK:   -5.01 KCAL/MOL
REMARK 924 INTRA-LIGAND FREE ENERGY PREDICTED BY IDOCK:   -0.91 KCAL/MOL
REMARK 927      BINDING AFFINITY PREDICTED BY RF-SCORE:    0.00 PKD
ROOT
HETATM    1  C   UNL     1     -10.916  10.494  69.978  1.00  0.00    -0.351 C  
HETATM    2  C   UNL     1     -11.342   9.222  69.902  1.00  0.00    -0.083 C  
ENDROOT
BRANCH   1   3
HETATM    3  C   UNL     1     -11.821  11.643  70.204  1.00  0.00    -0.344 C  
HETATM    4  O   UNL     1     -12.749  11.594  71.000  1.00  0.00    -0.356 OA 
BRANCH   3   5
HETATM    5  O   UNL     1     -11.587  12.624  69.303  1.00  0.00    -0.285 OA 
BRANCH   5   6
HETATM    6  C   UNL     1     -10.611  12.273  68.320  1.00  0.00    -0.227 C  
HETATM    7  C   UNL     1     -10.086  11.620  65.933  1.00  0.00    -0.267 C  
HETATM    8  C   UNL     1     -11.469  14.421  66.191  1.00  0.00    -0.357 C  
HETATM    9  C   UNL     1     -12.138  13.070  66.418  1.00  0.00    -0.428 C  
HETATM   10  C   UNL     1     -11.210  11.950  66.944  1.00  0.00    -0.382 C  
BRANCH   7  11
HETATM   11  C   UNL     1      -9.247  10.403  66.344  1.00  0.00    -0.187 C  
BRANCH  11  12
HETATM   12  C   UNL     1      -9.093   9.393  65.209  1.00  0.00    -0.287 C  
HETATM   13  C   UNL     1      -9.519  10.007  63.882  1.00  0.00    -0.280 C  
ENDBRANCH  11  12
ENDBRANCH   7  11
ENDBRANCH   5   6
ENDBRANCH   3   5
ENDBRANCH   1   3
BRANCH   2  14
HETATM   14  C   UNL     1     -10.392   8.116  69.832  1.00  0.00    -0.214 A  
HETATM   15  C   UNL     1      -8.539   6.019  69.633  1.00  0.00    -0.126 A  
HETATM   16  C   UNL     1     -10.716   6.954  69.130  1.00  0.00    -0.262 A  
HETATM   17  C   UNL     1      -9.140   8.226  70.444  1.00  0.00    -0.148 A  
HETATM   18  C   UNL     1      -9.793   5.907  69.031  1.00  0.00    -0.193 A  
HETATM   19  C   UNL     1      -8.217   7.184  70.334  1.00  0.00    -0.126 A  
BRANCH  15  20
HETATM   20  O   UNL     1      -7.536   5.095  69.552  1.00  0.00    -0.056 OA 
HETATM   21  C   UNL     1      -7.922   3.781  69.169  1.00  0.00    -0.055 C  
ENDBRANCH  15  20
ENDBRANCH   2  14
TORSDOF 7
ENDMDL
MODEL      189
REMARK 921   NORMALIZED FREE ENERGY PREDICTED BY IDOCK:   -3.39 KCAL/MOL
REMARK 922        TOTAL FREE ENERGY PREDICTED BY IDOCK:   -5.90 KCAL/MOL
REMARK 923 INTER-LIGAND FREE ENERGY PREDICTED BY IDOCK:   -4.63 KCAL/MOL
REMARK 924 INTRA-LIGAND FREE ENERGY PREDICTED BY IDOCK:   -1.27 KCAL/MOL
REMARK 927      BINDING AFFINITY PREDICTED BY RF-SCORE:    0.00 PKD
ROOT
HETATM    1  C   UNL     1      -8.415   6.680  68.454  1.00  0.00    -0.125 C  
HETATM    2  C   UNL     1      -8.857   6.184  69.621  1.00  0.00    -0.134 C  
ENDROOT
BRANCH   1   3
HETATM    3  C   UNL     1      -7.503   5.942  67.550  1.00  0.00    -0.078 C  
HETATM    4  O   UNL     1      -6.560   5.288  67.971  1.00  0.00    -0.046 OA 
BRANCH   3   5
HETATM    5  O   UNL     1      -7.752   6.252  66.258  1.00  0.00    -0.095 OA 
BRANCH   5   6
HETATM    6  C   UNL     1      -8.827   7.180  66.092  1.00  0.00    -0.150 C  
HETATM    7  C   UNL     1      -9.603   9.488  65.408  1.00  0.00    -0.342 C  
HETATM    8  C   UNL     1      -8.211   7.896  63.094  1.00  0.00    -0.035 C  
HETATM    9  C   UNL     1      -7.517   8.487  64.315  1.00  0.00    -0.111 C  
HETATM   10  C   UNL     1      -8.378   8.561  65.597  1.00  0.00    -0.154 C  
BRANCH   7  11
HETATM   11  C   UNL     1     -10.389   9.719  66.705  1.00  0.00    -0.289 C  
BRANCH  11  12
HETATM   12  C   UNL     1      -9.587  10.507  67.738  1.00  0.00    -0.173 C  
HETATM   13  C   UNL     1     -10.409  10.732  68.999  1.00  0.00    -0.235 C  
ENDBRANCH  11  12
ENDBRANCH   7  11
ENDBRANCH   5   6
ENDBRANCH   3   5
ENDBRANCH   1   3
BRANCH   2  14
HETATM   14  C   UNL     1      -9.874   6.888  70.397  1.00  0.00    -0.187 A  
HETATM   15  C   UNL     1     -11.822   8.187  71.942  1.00  0.00    -0.317 A  
HETATM   16  C   UNL     1     -11.223   6.563  70.249  1.00  0.00    -0.433 A  
HETATM   17  C   UNL     1      -9.499   7.873  71.315  1.00  0.00    -0.184 A  
HETATM   18  C   UNL     1     -12.195   7.211  71.018  1.00  0.00    -0.384 A  
HETATM   19  C   UNL     1     -10.470   8.510  72.090  1.00  0.00    -0.412 A  
BRANCH  15  20
HETATM   20  O   UNL     1     -12.670   8.840  72.792  1.00  0.00    -0.331 OA 
HETATM   21  C   UNL     1     -14.048   8.822  72.440  1.00  0.00    -0.413 C  
ENDBRANCH  15  20
ENDBRANCH   2  14
TORSDOF 7
ENDMDL
MODEL      190
REMARK 921   NORMALIZED FREE ENERGY PREDICTED BY IDOCK:   -3.37 KCAL/MOL
REMARK 922        TOTAL FREE ENERGY PREDICTED BY IDOCK:   -5.87 KCAL/MOL
REMARK 923 INTER-LIGAND FREE ENERGY PREDICTED BY IDOCK:   -4.66 KCAL/MOL
REMARK 924 INTRA-LIGAND FREE ENERGY PREDICTED BY IDOCK:   -1.22 KCAL/MOL
REMARK 927      BINDING AFFINITY PREDICTED BY RF-SCORE:    0.00 PKD
ROOT
HETATM    1  C   UNL     1     -11.078  11.521  69.486  1.00  0.00    -0.256 C  
HETATM    2  C   UNL     1     -11.134  11.115  68.208  1.00  0.00    -0.310 C  
ENDROOT
BRANCH   1   3
HETATM    3  C   UNL     1     -11.689  12.782  69.967  1.00  0.00    -0.209 C  
HETATM    4  O   UNL     1     -12.432  12.815  70.938  1.00  0.00    -0.367 OA 
BRANCH   3   5
HETATM    5  O   UNL     1     -11.459  13.790  69.096  1.00  0.00    -0.262 OA 
BRANCH   5   6
HETATM    6  C   UNL     1     -10.070  14.033  68.860  1.00  0.00    -0.126 C  
HETATM    7  C   UNL     1      -8.190  14.393  67.208  1.00  0.00    -0.223 C  
HETATM    8  C   UNL     1     -10.464  16.541  67.006  1.00  0.00    -0.289 C  
HETATM    9  C   UNL     1     -10.570  15.084  66.573  1.00  0.00    -0.305 C  
HETATM   10  C   UNL     1      -9.698  14.088  67.372  1.00  0.00    -0.233 C  
BRANCH   7  11
HETATM   11  C   UNL     1      -7.287  13.330  67.848  1.00  0.00    -0.134 C  
BRANCH  11  12
HETATM   12  C   UNL     1      -7.448  11.961  67.193  1.00  0.00    -0.146 C  
HETATM   13  C   UNL     1      -7.147  10.850  68.190  1.00  0.00    -0.077 C  
ENDBRANCH  11  12
ENDBRANCH   7  11
ENDBRANCH   5   6
ENDBRANCH   3   5
ENDBRANCH   1   3
BRANCH   2  14
HETATM   14  C   UNL     1     -10.650   9.794  67.819  1.00  0.00    -0.320 A  
HETATM   15  C   UNL     1      -9.790   7.234  67.059  1.00  0.00    -0.203 A  
HETATM   16  C   UNL     1     -10.553   8.773  68.766  1.00  0.00    -0.174 A  
HETATM   17  C   UNL     1     -10.306   9.535  66.489  1.00  0.00    -0.263 A  
HETATM   18  C   UNL     1     -10.124   7.496  68.388  1.00  0.00    -0.200 A  
HETATM   19  C   UNL     1      -9.888   8.257  66.113  1.00  0.00    -0.138 A  
BRANCH  15  20
HETATM   20  O   UNL     1      -9.420   6.016  66.560  1.00  0.00    -0.151 OA 
HETATM   21  C   UNL     1     -10.385   4.976  66.664  1.00  0.00    -0.270 C  
ENDBRANCH  15  20
ENDBRANCH   2  14
TORSDOF 7
ENDMDL
MODEL      191
REMARK 921   NORMALIZED FREE ENERGY PREDICTED BY IDOCK:   -3.37 KCAL/MOL
REMARK 922        TOTAL FREE ENERGY PREDICTED BY IDOCK:   -5.87 KCAL/MOL
REMARK 923 INTER-LIGAND FREE ENERGY PREDICTED BY IDOCK:   -5.51 KCAL/MOL
REMARK 924 INTRA-LIGAND FREE ENERGY PREDICTED BY IDOCK:   -0.36 KCAL/MOL
REMARK 927      BINDING AFFINITY PREDICTED BY RF-SCORE:    0.00 PKD
ROOT
HETATM    1  C   UNL     1      -9.450   8.685  65.938  1.00  0.00    -0.243 C  
HETATM    2  C   UNL     1     -10.107   7.787  66.690  1.00  0.00    -0.294 C  
ENDROOT
BRANCH   1   3
HETATM    3  C   UNL     1      -9.914  10.077  65.739  1.00  0.00    -0.276 C  
HETATM    4  O   UNL     1     -10.326  10.478  64.660  1.00  0.00    -0.344 OA 
BRANCH   3   5
HETATM    5  O   UNL     1      -9.643  10.834  66.827  1.00  0.00    -0.167 OA 
BRANCH   5   6
HETATM    6  C   UNL     1     -10.690  10.828  67.800  1.00  0.00    -0.251 C  
HETATM    7  C   UNL     1     -11.877  11.997  69.703  1.00  0.00    -0.401 C  
HETATM    8  C   UNL     1     -11.906  13.620  67.022  1.00  0.00    -0.448 C  
HETATM    9  C   UNL     1     -10.692  13.392  67.915  1.00  0.00    -0.259 C  
HETATM   10  C   UNL     1     -10.693  12.065  68.709  1.00  0.00    -0.252 C  
BRANCH   7  11
HETATM   11  C   UNL     1     -11.818  10.772  70.626  1.00  0.00    -0.460 C  
BRANCH  11  12
HETATM   12  C   UNL     1     -12.957  10.755  71.642  1.00  0.00    -0.581 C  
HETATM   13  C   UNL     1     -13.252   9.332  72.095  1.00  0.00    -0.535 C  
ENDBRANCH  11  12
ENDBRANCH   7  11
ENDBRANCH   5   6
ENDBRANCH   3   5
ENDBRANCH   1   3
BRANCH   2  14
HETATM   14  C   UNL     1      -9.527   6.479  66.975  1.00  0.00    -0.161 A  
HETATM   15  C   UNL     1      -8.395   3.988  67.593  1.00  0.00    -0.094 A  
HETATM   16  C   UNL     1      -8.165   6.253  66.768  1.00  0.00    -0.110 A  
HETATM   17  C   UNL     1     -10.327   5.452  67.484  1.00  0.00    -0.246 A  
HETATM   18  C   UNL     1      -7.600   5.010  67.075  1.00  0.00    -0.088 A  
HETATM   19  C   UNL     1      -9.757   4.217  67.800  1.00  0.00    -0.179 A  
BRANCH  15  20
HETATM   20  O   UNL     1      -7.946   2.759  67.989  1.00  0.00    -0.059 OA 
HETATM   21  C   UNL     1      -7.318   1.968  66.989  1.00  0.00    -0.060 C  
ENDBRANCH  15  20
ENDBRANCH   2  14
TORSDOF 7
ENDMDL
MODEL      192
REMARK 921   NORMALIZED FREE ENERGY PREDICTED BY IDOCK:   -3.37 KCAL/MOL
REMARK 922        TOTAL FREE ENERGY PREDICTED BY IDOCK:   -5.86 KCAL/MOL
REMARK 923 INTER-LIGAND FREE ENERGY PREDICTED BY IDOCK:   -4.95 KCAL/MOL
REMARK 924 INTRA-LIGAND FREE ENERGY PREDICTED BY IDOCK:   -0.92 KCAL/MOL
REMARK 927      BINDING AFFINITY PREDICTED BY RF-SCORE:    0.00 PKD
ROOT
HETATM    1  C   UNL     1     -10.058   5.184  67.435  1.00  0.00    -0.222 C  
HETATM    2  C   UNL     1     -10.804   6.031  68.163  1.00  0.00    -0.365 C  
ENDROOT
BRANCH   1   3
HETATM    3  C   UNL     1      -9.835   5.339  65.980  1.00  0.00    -0.132 C  
HETATM    4  O   UNL     1     -10.580   4.835  65.151  1.00  0.00    -0.054 OA 
BRANCH   3   5
HETATM    5  O   UNL     1      -8.642   5.927  65.736  1.00  0.00    -0.145 OA 
BRANCH   5   6
HETATM    6  C   UNL     1      -8.756   7.277  65.278  1.00  0.00     0.096 C  
HETATM    7  C   UNL     1      -8.671   9.750  65.800  1.00  0.00    -0.160 C  
HETATM    8  C   UNL     1      -5.977   8.254  66.377  1.00  0.00    -0.041 C  
HETATM    9  C   UNL     1      -7.262   8.123  67.185  1.00  0.00    -0.084 C  
HETATM   10  C   UNL     1      -8.572   8.321  66.387  1.00  0.00    -0.144 C  
BRANCH   7  11
HETATM   11  C   UNL     1     -10.028  10.038  65.145  1.00  0.00    -0.350 C  
BRANCH  11  12
HETATM   12  C   UNL     1      -9.895  10.893  63.887  1.00  0.00    -0.385 C  
HETATM   13  C   UNL     1      -9.363  10.064  62.727  1.00  0.00    -0.290 C  
ENDBRANCH  11  12
ENDBRANCH   7  11
ENDBRANCH   5   6
ENDBRANCH   3   5
ENDBRANCH   1   3
BRANCH   2  14
HETATM   14  C   UNL     1     -10.864   5.919  69.616  1.00  0.00    -0.444 A  
HETATM   15  C   UNL     1     -11.034   5.650  72.404  1.00  0.00    -0.259 A  
HETATM   16  C   UNL     1     -11.773   6.689  70.345  1.00  0.00    -0.446 A  
HETATM   17  C   UNL     1     -10.031   5.018  70.286  1.00  0.00    -0.325 A  
HETATM   18  C   UNL     1     -11.858   6.556  71.735  1.00  0.00    -0.384 A  
HETATM   19  C   UNL     1     -10.126   4.880  71.672  1.00  0.00    -0.266 A  
BRANCH  15  20
HETATM   20  O   UNL     1     -11.069   5.387  73.745  1.00  0.00    -0.245 OA 
HETATM   21  C   UNL     1     -10.221   6.183  74.562  1.00  0.00    -0.300 C  
ENDBRANCH  15  20
ENDBRANCH   2  14
TORSDOF 7
ENDMDL
MODEL      193
REMARK 921   NORMALIZED FREE ENERGY PREDICTED BY IDOCK:   -3.36 KCAL/MOL
REMARK 922        TOTAL FREE ENERGY PREDICTED BY IDOCK:   -5.86 KCAL/MOL
REMARK 923 INTER-LIGAND FREE ENERGY PREDICTED BY IDOCK:   -4.99 KCAL/MOL
REMARK 924 INTRA-LIGAND FREE ENERGY PREDICTED BY IDOCK:   -0.88 KCAL/MOL
REMARK 927      BINDING AFFINITY PREDICTED BY RF-SCORE:    0.00 PKD
ROOT
HETATM    1  C   UNL     1     -10.591   7.393  67.936  1.00  0.00    -0.255 C  
HETATM    2  C   UNL     1     -10.526   8.686  68.292  1.00  0.00    -0.234 C  
ENDROOT
BRANCH   1   3
HETATM    3  C   UNL     1     -10.740   6.287  68.910  1.00  0.00    -0.299 C  
HETATM    4  O   UNL     1     -11.630   6.275  69.749  1.00  0.00    -0.436 OA 
BRANCH   3   5
HETATM    5  O   UNL     1      -9.683   5.446  68.848  1.00  0.00    -0.132 OA 
BRANCH   5   6
HETATM    6  C   UNL     1      -9.412   4.968  67.528  1.00  0.00    -0.135 C  
HETATM    7  C   UNL     1      -7.738   4.574  65.674  1.00  0.00    -0.093 C  
HETATM    8  C   UNL     1      -7.052   3.051  68.327  1.00  0.00    -0.049 C  
HETATM    9  C   UNL     1      -6.947   4.556  68.108  1.00  0.00    -0.056 C  
HETATM   10  C   UNL     1      -7.951   5.151  67.094  1.00  0.00    -0.100 C  
BRANCH   7  11
HETATM   11  C   UNL     1      -8.603   5.261  64.609  1.00  0.00    -0.125 C  
BRANCH  11  12
HETATM   12  C   UNL     1      -7.833   6.327  63.834  1.00  0.00    -0.112 C  
HETATM   13  C   UNL     1      -6.332   6.131  63.997  1.00  0.00    -0.030 C  
ENDBRANCH  11  12
ENDBRANCH   7  11
ENDBRANCH   5   6
ENDBRANCH   3   5
ENDBRANCH   1   3
BRANCH   2  14
HETATM   14  C   UNL     1     -10.534   9.742  67.285  1.00  0.00    -0.324 A  
HETATM   15  C   UNL     1     -10.610  11.741  65.318  1.00  0.00    -0.278 A  
HETATM   16  C   UNL     1      -9.872   9.560  66.069  1.00  0.00    -0.353 A  
HETATM   17  C   UNL     1     -11.228  10.932  67.521  1.00  0.00    -0.364 A  
HETATM   18  C   UNL     1      -9.909  10.557  65.088  1.00  0.00    -0.359 A  
HETATM   19  C   UNL     1     -11.272  11.920  66.536  1.00  0.00    -0.383 A  
BRANCH  15  20
HETATM   20  O   UNL     1     -10.770  12.756  64.416  1.00  0.00    -0.329 OA 
HETATM   21  C   UNL     1     -11.871  12.636  63.525  1.00  0.00    -0.541 C  
ENDBRANCH  15  20
ENDBRANCH   2  14
TORSDOF 7
ENDMDL
MODEL      194
REMARK 921   NORMALIZED FREE ENERGY PREDICTED BY IDOCK:   -3.36 KCAL/MOL
REMARK 922        TOTAL FREE ENERGY PREDICTED BY IDOCK:   -5.85 KCAL/MOL
REMARK 923 INTER-LIGAND FREE ENERGY PREDICTED BY IDOCK:   -5.01 KCAL/MOL
REMARK 924 INTRA-LIGAND FREE ENERGY PREDICTED BY IDOCK:   -0.85 KCAL/MOL
REMARK 927      BINDING AFFINITY PREDICTED BY RF-SCORE:    0.00 PKD
ROOT
HETATM    1  C   UNL     1      -7.748   8.334  70.561  1.00  0.00    -0.081 C  
HETATM    2  C   UNL     1      -7.988   9.504  69.947  1.00  0.00    -0.154 C  
ENDROOT
BRANCH   1   3
HETATM    3  C   UNL     1      -7.420   8.223  72.001  1.00  0.00    -0.100 C  
HETATM    4  O   UNL     1      -6.368   8.641  72.463  1.00  0.00    -0.082 OA 
BRANCH   3   5
HETATM    5  O   UNL     1      -8.332   7.459  72.644  1.00  0.00    -0.104 OA 
BRANCH   5   6
HETATM    6  C   UNL     1      -9.656   7.995  72.602  1.00  0.00    -0.259 C  
HETATM    7  C   UNL     1     -11.990   7.914  71.631  1.00  0.00    -0.329 C  
HETATM    8  C   UNL     1     -11.152   5.276  73.102  1.00  0.00    -0.384 C  
HETATM    9  C   UNL     1     -10.609   5.764  71.765  1.00  0.00    -0.293 C  
HETATM   10  C   UNL     1     -10.571   7.300  71.584  1.00  0.00    -0.228 C  
BRANCH   7  11
HETATM   11  C   UNL     1     -12.010   9.410  71.290  1.00  0.00    -0.430 C  
BRANCH  11  12
HETATM   12  C   UNL     1     -13.306  10.089  71.728  1.00  0.00    -0.492 C  
HETATM   13  C   UNL     1     -13.083  11.578  71.952  1.00  0.00    -0.492 C  
ENDBRANCH  11  12
ENDBRANCH   7  11
ENDBRANCH   5   6
ENDBRANCH   3   5
ENDBRANCH   1   3
BRANCH   2  14
HETATM   14  C   UNL     1      -8.455   9.543  68.565  1.00  0.00    -0.119 A  
HETATM   15  C   UNL     1      -9.390   9.684  65.924  1.00  0.00    -0.218 A  
HETATM   16  C   UNL     1      -9.693   8.995  68.225  1.00  0.00    -0.169 A  
HETATM   17  C   UNL     1      -7.678  10.155  67.578  1.00  0.00    -0.091 A  
HETATM   18  C   UNL     1     -10.160   9.064  66.908  1.00  0.00    -0.338 A  
HETATM   19  C   UNL     1      -8.151  10.232  66.267  1.00  0.00    -0.129 A  
BRANCH  15  20
HETATM   20  O   UNL     1      -9.765   9.868  64.622  1.00  0.00    -0.303 OA 
HETATM   21  C   UNL     1      -8.794   9.542  63.636  1.00  0.00    -0.210 C  
ENDBRANCH  15  20
ENDBRANCH   2  14
TORSDOF 7
ENDMDL
MODEL      195
REMARK 921   NORMALIZED FREE ENERGY PREDICTED BY IDOCK:   -3.35 KCAL/MOL
REMARK 922        TOTAL FREE ENERGY PREDICTED BY IDOCK:   -5.85 KCAL/MOL
REMARK 923 INTER-LIGAND FREE ENERGY PREDICTED BY IDOCK:   -4.73 KCAL/MOL
REMARK 924 INTRA-LIGAND FREE ENERGY PREDICTED BY IDOCK:   -1.12 KCAL/MOL
REMARK 927      BINDING AFFINITY PREDICTED BY RF-SCORE:    0.00 PKD
ROOT
HETATM    1  C   UNL     1      -8.339   9.159  65.902  1.00  0.00    -0.127 C  
HETATM    2  C   UNL     1      -9.599   9.529  65.618  1.00  0.00    -0.346 C  
ENDROOT
BRANCH   1   3
HETATM    3  C   UNL     1      -7.829   7.784  65.698  1.00  0.00    -0.107 C  
HETATM    4  O   UNL     1      -8.159   7.104  64.737  1.00  0.00    -0.125 OA 
BRANCH   3   5
HETATM    5  O   UNL     1      -7.137   7.363  66.780  1.00  0.00    -0.074 OA 
BRANCH   5   6
HETATM    6  C   UNL     1      -7.474   8.062  67.980  1.00  0.00    -0.097 C  
HETATM    7  C   UNL     1      -8.913   8.227  70.054  1.00  0.00    -0.142 C  
HETATM    8  C   UNL     1      -7.220   5.593  69.909  1.00  0.00    -0.069 C  
HETATM    9  C   UNL     1      -8.426   5.928  69.041  1.00  0.00    -0.105 C  
HETATM   10  C   UNL     1      -8.641   7.433  68.754  1.00  0.00    -0.129 C  
BRANCH   7  11
HETATM   11  C   UNL     1      -9.295   9.691  69.796  1.00  0.00    -0.238 C  
BRANCH  11  12
HETATM   12  C   UNL     1     -10.780   9.955  70.033  1.00  0.00    -0.338 C  
HETATM   13  C   UNL     1     -11.336   8.994  71.075  1.00  0.00    -0.362 C  
ENDBRANCH  11  12
ENDBRANCH   7  11
ENDBRANCH   5   6
ENDBRANCH   3   5
ENDBRANCH   1   3
BRANCH   2  14
HETATM   14  C   UNL     1     -10.004  10.929  65.693  1.00  0.00    -0.305 A  
HETATM   15  C   UNL     1     -10.718  13.640  65.808  1.00  0.00    -0.280 A  
HETATM   16  C   UNL     1      -9.671  11.699  66.809  1.00  0.00    -0.220 A  
HETATM   17  C   UNL     1     -10.705  11.515  64.635  1.00  0.00    -0.379 A  
HETATM   18  C   UNL     1     -10.027  13.051  66.867  1.00  0.00    -0.243 A  
HETATM   19  C   UNL     1     -11.049  12.867  64.692  1.00  0.00    -0.352 A  
BRANCH  15  20
HETATM   20  O   UNL     1     -11.063  14.960  65.722  1.00  0.00    -0.331 OA 
HETATM   21  C   UNL     1      -9.988  15.890  65.714  1.00  0.00    -0.360 C  
ENDBRANCH  15  20
ENDBRANCH   2  14
TORSDOF 7
ENDMDL
MODEL      196
REMARK 921   NORMALIZED FREE ENERGY PREDICTED BY IDOCK:   -3.35 KCAL/MOL
REMARK 922        TOTAL FREE ENERGY PREDICTED BY IDOCK:   -5.84 KCAL/MOL
REMARK 923 INTER-LIGAND FREE ENERGY PREDICTED BY IDOCK:   -5.06 KCAL/MOL
REMARK 924 INTRA-LIGAND FREE ENERGY PREDICTED BY IDOCK:   -0.78 KCAL/MOL
REMARK 927      BINDING AFFINITY PREDICTED BY RF-SCORE:    0.00 PKD
ROOT
HETATM    1  C   UNL     1     -10.043  14.847  67.069  1.00  0.00    -0.244 C  
HETATM    2  C   UNL     1     -10.492  16.024  67.534  1.00  0.00    -0.297 C  
ENDROOT
BRANCH   1   3
HETATM    3  C   UNL     1     -10.922  13.824  66.457  1.00  0.00    -0.299 C  
HETATM    4  O   UNL     1     -12.140  13.870  66.556  1.00  0.00    -0.416 OA 
BRANCH   3   5
HETATM    5  O   UNL     1     -10.194  12.793  65.971  1.00  0.00    -0.267 OA 
BRANCH   5   6
HETATM    6  C   UNL     1     -10.059  11.707  66.891  1.00  0.00    -0.211 C  
HETATM    7  C   UNL     1      -8.584   9.958  67.968  1.00  0.00    -0.121 C  
HETATM    8  C   UNL     1      -7.624  12.897  68.483  1.00  0.00    -0.120 C  
HETATM    9  C   UNL     1      -7.546  12.152  67.156  1.00  0.00    -0.132 C  
HETATM   10  C   UNL     1      -8.652  11.096  66.921  1.00  0.00    -0.148 C  
BRANCH   7  11
HETATM   11  C   UNL     1      -9.556   8.808  67.670  1.00  0.00    -0.179 C  
BRANCH  11  12
HETATM   12  C   UNL     1      -8.884   7.657  66.926  1.00  0.00    -0.142 C  
HETATM   13  C   UNL     1      -9.251   6.322  67.557  1.00  0.00    -0.108 C  
ENDBRANCH  11  12
ENDBRANCH   7  11
ENDBRANCH   5   6
ENDBRANCH   3   5
ENDBRANCH   1   3
BRANCH   2  14
HETATM   14  C   UNL     1      -9.564  17.055  67.985  1.00  0.00    -0.260 A  
HETATM   15  C   UNL     1      -7.761  19.053  68.780  1.00  0.00    -0.347 A  
HETATM   16  C   UNL     1      -8.225  16.742  68.224  1.00  0.00    -0.204 A  
HETATM   17  C   UNL     1     -10.004  18.371  68.153  1.00  0.00    -0.388 A  
HETATM   18  C   UNL     1      -7.325  17.737  68.621  1.00  0.00    -0.269 A  
HETATM   19  C   UNL     1      -9.102  19.364  68.539  1.00  0.00    -0.426 A  
BRANCH  15  20
HETATM   20  O   UNL     1      -6.967  20.118  69.101  1.00  0.00    -0.254 OA 
HETATM   21  C   UNL     1      -5.590  19.998  68.767  1.00  0.00    -0.230 C  
ENDBRANCH  15  20
ENDBRANCH   2  14
TORSDOF 7
ENDMDL
MODEL      197
REMARK 921   NORMALIZED FREE ENERGY PREDICTED BY IDOCK:   -3.35 KCAL/MOL
REMARK 922        TOTAL FREE ENERGY PREDICTED BY IDOCK:   -5.84 KCAL/MOL
REMARK 923 INTER-LIGAND FREE ENERGY PREDICTED BY IDOCK:   -5.44 KCAL/MOL
REMARK 924 INTRA-LIGAND FREE ENERGY PREDICTED BY IDOCK:   -0.40 KCAL/MOL
REMARK 927      BINDING AFFINITY PREDICTED BY RF-SCORE:    0.00 PKD
ROOT
HETATM    1  C   UNL     1     -11.512   9.766  70.777  1.00  0.00    -0.417 C  
HETATM    2  C   UNL     1     -10.208   9.630  70.485  1.00  0.00    -0.351 C  
ENDROOT
BRANCH   1   3
HETATM    3  C   UNL     1     -12.366  10.833  70.210  1.00  0.00    -0.341 C  
HETATM    4  O   UNL     1     -13.474  10.601  69.746  1.00  0.00     0.213 OA 
BRANCH   3   5
HETATM    5  O   UNL     1     -11.685  11.997  70.118  1.00  0.00    -0.308 OA 
BRANCH   5   6
HETATM    6  C   UNL     1     -11.338  12.350  68.776  1.00  0.00    -0.293 C  
HETATM    7  C   UNL     1     -11.533  13.979  66.851  1.00  0.00    -0.373 C  
HETATM    8  C   UNL     1     -10.280  15.236  69.435  1.00  0.00    -0.258 C  
HETATM    9  C   UNL     1     -11.740  14.839  69.252  1.00  0.00    -0.347 C  
HETATM   10  C   UNL     1     -11.991  13.652  68.293  1.00  0.00    -0.385 C  
BRANCH   7  11
HETATM   11  C   UNL     1     -11.916  12.892  65.838  1.00  0.00    -0.504 C  
BRANCH  11  12
HETATM   12  C   UNL     1     -11.527  13.266  64.410  1.00  0.00    -0.416 C  
HETATM   13  C   UNL     1     -11.973  12.188  63.432  1.00  0.00    -0.578 C  
ENDBRANCH  11  12
ENDBRANCH   7  11
ENDBRANCH   5   6
ENDBRANCH   3   5
ENDBRANCH   1   3
BRANCH   2  14
HETATM   14  C   UNL     1      -9.452   8.473  70.951  1.00  0.00    -0.221 A  
HETATM   15  C   UNL     1      -8.048   6.237  71.902  1.00  0.00    -0.109 A  
HETATM   16  C   UNL     1      -8.469   8.622  71.931  1.00  0.00    -0.210 A  
HETATM   17  C   UNL     1      -9.726   7.201  70.439  1.00  0.00    -0.176 A  
HETATM   18  C   UNL     1      -7.768   7.508  72.406  1.00  0.00    -0.105 A  
HETATM   19  C   UNL     1      -9.033   6.090  70.922  1.00  0.00    -0.146 A  
BRANCH  15  20
HETATM   20  O   UNL     1      -7.477   5.072  72.331  1.00  0.00    -0.089 OA 
HETATM   21  C   UNL     1      -6.636   4.405  71.399  1.00  0.00    -0.027 C  
ENDBRANCH  15  20
ENDBRANCH   2  14
TORSDOF 7
ENDMDL
MODEL      198
REMARK 921   NORMALIZED FREE ENERGY PREDICTED BY IDOCK:   -3.33 KCAL/MOL
REMARK 922        TOTAL FREE ENERGY PREDICTED BY IDOCK:   -5.82 KCAL/MOL
REMARK 923 INTER-LIGAND FREE ENERGY PREDICTED BY IDOCK:   -4.78 KCAL/MOL
REMARK 924 INTRA-LIGAND FREE ENERGY PREDICTED BY IDOCK:   -1.04 KCAL/MOL
REMARK 927      BINDING AFFINITY PREDICTED BY RF-SCORE:    0.00 PKD
ROOT
HETATM    1  C   UNL     1      -9.329   7.363  67.839  1.00  0.00    -0.138 C  
HETATM    2  C   UNL     1      -9.454   8.097  66.721  1.00  0.00    -0.256 C  
ENDROOT
BRANCH   1   3
HETATM    3  C   UNL     1      -8.485   6.150  67.927  1.00  0.00    -0.116 C  
HETATM    4  O   UNL     1      -8.680   5.170  67.221  1.00  0.00    -0.106 OA 
BRANCH   3   5
HETATM    5  O   UNL     1      -7.642   6.225  68.981  1.00  0.00    -0.091 OA 
BRANCH   5   6
HETATM    6  C   UNL     1      -8.111   7.081  70.025  1.00  0.00    -0.128 C  
HETATM    7  C   UNL     1      -9.279   7.330  72.255  1.00  0.00    -0.154 C  
HETATM    8  C   UNL     1      -6.690   5.567  72.385  1.00  0.00    -0.071 C  
HETATM    9  C   UNL     1      -8.010   5.170  71.734  1.00  0.00    -0.111 C  
HETATM   10  C   UNL     1      -8.841   6.337  71.152  1.00  0.00    -0.142 C  
BRANCH   7  11
HETATM   11  C   UNL     1     -10.243   8.409  71.745  1.00  0.00    -0.323 C  
BRANCH  11  12
HETATM   12  C   UNL     1     -11.701   7.962  71.806  1.00  0.00    -0.329 C  
HETATM   13  C   UNL     1     -12.060   7.130  70.582  1.00  0.00    -0.281 C  
ENDBRANCH  11  12
ENDBRANCH   7  11
ENDBRANCH   5   6
ENDBRANCH   3   5
ENDBRANCH   1   3
BRANCH   2  14
HETATM   14  C   UNL     1     -10.175   9.365  66.734  1.00  0.00    -0.320 A  
HETATM   15  C   UNL     1     -11.498  11.839  66.780  1.00  0.00    -0.281 A  
HETATM   16  C   UNL     1     -10.788   9.816  67.905  1.00  0.00    -0.298 A  
HETATM   17  C   UNL     1     -10.233  10.151  65.579  1.00  0.00    -0.288 A  
HETATM   18  C   UNL     1     -11.448  11.049  67.928  1.00  0.00    -0.358 A  
HETATM   19  C   UNL     1     -10.884  11.386  65.609  1.00  0.00    -0.280 A  
BRANCH  15  20
HETATM   20  O   UNL     1     -12.056  13.084  66.698  1.00  0.00    -0.388 OA 
HETATM   21  C   UNL     1     -11.463  13.978  65.765  1.00  0.00    -0.318 C  
ENDBRANCH  15  20
ENDBRANCH   2  14
TORSDOF 7
ENDMDL
MODEL      199
REMARK 921   NORMALIZED FREE ENERGY PREDICTED BY IDOCK:   -3.33 KCAL/MOL
REMARK 922        TOTAL FREE ENERGY PREDICTED BY IDOCK:   -5.81 KCAL/MOL
REMARK 923 INTER-LIGAND FREE ENERGY PREDICTED BY IDOCK:   -5.07 KCAL/MOL
REMARK 924 INTRA-LIGAND FREE ENERGY PREDICTED BY IDOCK:   -0.75 KCAL/MOL
REMARK 927      BINDING AFFINITY PREDICTED BY RF-SCORE:    0.00 PKD
ROOT
HETATM    1  C   UNL     1     -11.091   9.902  69.244  1.00  0.00    -0.220 C  
HETATM    2  C   UNL     1     -11.747   9.514  70.349  1.00  0.00    -0.227 C  
ENDROOT
BRANCH   1   3
HETATM    3  C   UNL     1     -11.267  11.232  68.617  1.00  0.00    -0.250 C  
HETATM    4  O   UNL     1     -12.182  11.469  67.840  1.00  0.00    -0.586 OA 
BRANCH   3   5
HETATM    5  O   UNL     1     -10.208  12.031  68.877  1.00  0.00    -0.169 OA 
BRANCH   5   6
HETATM    6  C   UNL     1      -8.962  11.488  68.432  1.00  0.00    -0.173 C  
HETATM    7  C   UNL     1      -6.977  11.631  66.872  1.00  0.00    -0.123 C  
HETATM    8  C   UNL     1      -7.300  14.140  68.723  1.00  0.00    -0.128 C  
HETATM    9  C   UNL     1      -8.201  13.774  67.549  1.00  0.00    -0.194 C  
HETATM   10  C   UNL     1      -8.336  12.260  67.263  1.00  0.00    -0.182 C  
BRANCH   7  11
HETATM   11  C   UNL     1      -7.098  10.169  66.420  1.00  0.00    -0.107 C  
BRANCH  11  12
HETATM   12  C   UNL     1      -7.719  10.041  65.031  1.00  0.00    -0.138 C  
HETATM   13  C   UNL     1      -9.156   9.548  65.128  1.00  0.00    -0.281 C  
ENDBRANCH  11  12
ENDBRANCH   7  11
ENDBRANCH   5   6
ENDBRANCH   3   5
ENDBRANCH   1   3
BRANCH   2  14
HETATM   14  C   UNL     1     -11.423   8.254  71.010  1.00  0.00    -0.303 A  
HETATM   15  C   UNL     1     -10.725   5.846  72.268  1.00  0.00    -0.234 A  
HETATM   16  C   UNL     1     -11.320   7.076  70.269  1.00  0.00    -0.339 A  
HETATM   17  C   UNL     1     -11.185   8.225  72.387  1.00  0.00    -0.451 A  
HETATM   18  C   UNL     1     -10.973   5.874  70.895  1.00  0.00    -0.335 A  
HETATM   19  C   UNL     1     -10.828   7.027  73.008  1.00  0.00    -0.342 A  
BRANCH  15  20
HETATM   20  O   UNL     1     -10.319   4.750  72.978  1.00  0.00    -0.165 OA 
HETATM   21  C   UNL     1      -9.102   4.886  73.701  1.00  0.00    -0.119 C  
ENDBRANCH  15  20
ENDBRANCH   2  14
TORSDOF 7
ENDMDL
MODEL      200
REMARK 921   NORMALIZED FREE ENERGY PREDICTED BY IDOCK:   -3.32 KCAL/MOL
REMARK 922        TOTAL FREE ENERGY PREDICTED BY IDOCK:   -5.80 KCAL/MOL
REMARK 923 INTER-LIGAND FREE ENERGY PREDICTED BY IDOCK:   -5.16 KCAL/MOL
REMARK 924 INTRA-LIGAND FREE ENERGY PREDICTED BY IDOCK:   -0.64 KCAL/MOL
REMARK 927      BINDING AFFINITY PREDICTED BY RF-SCORE:    0.00 PKD
ROOT
HETATM    1  C   UNL     1      -9.177   9.139  67.669  1.00  0.00    -0.143 C  
HETATM    2  C   UNL     1     -10.036   8.117  67.811  1.00  0.00    -0.260 C  
ENDROOT
BRANCH   1   3
HETATM    3  C   UNL     1      -9.287  10.407  68.426  1.00  0.00    -0.150 C  
HETATM    4  O   UNL     1      -8.372  10.835  69.116  1.00  0.00    -0.150 OA 
BRANCH   3   5
HETATM    5  O   UNL     1     -10.553  10.881  68.387  1.00  0.00    -0.174 OA 
BRANCH   5   6
HETATM    6  C   UNL     1     -10.766  11.851  67.358  1.00  0.00    -0.232 C  
HETATM    7  C   UNL     1     -11.725  14.084  66.657  1.00  0.00    -0.420 C  
HETATM    8  C   UNL     1      -9.579  14.299  68.932  1.00  0.00    -0.086 C  
HETATM    9  C   UNL     1     -10.987  13.737  69.083  1.00  0.00    -0.246 C  
HETATM   10  C   UNL     1     -11.576  13.070  67.817  1.00  0.00    -0.385 C  
BRANCH   7  11
HETATM   11  C   UNL     1     -12.458  13.502  65.441  1.00  0.00    -0.540 C  
BRANCH  11  12
HETATM   12  C   UNL     1     -11.550  13.377  64.220  1.00  0.00    -0.442 C  
HETATM   13  C   UNL     1     -12.080  12.319  63.262  1.00  0.00    -0.518 C  
ENDBRANCH  11  12
ENDBRANCH   7  11
ENDBRANCH   5   6
ENDBRANCH   3   5
ENDBRANCH   1   3
BRANCH   2  14
HETATM   14  C   UNL     1      -9.793   6.836  67.156  1.00  0.00    -0.207 A  
HETATM   15  C   UNL     1      -9.333   4.339  65.963  1.00  0.00    -0.163 A  
HETATM   16  C   UNL     1      -8.499   6.315  67.087  1.00  0.00    -0.108 A  
HETATM   17  C   UNL     1     -10.858   6.109  66.618  1.00  0.00    -0.279 A  
HETATM   18  C   UNL     1      -8.269   5.070  66.492  1.00  0.00    -0.108 A  
HETATM   19  C   UNL     1     -10.627   4.862  66.034  1.00  0.00    -0.312 A  
BRANCH  15  20
HETATM   20  O   UNL     1      -9.242   3.089  65.416  1.00  0.00    -0.148 OA 
HETATM   21  C   UNL     1      -8.591   3.002  64.155  1.00  0.00    -0.089 C  
ENDBRANCH  15  20
ENDBRANCH   2  14
TORSDOF 7
ENDMDL
MODEL      201
REMARK 921   NORMALIZED FREE ENERGY PREDICTED BY IDOCK:   -3.29 KCAL/MOL
REMARK 922        TOTAL FREE ENERGY PREDICTED BY IDOCK:   -5.76 KCAL/MOL
REMARK 923 INTER-LIGAND FREE ENERGY PREDICTED BY IDOCK:   -4.35 KCAL/MOL
REMARK 924 INTRA-LIGAND FREE ENERGY PREDICTED BY IDOCK:   -1.41 KCAL/MOL
REMARK 927      BINDING AFFINITY PREDICTED BY RF-SCORE:    0.00 PKD
ROOT
HETATM    1  C   UNL     1     -10.840   8.171  69.039  1.00  0.00    -0.014 C  
HETATM    2  C   UNL     1     -11.030   9.443  69.426  1.00  0.00    -0.165 C  
ENDROOT
BRANCH   1   3
HETATM    3  C   UNL     1     -10.892   7.020  69.970  1.00  0.00    -0.261 C  
HETATM    4  O   UNL     1     -11.936   6.651  70.490  1.00  0.00    -0.400 OA 
BRANCH   3   5
HETATM    5  O   UNL     1      -9.646   6.596  70.280  1.00  0.00    -0.162 OA 
BRANCH   5   6
HETATM    6  C   UNL     1      -8.650   7.029  69.351  1.00  0.00    -0.134 C  
HETATM    7  C   UNL     1      -6.373   8.054  68.946  1.00  0.00    -0.040 C  
HETATM    8  C   UNL     1      -6.274   5.391  70.598  1.00  0.00    -0.026 C  
HETATM    9  C   UNL     1      -6.793   6.734  71.097  1.00  0.00    -0.058 C  
HETATM   10  C   UNL     1      -7.414   7.650  70.017  1.00  0.00    -0.082 C  
BRANCH   7  11
HETATM   11  C   UNL     1      -6.906   9.094  67.951  1.00  0.00    -0.069 C  
BRANCH  11  12
HETATM   12  C   UNL     1      -7.493  10.318  68.649  1.00  0.00    -0.086 C  
HETATM   13  C   UNL     1      -7.356  11.554  67.771  1.00  0.00    -0.096 C  
ENDBRANCH  11  12
ENDBRANCH   7  11
ENDBRANCH   5   6
ENDBRANCH   3   5
ENDBRANCH   1   3
BRANCH   2  14
HETATM   14  C   UNL     1     -11.120  10.519  68.445  1.00  0.00    -0.335 A  
HETATM   15  C   UNL     1     -11.363  12.567  66.543  1.00  0.00    -0.334 A  
HETATM   16  C   UNL     1     -10.768  10.290  67.114  1.00  0.00    -0.303 A  
HETATM   17  C   UNL     1     -11.586  11.780  68.827  1.00  0.00    -0.367 A  
HETATM   18  C   UNL     1     -10.888  11.311  66.164  1.00  0.00    -0.281 A  
HETATM   19  C   UNL     1     -11.715  12.793  67.876  1.00  0.00    -0.408 A  
BRANCH  15  20
HETATM   20  O   UNL     1     -11.583  13.619  65.698  1.00  0.00    -0.316 OA 
HETATM   21  C   UNL     1     -10.425  14.271  65.193  1.00  0.00    -0.411 C  
ENDBRANCH  15  20
ENDBRANCH   2  14
TORSDOF 7
ENDMDL
MODEL      202
REMARK 921   NORMALIZED FREE ENERGY PREDICTED BY IDOCK:   -3.28 KCAL/MOL
REMARK 922        TOTAL FREE ENERGY PREDICTED BY IDOCK:   -5.75 KCAL/MOL
REMARK 923 INTER-LIGAND FREE ENERGY PREDICTED BY IDOCK:   -4.94 KCAL/MOL
REMARK 924 INTRA-LIGAND FREE ENERGY PREDICTED BY IDOCK:   -0.81 KCAL/MOL
REMARK 927      BINDING AFFINITY PREDICTED BY RF-SCORE:    0.00 PKD
ROOT
HETATM    1  C   UNL     1     -11.734   9.006  71.257  1.00  0.00    -0.382 C  
HETATM    2  C   UNL     1     -10.905   9.022  72.313  1.00  0.00    -0.089 C  
ENDROOT
BRANCH   1   3
HETATM    3  C   UNL     1     -12.689  10.096  70.955  1.00  0.00    -0.386 C  
HETATM    4  O   UNL     1     -13.885   9.891  70.809  1.00  0.00    -0.099 OA 
BRANCH   3   5
HETATM    5  O   UNL     1     -12.034  11.250  70.692  1.00  0.00    -0.345 OA 
BRANCH   5   6
HETATM    6  C   UNL     1     -12.030  11.600  69.306  1.00  0.00    -0.317 C  
HETATM    7  C   UNL     1     -10.713  12.202  67.233  1.00  0.00    -0.264 C  
HETATM    8  C   UNL     1     -10.008   9.375  68.388  1.00  0.00    -0.191 C  
HETATM    9  C   UNL     1      -9.640  10.713  69.016  1.00  0.00    -0.207 C  
HETATM   10  C   UNL     1     -10.629  11.870  68.742  1.00  0.00    -0.234 C  
BRANCH   7  11
HETATM   11  C   UNL     1     -11.555  13.451  66.938  1.00  0.00    -0.404 C  
BRANCH  11  12
HETATM   12  C   UNL     1     -11.119  14.155  65.655  1.00  0.00    -0.307 C  
HETATM   13  C   UNL     1     -12.314  14.400  64.744  1.00  0.00    -0.427 C  
ENDBRANCH  11  12
ENDBRANCH   7  11
ENDBRANCH   5   6
ENDBRANCH   3   5
ENDBRANCH   1   3
BRANCH   2  14
HETATM   14  C   UNL     1      -9.880   7.996  72.477  1.00  0.00    -0.330 A  
HETATM   15  C   UNL     1      -7.871   6.055  72.735  1.00  0.00    -0.107 A  
HETATM   16  C   UNL     1      -9.957   6.802  71.758  1.00  0.00    -0.184 A  
HETATM   17  C   UNL     1      -8.798   8.216  73.336  1.00  0.00    -0.322 A  
HETATM   18  C   UNL     1      -8.955   5.833  71.887  1.00  0.00    -0.142 A  
HETATM   19  C   UNL     1      -7.795   7.252  73.453  1.00  0.00    -0.117 A  
BRANCH  15  20
HETATM   20  O   UNL     1      -6.804   5.215  72.895  1.00  0.00    -0.071 OA 
HETATM   21  C   UNL     1      -5.615   5.571  72.203  1.00  0.00    -0.018 C  
ENDBRANCH  15  20
ENDBRANCH   2  14
TORSDOF 7
ENDMDL
MODEL      203
REMARK 921   NORMALIZED FREE ENERGY PREDICTED BY IDOCK:   -3.28 KCAL/MOL
REMARK 922        TOTAL FREE ENERGY PREDICTED BY IDOCK:   -5.75 KCAL/MOL
REMARK 923 INTER-LIGAND FREE ENERGY PREDICTED BY IDOCK:   -5.26 KCAL/MOL
REMARK 924 INTRA-LIGAND FREE ENERGY PREDICTED BY IDOCK:   -0.49 KCAL/MOL
REMARK 927      BINDING AFFINITY PREDICTED BY RF-SCORE:    0.00 PKD
ROOT
HETATM    1  C   UNL     1      -9.176   9.582  67.402  1.00  0.00    -0.152 C  
HETATM    2  C   UNL     1     -10.213   8.751  67.207  1.00  0.00    -0.332 C  
ENDROOT
BRANCH   1   3
HETATM    3  C   UNL     1      -9.255  11.045  67.190  1.00  0.00    -0.152 C  
HETATM    4  O   UNL     1      -8.457  11.820  67.698  1.00  0.00    -0.137 OA 
BRANCH   3   5
HETATM    5  O   UNL     1     -10.395  11.377  66.543  1.00  0.00    -0.221 OA 
BRANCH   5   6
HETATM    6  C   UNL     1     -10.938  12.634  66.954  1.00  0.00    -0.262 C  
HETATM    7  C   UNL     1     -11.119  15.131  66.594  1.00  0.00    -0.308 C  
HETATM    8  C   UNL     1     -12.118  13.438  64.153  1.00  0.00    -0.491 C  
HETATM    9  C   UNL     1     -10.668  13.602  64.593  1.00  0.00    -0.433 C  
HETATM   10  C   UNL     1     -10.454  13.820  66.109  1.00  0.00    -0.297 C  
BRANCH   7  11
HETATM   11  C   UNL     1     -10.788  15.467  68.055  1.00  0.00    -0.300 C  
BRANCH  11  12
HETATM   12  C   UNL     1     -10.726  16.972  68.305  1.00  0.00    -0.372 C  
HETATM   13  C   UNL     1     -10.429  17.720  67.012  1.00  0.00    -0.324 C  
ENDBRANCH  11  12
ENDBRANCH   7  11
ENDBRANCH   5   6
ENDBRANCH   3   5
ENDBRANCH   1   3
BRANCH   2  14
HETATM   14  C   UNL     1     -10.125   7.342  67.578  1.00  0.00    -0.250 A  
HETATM   15  C   UNL     1      -9.881   4.635  68.272  1.00  0.00    -0.103 A  
HETATM   16  C   UNL     1     -10.325   6.348  66.619  1.00  0.00    -0.223 A  
HETATM   17  C   UNL     1      -9.811   6.980  68.891  1.00  0.00    -0.150 A  
HETATM   18  C   UNL     1     -10.204   4.997  66.964  1.00  0.00    -0.253 A  
HETATM   19  C   UNL     1      -9.680   5.632  69.230  1.00  0.00    -0.205 A  
BRANCH  15  20
HETATM   20  O   UNL     1      -9.675   3.357  68.712  1.00  0.00    -0.114 OA 
HETATM   21  C   UNL     1      -9.127   2.448  67.767  1.00  0.00    -0.182 C  
ENDBRANCH  15  20
ENDBRANCH   2  14
TORSDOF 7
ENDMDL
MODEL      204
REMARK 921   NORMALIZED FREE ENERGY PREDICTED BY IDOCK:   -3.27 KCAL/MOL
REMARK 922        TOTAL FREE ENERGY PREDICTED BY IDOCK:   -5.72 KCAL/MOL
REMARK 923 INTER-LIGAND FREE ENERGY PREDICTED BY IDOCK:   -4.53 KCAL/MOL
REMARK 924 INTRA-LIGAND FREE ENERGY PREDICTED BY IDOCK:   -1.20 KCAL/MOL
REMARK 927      BINDING AFFINITY PREDICTED BY RF-SCORE:    0.00 PKD
ROOT
HETATM    1  C   UNL     1     -10.394   4.896  66.514  1.00  0.00    -0.311 C  
HETATM    2  C   UNL     1     -10.811   6.154  66.730  1.00  0.00    -0.360 C  
ENDROOT
BRANCH   1   3
HETATM    3  C   UNL     1     -10.286   4.295  65.164  1.00  0.00    -0.195 C  
HETATM    4  O   UNL     1     -11.258   3.846  64.573  1.00  0.00    -0.305 OA 
BRANCH   3   5
HETATM    5  O   UNL     1      -8.991   4.159  64.801  1.00  0.00    -0.127 OA 
BRANCH   5   6
HETATM    6  C   UNL     1      -8.453   5.320  64.164  1.00  0.00    -0.108 C  
HETATM    7  C   UNL     1      -6.844   7.271  64.229  1.00  0.00    -0.048 C  
HETATM    8  C   UNL     1      -5.433   4.476  64.390  1.00  0.00    -0.013 C  
HETATM    9  C   UNL     1      -6.266   5.121  65.491  1.00  0.00    -0.034 C  
HETATM   10  C   UNL     1      -7.401   6.054  65.006  1.00  0.00    -0.073 C  
BRANCH   7  11
HETATM   11  C   UNL     1      -7.923   8.303  63.876  1.00  0.00    -0.146 C  
BRANCH  11  12
HETATM   12  C   UNL     1      -8.492   8.995  65.112  1.00  0.00    -0.183 C  
HETATM   13  C   UNL     1      -9.476  10.086  64.712  1.00  0.00    -0.366 C  
ENDBRANCH  11  12
ENDBRANCH   7  11
ENDBRANCH   5   6
ENDBRANCH   3   5
ENDBRANCH   1   3
BRANCH   2  14
HETATM   14  C   UNL     1     -10.752   6.744  68.064  1.00  0.00    -0.302 A  
HETATM   15  C   UNL     1     -10.569   7.851  70.635  1.00  0.00    -0.219 A  
HETATM   16  C   UNL     1     -11.129   5.997  69.181  1.00  0.00    -0.405 A  
HETATM   17  C   UNL     1     -10.290   8.052  68.233  1.00  0.00    -0.240 A  
HETATM   18  C   UNL     1     -11.039   6.549  70.464  1.00  0.00    -0.375 A  
HETATM   19  C   UNL     1     -10.191   8.596  69.515  1.00  0.00    -0.209 A  
BRANCH  15  20
HETATM   20  O   UNL     1     -10.377   8.473  71.837  1.00  0.00    -0.252 OA 
HETATM   21  C   UNL     1      -9.054   8.441  72.357  1.00  0.00    -0.256 C  
ENDBRANCH  15  20
ENDBRANCH   2  14
TORSDOF 7
ENDMDL
MODEL      205
REMARK 921   NORMALIZED FREE ENERGY PREDICTED BY IDOCK:   -3.25 KCAL/MOL
REMARK 922        TOTAL FREE ENERGY PREDICTED BY IDOCK:   -5.70 KCAL/MOL
REMARK 923 INTER-LIGAND FREE ENERGY PREDICTED BY IDOCK:   -5.08 KCAL/MOL
REMARK 924 INTRA-LIGAND FREE ENERGY PREDICTED BY IDOCK:   -0.63 KCAL/MOL
REMARK 927      BINDING AFFINITY PREDICTED BY RF-SCORE:    0.00 PKD
ROOT
HETATM    1  C   UNL     1     -11.783  10.662  69.234  1.00  0.00    -0.336 C  
HETATM    2  C   UNL     1     -11.005  10.876  68.161  1.00  0.00    -0.302 C  
ENDROOT
BRANCH   1   3
HETATM    3  C   UNL     1     -11.365   9.840  70.392  1.00  0.00    -0.297 C  
HETATM    4  O   UNL     1     -11.663  10.135  71.541  1.00  0.00    -0.343 OA 
BRANCH   3   5
HETATM    5  O   UNL     1     -10.491   8.881  70.011  1.00  0.00    -0.200 OA 
BRANCH   5   6
HETATM    6  C   UNL     1      -9.526   8.558  71.014  1.00  0.00    -0.186 C  
HETATM    7  C   UNL     1      -7.386   7.369  71.652  1.00  0.00    -0.075 C  
HETATM    8  C   UNL     1      -7.006   9.514  69.397  1.00  0.00    -0.050 C  
HETATM    9  C   UNL     1      -7.710   8.172  69.243  1.00  0.00    -0.104 C  
HETATM   10  C   UNL     1      -8.404   7.636  70.517  1.00  0.00    -0.126 C  
BRANCH   7  11
HETATM   11  C   UNL     1      -8.012   6.682  72.872  1.00  0.00    -0.103 C  
BRANCH  11  12
HETATM   12  C   UNL     1      -6.986   5.899  73.688  1.00  0.00    -0.081 C  
HETATM   13  C   UNL     1      -7.623   4.662  74.307  1.00  0.00    -0.085 C  
ENDBRANCH  11  12
ENDBRANCH   7  11
ENDBRANCH   5   6
ENDBRANCH   3   5
ENDBRANCH   1   3
BRANCH   2  14
HETATM   14  C   UNL     1     -11.405  11.817  67.120  1.00  0.00    -0.387 A  
HETATM   15  C   UNL     1     -12.112  13.665  65.131  1.00  0.00    -0.403 A  
HETATM   16  C   UNL     1     -12.136  12.961  67.448  1.00  0.00    -0.258 A  
HETATM   17  C   UNL     1     -11.035  11.593  65.791  1.00  0.00    -0.329 A  
HETATM   18  C   UNL     1     -12.489  13.882  66.456  1.00  0.00    -0.364 A  
HETATM   19  C   UNL     1     -11.380  12.520  64.805  1.00  0.00    -0.354 A  
BRANCH  15  20
HETATM   20  O   UNL     1     -12.343  14.521  64.090  1.00  0.00    -0.622 OA 
HETATM   21  C   UNL     1     -11.737  15.803  64.185  1.00  0.00    -0.067 C  
ENDBRANCH  15  20
ENDBRANCH   2  14
TORSDOF 7
ENDMDL
MODEL      206
REMARK 921   NORMALIZED FREE ENERGY PREDICTED BY IDOCK:   -3.22 KCAL/MOL
REMARK 922        TOTAL FREE ENERGY PREDICTED BY IDOCK:   -5.66 KCAL/MOL
REMARK 923 INTER-LIGAND FREE ENERGY PREDICTED BY IDOCK:   -4.69 KCAL/MOL
REMARK 924 INTRA-LIGAND FREE ENERGY PREDICTED BY IDOCK:   -0.97 KCAL/MOL
REMARK 927      BINDING AFFINITY PREDICTED BY RF-SCORE:    0.00 PKD
ROOT
HETATM    1  C   UNL     1     -10.549  12.901  68.113  1.00  0.00    -0.249 C  
HETATM    2  C   UNL     1     -11.023  14.057  67.620  1.00  0.00    -0.281 C  
ENDROOT
BRANCH   1   3
HETATM    3  C   UNL     1     -11.117  11.577  67.769  1.00  0.00    -0.260 C  
HETATM    4  O   UNL     1     -12.243  11.244  68.110  1.00  0.00    -0.622 OA 
BRANCH   3   5
HETATM    5  O   UNL     1     -10.174  10.778  67.222  1.00  0.00    -0.189 OA 
BRANCH   5   6
HETATM    6  C   UNL     1      -9.199  10.320  68.162  1.00  0.00    -0.136 C  
HETATM    7  C   UNL     1      -6.859   9.469  68.609  1.00  0.00    -0.057 C  
HETATM    8  C   UNL     1      -6.930  12.326  67.320  1.00  0.00    -0.142 C  
HETATM    9  C   UNL     1      -7.275  11.019  66.616  1.00  0.00    -0.143 C  
HETATM   10  C   UNL     1      -7.866   9.913  67.520  1.00  0.00    -0.098 C  
BRANCH   7  11
HETATM   11  C   UNL     1      -7.345   8.260  69.419  1.00  0.00    -0.074 C  
BRANCH  11  12
HETATM   12  C   UNL     1      -6.671   6.961  68.985  1.00  0.00    -0.056 C  
HETATM   13  C   UNL     1      -7.641   6.088  68.201  1.00  0.00    -0.094 C  
ENDBRANCH  11  12
ENDBRANCH   7  11
ENDBRANCH   5   6
ENDBRANCH   3   5
ENDBRANCH   1   3
BRANCH   2  14
HETATM   14  C   UNL     1     -10.331  15.318  67.871  1.00  0.00    -0.246 A  
HETATM   15  C   UNL     1      -9.016  17.762  68.281  1.00  0.00    -0.277 A  
HETATM   16  C   UNL     1      -8.966  15.437  67.605  1.00  0.00    -0.185 A  
HETATM   17  C   UNL     1     -11.039  16.423  68.353  1.00  0.00    -0.351 A  
HETATM   18  C   UNL     1      -8.309  16.655  67.810  1.00  0.00    -0.184 A  
HETATM   19  C   UNL     1     -10.383  17.640  68.546  1.00  0.00    -0.370 A  
BRANCH  15  20
HETATM   20  O   UNL     1      -8.500  19.015  68.460  1.00  0.00    -0.330 OA 
HETATM   21  C   UNL     1      -8.875  19.991  67.497  1.00  0.00    -0.345 C  
ENDBRANCH  15  20
ENDBRANCH   2  14
TORSDOF 7
ENDMDL
MODEL      207
REMARK 921   NORMALIZED FREE ENERGY PREDICTED BY IDOCK:   -3.19 KCAL/MOL
REMARK 922        TOTAL FREE ENERGY PREDICTED BY IDOCK:   -5.62 KCAL/MOL
REMARK 923 INTER-LIGAND FREE ENERGY PREDICTED BY IDOCK:   -4.42 KCAL/MOL
REMARK 924 INTRA-LIGAND FREE ENERGY PREDICTED BY IDOCK:   -1.20 KCAL/MOL
REMARK 927      BINDING AFFINITY PREDICTED BY RF-SCORE:    0.00 PKD
ROOT
HETATM    1  C   UNL     1      -9.439   9.357  69.808  1.00  0.00    -0.216 C  
HETATM    2  C   UNL     1      -8.944  10.566  69.498  1.00  0.00    -0.054 C  
ENDROOT
BRANCH   1   3
HETATM    3  C   UNL     1      -8.884   8.501  70.881  1.00  0.00    -0.171 C  
HETATM    4  O   UNL     1      -8.593   8.945  71.983  1.00  0.00    -0.367 OA 
BRANCH   3   5
HETATM    5  O   UNL     1      -8.589   7.268  70.409  1.00  0.00    -0.141 OA 
BRANCH   5   6
HETATM    6  C   UNL     1      -9.049   7.045  69.074  1.00  0.00    -0.135 C  
HETATM    7  C   UNL     1      -8.532   6.931  66.601  1.00  0.00    -0.121 C  
HETATM    8  C   UNL     1      -6.897   4.882  68.319  1.00  0.00    -0.056 C  
HETATM    9  C   UNL     1      -6.693   6.392  68.296  1.00  0.00    -0.068 C  
HETATM   10  C   UNL     1      -7.961   7.229  68.008  1.00  0.00    -0.119 C  
BRANCH   7  11
HETATM   11  C   UNL     1      -9.690   7.860  66.213  1.00  0.00    -0.170 C  
BRANCH  11  12
HETATM   12  C   UNL     1      -9.204   9.161  65.579  1.00  0.00    -0.287 C  
HETATM   13  C   UNL     1      -7.831   8.971  64.948  1.00  0.00    -0.119 C  
ENDBRANCH  11  12
ENDBRANCH   7  11
ENDBRANCH   5   6
ENDBRANCH   3   5
ENDBRANCH   1   3
BRANCH   2  14
HETATM   14  C   UNL     1      -9.623  11.431  68.538  1.00  0.00    -0.190 A  
HETATM   15  C   UNL     1     -10.920  13.150  66.741  1.00  0.00    -0.279 A  
HETATM   16  C   UNL     1     -11.008  11.596  68.597  1.00  0.00    -0.266 A  
HETATM   17  C   UNL     1      -8.886  12.120  67.571  1.00  0.00    -0.175 A  
HETATM   18  C   UNL     1     -11.656  12.453  67.700  1.00  0.00    -0.421 A  
HETATM   19  C   UNL     1      -9.534  12.983  66.685  1.00  0.00    -0.256 A  
BRANCH  15  20
HETATM   20  O   UNL     1     -11.431  14.059  65.857  1.00  0.00    -0.317 OA 
HETATM   21  C   UNL     1     -12.775  13.847  65.445  1.00  0.00    -0.490 C  
ENDBRANCH  15  20
ENDBRANCH   2  14
TORSDOF 7
ENDMDL
MODEL      208
REMARK 921   NORMALIZED FREE ENERGY PREDICTED BY IDOCK:   -3.17 KCAL/MOL
REMARK 922        TOTAL FREE ENERGY PREDICTED BY IDOCK:   -5.59 KCAL/MOL
REMARK 923 INTER-LIGAND FREE ENERGY PREDICTED BY IDOCK:   -4.91 KCAL/MOL
REMARK 924 INTRA-LIGAND FREE ENERGY PREDICTED BY IDOCK:   -0.68 KCAL/MOL
REMARK 927      BINDING AFFINITY PREDICTED BY RF-SCORE:    0.00 PKD
ROOT
HETATM    1  C   UNL     1      -7.881  15.092  68.625  1.00  0.00    -0.140 C  
HETATM    2  C   UNL     1      -9.150  15.301  69.012  1.00  0.00    -0.225 C  
ENDROOT
BRANCH   1   3
HETATM    3  C   UNL     1      -6.860  16.163  68.570  1.00  0.00    -0.135 C  
HETATM    4  O   UNL     1      -6.404  16.679  69.581  1.00  0.00    -0.216 OA 
BRANCH   3   5
HETATM    5  O   UNL     1      -6.672  16.584  67.299  1.00  0.00    -0.146 OA 
BRANCH   5   6
HETATM    6  C   UNL     1      -7.886  16.707  66.554  1.00  0.00    -0.307 C  
HETATM    7  C   UNL     1     -10.038  17.963  66.121  1.00  0.00    -0.322 C  
HETATM    8  C   UNL     1      -7.464  19.699  65.688  1.00  0.00    -0.234 C  
HETATM    9  C   UNL     1      -8.006  19.225  67.031  1.00  0.00    -0.277 C  
HETATM   10  C   UNL     1      -8.768  17.880  67.002  1.00  0.00    -0.254 C  
BRANCH   7  11
HETATM   11  C   UNL     1     -10.908  16.702  66.200  1.00  0.00    -0.024 C  
BRANCH  11  12
HETATM   12  C   UNL     1     -10.872  15.889  64.909  1.00  0.00    -0.420 C  
HETATM   13  C   UNL     1     -10.729  14.404  65.212  1.00  0.00    -0.387 C  
ENDBRANCH  11  12
ENDBRANCH   7  11
ENDBRANCH   5   6
ENDBRANCH   3   5
ENDBRANCH   1   3
BRANCH   2  14
HETATM   14  C   UNL     1     -10.072  14.184  69.194  1.00  0.00    -0.023 A  
HETATM   15  C   UNL     1     -11.879  12.058  69.480  1.00  0.00    -0.326 A  
HETATM   16  C   UNL     1     -11.275  14.369  69.876  1.00  0.00    -0.226 A  
HETATM   17  C   UNL     1      -9.767  12.929  68.661  1.00  0.00    -0.047 A  
HETATM   18  C   UNL     1     -12.177  13.309  70.020  1.00  0.00    -0.345 A  
HETATM   19  C   UNL     1     -10.673  11.876  68.796  1.00  0.00    -0.257 A  
BRANCH  15  20
HETATM   20  O   UNL     1     -12.704  10.968  69.500  1.00  0.00    -0.253 OA 
HETATM   21  C   UNL     1     -12.979  10.414  70.780  1.00  0.00    -0.341 C  
ENDBRANCH  15  20
ENDBRANCH   2  14
TORSDOF 7
ENDMDL
MODEL      209
REMARK 921   NORMALIZED FREE ENERGY PREDICTED BY IDOCK:   -3.14 KCAL/MOL
REMARK 922        TOTAL FREE ENERGY PREDICTED BY IDOCK:   -5.55 KCAL/MOL
REMARK 923 INTER-LIGAND FREE ENERGY PREDICTED BY IDOCK:   -5.43 KCAL/MOL
REMARK 924 INTRA-LIGAND FREE ENERGY PREDICTED BY IDOCK:   -0.12 KCAL/MOL
REMARK 927      BINDING AFFINITY PREDICTED BY RF-SCORE:    0.00 PKD
ROOT
HETATM    1  C   UNL     1     -11.719   9.418  71.770  1.00  0.00    -0.444 C  
HETATM    2  C   UNL     1     -10.560   8.811  71.472  1.00  0.00    -0.379 C  
ENDROOT
BRANCH   1   3
HETATM    3  C   UNL     1     -12.355  10.433  70.899  1.00  0.00    -0.381 C  
HETATM    4  O   UNL     1     -13.524  10.351  70.551  1.00  0.00    -0.142 OA 
BRANCH   3   5
HETATM    5  O   UNL     1     -11.435  11.304  70.425  1.00  0.00    -0.271 OA 
BRANCH   5   6
HETATM    6  C   UNL     1     -10.523  10.717  69.493  1.00  0.00    -0.170 C  
HETATM    7  C   UNL     1     -10.068   9.878  67.151  1.00  0.00    -0.270 C  
HETATM    8  C   UNL     1     -10.835  12.915  67.267  1.00  0.00    -0.277 C  
HETATM    9  C   UNL     1     -11.781  11.745  67.507  1.00  0.00    -0.312 C  
HETATM   10  C   UNL     1     -11.130  10.476  68.105  1.00  0.00    -0.346 C  
BRANCH   7  11
HETATM   11  C   UNL     1      -9.520   8.528  67.632  1.00  0.00    -0.173 C  
BRANCH  11  12
HETATM   12  C   UNL     1      -9.967   7.369  66.745  1.00  0.00    -0.300 C  
HETATM   13  C   UNL     1     -11.070   6.568  67.423  1.00  0.00    -0.411 C  
ENDBRANCH  11  12
ENDBRANCH   7  11
ENDBRANCH   5   6
ENDBRANCH   3   5
ENDBRANCH   1   3
BRANCH   2  14
HETATM   14  C   UNL     1     -10.058   7.710  72.288  1.00  0.00    -0.260 A  
HETATM   15  C   UNL     1      -9.136   5.547  73.818  1.00  0.00    -0.123 A  
HETATM   16  C   UNL     1     -10.749   7.311  73.433  1.00  0.00    -0.415 A  
HETATM   17  C   UNL     1      -8.896   7.030  71.912  1.00  0.00    -0.128 A  
HETATM   18  C   UNL     1     -10.290   6.233  74.197  1.00  0.00    -0.319 A  
HETATM   19  C   UNL     1      -8.446   5.948  72.671  1.00  0.00    -0.119 A  
BRANCH  15  20
HETATM   20  O   UNL     1      -8.626   4.444  74.445  1.00  0.00    -0.096 OA 
HETATM   21  C   UNL     1      -9.311   3.219  74.215  1.00  0.00    -0.092 C  
ENDBRANCH  15  20
ENDBRANCH   2  14
TORSDOF 7
ENDMDL
MODEL      210
REMARK 921   NORMALIZED FREE ENERGY PREDICTED BY IDOCK:   -3.13 KCAL/MOL
REMARK 922        TOTAL FREE ENERGY PREDICTED BY IDOCK:   -5.54 KCAL/MOL
REMARK 923 INTER-LIGAND FREE ENERGY PREDICTED BY IDOCK:   -4.83 KCAL/MOL
REMARK 924 INTRA-LIGAND FREE ENERGY PREDICTED BY IDOCK:   -0.70 KCAL/MOL
REMARK 927      BINDING AFFINITY PREDICTED BY RF-SCORE:    0.00 PKD
ROOT
HETATM    1  C   UNL     1      -9.184   9.920  68.904  1.00  0.00    -0.160 C  
HETATM    2  C   UNL     1      -8.886  10.970  68.122  1.00  0.00    -0.141 C  
ENDROOT
BRANCH   1   3
HETATM    3  C   UNL     1      -8.205   9.273  69.806  1.00  0.00    -0.131 C  
HETATM    4  O   UNL     1      -7.640   9.886  70.701  1.00  0.00    -0.288 OA 
BRANCH   3   5
HETATM    5  O   UNL     1      -7.912   8.023  69.381  1.00  0.00    -0.111 OA 
BRANCH   5   6
HETATM    6  C   UNL     1      -8.365   7.753  68.052  1.00  0.00    -0.124 C  
HETATM    7  C   UNL     1      -9.242   6.086  66.364  1.00  0.00    -0.163 C  
HETATM    8  C   UNL     1     -11.090   6.420  68.874  1.00  0.00    -0.420 C  
HETATM    9  C   UNL     1      -9.730   5.733  68.851  1.00  0.00    -0.174 C  
HETATM   10  C   UNL     1      -8.726   6.282  67.811  1.00  0.00    -0.113 C  
BRANCH   7  11
HETATM   11  C   UNL     1      -8.204   6.465  65.299  1.00  0.00    -0.137 C  
BRANCH  11  12
HETATM   12  C   UNL     1      -7.070   5.448  65.206  1.00  0.00    -0.066 C  
HETATM   13  C   UNL     1      -5.756   6.064  65.668  1.00  0.00    -0.024 C  
ENDBRANCH  11  12
ENDBRANCH   7  11
ENDBRANCH   5   6
ENDBRANCH   3   5
ENDBRANCH   1   3
BRANCH   2  14
HETATM   14  C   UNL     1      -9.926  11.664  67.369  1.00  0.00    -0.200 A  
HETATM   15  C   UNL     1     -11.873  13.046  65.897  1.00  0.00    -0.416 A  
HETATM   16  C   UNL     1     -10.597  12.750  67.934  1.00  0.00    -0.232 A  
HETATM   17  C   UNL     1     -10.236  11.263  66.067  1.00  0.00    -0.295 A  
HETATM   18  C   UNL     1     -11.569  13.439  67.200  1.00  0.00    -0.399 A  
HETATM   19  C   UNL     1     -11.199  11.960  65.334  1.00  0.00    -0.351 A  
BRANCH  15  20
HETATM   20  O   UNL     1     -12.754  13.678  65.063  1.00  0.00    -0.622 OA 
HETATM   21  C   UNL     1     -12.182  14.451  64.016  1.00  0.00    -0.265 C  
ENDBRANCH  15  20
ENDBRANCH   2  14
TORSDOF 7
ENDMDL
MODEL      211
REMARK 921   NORMALIZED FREE ENERGY PREDICTED BY IDOCK:   -3.13 KCAL/MOL
REMARK 922        TOTAL FREE ENERGY PREDICTED BY IDOCK:   -5.53 KCAL/MOL
REMARK 923 INTER-LIGAND FREE ENERGY PREDICTED BY IDOCK:   -5.03 KCAL/MOL
REMARK 924 INTRA-LIGAND FREE ENERGY PREDICTED BY IDOCK:   -0.50 KCAL/MOL
REMARK 927      BINDING AFFINITY PREDICTED BY RF-SCORE:    0.00 PKD
ROOT
HETATM    1  C   UNL     1     -10.126   8.655  70.624  1.00  0.00    -0.237 C  
HETATM    2  C   UNL     1     -11.434   8.929  70.759  1.00  0.00    -0.319 C  
ENDROOT
BRANCH   1   3
HETATM    3  C   UNL     1      -9.600   7.291  70.391  1.00  0.00    -0.165 C  
HETATM    4  O   UNL     1      -9.974   6.329  71.047  1.00  0.00    -0.179 OA 
BRANCH   3   5
HETATM    5  O   UNL     1      -8.564   7.317  69.522  1.00  0.00    -0.133 OA 
BRANCH   5   6
HETATM    6  C   UNL     1      -8.712   6.403  68.433  1.00  0.00    -0.113 C  
HETATM    7  C   UNL     1      -7.680   5.221  66.450  1.00  0.00    -0.092 C  
HETATM    8  C   UNL     1      -6.257   4.582  69.169  1.00  0.00    -0.031 C  
HETATM    9  C   UNL     1      -6.194   5.906  68.417  1.00  0.00    -0.029 C  
HETATM   10  C   UNL     1      -7.446   6.254  67.578  1.00  0.00    -0.088 C  
BRANCH   7  11
HETATM   11  C   UNL     1      -8.812   5.620  65.494  1.00  0.00    -0.135 C  
BRANCH  11  12
HETATM   12  C   UNL     1      -9.773   4.467  65.217  1.00  0.00    -0.199 C  
HETATM   13  C   UNL     1      -9.068   3.350  64.460  1.00  0.00    -0.130 C  
ENDBRANCH  11  12
ENDBRANCH   7  11
ENDBRANCH   5   6
ENDBRANCH   3   5
ENDBRANCH   1   3
BRANCH   2  14
HETATM   14  C   UNL     1     -11.908  10.307  70.833  1.00  0.00    -0.473 A  
HETATM   15  C   UNL     1     -12.763  12.973  71.025  1.00  0.00    -0.262 A  
HETATM   16  C   UNL     1     -12.823  10.685  71.817  1.00  0.00    -0.549 A  
HETATM   17  C   UNL     1     -11.426  11.265  69.936  1.00  0.00    -0.373 A  
HETATM   18  C   UNL     1     -13.250  12.014  71.913  1.00  0.00    -0.469 A  
HETATM   19  C   UNL     1     -11.846  12.592  70.041  1.00  0.00    -0.358 A  
BRANCH  15  20
HETATM   20  O   UNL     1     -13.056  14.307  71.059  1.00  0.00    -0.345 OA 
HETATM   21  C   UNL     1     -11.997  15.174  71.443  1.00  0.00    -0.350 C  
ENDBRANCH  15  20
ENDBRANCH   2  14
TORSDOF 7
ENDMDL
MODEL      212
REMARK 921   NORMALIZED FREE ENERGY PREDICTED BY IDOCK:   -3.09 KCAL/MOL
REMARK 922        TOTAL FREE ENERGY PREDICTED BY IDOCK:   -5.48 KCAL/MOL
REMARK 923 INTER-LIGAND FREE ENERGY PREDICTED BY IDOCK:   -4.92 KCAL/MOL
REMARK 924 INTRA-LIGAND FREE ENERGY PREDICTED BY IDOCK:   -0.56 KCAL/MOL
REMARK 927      BINDING AFFINITY PREDICTED BY RF-SCORE:    0.00 PKD
ROOT
HETATM    1  C   UNL     1      -9.042  12.486  67.193  1.00  0.00    -0.205 C  
HETATM    2  C   UNL     1      -9.495  13.399  66.319  1.00  0.00    -0.196 C  
ENDROOT
BRANCH   1   3
HETATM    3  C   UNL     1      -8.878  11.052  66.860  1.00  0.00    -0.149 C  
HETATM    4  O   UNL     1      -8.096  10.669  66.000  1.00  0.00    -0.150 OA 
BRANCH   3   5
HETATM    5  O   UNL     1      -9.813  10.303  67.485  1.00  0.00    -0.165 OA 
BRANCH   5   6
HETATM    6  C   UNL     1      -9.365   9.749  68.724  1.00  0.00    -0.150 C  
HETATM    7  C   UNL     1      -9.565   7.941  70.482  1.00  0.00    -0.170 C  
HETATM    8  C   UNL     1      -8.831   6.848  67.637  1.00  0.00    -0.118 C  
HETATM    9  C   UNL     1     -10.183   7.410  68.056  1.00  0.00    -0.234 C  
HETATM   10  C   UNL     1     -10.140   8.497  69.156  1.00  0.00    -0.207 C  
BRANCH   7  11
HETATM   11  C   UNL     1      -9.660   8.939  71.643  1.00  0.00    -0.363 C  
BRANCH  11  12
HETATM   12  C   UNL     1      -9.908   8.251  72.983  1.00  0.00    -0.248 C  
HETATM   13  C   UNL     1     -10.559   6.890  72.775  1.00  0.00    -0.270 C  
ENDBRANCH  11  12
ENDBRANCH   7  11
ENDBRANCH   5   6
ENDBRANCH   3   5
ENDBRANCH   1   3
BRANCH   2  14
HETATM   14  C   UNL     1      -9.492  14.820  66.651  1.00  0.00    -0.293 A  
HETATM   15  C   UNL     1      -9.441  17.565  67.230  1.00  0.00    -0.253 A  
HETATM   16  C   UNL     1      -8.501  15.347  67.481  1.00  0.00    -0.188 A  
HETATM   17  C   UNL     1     -10.466  15.668  66.116  1.00  0.00    -0.327 A  
HETATM   18  C   UNL     1      -8.476  16.716  67.771  1.00  0.00    -0.191 A  
HETATM   19  C   UNL     1     -10.431  17.035  66.398  1.00  0.00    -0.252 A  
BRANCH  15  20
HETATM   20  O   UNL     1      -9.482  18.922  67.389  1.00  0.00    -0.293 OA 
HETATM   21  C   UNL     1     -10.449  19.616  66.612  1.00  0.00    -0.497 C  
ENDBRANCH  15  20
ENDBRANCH   2  14
TORSDOF 7
ENDMDL
MODEL      213
REMARK 921   NORMALIZED FREE ENERGY PREDICTED BY IDOCK:   -3.09 KCAL/MOL
REMARK 922        TOTAL FREE ENERGY PREDICTED BY IDOCK:   -5.47 KCAL/MOL
REMARK 923 INTER-LIGAND FREE ENERGY PREDICTED BY IDOCK:   -4.95 KCAL/MOL
REMARK 924 INTRA-LIGAND FREE ENERGY PREDICTED BY IDOCK:   -0.52 KCAL/MOL
REMARK 927      BINDING AFFINITY PREDICTED BY RF-SCORE:    0.00 PKD
ROOT
HETATM    1  C   UNL     1     -11.299   9.408  69.989  1.00  0.00    -0.172 C  
HETATM    2  C   UNL     1     -10.505   9.356  71.072  1.00  0.00    -0.392 C  
ENDROOT
BRANCH   1   3
HETATM    3  C   UNL     1     -11.338  10.563  69.064  1.00  0.00    -0.257 C  
HETATM    4  O   UNL     1     -12.299  11.317  69.006  1.00  0.00    -0.446 OA 
BRANCH   3   5
HETATM    5  O   UNL     1     -10.288  10.533  68.213  1.00  0.00    -0.155 OA 
BRANCH   5   6
HETATM    6  C   UNL     1      -9.798   9.215  67.958  1.00  0.00    -0.168 C  
HETATM    7  C   UNL     1      -9.422   7.328  66.317  1.00  0.00    -0.133 C  
HETATM    8  C   UNL     1      -7.961   9.986  65.527  1.00  0.00    -0.139 C  
HETATM    9  C   UNL     1      -9.464   9.742  65.470  1.00  0.00    -0.324 C  
HETATM   10  C   UNL     1     -10.015   8.744  66.514  1.00  0.00    -0.360 C  
BRANCH   7  11
HETATM   11  C   UNL     1     -10.068   6.273  67.225  1.00  0.00    -0.203 C  
BRANCH  11  12
HETATM   12  C   UNL     1     -10.376   4.976  66.482  1.00  0.00    -0.325 C  
HETATM   13  C   UNL     1      -9.410   3.876  66.898  1.00  0.00    -0.208 C  
ENDBRANCH  11  12
ENDBRANCH   7  11
ENDBRANCH   5   6
ENDBRANCH   3   5
ENDBRANCH   1   3
BRANCH   2  14
HETATM   14  C   UNL     1     -10.393   8.134  71.862  1.00  0.00    -0.300 A  
HETATM   15  C   UNL     1     -10.166   5.746  73.316  1.00  0.00    -0.200 A  
HETATM   16  C   UNL     1     -11.519   7.343  72.098  1.00  0.00    -0.322 A  
HETATM   17  C   UNL     1      -9.151   7.733  72.363  1.00  0.00    -0.208 A  
HETATM   18  C   UNL     1     -11.406   6.152  72.824  1.00  0.00    -0.259 A  
HETATM   19  C   UNL     1      -9.041   6.539  73.077  1.00  0.00    -0.136 A  
BRANCH  15  20
HETATM   20  O   UNL     1      -9.921   4.577  73.981  1.00  0.00    -0.142 OA 
HETATM   21  C   UNL     1      -9.253   3.563  73.243  1.00  0.00    -0.101 C  
ENDBRANCH  15  20
ENDBRANCH   2  14
TORSDOF 7
ENDMDL
MODEL      214
REMARK 921   NORMALIZED FREE ENERGY PREDICTED BY IDOCK:   -3.07 KCAL/MOL
REMARK 922        TOTAL FREE ENERGY PREDICTED BY IDOCK:   -5.45 KCAL/MOL
REMARK 923 INTER-LIGAND FREE ENERGY PREDICTED BY IDOCK:   -5.96 KCAL/MOL
REMARK 924 INTRA-LIGAND FREE ENERGY PREDICTED BY IDOCK:    0.50 KCAL/MOL
REMARK 927      BINDING AFFINITY PREDICTED BY RF-SCORE:    0.00 PKD
ROOT
HETATM    1  C   UNL     1     -10.088  16.474  68.841  1.00  0.00    -0.266 C  
HETATM    2  C   UNL     1      -9.227  17.495  68.989  1.00  0.00    -0.072 C  
ENDROOT
BRANCH   1   3
HETATM    3  C   UNL     1     -10.949  15.970  69.935  1.00  0.00    -0.353 C  
HETATM    4  O   UNL     1     -10.512  15.741  71.054  1.00  0.00     0.060 OA 
BRANCH   3   5
HETATM    5  O   UNL     1     -12.175  15.641  69.469  1.00  0.00    -0.337 OA 
BRANCH   5   6
HETATM    6  C   UNL     1     -12.397  14.231  69.395  1.00  0.00    -0.199 C  
HETATM    7  C   UNL     1     -12.408  11.982  70.551  1.00  0.00    -0.369 C  
HETATM    8  C   UNL     1     -14.376  14.059  71.831  1.00  0.00    -0.468 C  
HETATM    9  C   UNL     1     -12.855  14.100  71.916  1.00  0.00    -0.425 C  
HETATM   10  C   UNL     1     -12.106  13.491  70.708  1.00  0.00    -0.351 C  
BRANCH   7  11
HETATM   11  C   UNL     1     -11.557  11.307  69.468  1.00  0.00    -0.398 C  
BRANCH  11  12
HETATM   12  C   UNL     1     -10.754  10.127  70.011  1.00  0.00    -0.356 C  
HETATM   13  C   UNL     1      -9.303  10.210  69.558  1.00  0.00    -0.230 C  
ENDBRANCH  11  12
ENDBRANCH   7  11
ENDBRANCH   5   6
ENDBRANCH   3   5
ENDBRANCH   1   3
BRANCH   2  14
HETATM   14  C   UNL     1      -8.517  18.049  67.841  1.00  0.00    -0.253 A  
HETATM   15  C   UNL     1      -7.210  19.098  65.591  1.00  0.00    -0.191 A  
HETATM   16  C   UNL     1      -7.718  17.228  67.044  1.00  0.00    -0.227 A  
HETATM   17  C   UNL     1      -8.654  19.402  67.517  1.00  0.00    -0.338 A  
HETATM   18  C   UNL     1      -7.065  17.751  65.922  1.00  0.00    -0.278 A  
HETATM   19  C   UNL     1      -8.011  19.918  66.391  1.00  0.00    -0.345 A  
BRANCH  15  20
HETATM   20  O   UNL     1      -6.676  19.706  64.490  1.00  0.00    -0.328 OA 
HETATM   21  C   UNL     1      -5.682  20.692  64.737  1.00  0.00    -0.233 C  
ENDBRANCH  15  20
ENDBRANCH   2  14
TORSDOF 7
ENDMDL
MODEL      215
REMARK 921   NORMALIZED FREE ENERGY PREDICTED BY IDOCK:   -3.07 KCAL/MOL
REMARK 922        TOTAL FREE ENERGY PREDICTED BY IDOCK:   -5.45 KCAL/MOL
REMARK 923 INTER-LIGAND FREE ENERGY PREDICTED BY IDOCK:   -4.81 KCAL/MOL
REMARK 924 INTRA-LIGAND FREE ENERGY PREDICTED BY IDOCK:   -0.64 KCAL/MOL
REMARK 927      BINDING AFFINITY PREDICTED BY RF-SCORE:    0.00 PKD
ROOT
HETATM    1  C   UNL     1      -9.434  15.778  67.924  1.00  0.00    -0.212 C  
HETATM    2  C   UNL     1      -9.458  17.119  67.865  1.00  0.00    -0.257 C  
ENDROOT
BRANCH   1   3
HETATM    3  C   UNL     1     -10.490  14.973  68.580  1.00  0.00    -0.232 C  
HETATM    4  O   UNL     1     -10.894  15.224  69.707  1.00  0.00    -0.256 OA 
BRANCH   3   5
HETATM    5  O   UNL     1     -10.777  13.870  67.852  1.00  0.00    -0.236 OA 
BRANCH   5   6
HETATM    6  C   UNL     1     -10.252  12.665  68.412  1.00  0.00    -0.232 C  
HETATM    7  C   UNL     1      -8.855  10.576  68.124  1.00  0.00    -0.134 C  
HETATM    8  C   UNL     1      -7.242  13.231  67.706  1.00  0.00    -0.151 C  
HETATM    9  C   UNL     1      -8.291  12.665  66.757  1.00  0.00    -0.011 C  
HETATM   10  C   UNL     1      -9.415  11.839  67.426  1.00  0.00    -0.174 C  
BRANCH   7  11
HETATM   11  C   UNL     1      -9.953   9.646  68.655  1.00  0.00    -0.179 C  
BRANCH  11  12
HETATM   12  C   UNL     1     -10.438   8.657  67.598  1.00  0.00    -0.311 C  
HETATM   13  C   UNL     1     -10.778   7.315  68.233  1.00  0.00    -0.174 C  
ENDBRANCH  11  12
ENDBRANCH   7  11
ENDBRANCH   5   6
ENDBRANCH   3   5
ENDBRANCH   1   3
BRANCH   2  14
HETATM   14  C   UNL     1      -8.474  17.852  67.076  1.00  0.00    -0.248 A  
HETATM   15  C   UNL     1      -6.621  19.244  65.495  1.00  0.00    -0.270 A  
HETATM   16  C   UNL     1      -7.368  17.191  66.539  1.00  0.00    -0.311 A  
HETATM   17  C   UNL     1      -8.648  19.217  66.828  1.00  0.00    -0.321 A  
HETATM   18  C   UNL     1      -6.442  17.885  65.751  1.00  0.00    -0.263 A  
HETATM   19  C   UNL     1      -7.729  19.904  66.032  1.00  0.00    -0.337 A  
BRANCH  15  20
HETATM   20  O   UNL     1      -5.823  20.011  64.692  1.00  0.00    -0.201 OA 
HETATM   21  C   UNL     1      -5.291  19.370  63.540  1.00  0.00    -0.296 C  
ENDBRANCH  15  20
ENDBRANCH   2  14
TORSDOF 7
ENDMDL
MODEL      216
REMARK 921   NORMALIZED FREE ENERGY PREDICTED BY IDOCK:   -3.06 KCAL/MOL
REMARK 922        TOTAL FREE ENERGY PREDICTED BY IDOCK:   -5.44 KCAL/MOL
REMARK 923 INTER-LIGAND FREE ENERGY PREDICTED BY IDOCK:   -4.94 KCAL/MOL
REMARK 924 INTRA-LIGAND FREE ENERGY PREDICTED BY IDOCK:   -0.50 KCAL/MOL
REMARK 927      BINDING AFFINITY PREDICTED BY RF-SCORE:    0.00 PKD
ROOT
HETATM    1  C   UNL     1     -10.062  12.578  66.482  1.00  0.00    -0.250 C  
HETATM    2  C   UNL     1     -10.828  13.581  66.023  1.00  0.00    -0.282 C  
ENDROOT
BRANCH   1   3
HETATM    3  C   UNL     1     -10.010  11.239  65.851  1.00  0.00    -0.234 C  
HETATM    4  O   UNL     1      -9.848  11.092  64.648  1.00  0.00    -0.241 OA 
BRANCH   3   5
HETATM    5  O   UNL     1     -10.346  10.276  66.740  1.00  0.00    -0.221 OA 
BRANCH   5   6
HETATM    6  C   UNL     1      -9.246   9.447  67.123  1.00  0.00    -0.134 C  
HETATM    7  C   UNL     1      -8.316   7.662  68.655  1.00  0.00    -0.129 C  
HETATM    8  C   UNL     1     -10.803   6.719  66.997  1.00  0.00    -0.453 C  
HETATM    9  C   UNL     1     -10.825   7.708  68.156  1.00  0.00    -0.040 C  
HETATM   10  C   UNL     1      -9.541   8.552  68.334  1.00  0.00    -0.157 C  
BRANCH   7  11
HETATM   11  C   UNL     1      -7.060   8.472  69.003  1.00  0.00    -0.065 C  
BRANCH  11  12
HETATM   12  C   UNL     1      -5.966   7.609  69.625  1.00  0.00    -0.027 C  
HETATM   13  C   UNL     1      -6.485   6.206  69.910  1.00  0.00    -0.043 C  
ENDBRANCH  11  12
ENDBRANCH   7  11
ENDBRANCH   5   6
ENDBRANCH   3   5
ENDBRANCH   1   3
BRANCH   2  14
HETATM   14  C   UNL     1     -10.725  14.922  66.588  1.00  0.00    -0.312 A  
HETATM   15  C   UNL     1     -10.466  17.478  67.715  1.00  0.00    -0.381 A  
HETATM   16  C   UNL     1     -11.377  15.235  67.781  1.00  0.00    -0.331 A  
HETATM   17  C   UNL     1      -9.947  15.894  65.952  1.00  0.00    -0.377 A  
HETATM   18  C   UNL     1     -11.250  16.510  68.344  1.00  0.00    -0.280 A  
HETATM   19  C   UNL     1      -9.813  17.162  66.521  1.00  0.00    -0.305 A  
BRANCH  15  20
HETATM   20  O   UNL     1     -10.216  18.732  68.199  1.00  0.00    -0.358 OA 
HETATM   21  C   UNL     1      -8.857  19.148  68.190  1.00  0.00    -0.319 C  
ENDBRANCH  15  20
ENDBRANCH   2  14
TORSDOF 7
ENDMDL
MODEL      217
REMARK 921   NORMALIZED FREE ENERGY PREDICTED BY IDOCK:   -3.05 KCAL/MOL
REMARK 922        TOTAL FREE ENERGY PREDICTED BY IDOCK:   -5.43 KCAL/MOL
REMARK 923 INTER-LIGAND FREE ENERGY PREDICTED BY IDOCK:   -4.35 KCAL/MOL
REMARK 924 INTRA-LIGAND FREE ENERGY PREDICTED BY IDOCK:   -1.07 KCAL/MOL
REMARK 927      BINDING AFFINITY PREDICTED BY RF-SCORE:    0.00 PKD
ROOT
HETATM    1  C   UNL     1     -10.228  10.039  67.489  1.00  0.00    -0.260 C  
HETATM    2  C   UNL     1     -11.309  10.811  67.291  1.00  0.00    -0.173 C  
ENDROOT
BRANCH   1   3
HETATM    3  C   UNL     1     -10.194   8.591  67.177  1.00  0.00    -0.284 C  
HETATM    4  O   UNL     1     -10.492   7.741  68.004  1.00  0.00    -0.207 OA 
BRANCH   3   5
HETATM    5  O   UNL     1      -9.628   8.373  65.969  1.00  0.00    -0.207 OA 
BRANCH   5   6
HETATM    6  C   UNL     1      -8.460   9.164  65.736  1.00  0.00    -0.141 C  
HETATM    7  C   UNL     1      -5.954   9.434  65.951  1.00  0.00    -0.055 C  
HETATM    8  C   UNL     1      -6.806   6.925  64.276  1.00  0.00    -0.046 C  
HETATM    9  C   UNL     1      -6.956   7.085  65.784  1.00  0.00    -0.060 C  
HETATM   10  C   UNL     1      -7.170   8.535  66.280  1.00  0.00    -0.078 C  
BRANCH   7  11
HETATM   11  C   UNL     1      -6.056  10.834  66.572  1.00  0.00    -0.103 C  
BRANCH  11  12
HETATM   12  C   UNL     1      -6.135  10.789  68.096  1.00  0.00    -0.050 C  
HETATM   13  C   UNL     1      -7.123  11.826  68.613  1.00  0.00    -0.101 C  
ENDBRANCH  11  12
ENDBRANCH   7  11
ENDBRANCH   5   6
ENDBRANCH   3   5
ENDBRANCH   1   3
BRANCH   2  14
HETATM   14  C   UNL     1     -11.240  12.257  67.471  1.00  0.00    -0.354 A  
HETATM   15  C   UNL     1     -11.051  15.041  67.766  1.00  0.00    -0.310 A  
HETATM   16  C   UNL     1     -10.381  12.808  68.423  1.00  0.00    -0.248 A  
HETATM   17  C   UNL     1     -12.014  13.102  66.669  1.00  0.00    -0.451 A  
HETATM   18  C   UNL     1     -10.287  14.196  68.572  1.00  0.00    -0.249 A  
HETATM   19  C   UNL     1     -11.909  14.487  66.813  1.00  0.00    -0.390 A  
BRANCH  15  20
HETATM   20  O   UNL     1     -10.998  16.407  67.775  1.00  0.00    -0.325 OA 
HETATM   21  C   UNL     1      -9.734  16.984  68.079  1.00  0.00    -0.260 C  
ENDBRANCH  15  20
ENDBRANCH   2  14
TORSDOF 7
ENDMDL
MODEL      218
REMARK 921   NORMALIZED FREE ENERGY PREDICTED BY IDOCK:   -3.05 KCAL/MOL
REMARK 922        TOTAL FREE ENERGY PREDICTED BY IDOCK:   -5.42 KCAL/MOL
REMARK 923 INTER-LIGAND FREE ENERGY PREDICTED BY IDOCK:   -5.18 KCAL/MOL
REMARK 924 INTRA-LIGAND FREE ENERGY PREDICTED BY IDOCK:   -0.24 KCAL/MOL
REMARK 927      BINDING AFFINITY PREDICTED BY RF-SCORE:    0.00 PKD
ROOT
HETATM    1  C   UNL     1     -10.644   9.137  71.482  1.00  0.00    -0.428 C  
HETATM    2  C   UNL     1     -10.928   9.512  70.224  1.00  0.00    -0.317 C  
ENDROOT
BRANCH   1   3
HETATM    3  C   UNL     1     -10.251   7.758  71.851  1.00  0.00    -0.202 C  
HETATM    4  O   UNL     1      -9.378   7.529  72.677  1.00  0.00    -0.142 OA 
BRANCH   3   5
HETATM    5  O   UNL     1     -10.841   6.855  71.036  1.00  0.00    -0.231 OA 
BRANCH   5   6
HETATM    6  C   UNL     1     -10.320   6.864  69.705  1.00  0.00    -0.206 C  
HETATM    7  C   UNL     1      -8.437   6.287  68.117  1.00  0.00    -0.114 C  
HETATM    8  C   UNL     1      -9.666   3.792  69.565  1.00  0.00    -0.152 C  
HETATM    9  C   UNL     1      -8.796   4.863  70.213  1.00  0.00    -0.134 C  
HETATM   10  C   UNL     1      -8.907   6.275  69.592  1.00  0.00    -0.136 C  
BRANCH   7  11
HETATM   11  C   UNL     1      -8.375   7.698  67.517  1.00  0.00    -0.120 C  
BRANCH  11  12
HETATM   12  C   UNL     1      -9.096   7.791  66.175  1.00  0.00    -0.199 C  
HETATM   13  C   UNL     1      -9.952   9.048  66.112  1.00  0.00    -0.311 C  
ENDBRANCH  11  12
ENDBRANCH   7  11
ENDBRANCH   5   6
ENDBRANCH   3   5
ENDBRANCH   1   3
BRANCH   2  14
HETATM   14  C   UNL     1     -11.159  10.914  69.894  1.00  0.00    -0.311 A  
HETATM   15  C   UNL     1     -11.551  13.630  69.310  1.00  0.00    -0.311 A  
HETATM   16  C   UNL     1     -12.079  11.668  70.627  1.00  0.00    -0.432 A  
HETATM   17  C   UNL     1     -10.440  11.520  68.860  1.00  0.00    -0.212 A  
HETATM   18  C   UNL     1     -12.275  13.022  70.335  1.00  0.00    -0.386 A  
HETATM   19  C   UNL     1     -10.631  12.874  68.579  1.00  0.00    -0.270 A  
BRANCH  15  20
HETATM   20  O   UNL     1     -11.610  14.954  68.975  1.00  0.00    -0.275 OA 
HETATM   21  C   UNL     1     -10.700  15.813  69.650  1.00  0.00    -0.292 C  
ENDBRANCH  15  20
ENDBRANCH   2  14
TORSDOF 7
ENDMDL
MODEL      219
REMARK 921   NORMALIZED FREE ENERGY PREDICTED BY IDOCK:   -3.01 KCAL/MOL
REMARK 922        TOTAL FREE ENERGY PREDICTED BY IDOCK:   -5.36 KCAL/MOL
REMARK 923 INTER-LIGAND FREE ENERGY PREDICTED BY IDOCK:   -4.56 KCAL/MOL
REMARK 924 INTRA-LIGAND FREE ENERGY PREDICTED BY IDOCK:   -0.81 KCAL/MOL
REMARK 927      BINDING AFFINITY PREDICTED BY RF-SCORE:    0.00 PKD
ROOT
HETATM    1  C   UNL     1      -8.230  11.286  67.943  1.00  0.00    -0.123 C  
HETATM    2  C   UNL     1      -8.349  10.192  68.713  1.00  0.00    -0.122 C  
ENDROOT
BRANCH   1   3
HETATM    3  C   UNL     1      -7.943  12.634  68.483  1.00  0.00    -0.093 C  
HETATM    4  O   UNL     1      -6.822  12.965  68.845  1.00  0.00    -0.093 OA 
BRANCH   3   5
HETATM    5  O   UNL     1      -9.087  13.328  68.679  1.00  0.00    -0.109 OA 
BRANCH   5   6
HETATM    6  C   UNL     1      -9.893  13.440  67.503  1.00  0.00    -0.227 C  
HETATM    7  C   UNL     1     -12.106  14.068  66.452  1.00  0.00    -0.483 C  
HETATM    8  C   UNL     1     -10.688  16.454  67.909  1.00  0.00    -0.332 C  
HETATM    9  C   UNL     1     -11.345  15.257  68.586  1.00  0.00    -0.327 C  
HETATM   10  C   UNL     1     -11.318  13.939  67.778  1.00  0.00    -0.335 C  
BRANCH   7  11
HETATM   11  C   UNL     1     -12.244  12.736  65.702  1.00  0.00    -0.503 C  
BRANCH  11  12
HETATM   12  C   UNL     1     -11.806  12.843  64.244  1.00  0.00    -0.457 C  
HETATM   13  C   UNL     1     -10.674  11.867  63.950  1.00  0.00    -0.450 C  
ENDBRANCH  11  12
ENDBRANCH   7  11
ENDBRANCH   5   6
ENDBRANCH   3   5
ENDBRANCH   1   3
BRANCH   2  14
HETATM   14  C   UNL     1      -8.480   8.866  68.118  1.00  0.00    -0.129 A  
HETATM   15  C   UNL     1      -8.800   6.312  67.002  1.00  0.00    -0.108 A  
HETATM   16  C   UNL     1      -8.111   7.730  68.840  1.00  0.00    -0.126 A  
HETATM   17  C   UNL     1      -9.002   8.724  66.829  1.00  0.00    -0.161 A  
HETATM   18  C   UNL     1      -8.270   6.456  68.285  1.00  0.00    -0.116 A  
HETATM   19  C   UNL     1      -9.169   7.451  66.281  1.00  0.00    -0.182 A  
BRANCH  15  20
HETATM   20  O   UNL     1      -9.060   5.122  66.381  1.00  0.00    -0.124 OA 
HETATM   21  C   UNL     1      -9.401   5.195  65.003  1.00  0.00     0.044 C  
ENDBRANCH  15  20
ENDBRANCH   2  14
TORSDOF 7
ENDMDL
MODEL      220
REMARK 921   NORMALIZED FREE ENERGY PREDICTED BY IDOCK:   -3.00 KCAL/MOL
REMARK 922        TOTAL FREE ENERGY PREDICTED BY IDOCK:   -5.36 KCAL/MOL
REMARK 923 INTER-LIGAND FREE ENERGY PREDICTED BY IDOCK:   -4.87 KCAL/MOL
REMARK 924 INTRA-LIGAND FREE ENERGY PREDICTED BY IDOCK:   -0.49 KCAL/MOL
REMARK 927      BINDING AFFINITY PREDICTED BY RF-SCORE:    0.00 PKD
ROOT
HETATM    1  C   UNL     1     -11.221  10.331  70.035  1.00  0.00    -0.376 C  
HETATM    2  C   UNL     1     -10.574   9.828  68.971  1.00  0.00    -0.238 C  
ENDROOT
BRANCH   1   3
HETATM    3  C   UNL     1     -11.859  11.667  70.043  1.00  0.00    -0.355 C  
HETATM    4  O   UNL     1     -12.513  12.070  70.994  1.00  0.00    -0.368 OA 
BRANCH   3   5
HETATM    5  O   UNL     1     -11.767  12.251  68.827  1.00  0.00    -0.302 OA 
BRANCH   5   6
HETATM    6  C   UNL     1     -10.610  13.078  68.678  1.00  0.00    -0.236 C  
HETATM    7  C   UNL     1      -9.614  15.298  67.989  1.00  0.00    -0.203 C  
HETATM    8  C   UNL     1     -11.720  15.531  70.299  1.00  0.00    -0.367 C  
HETATM    9  C   UNL     1     -12.025  15.211  68.841  1.00  0.00    -0.284 C  
HETATM   10  C   UNL     1     -10.910  14.458  68.078  1.00  0.00    -0.250 C  
BRANCH   7  11
HETATM   11  C   UNL     1      -8.541  14.656  67.099  1.00  0.00    -0.244 C  
BRANCH  11  12
HETATM   12  C   UNL     1      -7.179  14.595  67.784  1.00  0.00    -0.191 C  
HETATM   13  C   UNL     1      -6.539  13.228  67.586  1.00  0.00    -0.172 C  
ENDBRANCH  11  12
ENDBRANCH   7  11
ENDBRANCH   5   6
ENDBRANCH   3   5
ENDBRANCH   1   3
BRANCH   2  14
HETATM   14  C   UNL     1     -10.099   8.448  68.966  1.00  0.00    -0.209 A  
HETATM   15  C   UNL     1      -9.230   5.782  68.897  1.00  0.00    -0.115 A  
HETATM   16  C   UNL     1     -10.777   7.467  69.691  1.00  0.00    -0.236 A  
HETATM   17  C   UNL     1      -8.976   8.095  68.211  1.00  0.00    -0.136 A  
HETATM   18  C   UNL     1     -10.344   6.137  69.658  1.00  0.00    -0.277 A  
HETATM   19  C   UNL     1      -8.553   6.765  68.171  1.00  0.00    -0.120 A  
BRANCH  15  20
HETATM   20  O   UNL     1      -8.752   4.511  68.737  1.00  0.00    -0.090 OA 
HETATM   21  C   UNL     1      -9.644   3.575  68.146  1.00  0.00    -0.100 C  
ENDBRANCH  15  20
ENDBRANCH   2  14
TORSDOF 7
ENDMDL
MODEL      221
REMARK 921   NORMALIZED FREE ENERGY PREDICTED BY IDOCK:   -3.00 KCAL/MOL
REMARK 922        TOTAL FREE ENERGY PREDICTED BY IDOCK:   -5.35 KCAL/MOL
REMARK 923 INTER-LIGAND FREE ENERGY PREDICTED BY IDOCK:   -4.66 KCAL/MOL
REMARK 924 INTRA-LIGAND FREE ENERGY PREDICTED BY IDOCK:   -0.70 KCAL/MOL
REMARK 927      BINDING AFFINITY PREDICTED BY RF-SCORE:    0.00 PKD
ROOT
HETATM    1  C   UNL     1      -8.299   5.859  68.732  1.00  0.00    -0.105 C  
HETATM    2  C   UNL     1      -8.536   6.367  67.511  1.00  0.00    -0.116 C  
ENDROOT
BRANCH   1   3
HETATM    3  C   UNL     1      -7.870   6.682  69.886  1.00  0.00    -0.115 C  
HETATM    4  O   UNL     1      -6.985   7.521  69.793  1.00  0.00    -0.053 OA 
BRANCH   3   5
HETATM    5  O   UNL     1      -8.445   6.244  71.029  1.00  0.00    -0.125 OA 
BRANCH   5   6
HETATM    6  C   UNL     1      -9.298   7.212  71.644  1.00  0.00    -0.152 C  
HETATM    7  C   UNL     1     -11.616   7.877  72.407  1.00  0.00    -0.436 C  
HETATM    8  C   UNL     1     -10.541   5.274  73.785  1.00  0.00    -0.330 C  
HETATM    9  C   UNL     1     -10.979   5.399  72.331  1.00  0.00    -0.298 C  
HETATM   10  C   UNL     1     -10.773   6.793  71.692  1.00  0.00    -0.252 C  
BRANCH   7  11
HETATM   11  C   UNL     1     -11.569   9.238  71.701  1.00  0.00    -0.463 C  
BRANCH  11  12
HETATM   12  C   UNL     1     -12.958   9.841  71.507  1.00  0.00    -0.504 C  
HETATM   13  C   UNL     1     -14.028   8.917  72.070  1.00  0.00    -0.497 C  
ENDBRANCH  11  12
ENDBRANCH   7  11
ENDBRANCH   5   6
ENDBRANCH   3   5
ENDBRANCH   1   3
BRANCH   2  14
HETATM   14  C   UNL     1      -9.103   5.539  66.452  1.00  0.00    -0.145 A  
HETATM   15  C   UNL     1     -10.199   4.008  64.372  1.00  0.00    -0.198 A  
HETATM   16  C   UNL     1     -10.486   5.384  66.344  1.00  0.00    -0.324 A  
HETATM   17  C   UNL     1      -8.265   4.917  65.522  1.00  0.00    -0.116 A  
HETATM   18  C   UNL     1     -11.034   4.621  65.307  1.00  0.00     0.001 A  
HETATM   19  C   UNL     1      -8.815   4.165  64.482  1.00  0.00    -0.137 A  
BRANCH  15  20
HETATM   20  O   UNL     1     -10.617   3.293  63.284  1.00  0.00    -0.201 OA 
HETATM   21  C   UNL     1      -9.597   2.701  62.492  1.00  0.00    -0.088 C  
ENDBRANCH  15  20
ENDBRANCH   2  14
TORSDOF 7
ENDMDL
MODEL      222
REMARK 921   NORMALIZED FREE ENERGY PREDICTED BY IDOCK:   -3.00 KCAL/MOL
REMARK 922        TOTAL FREE ENERGY PREDICTED BY IDOCK:   -5.35 KCAL/MOL
REMARK 923 INTER-LIGAND FREE ENERGY PREDICTED BY IDOCK:   -4.64 KCAL/MOL
REMARK 924 INTRA-LIGAND FREE ENERGY PREDICTED BY IDOCK:   -0.71 KCAL/MOL
REMARK 927      BINDING AFFINITY PREDICTED BY RF-SCORE:    0.00 PKD
ROOT
HETATM    1  C   UNL     1      -8.352   9.542  69.059  1.00  0.00    -0.126 C  
HETATM    2  C   UNL     1      -8.580   9.494  70.381  1.00  0.00    -0.246 C  
ENDROOT
BRANCH   1   3
HETATM    3  C   UNL     1      -8.216  10.808  68.303  1.00  0.00    -0.124 C  
HETATM    4  O   UNL     1      -7.230  11.057  67.624  1.00  0.00    -0.088 OA 
BRANCH   3   5
HETATM    5  O   UNL     1      -9.209  11.668  68.622  1.00  0.00    -0.179 OA 
BRANCH   5   6
HETATM    6  C   UNL     1      -9.900  12.188  67.484  1.00  0.00    -0.191 C  
HETATM    7  C   UNL     1     -12.093  12.794  66.378  1.00  0.00    -0.370 C  
HETATM    8  C   UNL     1     -11.556  14.360  69.041  1.00  0.00    -0.330 C  
HETATM    9  C   UNL     1     -11.905  12.880  68.929  1.00  0.00    -0.352 C  
HETATM   10  C   UNL     1     -11.428  12.182  67.634  1.00  0.00    -0.399 C  
BRANCH   7  11
HETATM   11  C   UNL     1     -11.774  12.022  65.091  1.00  0.00    -0.315 C  
BRANCH  11  12
HETATM   12  C   UNL     1     -11.143  12.910  64.021  1.00  0.00    -0.455 C  
HETATM   13  C   UNL     1     -10.867  14.302  64.573  1.00  0.00    -0.305 C  
ENDBRANCH  11  12
ENDBRANCH   7  11
ENDBRANCH   5   6
ENDBRANCH   3   5
ENDBRANCH   1   3
BRANCH   2  14
HETATM   14  C   UNL     1      -8.552   8.224  71.100  1.00  0.00    -0.168 A  
HETATM   15  C   UNL     1      -8.573   5.775  72.469  1.00  0.00    -0.120 A  
HETATM   16  C   UNL     1      -8.828   8.184  72.468  1.00  0.00    -0.272 A  
HETATM   17  C   UNL     1      -8.277   7.036  70.417  1.00  0.00    -0.124 A  
HETATM   18  C   UNL     1      -8.838   6.963  73.152  1.00  0.00    -0.142 A  
HETATM   19  C   UNL     1      -8.299   5.819  71.100  1.00  0.00    -0.123 A  
BRANCH  15  20
HETATM   20  O   UNL     1      -8.616   4.522  73.013  1.00  0.00    -0.105 OA 
HETATM   21  C   UNL     1      -9.063   4.437  74.360  1.00  0.00    -0.103 C  
ENDBRANCH  15  20
ENDBRANCH   2  14
TORSDOF 7
ENDMDL
MODEL      223
REMARK 921   NORMALIZED FREE ENERGY PREDICTED BY IDOCK:   -2.99 KCAL/MOL
REMARK 922        TOTAL FREE ENERGY PREDICTED BY IDOCK:   -5.34 KCAL/MOL
REMARK 923 INTER-LIGAND FREE ENERGY PREDICTED BY IDOCK:   -4.71 KCAL/MOL
REMARK 924 INTRA-LIGAND FREE ENERGY PREDICTED BY IDOCK:   -0.63 KCAL/MOL
REMARK 927      BINDING AFFINITY PREDICTED BY RF-SCORE:    0.00 PKD
ROOT
HETATM    1  C   UNL     1      -8.738   7.436  68.436  1.00  0.00    -0.123 C  
HETATM    2  C   UNL     1      -9.516   6.381  68.146  1.00  0.00    -0.114 C  
ENDROOT
BRANCH   1   3
HETATM    3  C   UNL     1      -8.933   8.287  69.632  1.00  0.00    -0.149 C  
HETATM    4  O   UNL     1      -8.645   7.904  70.757  1.00  0.00    -0.128 OA 
BRANCH   3   5
HETATM    5  O   UNL     1      -9.619   9.409  69.317  1.00  0.00    -0.161 OA 
BRANCH   5   6
HETATM    6  C   UNL     1     -10.945   9.435  69.852  1.00  0.00    -0.229 C  
HETATM    7  C   UNL     1     -12.779  10.726  71.021  1.00  0.00    -0.513 C  
HETATM    8  C   UNL     1     -11.904  11.988  68.288  1.00  0.00    -0.351 C  
HETATM    9  C   UNL     1     -11.084  11.982  69.572  1.00  0.00    -0.140 C  
HETATM   10  C   UNL     1     -11.320  10.772  70.506  1.00  0.00    -0.289 C  
BRANCH   7  11
HETATM   11  C   UNL     1     -13.010   9.639  72.078  1.00  0.00    -0.518 C  
BRANCH  11  12
HETATM   12  C   UNL     1     -14.165   8.710  71.714  1.00  0.00    -0.490 C  
HETATM   13  C   UNL     1     -13.658   7.297  71.457  1.00  0.00    -0.442 C  
ENDBRANCH  11  12
ENDBRANCH   7  11
ENDBRANCH   5   6
ENDBRANCH   3   5
ENDBRANCH   1   3
BRANCH   2  14
HETATM   14  C   UNL     1      -9.187   5.487  67.041  1.00  0.00    -0.116 A  
HETATM   15  C   UNL     1      -8.553   3.711  64.963  1.00  0.00    -0.109 A  
HETATM   16  C   UNL     1      -7.854   5.186  66.752  1.00  0.00    -0.100 A  
HETATM   17  C   UNL     1     -10.205   4.905  66.280  1.00  0.00    -0.312 A  
HETATM   18  C   UNL     1      -7.538   4.301  65.716  1.00  0.00    -0.086 A  
HETATM   19  C   UNL     1      -9.886   4.014  65.254  1.00  0.00    -0.199 A  
BRANCH  15  20
HETATM   20  O   UNL     1      -8.371   2.788  63.972  1.00  0.00    -0.085 OA 
HETATM   21  C   UNL     1      -7.204   1.983  64.071  1.00  0.00    -0.055 C  
ENDBRANCH  15  20
ENDBRANCH   2  14
TORSDOF 7
ENDMDL
MODEL      224
REMARK 921   NORMALIZED FREE ENERGY PREDICTED BY IDOCK:   -2.99 KCAL/MOL
REMARK 922        TOTAL FREE ENERGY PREDICTED BY IDOCK:   -5.33 KCAL/MOL
REMARK 923 INTER-LIGAND FREE ENERGY PREDICTED BY IDOCK:   -4.56 KCAL/MOL
REMARK 924 INTRA-LIGAND FREE ENERGY PREDICTED BY IDOCK:   -0.77 KCAL/MOL
REMARK 927      BINDING AFFINITY PREDICTED BY RF-SCORE:    0.00 PKD
ROOT
HETATM    1  C   UNL     1      -7.901  13.518  67.766  1.00  0.00    -0.167 C  
HETATM    2  C   UNL     1      -8.840  12.558  67.781  1.00  0.00    -0.178 C  
ENDROOT
BRANCH   1   3
HETATM    3  C   UNL     1      -7.770  14.544  68.826  1.00  0.00    -0.140 C  
HETATM    4  O   UNL     1      -6.918  14.471  69.700  1.00  0.00    -0.152 OA 
BRANCH   3   5
HETATM    5  O   UNL     1      -8.803  15.415  68.782  1.00  0.00    -0.171 OA 
BRANCH   5   6
HETATM    6  C   UNL     1      -8.397  16.770  68.576  1.00  0.00    -0.243 C  
HETATM    7  C   UNL     1      -7.602  18.570  66.987  1.00  0.00    -0.234 C  
HETATM    8  C   UNL     1     -10.405  17.385  66.237  1.00  0.00    -0.330 C  
HETATM    9  C   UNL     1      -9.067  16.669  66.101  1.00  0.00    -0.318 C  
HETATM   10  C   UNL     1      -7.987  17.078  67.130  1.00  0.00    -0.214 C  
BRANCH   7  11
HETATM   11  C   UNL     1      -6.417  18.973  67.875  1.00  0.00    -0.237 C  
BRANCH  11  12
HETATM   12  C   UNL     1      -6.692  20.249  68.667  1.00  0.00    -0.294 C  
HETATM   13  C   UNL     1      -6.247  20.089  70.114  1.00  0.00    -0.393 C  
ENDBRANCH  11  12
ENDBRANCH   7  11
ENDBRANCH   5   6
ENDBRANCH   3   5
ENDBRANCH   1   3
BRANCH   2  14
HETATM   14  C   UNL     1      -8.829  11.483  66.794  1.00  0.00    -0.183 A  
HETATM   15  C   UNL     1      -8.803   9.468  64.843  1.00  0.00    -0.203 A  
HETATM   16  C   UNL     1     -10.024  11.027  66.237  1.00  0.00    -0.269 A  
HETATM   17  C   UNL     1      -7.617  10.923  66.381  1.00  0.00    -0.146 A  
HETATM   18  C   UNL     1     -10.012  10.021  65.264  1.00  0.00    -0.368 A  
HETATM   19  C   UNL     1      -7.607   9.928  65.402  1.00  0.00    -0.131 A  
BRANCH  15  20
HETATM   20  O   UNL     1      -8.660   8.530  63.859  1.00  0.00    -0.087 OA 
HETATM   21  C   UNL     1      -7.395   8.488  63.210  1.00  0.00    -0.103 C  
ENDBRANCH  15  20
ENDBRANCH   2  14
TORSDOF 7
ENDMDL
MODEL      225
REMARK 921   NORMALIZED FREE ENERGY PREDICTED BY IDOCK:   -2.97 KCAL/MOL
REMARK 922        TOTAL FREE ENERGY PREDICTED BY IDOCK:   -5.30 KCAL/MOL
REMARK 923 INTER-LIGAND FREE ENERGY PREDICTED BY IDOCK:   -4.25 KCAL/MOL
REMARK 924 INTRA-LIGAND FREE ENERGY PREDICTED BY IDOCK:   -1.05 KCAL/MOL
REMARK 927      BINDING AFFINITY PREDICTED BY RF-SCORE:    0.00 PKD
ROOT
HETATM    1  C   UNL     1      -8.386   8.389  65.996  1.00  0.00    -0.128 C  
HETATM    2  C   UNL     1      -9.552   9.006  65.743  1.00  0.00    -0.287 C  
ENDROOT
BRANCH   1   3
HETATM    3  C   UNL     1      -7.935   7.176  65.278  1.00  0.00    -0.127 C  
HETATM    4  O   UNL     1      -7.993   7.081  64.060  1.00  0.00    -0.125 OA 
BRANCH   3   5
HETATM    5  O   UNL     1      -7.648   6.181  66.148  1.00  0.00    -0.087 OA 
BRANCH   5   6
HETATM    6  C   UNL     1      -8.435   6.222  67.340  1.00  0.00    -0.108 C  
HETATM    7  C   UNL     1     -10.288   5.224  68.742  1.00  0.00    -0.206 C  
HETATM    8  C   UNL     1      -7.917   3.245  68.205  1.00  0.00    -0.065 C  
HETATM    9  C   UNL     1      -8.941   3.712  67.178  1.00  0.00    -0.162 C  
HETATM   10  C   UNL     1      -9.512   5.131  67.406  1.00  0.00    -0.144 C  
BRANCH   7  11
HETATM   11  C   UNL     1     -11.010   6.565  68.926  1.00  0.00    -0.376 C  
BRANCH  11  12
HETATM   12  C   UNL     1     -10.516   7.327  70.154  1.00  0.00    -0.229 C  
HETATM   13  C   UNL     1     -11.173   8.698  70.236  1.00  0.00    -0.196 C  
ENDBRANCH  11  12
ENDBRANCH   7  11
ENDBRANCH   5   6
ENDBRANCH   3   5
ENDBRANCH   1   3
BRANCH   2  14
HETATM   14  C   UNL     1      -9.876  10.283  66.372  1.00  0.00    -0.272 A  
HETATM   15  C   UNL     1     -10.433  12.763  67.558  1.00  0.00    -0.218 A  
HETATM   16  C   UNL     1      -9.506  10.530  67.695  1.00  0.00    -0.164 A  
HETATM   17  C   UNL     1     -10.536  11.276  65.643  1.00  0.00    -0.317 A  
HETATM   18  C   UNL     1      -9.784  11.767  68.287  1.00  0.00    -0.199 A  
HETATM   19  C   UNL     1     -10.802  12.513  66.234  1.00  0.00    -0.299 A  
BRANCH  15  20
HETATM   20  O   UNL     1     -10.701  14.027  68.006  1.00  0.00    -0.239 OA 
HETATM   21  C   UNL     1     -11.607  14.127  69.097  1.00  0.00    -0.307 C  
ENDBRANCH  15  20
ENDBRANCH   2  14
TORSDOF 7
ENDMDL
MODEL      226
REMARK 921   NORMALIZED FREE ENERGY PREDICTED BY IDOCK:   -2.96 KCAL/MOL
REMARK 922        TOTAL FREE ENERGY PREDICTED BY IDOCK:   -5.29 KCAL/MOL
REMARK 923 INTER-LIGAND FREE ENERGY PREDICTED BY IDOCK:   -4.67 KCAL/MOL
REMARK 924 INTRA-LIGAND FREE ENERGY PREDICTED BY IDOCK:   -0.61 KCAL/MOL
REMARK 927      BINDING AFFINITY PREDICTED BY RF-SCORE:    0.00 PKD
ROOT
HETATM    1  C   UNL     1      -7.744  13.241  67.248  1.00  0.00    -0.100 C  
HETATM    2  C   UNL     1      -8.017  11.941  67.442  1.00  0.00    -0.162 C  
ENDROOT
BRANCH   1   3
HETATM    3  C   UNL     1      -7.434  14.181  68.349  1.00  0.00    -0.124 C  
HETATM    4  O   UNL     1      -6.289  14.521  68.611  1.00  0.00    -0.080 OA 
BRANCH   3   5
HETATM    5  O   UNL     1      -8.537  14.433  69.091  1.00  0.00    -0.052 OA 
BRANCH   5   6
HETATM    6  C   UNL     1      -9.016  15.773  68.962  1.00  0.00    -0.246 C  
HETATM    7  C   UNL     1     -10.904  17.345  68.362  1.00  0.00    -0.234 C  
HETATM    8  C   UNL     1     -11.599  15.392  70.713  1.00  0.00    -0.381 C  
HETATM    9  C   UNL     1     -11.448  15.006  69.247  1.00  0.00    -0.326 C  
HETATM   10  C   UNL     1     -10.453  15.866  68.432  1.00  0.00    -0.254 C  
BRANCH   7  11
HETATM   11  C   UNL     1     -10.035  18.195  67.426  1.00  0.00    -0.329 C  
BRANCH  11  12
HETATM   12  C   UNL     1      -9.564  19.488  68.086  1.00  0.00    -0.457 C  
HETATM   13  C   UNL     1      -9.301  20.561  67.038  1.00  0.00    -0.482 C  
ENDBRANCH  11  12
ENDBRANCH   7  11
ENDBRANCH   5   6
ENDBRANCH   3   5
ENDBRANCH   1   3
BRANCH   2  14
HETATM   14  C   UNL     1      -8.164  11.028  66.313  1.00  0.00    -0.164 A  
HETATM   15  C   UNL     1      -8.446   9.334  64.095  1.00  0.00    -0.192 A  
HETATM   16  C   UNL     1      -9.434  10.689  65.842  1.00  0.00    -0.239 A  
HETATM   17  C   UNL     1      -7.032  10.510  65.677  1.00  0.00    -0.113 A  
HETATM   18  C   UNL     1      -9.575   9.843  64.736  1.00  0.00    -0.339 A  
HETATM   19  C   UNL     1      -7.176   9.676  64.567  1.00  0.00    -0.121 A  
BRANCH  15  20
HETATM   20  O   UNL     1      -8.457   8.553  62.972  1.00  0.00    -0.164 OA 
HETATM   21  C   UNL     1      -7.900   7.252  63.107  1.00  0.00    -0.116 C  
ENDBRANCH  15  20
ENDBRANCH   2  14
TORSDOF 7
ENDMDL
MODEL      227
REMARK 921   NORMALIZED FREE ENERGY PREDICTED BY IDOCK:   -2.95 KCAL/MOL
REMARK 922        TOTAL FREE ENERGY PREDICTED BY IDOCK:   -5.28 KCAL/MOL
REMARK 923 INTER-LIGAND FREE ENERGY PREDICTED BY IDOCK:   -4.52 KCAL/MOL
REMARK 924 INTRA-LIGAND FREE ENERGY PREDICTED BY IDOCK:   -0.76 KCAL/MOL
REMARK 927      BINDING AFFINITY PREDICTED BY RF-SCORE:    0.00 PKD
ROOT
HETATM    1  C   UNL     1      -7.484  13.482  67.528  1.00  0.00    -0.177 C  
HETATM    2  C   UNL     1      -8.469  14.394  67.509  1.00  0.00    -0.202 C  
ENDROOT
BRANCH   1   3
HETATM    3  C   UNL     1      -7.726  12.022  67.507  1.00  0.00    -0.155 C  
HETATM    4  O   UNL     1      -7.767  11.384  66.464  1.00  0.00    -0.149 OA 
BRANCH   3   5
HETATM    5  O   UNL     1      -8.065  11.572  68.736  1.00  0.00    -0.145 OA 
BRANCH   5   6
HETATM    6  C   UNL     1      -8.592  10.243  68.732  1.00  0.00    -0.139 C  
HETATM    7  C   UNL     1     -10.495   8.671  69.282  1.00  0.00    -0.226 C  
HETATM    8  C   UNL     1     -11.285  10.939  67.268  1.00  0.00    -0.307 C  
HETATM    9  C   UNL     1     -11.002  11.123  68.754  1.00  0.00    -0.268 C  
HETATM   10  C   UNL     1      -9.985  10.130  69.364  1.00  0.00    -0.247 C  
BRANCH   7  11
HETATM   11  C   UNL     1      -9.592   7.676  70.025  1.00  0.00    -0.164 C  
BRANCH  11  12
HETATM   12  C   UNL     1     -10.287   7.049  71.231  1.00  0.00    -0.217 C  
HETATM   13  C   UNL     1     -11.602   6.403  70.817  1.00  0.00    -0.402 C  
ENDBRANCH  11  12
ENDBRANCH   7  11
ENDBRANCH   5   6
ENDBRANCH   3   5
ENDBRANCH   1   3
BRANCH   2  14
HETATM   14  C   UNL     1      -8.171  15.817  67.377  1.00  0.00    -0.196 A  
HETATM   15  C   UNL     1      -7.551  18.535  67.066  1.00  0.00    -0.223 A  
HETATM   16  C   UNL     1      -7.106  16.381  68.079  1.00  0.00    -0.146 A  
HETATM   17  C   UNL     1      -8.935  16.618  66.523  1.00  0.00    -0.310 A  
HETATM   18  C   UNL     1      -6.796  17.737  67.926  1.00  0.00    -0.193 A  
HETATM   19  C   UNL     1      -8.617  17.968  66.363  1.00  0.00    -0.253 A  
BRANCH  15  20
HETATM   20  O   UNL     1      -7.307  19.851  66.787  1.00  0.00    -0.229 OA 
HETATM   21  C   UNL     1      -5.942  20.248  66.779  1.00  0.00    -0.176 C  
ENDBRANCH  15  20
ENDBRANCH   2  14
TORSDOF 7
ENDMDL
MODEL      228
REMARK 921   NORMALIZED FREE ENERGY PREDICTED BY IDOCK:   -2.94 KCAL/MOL
REMARK 922        TOTAL FREE ENERGY PREDICTED BY IDOCK:   -5.27 KCAL/MOL
REMARK 923 INTER-LIGAND FREE ENERGY PREDICTED BY IDOCK:   -4.58 KCAL/MOL
REMARK 924 INTRA-LIGAND FREE ENERGY PREDICTED BY IDOCK:   -0.69 KCAL/MOL
REMARK 927      BINDING AFFINITY PREDICTED BY RF-SCORE:    0.00 PKD
ROOT
HETATM    1  C   UNL     1      -9.667   8.659  67.482  1.00  0.00    -0.212 C  
HETATM    2  C   UNL     1     -10.341   9.259  66.486  1.00  0.00    -0.270 C  
ENDROOT
BRANCH   1   3
HETATM    3  C   UNL     1      -9.261   7.236  67.448  1.00  0.00    -0.128 C  
HETATM    4  O   UNL     1      -8.715   6.738  66.473  1.00  0.00    -0.125 OA 
BRANCH   3   5
HETATM    5  O   UNL     1      -9.739   6.573  68.525  1.00  0.00    -0.129 OA 
BRANCH   5   6
HETATM    6  C   UNL     1      -8.760   6.366  69.546  1.00  0.00    -0.133 C  
HETATM    7  C   UNL     1      -7.927   6.880  71.878  1.00  0.00    -0.099 C  
HETATM    8  C   UNL     1     -10.786   5.597  71.824  1.00  0.00    -0.301 C  
HETATM    9  C   UNL     1     -10.434   7.012  71.381  1.00  0.00    -0.225 C  
HETATM   10  C   UNL     1      -9.006   7.194  70.814  1.00  0.00    -0.152 C  
BRANCH   7  11
HETATM   11  C   UNL     1      -6.504   7.209  71.407  1.00  0.00    -0.041 C  
BRANCH  11  12
HETATM   12  C   UNL     1      -6.133   8.669  71.654  1.00  0.00    -0.057 C  
HETATM   13  C   UNL     1      -5.812   8.901  73.124  1.00  0.00    -0.072 C  
ENDBRANCH  11  12
ENDBRANCH   7  11
ENDBRANCH   5   6
ENDBRANCH   3   5
ENDBRANCH   1   3
BRANCH   2  14
HETATM   14  C   UNL     1     -10.580  10.698  66.504  1.00  0.00    -0.257 A  
HETATM   15  C   UNL     1     -10.980  13.474  66.581  1.00  0.00    -0.288 A  
HETATM   16  C   UNL     1     -11.338  11.273  67.526  1.00  0.00    -0.360 A  
HETATM   17  C   UNL     1     -10.029  11.514  65.512  1.00  0.00    -0.282 A  
HETATM   18  C   UNL     1     -11.538  12.657  67.565  1.00  0.00    -0.418 A  
HETATM   19  C   UNL     1     -10.221  12.896  65.560  1.00  0.00    -0.299 A  
BRANCH  15  20
HETATM   20  O   UNL     1     -11.053  14.839  66.548  1.00  0.00    -0.324 OA 
HETATM   21  C   UNL     1     -10.835  15.449  65.283  1.00  0.00    -0.409 C  
ENDBRANCH  15  20
ENDBRANCH   2  14
TORSDOF 7
ENDMDL
MODEL      229
REMARK 921   NORMALIZED FREE ENERGY PREDICTED BY IDOCK:   -2.83 KCAL/MOL
REMARK 922        TOTAL FREE ENERGY PREDICTED BY IDOCK:   -5.11 KCAL/MOL
REMARK 923 INTER-LIGAND FREE ENERGY PREDICTED BY IDOCK:   -4.29 KCAL/MOL
REMARK 924 INTRA-LIGAND FREE ENERGY PREDICTED BY IDOCK:   -0.82 KCAL/MOL
REMARK 927      BINDING AFFINITY PREDICTED BY RF-SCORE:    0.00 PKD
ROOT
HETATM    1  C   UNL     1      -8.371   6.300  68.946  1.00  0.00    -0.120 C  
HETATM    2  C   UNL     1      -9.378   6.551  68.094  1.00  0.00    -0.109 C  
ENDROOT
BRANCH   1   3
HETATM    3  C   UNL     1      -8.373   5.165  69.897  1.00  0.00    -0.093 C  
HETATM    4  O   UNL     1      -7.378   4.482  70.097  1.00  0.00    -0.048 OA 
BRANCH   3   5
HETATM    5  O   UNL     1      -9.626   4.905  70.332  1.00  0.00    -0.158 OA 
BRANCH   5   6
HETATM    6  C   UNL     1      -9.822   5.204  71.716  1.00  0.00    -0.174 C  
HETATM    7  C   UNL     1     -10.202   6.935  73.520  1.00  0.00    -0.345 C  
HETATM    8  C   UNL     1     -12.457   6.877  71.344  1.00  0.00    -0.413 C  
HETATM    9  C   UNL     1     -11.036   7.391  71.145  1.00  0.00    -0.271 C  
HETATM   10  C   UNL     1      -9.954   6.704  72.010  1.00  0.00    -0.176 C  
BRANCH   7  11
HETATM   11  C   UNL     1      -9.062   6.412  74.404  1.00  0.00    -0.189 C  
BRANCH  11  12
HETATM   12  C   UNL     1      -7.686   6.800  73.867  1.00  0.00    -0.101 C  
HETATM   13  C   UNL     1      -7.327   8.220  74.285  1.00  0.00    -0.239 C  
ENDBRANCH  11  12
ENDBRANCH   7  11
ENDBRANCH   5   6
ENDBRANCH   3   5
ENDBRANCH   1   3
BRANCH   2  14
HETATM   14  C   UNL     1      -9.257   7.589  67.076  1.00  0.00    -0.167 A  
HETATM   15  C   UNL     1      -8.975   9.622  65.162  1.00  0.00    -0.207 A  
HETATM   16  C   UNL     1     -10.083   8.714  67.115  1.00  0.00    -0.329 A  
HETATM   17  C   UNL     1      -8.293   7.477  66.069  1.00  0.00    -0.136 A  
HETATM   18  C   UNL     1      -9.943   9.728  66.161  1.00  0.00    -0.338 A  
HETATM   19  C   UNL     1      -8.149   8.495  65.125  1.00  0.00    -0.142 A  
BRANCH  15  20
HETATM   20  O   UNL     1      -8.703  10.572  64.217  1.00  0.00    -0.183 OA 
HETATM   21  C   UNL     1      -9.828  11.159  63.576  1.00  0.00    -0.353 C  
ENDBRANCH  15  20
ENDBRANCH   2  14
TORSDOF 7
ENDMDL
MODEL      230
REMARK 921   NORMALIZED FREE ENERGY PREDICTED BY IDOCK:   -2.76 KCAL/MOL
REMARK 922        TOTAL FREE ENERGY PREDICTED BY IDOCK:   -5.02 KCAL/MOL
REMARK 923 INTER-LIGAND FREE ENERGY PREDICTED BY IDOCK:   -4.43 KCAL/MOL
REMARK 924 INTRA-LIGAND FREE ENERGY PREDICTED BY IDOCK:   -0.59 KCAL/MOL
REMARK 927      BINDING AFFINITY PREDICTED BY RF-SCORE:    0.00 PKD
ROOT
HETATM    1  C   UNL     1      -8.319   7.644  67.935  1.00  0.00    -0.123 C  
HETATM    2  C   UNL     1      -9.385   6.845  67.764  1.00  0.00    -0.120 C  
ENDROOT
BRANCH   1   3
HETATM    3  C   UNL     1      -8.167   8.562  69.087  1.00  0.00    -0.119 C  
HETATM    4  O   UNL     1      -7.983   8.152  70.225  1.00  0.00    -0.098 OA 
BRANCH   3   5
HETATM    5  O   UNL     1      -8.440   9.836  68.727  1.00  0.00    -0.114 OA 
BRANCH   5   6
HETATM    6  C   UNL     1      -9.806  10.205  68.932  1.00  0.00    -0.189 C  
HETATM    7  C   UNL     1     -11.618  11.961  68.765  1.00  0.00    -0.366 C  
HETATM    8  C   UNL     1     -10.342  11.209  66.002  1.00  0.00    -0.308 C  
HETATM    9  C   UNL     1      -9.667  12.007  67.111  1.00  0.00    -0.203 C  
HETATM   10  C   UNL     1     -10.116  11.658  68.549  1.00  0.00    -0.210 C  
BRANCH   7  11
HETATM   11  C   UNL     1     -12.064  11.787  70.223  1.00  0.00    -0.426 C  
BRANCH  11  12
HETATM   12  C   UNL     1     -12.657  13.066  70.806  1.00  0.00    -0.321 C  
HETATM   13  C   UNL     1     -13.512  12.754  72.027  1.00  0.00    -0.540 C  
ENDBRANCH  11  12
ENDBRANCH   7  11
ENDBRANCH   5   6
ENDBRANCH   3   5
ENDBRANCH   1   3
BRANCH   2  14
HETATM   14  C   UNL     1      -9.413   5.852  66.695  1.00  0.00    -0.165 A  
HETATM   15  C   UNL     1      -9.491   3.996  64.592  1.00  0.00    -0.169 A  
HETATM   16  C   UNL     1     -10.580   5.134  66.432  1.00  0.00    -0.336 A  
HETATM   17  C   UNL     1      -8.277   5.634  65.909  1.00  0.00    -0.119 A  
HETATM   18  C   UNL     1     -10.620   4.207  65.384  1.00  0.00    -0.071 A  
HETATM   19  C   UNL     1      -8.323   4.717  64.857  1.00  0.00    -0.129 A  
BRANCH  15  20
HETATM   20  O   UNL     1      -9.427   3.168  63.506  1.00  0.00    -0.094 OA 
HETATM   21  C   UNL     1     -10.672   2.756  62.958  1.00  0.00    -0.208 C  
ENDBRANCH  15  20
ENDBRANCH   2  14
TORSDOF 7
ENDMDL
MODEL      231
REMARK 921   NORMALIZED FREE ENERGY PREDICTED BY IDOCK:   -2.58 KCAL/MOL
REMARK 922        TOTAL FREE ENERGY PREDICTED BY IDOCK:   -4.75 KCAL/MOL
REMARK 923 INTER-LIGAND FREE ENERGY PREDICTED BY IDOCK:   -4.24 KCAL/MOL
REMARK 924 INTRA-LIGAND FREE ENERGY PREDICTED BY IDOCK:   -0.51 KCAL/MOL
REMARK 927      BINDING AFFINITY PREDICTED BY RF-SCORE:    0.00 PKD
ROOT
HETATM    1  C   UNL     1     -10.791   9.500  70.318  1.00  0.00    -0.319 C  
HETATM    2  C   UNL     1      -9.960   8.954  71.220  1.00  0.00    -0.358 C  
ENDROOT
BRANCH   1   3
HETATM    3  C   UNL     1     -10.429  10.664  69.477  1.00  0.00    -0.204 C  
HETATM    4  O   UNL     1     -11.261  11.475  69.095  1.00  0.00    -0.236 OA 
BRANCH   3   5
HETATM    5  O   UNL     1      -9.143  10.580  69.068  1.00  0.00    -0.171 OA 
BRANCH   5   6
HETATM    6  C   UNL     1      -8.767  11.614  68.156  1.00  0.00    -0.159 C  
HETATM    7  C   UNL     1      -7.018  13.253  67.349  1.00  0.00    -0.105 C  
HETATM    8  C   UNL     1      -6.110  10.258  67.164  1.00  0.00    -0.055 C  
HETATM    9  C   UNL     1      -6.278  11.063  68.447  1.00  0.00    -0.049 C  
HETATM   10  C   UNL     1      -7.358  12.170  68.401  1.00  0.00    -0.108 C  
BRANCH   7  11
HETATM   11  C   UNL     1      -7.976  14.451  67.388  1.00  0.00    -0.220 C  
BRANCH  11  12
HETATM   12  C   UNL     1      -7.258  15.759  67.711  1.00  0.00    -0.172 C  
HETATM   13  C   UNL     1      -7.255  16.684  66.502  1.00  0.00    -0.241 C  
ENDBRANCH  11  12
ENDBRANCH   7  11
ENDBRANCH   5   6
ENDBRANCH   3   5
ENDBRANCH   1   3
BRANCH   2  14
HETATM   14  C   UNL     1     -10.311   7.717  71.910  1.00  0.00    -0.240 A  
HETATM   15  C   UNL     1     -10.963   5.299  73.176  1.00  0.00    -0.305 A  
HETATM   16  C   UNL     1     -11.582   7.161  71.755  1.00  0.00    -0.314 A  
HETATM   17  C   UNL     1      -9.366   7.066  72.708  1.00  0.00    -0.158 A  
HETATM   18  C   UNL     1     -11.908   5.955  72.387  1.00  0.00    -0.263 A  
HETATM   19  C   UNL     1      -9.691   5.858  73.328  1.00  0.00    -0.155 A  
BRANCH  15  20
HETATM   20  O   UNL     1     -11.143   4.091  73.788  1.00  0.00    -0.243 OA 
HETATM   21  C   UNL     1     -10.520   2.974  73.168  1.00  0.00    -0.165 C  
ENDBRANCH  15  20
ENDBRANCH   2  14
TORSDOF 7
ENDMDL
MODEL      232
REMARK 921   NORMALIZED FREE ENERGY PREDICTED BY IDOCK:   -2.57 KCAL/MOL
REMARK 922        TOTAL FREE ENERGY PREDICTED BY IDOCK:   -4.75 KCAL/MOL
REMARK 923 INTER-LIGAND FREE ENERGY PREDICTED BY IDOCK:   -4.45 KCAL/MOL
REMARK 924 INTRA-LIGAND FREE ENERGY PREDICTED BY IDOCK:   -0.30 KCAL/MOL
REMARK 927      BINDING AFFINITY PREDICTED BY RF-SCORE:    0.00 PKD
ROOT
HETATM    1  C   UNL     1     -10.187   8.397  68.995  1.00  0.00    -0.217 C  
HETATM    2  C   UNL     1     -10.292   8.289  70.330  1.00  0.00    -0.211 C  
ENDROOT
BRANCH   1   3
HETATM    3  C   UNL     1     -10.437   9.657  68.259  1.00  0.00    -0.219 C  
HETATM    4  O   UNL     1     -11.561  10.003  67.925  1.00  0.00    -0.161 OA 
BRANCH   3   5
HETATM    5  O   UNL     1      -9.273  10.227  67.871  1.00  0.00    -0.137 OA 
BRANCH   5   6
HETATM    6  C   UNL     1      -9.402  11.050  66.710  1.00  0.00    -0.181 C  
HETATM    7  C   UNL     1     -10.061  13.273  65.699  1.00  0.00    -0.281 C  
HETATM    8  C   UNL     1      -7.776  13.495  67.833  1.00  0.00    -0.153 C  
HETATM    9  C   UNL     1      -9.240  13.187  68.121  1.00  0.00    -0.215 C  
HETATM   10  C   UNL     1      -9.994  12.436  66.999  1.00  0.00    -0.218 C  
BRANCH   7  11
HETATM   11  C   UNL     1     -10.942  12.634  64.617  1.00  0.00    -0.346 C  
BRANCH  11  12
HETATM   12  C   UNL     1     -12.105  13.535  64.209  1.00  0.00    -0.482 C  
HETATM   13  C   UNL     1     -12.698  14.233  65.425  1.00  0.00    -0.385 C  
ENDBRANCH  11  12
ENDBRANCH   7  11
ENDBRANCH   5   6
ENDBRANCH   3   5
ENDBRANCH   1   3
BRANCH   2  14
HETATM   14  C   UNL     1      -9.886   7.067  71.017  1.00  0.00    -0.185 A  
HETATM   15  C   UNL     1      -9.135   4.678  72.282  1.00  0.00    -0.126 A  
HETATM   16  C   UNL     1     -10.765   6.426  71.891  1.00  0.00    -0.262 A  
HETATM   17  C   UNL     1      -8.623   6.516  70.782  1.00  0.00    -0.135 A  
HETATM   18  C   UNL     1     -10.391   5.235  72.523  1.00  0.00    -0.249 A  
HETATM   19  C   UNL     1      -8.257   5.322  71.405  1.00  0.00    -0.116 A  
BRANCH  15  20
HETATM   20  O   UNL     1      -8.683   3.492  72.789  1.00  0.00    -0.085 OA 
HETATM   21  C   UNL     1      -9.508   2.872  73.766  1.00  0.00    -0.087 C  
ENDBRANCH  15  20
ENDBRANCH   2  14
TORSDOF 7
ENDMDL
MODEL      233
REMARK 921   NORMALIZED FREE ENERGY PREDICTED BY IDOCK:   -2.49 KCAL/MOL
REMARK 922        TOTAL FREE ENERGY PREDICTED BY IDOCK:   -4.63 KCAL/MOL
REMARK 923 INTER-LIGAND FREE ENERGY PREDICTED BY IDOCK:   -4.39 KCAL/MOL
REMARK 924 INTRA-LIGAND FREE ENERGY PREDICTED BY IDOCK:   -0.24 KCAL/MOL
REMARK 927      BINDING AFFINITY PREDICTED BY RF-SCORE:    0.00 PKD
ROOT
HETATM    1  C   UNL     1      -7.907   6.238  68.767  1.00  0.00    -0.101 C  
HETATM    2  C   UNL     1      -9.009   6.426  68.023  1.00  0.00    -0.115 C  
ENDROOT
BRANCH   1   3
HETATM    3  C   UNL     1      -7.714   5.068  69.654  1.00  0.00    -0.064 C  
HETATM    4  O   UNL     1      -6.613   4.574  69.848  1.00  0.00    -0.031 OA 
BRANCH   3   5
HETATM    5  O   UNL     1      -8.904   4.551  70.033  1.00  0.00    -0.079 OA 
BRANCH   5   6
HETATM    6  C   UNL     1      -9.751   5.494  70.694  1.00  0.00    -0.176 C  
HETATM    7  C   UNL     1     -11.261   6.047  72.646  1.00  0.00    -0.326 C  
HETATM    8  C   UNL     1      -8.325   5.346  73.491  1.00  0.00    -0.113 C  
HETATM    9  C   UNL     1      -9.361   4.362  72.963  1.00  0.00    -0.139 C  
HETATM   10  C   UNL     1     -10.396   4.952  71.977  1.00  0.00    -0.263 C  
BRANCH   7  11
HETATM   11  C   UNL     1     -12.407   6.539  71.752  1.00  0.00    -0.340 C  
BRANCH  11  12
HETATM   12  C   UNL     1     -12.392   8.054  71.569  1.00  0.00    -0.335 C  
HETATM   13  C   UNL     1     -10.970   8.592  71.658  1.00  0.00    -0.378 C  
ENDBRANCH  11  12
ENDBRANCH   7  11
ENDBRANCH   5   6
ENDBRANCH   3   5
ENDBRANCH   1   3
BRANCH   2  14
HETATM   14  C   UNL     1      -9.082   7.514  67.053  1.00  0.00    -0.156 A  
HETATM   15  C   UNL     1      -9.269   9.564  65.147  1.00  0.00    -0.244 A  
HETATM   16  C   UNL     1      -8.201   7.553  65.971  1.00  0.00    -0.130 A  
HETATM   17  C   UNL     1     -10.054   8.510  67.187  1.00  0.00    -0.331 A  
HETATM   18  C   UNL     1      -8.293   8.576  65.020  1.00  0.00    -0.175 A  
HETATM   19  C   UNL     1     -10.150   9.523  66.231  1.00  0.00    -0.327 A  
BRANCH  15  20
HETATM   20  O   UNL     1      -9.496  10.573  64.253  1.00  0.00    -0.234 OA 
HETATM   21  C   UNL     1     -10.772  11.196  64.320  1.00  0.00    -0.333 C  
ENDBRANCH  15  20
ENDBRANCH   2  14
TORSDOF 7
ENDMDL
MODEL      234
REMARK 921   NORMALIZED FREE ENERGY PREDICTED BY IDOCK:   -1.73 KCAL/MOL
REMARK 922        TOTAL FREE ENERGY PREDICTED BY IDOCK:   -3.56 KCAL/MOL
REMARK 923 INTER-LIGAND FREE ENERGY PREDICTED BY IDOCK:   -3.39 KCAL/MOL
REMARK 924 INTRA-LIGAND FREE ENERGY PREDICTED BY IDOCK:   -0.17 KCAL/MOL
REMARK 927      BINDING AFFINITY PREDICTED BY RF-SCORE:    0.00 PKD
ROOT
HETATM    1  C   UNL     1      -9.914   8.300  70.815  1.00  0.00    -0.217 C  
HETATM    2  C   UNL     1      -9.655   8.443  69.505  1.00  0.00    -0.170 C  
ENDROOT
BRANCH   1   3
HETATM    3  C   UNL     1      -9.674   7.042  71.559  1.00  0.00    -0.165 C  
HETATM    4  O   UNL     1      -9.203   7.035  72.688  1.00  0.00    -0.134 OA 
BRANCH   3   5
HETATM    5  O   UNL     1      -9.866   5.967  70.762  1.00  0.00    -0.175 OA 
BRANCH   5   6
HETATM    6  C   UNL     1      -8.833   5.786  69.791  1.00  0.00    -0.126 C  
HETATM    7  C   UNL     1      -6.753   4.550  69.053  1.00  0.00    -0.046 C  
HETATM    8  C   UNL     1      -9.258   2.696  69.399  1.00  0.00    -0.198 C  
HETATM    9  C   UNL     1      -8.471   3.355  70.526  1.00  0.00    -0.097 C  
HETATM   10  C   UNL     1      -7.810   4.708  70.173  1.00  0.00    -0.060 C  
BRANCH   7  11
HETATM   11  C   UNL     1      -5.959   5.836  68.790  1.00  0.00    -0.020 C  
BRANCH  11  12
HETATM   12  C   UNL     1      -6.145   6.353  67.366  1.00  0.00    -0.024 C  
HETATM   13  C   UNL     1      -6.241   7.872  67.354  1.00  0.00    -0.054 C  
ENDBRANCH  11  12
ENDBRANCH   7  11
ENDBRANCH   5   6
ENDBRANCH   3   5
ENDBRANCH   1   3
BRANCH   2  14
HETATM   14  C   UNL     1      -9.766   9.746  68.857  1.00  0.00    -0.172 A  
HETATM   15  C   UNL     1     -10.005  12.280  67.677  1.00  0.00    -0.198 A  
HETATM   16  C   UNL     1     -10.958  10.126  68.240  1.00  0.00    -0.299 A  
HETATM   17  C   UNL     1      -8.686  10.634  68.876  1.00  0.00    -0.163 A  
HETATM   18  C   UNL     1     -11.079  11.389  67.650  1.00  0.00    -0.325 A  
HETATM   19  C   UNL     1      -8.813  11.897  68.296  1.00  0.00    -0.174 A  
BRANCH  15  20
HETATM   20  O   UNL     1     -10.024  13.558  67.192  1.00  0.00    -0.239 OA 
HETATM   21  C   UNL     1     -11.299  14.180  67.111  1.00  0.00    -0.332 C  
ENDBRANCH  15  20
ENDBRANCH   2  14
TORSDOF 7
ENDMDL
MODEL      235
REMARK 921   NORMALIZED FREE ENERGY PREDICTED BY IDOCK:    1.98 KCAL/MOL
REMARK 922        TOTAL FREE ENERGY PREDICTED BY IDOCK:    1.67 KCAL/MOL
REMARK 923 INTER-LIGAND FREE ENERGY PREDICTED BY IDOCK:    1.72 KCAL/MOL
REMARK 924 INTRA-LIGAND FREE ENERGY PREDICTED BY IDOCK:   -0.06 KCAL/MOL
REMARK 927      BINDING AFFINITY PREDICTED BY RF-SCORE:    0.00 PKD
ROOT
HETATM    1  C   UNL     1      -9.533   8.155  70.927  1.00  0.00    -0.186 C  
HETATM    2  C   UNL     1      -8.642   8.450  69.966  1.00  0.00    -0.131 C  
ENDROOT
BRANCH   1   3
HETATM    3  C   UNL     1     -10.061   6.791  71.157  1.00  0.00    -0.181 C  
HETATM    4  O   UNL     1     -10.212   6.333  72.281  1.00  0.00    -0.185 OA 
BRANCH   3   5
HETATM    5  O   UNL     1     -10.158   6.110  69.993  1.00  0.00    -0.167 OA 
BRANCH   5   6
HETATM    6  C   UNL     1      -8.984   5.359  69.673  1.00  0.00    -0.109 C  
HETATM    7  C   UNL     1      -7.481   3.385  70.163  1.00  0.00    -0.044 C  
HETATM    8  C   UNL     1     -10.413   2.572  69.408  1.00  0.00     2.312 C  
HETATM    9  C   UNL     1      -9.977   3.232  70.710  1.00  0.00     0.096 C  
HETATM   10  C   UNL     1      -8.745   4.162  70.603  1.00  0.00    -0.117 C  
BRANCH   7  11
HETATM   11  C   UNL     1      -6.206   4.237  70.206  1.00  0.00    -0.022 C  
BRANCH  11  12
HETATM   12  C   UNL     1      -5.695   4.590  68.812  1.00  0.00    -0.017 C  
HETATM   13  C   UNL     1      -5.455   3.329  67.992  1.00  0.00    -0.017 C  
ENDBRANCH  11  12
ENDBRANCH   7  11
ENDBRANCH   5   6
ENDBRANCH   3   5
ENDBRANCH   1   3
BRANCH   2  14
HETATM   14  C   UNL     1      -8.041   9.777  69.881  1.00  0.00    -0.192 A  
HETATM   15  C   UNL     1      -6.935  12.353  69.772  1.00  0.00     0.366 A  
HETATM   16  C   UNL     1      -8.556  10.728  68.999  1.00  0.00    -0.143 A  
HETATM   17  C   UNL     1      -6.963  10.113  70.705  1.00  0.00     0.150 A  
HETATM   18  C   UNL     1      -8.004  12.013  68.943  1.00  0.00     0.069 A  
HETATM   19  C   UNL     1      -6.422  11.399  70.655  1.00  0.00     0.525 A  
BRANCH  15  20
HETATM   20  O   UNL     1      -6.356  13.588  69.852  1.00  0.00    -0.126 OA 
HETATM   21  C   UNL     1      -5.983  14.023  71.153  1.00  0.00    -0.160 C  
ENDBRANCH  15  20
ENDBRANCH   2  14
TORSDOF 7
ENDMDL
MODEL      236
REMARK 921   NORMALIZED FREE ENERGY PREDICTED BY IDOCK:    3.95 KCAL/MOL
REMARK 922        TOTAL FREE ENERGY PREDICTED BY IDOCK:    4.45 KCAL/MOL
REMARK 923 INTER-LIGAND FREE ENERGY PREDICTED BY IDOCK:    4.94 KCAL/MOL
REMARK 924 INTRA-LIGAND FREE ENERGY PREDICTED BY IDOCK:   -0.49 KCAL/MOL
REMARK 927      BINDING AFFINITY PREDICTED BY RF-SCORE:    0.00 PKD
ROOT
HETATM    1  C   UNL     1     -11.669  11.859  68.660  1.00  0.00    -0.380 C  
HETATM    2  C   UNL     1     -12.091  12.786  67.784  1.00  0.00    -0.191 C  
ENDROOT
BRANCH   1   3
HETATM    3  C   UNL     1     -12.511  10.731  69.120  1.00  0.00     0.289 C  
HETATM    4  O   UNL     1     -12.420   9.612  68.635  1.00  0.00     1.622 OA 
BRANCH   3   5
HETATM    5  O   UNL     1     -13.468  11.162  69.972  1.00  0.00     0.534 OA 
BRANCH   5   6
HETATM    6  C   UNL     1     -12.982  12.073  70.961  1.00  0.00    -0.084 C  
HETATM    7  C   UNL     1     -13.325  13.239  73.179  1.00  0.00     1.003 C  
HETATM    8  C   UNL     1     -13.250  10.113  73.404  1.00  0.00     3.874 C  
HETATM    9  C   UNL     1     -14.376  10.938  72.793  1.00  0.00     1.760 C  
HETATM   10  C   UNL     1     -13.943  12.272  72.141  1.00  0.00     0.156 C  
BRANCH   7  11
HETATM   11  C   UNL     1     -13.036  14.633  72.606  1.00  0.00    -0.549 C  
BRANCH  11  12
HETATM   12  C   UNL     1     -12.891  15.691  73.697  1.00  0.00    -0.704 C  
HETATM   13  C   UNL     1     -11.790  16.681  73.343  1.00  0.00    -0.254 C  
ENDBRANCH  11  12
ENDBRANCH   7  11
ENDBRANCH   5   6
ENDBRANCH   3   5
ENDBRANCH   1   3
BRANCH   2  14
HETATM   14  C   UNL     1     -11.172  13.785  67.249  1.00  0.00    -0.329 A  
HETATM   15  C   UNL     1      -9.426  15.686  66.151  1.00  0.00    -0.341 A  
HETATM   16  C   UNL     1      -9.855  13.439  66.945  1.00  0.00    -0.256 A  
HETATM   17  C   UNL     1     -11.615  15.090  67.012  1.00  0.00    -0.248 A  
HETATM   18  C   UNL     1      -8.983  14.387  66.397  1.00  0.00    -0.122 A  
HETATM   19  C   UNL     1     -10.745  16.030  66.455  1.00  0.00    -0.238 A  
BRANCH  15  20
HETATM   20  O   UNL     1      -8.689  16.677  65.564  1.00  0.00    -0.295 OA 
HETATM   21  C   UNL     1      -7.728  17.319  66.392  1.00  0.00    -0.311 C  
ENDBRANCH  15  20
ENDBRANCH   2  14
TORSDOF 7
ENDMDL
