MODEL        1
REMARK 921   NORMALIZED FREE ENERGY PREDICTED BY IDOCK:   -7.71 KCAL/MOL
REMARK 922        TOTAL FREE ENERGY PREDICTED BY IDOCK:   -8.56 KCAL/MOL
REMARK 923 INTER-LIGAND FREE ENERGY PREDICTED BY IDOCK:   -8.16 KCAL/MOL
REMARK 924 INTRA-LIGAND FREE ENERGY PREDICTED BY IDOCK:   -0.40 KCAL/MOL
REMARK 927      BINDING AFFINITY PREDICTED BY RF-SCORE:    0.00 PKD
ROOT
HETATM    1  C   UNL     1     -14.396  14.629  72.027  1.00  0.00    -0.642 C  
HETATM    2  C   UNL     1     -12.863  14.585  71.915  1.00  0.00    -0.338 C  
HETATM    3  C   UNL     1     -12.390  15.934  71.362  1.00  0.00    -0.430 C  
HETATM    4  O   UNL     1     -11.449  15.974  70.309  1.00  0.00    -0.337 OA 
HETATM    5  C   UNL     1     -11.205  14.846  69.580  1.00  0.00    -0.277 A  
HETATM    6  C   UNL     1     -11.667  13.585  69.998  1.00  0.00    -0.241 A  
HETATM    7  N   UNL     1     -12.443  13.397  71.157  1.00  0.00    -0.357 NA 
HETATM    8  C   UNL     1     -12.740  12.106  71.575  1.00  0.00    -0.243 C  
HETATM    9  C   UNL     1     -12.435  10.968  70.932  1.00  0.00    -0.509 C  
HETATM   10  C   UNL     1     -11.694  11.107  69.667  1.00  0.00    -0.339 C  
HETATM   11  C   UNL     1     -12.848   9.670  71.506  1.00  0.00    -0.392 C  
HETATM   12  C   UNL     1     -11.303  12.464  69.226  1.00  0.00    -0.315 A  
HETATM   13  O   UNL     1     -13.465   9.570  72.555  1.00  0.00    -0.426 OA 
HETATM   14  O   UNL     1     -12.498   8.596  70.770  1.00  0.00    -0.088 OA 
HETATM   15  O   UNL     1     -11.402  10.103  69.017  1.00  0.00    -0.211 OA 
HETATM   16  C   UNL     1     -10.546  12.587  68.066  1.00  0.00    -0.237 A  
HETATM   17  C   UNL     1     -10.126  13.845  67.667  1.00  0.00    -0.241 A  
HETATM   18  C   UNL     1     -10.424  15.017  68.395  1.00  0.00    -0.238 A  
HETATM   19  F   UNL     1      -9.340  13.900  66.579  1.00  0.00    -0.260 F  
ENDROOT
BRANCH  18  20
HETATM   20  N   UNL     1      -9.910  16.242  67.973  1.00  0.00    -0.233 NA 
HETATM   21  C   UNL     1     -10.408  16.944  66.783  1.00  0.00    -0.298 C  
HETATM   22  C   UNL     1     -10.395  18.473  67.025  1.00  0.00    -0.399 C  
HETATM   23  N   UNL     1      -9.115  19.040  67.505  1.00  0.00    -0.286 NA 
HETATM   24  C   UNL     1      -8.657  18.253  68.676  1.00  0.00    -0.283 C  
HETATM   25  C   UNL     1      -8.112  19.058  66.445  1.00  0.00    -0.297 C  
HETATM   26  C   UNL     1      -8.605  16.721  68.461  1.00  0.00    -0.245 C  
ENDBRANCH  18  20
TORSDOF 1
ENDMDL
MODEL        2
REMARK 921   NORMALIZED FREE ENERGY PREDICTED BY IDOCK:   -7.65 KCAL/MOL
REMARK 922        TOTAL FREE ENERGY PREDICTED BY IDOCK:   -8.50 KCAL/MOL
REMARK 923 INTER-LIGAND FREE ENERGY PREDICTED BY IDOCK:   -8.15 KCAL/MOL
REMARK 924 INTRA-LIGAND FREE ENERGY PREDICTED BY IDOCK:   -0.35 KCAL/MOL
REMARK 927      BINDING AFFINITY PREDICTED BY RF-SCORE:    0.00 PKD
ROOT
HETATM    1  C   UNL     1     -11.484  14.954  69.246  1.00  0.00    -0.324 C  
HETATM    2  C   UNL     1     -12.271  13.636  69.137  1.00  0.00    -0.224 C  
HETATM    3  C   UNL     1     -12.056  12.849  70.433  1.00  0.00    -0.306 C  
HETATM    4  O   UNL     1     -11.729  11.475  70.378  1.00  0.00    -0.320 OA 
HETATM    5  C   UNL     1     -11.298  10.931  69.203  1.00  0.00    -0.283 A  
HETATM    6  C   UNL     1     -11.406  11.628  67.987  1.00  0.00    -0.296 A  
HETATM    7  N   UNL     1     -11.917  12.935  67.893  1.00  0.00    -0.332 NA 
HETATM    8  C   UNL     1     -12.120  13.499  66.639  1.00  0.00    -0.396 C  
HETATM    9  C   UNL     1     -11.794  12.955  65.457  1.00  0.00    -0.455 C  
HETATM   10  C   UNL     1     -11.177  11.619  65.496  1.00  0.00    -0.205 C  
HETATM   11  C   UNL     1     -12.059  13.703  64.210  1.00  0.00    -0.434 C  
HETATM   12  C   UNL     1     -11.007  10.961  66.811  1.00  0.00    -0.248 A  
HETATM   13  O   UNL     1     -12.569  14.813  64.192  1.00  0.00    -0.784 OA 
HETATM   14  O   UNL     1     -11.681  13.065  63.084  1.00  0.00    -0.438 OA 
HETATM   15  O   UNL     1     -10.835  11.073  64.448  1.00  0.00    -0.334 OA 
HETATM   16  C   UNL     1     -10.486   9.672  66.841  1.00  0.00    -0.282 A  
HETATM   17  C   UNL     1     -10.370   9.021  68.057  1.00  0.00    -0.224 A  
HETATM   18  C   UNL     1     -10.769   9.606  69.278  1.00  0.00    -0.226 A  
HETATM   19  F   UNL     1      -9.926   7.754  68.021  1.00  0.00    -0.161 F  
ENDROOT
BRANCH  18  20
HETATM   20  N   UNL     1     -10.688   8.866  70.457  1.00  0.00    -0.220 NA 
HETATM   21  C   UNL     1      -9.408   8.471  71.060  1.00  0.00    -0.185 C  
HETATM   22  C   UNL     1      -9.512   8.517  72.604  1.00  0.00    -0.225 C  
HETATM   23  N   UNL     1     -10.651   7.783  73.196  1.00  0.00    -0.374 NA 
HETATM   24  C   UNL     1     -11.897   8.202  72.508  1.00  0.00    -0.376 C  
HETATM   25  C   UNL     1     -10.453   6.339  73.113  1.00  0.00    -0.239 C  
HETATM   26  C   UNL     1     -11.855   8.122  70.962  1.00  0.00    -0.260 C  
ENDBRANCH  18  20
TORSDOF 1
ENDMDL
MODEL        3
REMARK 921   NORMALIZED FREE ENERGY PREDICTED BY IDOCK:   -7.61 KCAL/MOL
REMARK 922        TOTAL FREE ENERGY PREDICTED BY IDOCK:   -8.45 KCAL/MOL
REMARK 923 INTER-LIGAND FREE ENERGY PREDICTED BY IDOCK:   -8.02 KCAL/MOL
REMARK 924 INTRA-LIGAND FREE ENERGY PREDICTED BY IDOCK:   -0.44 KCAL/MOL
REMARK 927      BINDING AFFINITY PREDICTED BY RF-SCORE:    0.00 PKD
ROOT
HETATM    1  C   UNL     1     -11.444  12.580  66.912  1.00  0.00    -0.416 C  
HETATM    2  C   UNL     1     -10.673  12.148  68.171  1.00  0.00    -0.211 C  
HETATM    3  C   UNL     1     -10.162  10.721  67.946  1.00  0.00    -0.176 C  
HETATM    4  O   UNL     1     -10.331   9.744  68.952  1.00  0.00    -0.193 OA 
HETATM    5  C   UNL     1     -11.210   9.971  69.971  1.00  0.00    -0.288 A  
HETATM    6  C   UNL     1     -11.766  11.244  70.193  1.00  0.00    -0.343 A  
HETATM    7  N   UNL     1     -11.501  12.353  69.370  1.00  0.00    -0.280 NA 
HETATM    8  C   UNL     1     -11.978  13.604  69.737  1.00  0.00    -0.341 C  
HETATM    9  C   UNL     1     -12.769  13.881  70.786  1.00  0.00    -0.383 C  
HETATM   10  C   UNL     1     -13.150  12.743  71.639  1.00  0.00    -0.331 C  
HETATM   11  C   UNL     1     -13.208  15.272  71.024  1.00  0.00    -0.484 C  
HETATM   12  C   UNL     1     -12.605  11.406  71.315  1.00  0.00    -0.480 A  
HETATM   13  O   UNL     1     -12.886  16.207  70.306  1.00  0.00    -0.118 OA 
HETATM   14  O   UNL     1     -14.008  15.430  72.098  1.00  0.00    -0.475 OA 
HETATM   15  O   UNL     1     -13.891  12.925  72.605  1.00  0.00    -0.596 OA 
HETATM   16  C   UNL     1     -12.912  10.346  72.160  1.00  0.00    -0.393 A  
HETATM   17  C   UNL     1     -12.368   9.100  71.901  1.00  0.00    -0.385 A  
HETATM   18  C   UNL     1     -11.499   8.855  70.815  1.00  0.00    -0.275 A  
HETATM   19  F   UNL     1     -12.641   8.128  72.787  1.00  0.00    -0.303 F  
ENDROOT
BRANCH  18  20
HETATM   20  N   UNL     1     -10.933   7.592  70.656  1.00  0.00    -0.245 NA 
HETATM   21  C   UNL     1     -11.642   6.479  70.010  1.00  0.00    -0.390 C  
HETATM   22  C   UNL     1     -10.649   5.622  69.188  1.00  0.00    -0.264 C  
HETATM   23  N   UNL     1      -9.442   5.162  69.910  1.00  0.00    -0.148 NA 
HETATM   24  C   UNL     1      -8.808   6.331  70.569  1.00  0.00    -0.144 C  
HETATM   25  C   UNL     1      -9.767   4.114  70.873  1.00  0.00    -0.189 C  
HETATM   26  C   UNL     1      -9.756   7.187  71.444  1.00  0.00    -0.168 C  
ENDBRANCH  18  20
TORSDOF 1
ENDMDL
MODEL        4
REMARK 921   NORMALIZED FREE ENERGY PREDICTED BY IDOCK:   -7.41 KCAL/MOL
REMARK 922        TOTAL FREE ENERGY PREDICTED BY IDOCK:   -8.24 KCAL/MOL
REMARK 923 INTER-LIGAND FREE ENERGY PREDICTED BY IDOCK:   -8.10 KCAL/MOL
REMARK 924 INTRA-LIGAND FREE ENERGY PREDICTED BY IDOCK:   -0.14 KCAL/MOL
REMARK 927      BINDING AFFINITY PREDICTED BY RF-SCORE:    0.00 PKD
ROOT
HETATM    1  C   UNL     1     -11.375  12.216  64.670  1.00  0.00    -0.382 C  
HETATM    2  C   UNL     1     -10.559  12.131  65.971  1.00  0.00    -0.257 C  
HETATM    3  C   UNL     1     -10.840  10.771  66.618  1.00  0.00    -0.164 C  
HETATM    4  O   UNL     1     -11.137  10.693  67.997  1.00  0.00    -0.259 OA 
HETATM    5  C   UNL     1     -11.483  11.825  68.677  1.00  0.00    -0.288 A  
HETATM    6  C   UNL     1     -11.311  13.102  68.115  1.00  0.00    -0.292 A  
HETATM    7  N   UNL     1     -10.820  13.309  66.813  1.00  0.00    -0.279 NA 
HETATM    8  C   UNL     1     -10.548  14.602  66.384  1.00  0.00    -0.301 C  
HETATM    9  C   UNL     1     -10.788  15.735  67.062  1.00  0.00    -0.273 C  
HETATM   10  C   UNL     1     -11.382  15.586  68.402  1.00  0.00    -0.354 C  
HETATM   11  C   UNL     1     -10.459  17.039  66.449  1.00  0.00    -0.252 C  
HETATM   12  C   UNL     1     -11.622  14.219  68.917  1.00  0.00    -0.340 A  
HETATM   13  O   UNL     1      -9.970  17.148  65.335  1.00  0.00    -0.547 OA 
HETATM   14  O   UNL     1     -10.753  18.108  67.216  1.00  0.00    -0.390 OA 
HETATM   15  O   UNL     1     -11.646  16.586  69.068  1.00  0.00    -0.216 OA 
HETATM   16  C   UNL     1     -12.119  14.079  70.207  1.00  0.00    -0.425 A  
HETATM   17  C   UNL     1     -12.300  12.808  70.724  1.00  0.00    -0.287 A  
HETATM   18  C   UNL     1     -11.991  11.636  69.999  1.00  0.00    -0.351 A  
HETATM   19  F   UNL     1     -12.717  12.729  71.999  1.00  0.00    -0.342 F  
ENDROOT
BRANCH  18  20
HETATM   20  N   UNL     1     -12.132  10.390  70.608  1.00  0.00    -0.319 NA 
HETATM   21  C   UNL     1     -11.007   9.464  70.794  1.00  0.00    -0.304 C  
HETATM   22  C   UNL     1     -11.155   8.712  72.139  1.00  0.00    -0.364 C  
HETATM   23  N   UNL     1     -12.459   8.050  72.367  1.00  0.00    -0.259 NA 
HETATM   24  C   UNL     1     -13.542   9.032  72.118  1.00  0.00    -0.469 C  
HETATM   25  C   UNL     1     -12.605   6.865  71.528  1.00  0.00    -0.367 C  
HETATM   26  C   UNL     1     -13.461   9.772  70.760  1.00  0.00    -0.016 C  
ENDBRANCH  18  20
TORSDOF 1
ENDMDL
MODEL        5
REMARK 921   NORMALIZED FREE ENERGY PREDICTED BY IDOCK:   -7.33 KCAL/MOL
REMARK 922        TOTAL FREE ENERGY PREDICTED BY IDOCK:   -8.15 KCAL/MOL
REMARK 923 INTER-LIGAND FREE ENERGY PREDICTED BY IDOCK:   -7.90 KCAL/MOL
REMARK 924 INTRA-LIGAND FREE ENERGY PREDICTED BY IDOCK:   -0.26 KCAL/MOL
REMARK 927      BINDING AFFINITY PREDICTED BY RF-SCORE:    0.00 PKD
ROOT
HETATM    1  C   UNL     1     -10.660  17.660  67.945  1.00  0.00    -0.390 C  
HETATM    2  C   UNL     1      -9.825  16.390  68.181  1.00  0.00    -0.238 C  
HETATM    3  C   UNL     1      -9.376  15.859  66.816  1.00  0.00    -0.240 C  
HETATM    4  O   UNL     1      -9.512  14.485  66.513  1.00  0.00    -0.264 OA 
HETATM    5  C   UNL     1     -10.319  13.701  67.287  1.00  0.00    -0.249 A  
HETATM    6  C   UNL     1     -10.819  14.154  68.521  1.00  0.00    -0.252 A  
HETATM    7  N   UNL     1     -10.569  15.443  69.026  1.00  0.00    -0.236 NA 
HETATM    8  C   UNL     1     -10.982  15.763  70.313  1.00  0.00    -0.357 C  
HETATM    9  C   UNL     1     -11.696  14.983  71.139  1.00  0.00    -0.385 C  
HETATM   10  C   UNL     1     -12.060  13.649  70.633  1.00  0.00    -0.323 C  
HETATM   11  C   UNL     1     -12.075  15.487  72.476  1.00  0.00    -0.437 C  
HETATM   12  C   UNL     1     -11.579  13.250  69.291  1.00  0.00    -0.370 A  
HETATM   13  O   UNL     1     -11.769  16.597  72.883  1.00  0.00    -0.452 OA 
HETATM   14  O   UNL     1     -12.800  14.623  73.215  1.00  0.00    -0.504 OA 
HETATM   15  O   UNL     1     -12.732  12.892  71.333  1.00  0.00    -0.356 OA 
HETATM   16  C   UNL     1     -11.867  11.966  68.842  1.00  0.00    -0.366 A  
HETATM   17  C   UNL     1     -11.380  11.559  67.612  1.00  0.00    -0.291 A  
HETATM   18  C   UNL     1     -10.590  12.390  66.789  1.00  0.00    -0.226 A  
HETATM   19  F   UNL     1     -11.628  10.287  67.257  1.00  0.00    -0.243 F  
ENDROOT
BRANCH  18  20
HETATM   20  N   UNL     1     -10.075  11.890  65.594  1.00  0.00    -0.236 NA 
HETATM   21  C   UNL     1      -8.845  11.089  65.532  1.00  0.00    -0.169 C  
HETATM   22  C   UNL     1      -8.979   9.994  64.446  1.00  0.00    -0.231 C  
HETATM   23  N   UNL     1      -9.401  10.462  63.107  1.00  0.00    -0.286 NA 
HETATM   24  C   UNL     1     -10.619  11.297  63.257  1.00  0.00    -0.255 C  
HETATM   25  C   UNL     1      -8.329  11.192  62.438  1.00  0.00    -0.180 C  
HETATM   26  C   UNL     1     -10.511  12.438  64.297  1.00  0.00    -0.363 C  
ENDBRANCH  18  20
TORSDOF 1
ENDMDL
MODEL        6
REMARK 921   NORMALIZED FREE ENERGY PREDICTED BY IDOCK:   -7.19 KCAL/MOL
REMARK 922        TOTAL FREE ENERGY PREDICTED BY IDOCK:   -8.01 KCAL/MOL
REMARK 923 INTER-LIGAND FREE ENERGY PREDICTED BY IDOCK:   -7.58 KCAL/MOL
REMARK 924 INTRA-LIGAND FREE ENERGY PREDICTED BY IDOCK:   -0.43 KCAL/MOL
REMARK 927      BINDING AFFINITY PREDICTED BY RF-SCORE:    0.00 PKD
ROOT
HETATM    1  C   UNL     1     -11.543  14.302  69.463  1.00  0.00    -0.353 C  
HETATM    2  C   UNL     1     -12.248  12.948  69.277  1.00  0.00    -0.065 C  
HETATM    3  C   UNL     1     -12.040  12.128  70.554  1.00  0.00    -0.293 C  
HETATM    4  O   UNL     1     -11.635  10.777  70.467  1.00  0.00    -0.316 OA 
HETATM    5  C   UNL     1     -11.127  10.300  69.294  1.00  0.00    -0.245 A  
HETATM    6  C   UNL     1     -11.226  11.033  68.097  1.00  0.00    -0.302 A  
HETATM    7  N   UNL     1     -11.806  12.312  68.026  1.00  0.00    -0.430 NA 
HETATM    8  C   UNL     1     -11.991  12.909  66.785  1.00  0.00    -0.350 C  
HETATM    9  C   UNL     1     -11.588  12.426  65.599  1.00  0.00    -0.441 C  
HETATM   10  C   UNL     1     -10.898  11.125  65.620  1.00  0.00    -0.138 C  
HETATM   11  C   UNL     1     -11.845  13.201  64.368  1.00  0.00    -0.388 C  
HETATM   12  C   UNL     1     -10.744  10.431  66.917  1.00  0.00    -0.272 A  
HETATM   13  O   UNL     1     -12.417  14.281  64.365  1.00  0.00    -0.630 OA 
HETATM   14  O   UNL     1     -11.388  12.625  63.238  1.00  0.00    -0.460 OA 
HETATM   15  O   UNL     1     -10.485  10.636  64.569  1.00  0.00    -0.345 OA 
HETATM   16  C   UNL     1     -10.152   9.172  66.926  1.00  0.00    -0.328 A  
HETATM   17  C   UNL     1     -10.048   8.486  68.123  1.00  0.00    -0.200 A  
HETATM   18  C   UNL     1     -10.527   9.004  69.346  1.00  0.00    -0.222 A  
HETATM   19  F   UNL     1      -9.531   7.247  68.064  1.00  0.00    -0.136 F  
ENDROOT
BRANCH  18  20
HETATM   20  N   UNL     1     -10.451   8.229  70.502  1.00  0.00    -0.207 NA 
HETATM   21  C   UNL     1      -9.243   8.161  71.335  1.00  0.00    -0.153 C  
HETATM   22  C   UNL     1      -9.634   8.059  72.830  1.00  0.00    -0.277 C  
HETATM   23  N   UNL     1     -10.601   6.992  73.172  1.00  0.00    -0.287 NA 
HETATM   24  C   UNL     1     -11.768   7.098  72.262  1.00  0.00    -0.258 C  
HETATM   25  C   UNL     1      -9.981   5.672  73.098  1.00  0.00    -0.175 C  
HETATM   26  C   UNL     1     -11.425   7.152  70.753  1.00  0.00    -0.305 C  
ENDBRANCH  18  20
TORSDOF 1
ENDMDL
MODEL        7
REMARK 921   NORMALIZED FREE ENERGY PREDICTED BY IDOCK:   -7.18 KCAL/MOL
REMARK 922        TOTAL FREE ENERGY PREDICTED BY IDOCK:   -8.00 KCAL/MOL
REMARK 923 INTER-LIGAND FREE ENERGY PREDICTED BY IDOCK:   -7.66 KCAL/MOL
REMARK 924 INTRA-LIGAND FREE ENERGY PREDICTED BY IDOCK:   -0.33 KCAL/MOL
REMARK 927      BINDING AFFINITY PREDICTED BY RF-SCORE:    0.00 PKD
ROOT
HETATM    1  C   UNL     1     -11.412  14.786  69.334  1.00  0.00    -0.330 C  
HETATM    2  C   UNL     1     -12.200  13.474  69.185  1.00  0.00    -0.194 C  
HETATM    3  C   UNL     1     -11.967  12.635  70.446  1.00  0.00    -0.248 C  
HETATM    4  O   UNL     1     -11.641  11.265  70.332  1.00  0.00    -0.311 OA 
HETATM    5  C   UNL     1     -11.226  10.768  69.130  1.00  0.00    -0.262 A  
HETATM    6  C   UNL     1     -11.353  11.513  67.943  1.00  0.00    -0.303 A  
HETATM    7  N   UNL     1     -11.865  12.823  67.909  1.00  0.00    -0.356 NA 
HETATM    8  C   UNL     1     -12.086  13.436  66.682  1.00  0.00    -0.373 C  
HETATM    9  C   UNL     1     -11.778  12.939  65.474  1.00  0.00    -0.423 C  
HETATM   10  C   UNL     1     -11.160  11.602  65.452  1.00  0.00    -0.239 C  
HETATM   11  C   UNL     1     -12.061  13.735  64.262  1.00  0.00    -0.440 C  
HETATM   12  C   UNL     1     -10.971  10.893  66.736  1.00  0.00    -0.248 A  
HETATM   13  O   UNL     1     -12.571  14.845  64.295  1.00  0.00    -0.699 OA 
HETATM   14  O   UNL     1     -11.700  13.142  63.105  1.00  0.00    -0.382 OA 
HETATM   15  O   UNL     1     -10.834  11.098  64.378  1.00  0.00    -0.344 OA 
HETATM   16  C   UNL     1     -10.450   9.604  66.707  1.00  0.00    -0.257 A  
HETATM   17  C   UNL     1     -10.316   8.906  67.895  1.00  0.00    -0.230 A  
HETATM   18  C   UNL     1     -10.697   9.442  69.144  1.00  0.00    -0.197 A  
HETATM   19  F   UNL     1      -9.872   7.641  67.803  1.00  0.00    -0.151 F  
ENDROOT
BRANCH  18  20
HETATM   20  N   UNL     1     -10.598   8.656  70.291  1.00  0.00    -0.217 NA 
HETATM   21  C   UNL     1     -11.746   7.940  70.865  1.00  0.00    -0.257 C  
HETATM   22  C   UNL     1     -11.288   6.578  71.442  1.00  0.00    -0.294 C  
HETATM   23  N   UNL     1     -10.143   6.627  72.378  1.00  0.00    -0.168 NA 
HETATM   24  C   UNL     1      -9.045   7.400  71.748  1.00  0.00    -0.129 C  
HETATM   25  C   UNL     1     -10.534   7.198  73.663  1.00  0.00    -0.370 C  
HETATM   26  C   UNL     1      -9.448   8.792  71.203  1.00  0.00    -0.240 C  
ENDBRANCH  18  20
TORSDOF 1
ENDMDL
MODEL        8
REMARK 921   NORMALIZED FREE ENERGY PREDICTED BY IDOCK:   -7.15 KCAL/MOL
REMARK 922        TOTAL FREE ENERGY PREDICTED BY IDOCK:   -7.96 KCAL/MOL
REMARK 923 INTER-LIGAND FREE ENERGY PREDICTED BY IDOCK:   -7.53 KCAL/MOL
REMARK 924 INTRA-LIGAND FREE ENERGY PREDICTED BY IDOCK:   -0.44 KCAL/MOL
REMARK 927      BINDING AFFINITY PREDICTED BY RF-SCORE:    0.00 PKD
ROOT
HETATM    1  C   UNL     1      -9.296  12.451  68.191  1.00  0.00    -0.209 C  
HETATM    2  C   UNL     1      -8.505  13.363  67.237  1.00  0.00    -0.200 C  
HETATM    3  C   UNL     1      -7.585  14.249  68.084  1.00  0.00    -0.134 C  
HETATM    4  O   UNL     1      -7.517  15.638  67.833  1.00  0.00    -0.119 OA 
HETATM    5  C   UNL     1      -8.482  16.234  67.074  1.00  0.00    -0.202 A  
HETATM    6  C   UNL     1      -9.400  15.477  66.324  1.00  0.00    -0.320 A  
HETATM    7  N   UNL     1      -9.425  14.071  66.332  1.00  0.00    -0.279 NA 
HETATM    8  C   UNL     1     -10.270  13.399  65.458  1.00  0.00    -0.290 C  
HETATM    9  C   UNL     1     -11.166  13.955  64.629  1.00  0.00    -0.380 C  
HETATM   10  C   UNL     1     -11.244  15.425  64.636  1.00  0.00    -0.364 C  
HETATM   11  C   UNL     1     -12.008  13.090  63.776  1.00  0.00    -0.518 C  
HETATM   12  C   UNL     1     -10.313  16.175  65.507  1.00  0.00    -0.391 A  
HETATM   13  O   UNL     1     -11.934  11.870  63.781  1.00  0.00    -0.441 OA 
HETATM   14  O   UNL     1     -12.879  13.756  62.991  1.00  0.00    -0.471 OA 
HETATM   15  O   UNL     1     -12.060  15.997  63.914  1.00  0.00    -0.880 OA 
HETATM   16  C   UNL     1     -10.342  17.564  65.463  1.00  0.00    -0.032 A  
HETATM   17  C   UNL     1      -9.442  18.282  66.231  1.00  0.00    -0.230 A  
HETATM   18  C   UNL     1      -8.478  17.663  67.057  1.00  0.00    -0.236 A  
HETATM   19  F   UNL     1      -9.467  19.618  66.099  1.00  0.00    -0.373 F  
ENDROOT
BRANCH  18  20
HETATM   20  N   UNL     1      -7.557  18.447  67.750  1.00  0.00    -0.229 NA 
HETATM   21  C   UNL     1      -7.883  19.132  69.007  1.00  0.00    -0.259 C  
HETATM   22  C   UNL     1      -6.656  19.122  69.951  1.00  0.00    -0.080 C  
HETATM   23  N   UNL     1      -5.389  19.615  69.367  1.00  0.00    -0.189 NA 
HETATM   24  C   UNL     1      -5.152  18.910  68.083  1.00  0.00    -0.177 C  
HETATM   25  C   UNL     1      -5.416  21.063  69.188  1.00  0.00    -0.340 C  
HETATM   26  C   UNL     1      -6.336  18.939  67.087  1.00  0.00    -0.183 C  
ENDBRANCH  18  20
TORSDOF 1
ENDMDL
MODEL        9
REMARK 921   NORMALIZED FREE ENERGY PREDICTED BY IDOCK:   -7.14 KCAL/MOL
REMARK 922        TOTAL FREE ENERGY PREDICTED BY IDOCK:   -7.95 KCAL/MOL
REMARK 923 INTER-LIGAND FREE ENERGY PREDICTED BY IDOCK:   -7.64 KCAL/MOL
REMARK 924 INTRA-LIGAND FREE ENERGY PREDICTED BY IDOCK:   -0.32 KCAL/MOL
REMARK 927      BINDING AFFINITY PREDICTED BY RF-SCORE:    0.00 PKD
ROOT
HETATM    1  C   UNL     1      -8.504   9.691  68.984  1.00  0.00    -0.131 C  
HETATM    2  C   UNL     1      -9.699  10.379  68.303  1.00  0.00    -0.151 C  
HETATM    3  C   UNL     1      -9.163  11.560  67.488  1.00  0.00    -0.166 C  
HETATM    4  O   UNL     1      -9.792  12.822  67.578  1.00  0.00    -0.204 OA 
HETATM    5  C   UNL     1     -10.656  13.074  68.605  1.00  0.00    -0.236 A  
HETATM    6  C   UNL     1     -11.135  12.042  69.432  1.00  0.00    -0.133 A  
HETATM    7  N   UNL     1     -10.735  10.700  69.298  1.00  0.00    -0.223 NA 
HETATM    8  C   UNL     1     -11.359   9.723  70.062  1.00  0.00    -0.220 C  
HETATM    9  C   UNL     1     -12.281   9.924  71.016  1.00  0.00    -0.446 C  
HETATM   10  C   UNL     1     -12.680  11.320  71.261  1.00  0.00    -0.405 C  
HETATM   11  C   UNL     1     -12.831   8.769  71.756  1.00  0.00    -0.360 C  
HETATM   12  C   UNL     1     -12.084  12.380  70.419  1.00  0.00    -0.381 A  
HETATM   13  O   UNL     1     -12.489   7.615  71.545  1.00  0.00    -0.314 OA 
HETATM   14  O   UNL     1     -13.741   9.090  72.698  1.00  0.00    -0.470 OA 
HETATM   15  O   UNL     1     -13.506  11.575  72.137  1.00  0.00    -0.410 OA 
HETATM   16  C   UNL     1     -12.512  13.690  70.606  1.00  0.00    -0.417 A  
HETATM   17  C   UNL     1     -12.003  14.687  69.791  1.00  0.00    -0.329 A  
HETATM   18  C   UNL     1     -11.070  14.432  68.763  1.00  0.00    -0.257 A  
HETATM   19  F   UNL     1     -12.501  15.922  69.968  1.00  0.00    -0.381 F  
ENDROOT
BRANCH  18  20
HETATM   20  N   UNL     1     -10.653  15.474  67.935  1.00  0.00    -0.267 NA 
HETATM   21  C   UNL     1      -9.867  16.613  68.427  1.00  0.00    -0.252 C  
HETATM   22  C   UNL     1      -8.845  17.056  67.352  1.00  0.00    -0.203 C  
HETATM   23  N   UNL     1      -9.396  17.307  66.002  1.00  0.00    -0.507 NA 
HETATM   24  C   UNL     1     -10.211  16.136  65.595  1.00  0.00    -0.364 C  
HETATM   25  C   UNL     1     -10.177  18.541  65.970  1.00  0.00    -0.345 C  
HETATM   26  C   UNL     1     -11.282  15.690  66.620  1.00  0.00    -0.067 C  
ENDBRANCH  18  20
TORSDOF 1
ENDMDL
MODEL       10
REMARK 921   NORMALIZED FREE ENERGY PREDICTED BY IDOCK:   -7.10 KCAL/MOL
REMARK 922        TOTAL FREE ENERGY PREDICTED BY IDOCK:   -7.92 KCAL/MOL
REMARK 923 INTER-LIGAND FREE ENERGY PREDICTED BY IDOCK:   -7.51 KCAL/MOL
REMARK 924 INTRA-LIGAND FREE ENERGY PREDICTED BY IDOCK:   -0.41 KCAL/MOL
REMARK 927      BINDING AFFINITY PREDICTED BY RF-SCORE:    0.00 PKD
ROOT
HETATM    1  C   UNL     1      -6.982  16.493  68.722  1.00  0.00    -0.180 C  
HETATM    2  C   UNL     1      -8.377  15.859  68.845  1.00  0.00    -0.226 C  
HETATM    3  C   UNL     1      -8.194  14.355  69.079  1.00  0.00    -0.031 C  
HETATM    4  O   UNL     1      -8.955  13.427  68.334  1.00  0.00    -0.184 OA 
HETATM    5  C   UNL     1      -9.604  13.839  67.206  1.00  0.00    -0.237 A  
HETATM    6  C   UNL     1      -9.751  15.204  66.899  1.00  0.00    -0.239 A  
HETATM    7  N   UNL     1      -9.210  16.233  67.691  1.00  0.00    -0.205 NA 
HETATM    8  C   UNL     1      -9.517  17.555  67.395  1.00  0.00    -0.255 C  
HETATM    9  C   UNL     1     -10.231  17.993  66.347  1.00  0.00    -0.393 C  
HETATM   10  C   UNL     1     -10.755  16.964  65.433  1.00  0.00    -0.150 C  
HETATM   11  C   UNL     1     -10.448  19.443  66.165  1.00  0.00    -0.508 C  
HETATM   12  C   UNL     1     -10.503  15.542  65.755  1.00  0.00    -0.378 A  
HETATM   13  O   UNL     1     -10.006  20.286  66.930  1.00  0.00    -0.431 OA 
HETATM   14  O   UNL     1     -11.171  19.768  65.073  1.00  0.00    -0.219 OA 
HETATM   15  O   UNL     1     -11.401  17.300  64.441  1.00  0.00    -1.052 OA 
HETATM   16  C   UNL     1     -11.055  14.570  64.928  1.00  0.00    -0.401 A  
HETATM   17  C   UNL     1     -10.873  13.235  65.244  1.00  0.00    -0.301 A  
HETATM   18  C   UNL     1     -10.156  12.810  66.383  1.00  0.00    -0.259 A  
HETATM   19  F   UNL     1     -11.485  12.339  64.451  1.00  0.00    -0.343 F  
ENDROOT
BRANCH  18  20
HETATM   20  N   UNL     1     -10.071  11.450  66.678  1.00  0.00    -0.207 NA 
HETATM   21  C   UNL     1      -9.219  10.524  65.921  1.00  0.00    -0.179 C  
HETATM   22  C   UNL     1      -8.615   9.460  66.870  1.00  0.00    -0.127 C  
HETATM   23  N   UNL     1      -9.581   8.742  67.731  1.00  0.00    -0.145 NA 
HETATM   24  C   UNL     1     -10.431   9.740  68.427  1.00  0.00    -0.218 C  
HETATM   25  C   UNL     1     -10.383   7.799  66.957  1.00  0.00    -0.334 C  
HETATM   26  C   UNL     1     -11.097  10.793  67.508  1.00  0.00    -0.308 C  
ENDBRANCH  18  20
TORSDOF 1
ENDMDL
MODEL       11
REMARK 921   NORMALIZED FREE ENERGY PREDICTED BY IDOCK:   -7.06 KCAL/MOL
REMARK 922        TOTAL FREE ENERGY PREDICTED BY IDOCK:   -7.87 KCAL/MOL
REMARK 923 INTER-LIGAND FREE ENERGY PREDICTED BY IDOCK:   -7.95 KCAL/MOL
REMARK 924 INTRA-LIGAND FREE ENERGY PREDICTED BY IDOCK:    0.08 KCAL/MOL
REMARK 927      BINDING AFFINITY PREDICTED BY RF-SCORE:    0.00 PKD
ROOT
HETATM    1  C   UNL     1     -11.822  16.333  71.840  1.00  0.00    -0.538 C  
HETATM    2  C   UNL     1     -12.596  15.380  70.914  1.00  0.00    -0.438 C  
HETATM    3  C   UNL     1     -12.948  14.123  71.717  1.00  0.00    -0.348 C  
HETATM    4  O   UNL     1     -12.721  12.844  71.160  1.00  0.00    -0.360 OA 
HETATM    5  C   UNL     1     -11.912  12.717  70.068  1.00  0.00    -0.301 A  
HETATM    6  C   UNL     1     -11.500  13.838  69.325  1.00  0.00    -0.293 A  
HETATM    7  N   UNL     1     -11.844  15.158  69.669  1.00  0.00    -0.314 NA 
HETATM    8  C   UNL     1     -11.514  16.196  68.806  1.00  0.00    -0.340 C  
HETATM    9  C   UNL     1     -10.800  16.096  67.675  1.00  0.00    -0.297 C  
HETATM   10  C   UNL     1     -10.339  14.747  67.305  1.00  0.00    -0.247 C  
HETATM   11  C   UNL     1     -10.516  17.309  66.880  1.00  0.00    -0.272 C  
HETATM   12  C   UNL     1     -10.729  13.610  68.166  1.00  0.00    -0.260 A  
HETATM   13  O   UNL     1     -10.902  18.423  67.200  1.00  0.00    -0.373 OA 
HETATM   14  O   UNL     1      -9.782  17.092  65.769  1.00  0.00    -0.527 OA 
HETATM   15  O   UNL     1      -9.661  14.590  66.290  1.00  0.00    -0.281 OA 
HETATM   16  C   UNL     1     -10.350  12.329  67.780  1.00  0.00    -0.216 A  
HETATM   17  C   UNL     1     -10.752  11.248  68.545  1.00  0.00    -0.201 A  
HETATM   18  C   UNL     1     -11.545  11.386  69.705  1.00  0.00    -0.332 A  
HETATM   19  F   UNL     1     -10.417  10.029  68.090  1.00  0.00    -0.191 F  
ENDROOT
BRANCH  18  20
HETATM   20  N   UNL     1     -11.971  10.248  70.389  1.00  0.00    -0.293 NA 
HETATM   21  C   UNL     1     -11.067   9.142  70.733  1.00  0.00    -0.275 C  
HETATM   22  C   UNL     1     -11.450   8.552  72.112  1.00  0.00    -0.376 C  
HETATM   23  N   UNL     1     -12.871   8.176  72.280  1.00  0.00    -0.271 NA 
HETATM   24  C   UNL     1     -13.719   9.324  71.873  1.00  0.00    -0.398 C  
HETATM   25  C   UNL     1     -13.195   6.973  71.519  1.00  0.00    -0.317 C  
HETATM   26  C   UNL     1     -13.404   9.913  70.477  1.00  0.00     0.105 C  
ENDBRANCH  18  20
TORSDOF 1
ENDMDL
MODEL       12
REMARK 921   NORMALIZED FREE ENERGY PREDICTED BY IDOCK:   -7.06 KCAL/MOL
REMARK 922        TOTAL FREE ENERGY PREDICTED BY IDOCK:   -7.87 KCAL/MOL
REMARK 923 INTER-LIGAND FREE ENERGY PREDICTED BY IDOCK:   -7.47 KCAL/MOL
REMARK 924 INTRA-LIGAND FREE ENERGY PREDICTED BY IDOCK:   -0.40 KCAL/MOL
REMARK 927      BINDING AFFINITY PREDICTED BY RF-SCORE:    0.00 PKD
ROOT
HETATM    1  C   UNL     1     -13.453   9.640  71.959  1.00  0.00    -0.514 C  
HETATM    2  C   UNL     1     -12.078  10.080  71.429  1.00  0.00    -0.407 C  
HETATM    3  C   UNL     1     -12.243  11.452  70.766  1.00  0.00    -0.376 C  
HETATM    4  O   UNL     1     -11.676  11.694  69.495  1.00  0.00    -0.289 OA 
HETATM    5  C   UNL     1     -11.267  10.642  68.728  1.00  0.00    -0.279 A  
HETATM    6  C   UNL     1     -11.157   9.344  69.258  1.00  0.00    -0.045 A  
HETATM    7  N   UNL     1     -11.496   9.025  70.586  1.00  0.00    -0.263 NA 
HETATM    8  C   UNL     1     -11.227   7.751  71.070  1.00  0.00    -0.266 C  
HETATM    9  C   UNL     1     -10.737   6.717  70.369  1.00  0.00    -0.281 C  
HETATM   10  C   UNL     1     -10.440   6.968  68.949  1.00  0.00    -0.203 C  
HETATM   11  C   UNL     1     -10.529   5.414  71.036  1.00  0.00    -0.232 C  
HETATM   12  C   UNL     1     -10.652   8.332  68.416  1.00  0.00    -0.148 A  
HETATM   13  O   UNL     1     -10.783   5.219  72.215  1.00  0.00    -0.220 OA 
HETATM   14  O   UNL     1     -10.044   4.446  70.233  1.00  0.00    -0.218 OA 
HETATM   15  O   UNL     1     -10.008   6.056  68.245  1.00  0.00    -0.132 OA 
HETATM   16  C   UNL     1     -10.308   8.584  67.093  1.00  0.00    -0.377 A  
HETATM   17  C   UNL     1     -10.450   9.867  66.593  1.00  0.00    -0.169 A  
HETATM   18  C   UNL     1     -10.924  10.944  67.374  1.00  0.00    -0.293 A  
HETATM   19  F   UNL     1     -10.039  10.071  65.331  1.00  0.00    -0.342 F  
ENDROOT
BRANCH  18  20
HETATM   20  N   UNL     1     -10.976  12.224  66.825  1.00  0.00    -0.263 NA 
HETATM   21  C   UNL     1     -11.976  12.619  65.825  1.00  0.00    -0.446 C  
HETATM   22  C   UNL     1     -12.406  14.089  66.056  1.00  0.00    -0.473 C  
HETATM   23  N   UNL     1     -11.307  15.074  66.156  1.00  0.00    -0.314 NA 
HETATM   24  C   UNL     1     -10.320  14.585  67.150  1.00  0.00    -0.265 C  
HETATM   25  C   UNL     1     -10.688  15.313  64.856  1.00  0.00    -0.400 C  
HETATM   26  C   UNL     1      -9.823  13.136  66.927  1.00  0.00    -0.249 C  
ENDBRANCH  18  20
TORSDOF 1
ENDMDL
MODEL       13
REMARK 921   NORMALIZED FREE ENERGY PREDICTED BY IDOCK:   -6.91 KCAL/MOL
REMARK 922        TOTAL FREE ENERGY PREDICTED BY IDOCK:   -7.71 KCAL/MOL
REMARK 923 INTER-LIGAND FREE ENERGY PREDICTED BY IDOCK:   -7.28 KCAL/MOL
REMARK 924 INTRA-LIGAND FREE ENERGY PREDICTED BY IDOCK:   -0.44 KCAL/MOL
REMARK 927      BINDING AFFINITY PREDICTED BY RF-SCORE:    0.00 PKD
ROOT
HETATM    1  C   UNL     1     -11.973  13.806  66.618  1.00  0.00    -0.469 C  
HETATM    2  C   UNL     1     -10.901  13.249  67.570  1.00  0.00    -0.263 C  
HETATM    3  C   UNL     1     -10.152  12.131  66.838  1.00  0.00    -0.206 C  
HETATM    4  O   UNL     1      -9.914  10.899  67.487  1.00  0.00    -0.170 OA 
HETATM    5  C   UNL     1     -10.610  10.587  68.620  1.00  0.00    -0.200 A  
HETATM    6  C   UNL     1     -11.369  11.553  69.304  1.00  0.00    -0.288 A  
HETATM    7  N   UNL     1     -11.507  12.880  68.859  1.00  0.00    -0.284 NA 
HETATM    8  C   UNL     1     -12.159  13.805  69.664  1.00  0.00    -0.336 C  
HETATM    9  C   UNL     1     -12.774  13.555  70.830  1.00  0.00    -0.366 C  
HETATM   10  C   UNL     1     -12.736  12.163  71.308  1.00  0.00    -0.261 C  
HETATM   11  C   UNL     1     -13.444  14.655  71.555  1.00  0.00    -0.388 C  
HETATM   12  C   UNL     1     -11.993  11.165  70.508  1.00  0.00    -0.475 A  
HETATM   13  O   UNL     1     -13.471  15.806  71.146  1.00  0.00    -0.575 OA 
HETATM   14  O   UNL     1     -14.038  14.286  72.708  1.00  0.00    -0.575 OA 
HETATM   15  O   UNL     1     -13.298  11.862  72.360  1.00  0.00    -0.370 OA 
HETATM   16  C   UNL     1     -11.900   9.865  70.994  1.00  0.00    -0.463 A  
HETATM   17  C   UNL     1     -11.164   8.932  70.285  1.00  0.00    -0.197 A  
HETATM   18  C   UNL     1     -10.489   9.242  69.085  1.00  0.00    -0.217 A  
HETATM   19  F   UNL     1     -11.051   7.711  70.835  1.00  0.00    -0.243 F  
ENDROOT
BRANCH  18  20
HETATM   20  N   UNL     1      -9.709   8.270  68.461  1.00  0.00    -0.153 NA 
HETATM   21  C   UNL     1     -10.278   7.240  67.581  1.00  0.00    -0.200 C  
HETATM   22  C   UNL     1      -9.305   6.942  66.414  1.00  0.00    -0.141 C  
HETATM   23  N   UNL     1      -7.911   6.630  66.800  1.00  0.00    -0.106 NA 
HETATM   24  C   UNL     1      -7.424   7.689  67.718  1.00  0.00    -0.108 C  
HETATM   25  C   UNL     1      -7.811   5.306  67.406  1.00  0.00    -0.100 C  
HETATM   26  C   UNL     1      -8.342   7.984  68.930  1.00  0.00    -0.126 C  
ENDBRANCH  18  20
TORSDOF 1
ENDMDL
MODEL       14
REMARK 921   NORMALIZED FREE ENERGY PREDICTED BY IDOCK:   -6.84 KCAL/MOL
REMARK 922        TOTAL FREE ENERGY PREDICTED BY IDOCK:   -7.64 KCAL/MOL
REMARK 923 INTER-LIGAND FREE ENERGY PREDICTED BY IDOCK:   -7.27 KCAL/MOL
REMARK 924 INTRA-LIGAND FREE ENERGY PREDICTED BY IDOCK:   -0.36 KCAL/MOL
REMARK 927      BINDING AFFINITY PREDICTED BY RF-SCORE:    0.00 PKD
ROOT
HETATM    1  C   UNL     1      -9.295  10.866  66.298  1.00  0.00    -0.203 C  
HETATM    2  C   UNL     1      -9.025  10.899  67.812  1.00  0.00    -0.139 C  
HETATM    3  C   UNL     1      -8.909   9.452  68.303  1.00  0.00    -0.128 C  
HETATM    4  O   UNL     1      -9.601   9.044  69.465  1.00  0.00    -0.160 OA 
HETATM    5  C   UNL     1     -10.605   9.825  69.961  1.00  0.00    -0.276 A  
HETATM    6  C   UNL     1     -10.807  11.140  69.506  1.00  0.00    -0.188 A  
HETATM    7  N   UNL     1     -10.033  11.729  68.490  1.00  0.00    -0.208 NA 
HETATM    8  C   UNL     1     -10.205  13.076  68.196  1.00  0.00    -0.239 C  
HETATM    9  C   UNL     1     -11.120  13.899  68.731  1.00  0.00    -0.291 C  
HETATM   10  C   UNL     1     -12.016  13.316  69.743  1.00  0.00    -0.324 C  
HETATM   11  C   UNL     1     -11.184  15.308  68.288  1.00  0.00    -0.314 C  
HETATM   12  C   UNL     1     -11.817  11.902  70.128  1.00  0.00    -0.390 A  
HETATM   13  O   UNL     1     -10.435  15.778  67.445  1.00  0.00    -0.283 OA 
HETATM   14  O   UNL     1     -12.147  16.039  68.885  1.00  0.00    -0.283 OA 
HETATM   15  O   UNL     1     -12.891  14.012  70.258  1.00  0.00    -0.279 OA 
HETATM   16  C   UNL     1     -12.620  11.372  71.132  1.00  0.00    -0.490 A  
HETATM   17  C   UNL     1     -12.412  10.066  71.542  1.00  0.00    -0.419 A  
HETATM   18  C   UNL     1     -11.407   9.243  70.990  1.00  0.00    -0.320 A  
HETATM   19  F   UNL     1     -13.169   9.627  72.561  1.00  0.00    -0.473 F  
ENDROOT
BRANCH  18  20
HETATM   20  N   UNL     1     -11.209   7.961  71.499  1.00  0.00    -0.244 NA 
HETATM   21  C   UNL     1     -11.849   6.770  70.925  1.00  0.00    -0.385 C  
HETATM   22  C   UNL     1     -10.884   5.561  70.996  1.00  0.00    -0.173 C  
HETATM   23  N   UNL     1     -10.294   5.284  72.324  1.00  0.00    -0.206 NA 
HETATM   24  C   UNL     1      -9.708   6.539  72.855  1.00  0.00    -0.154 C  
HETATM   25  C   UNL     1     -11.285   4.725  73.238  1.00  0.00    -0.340 C  
HETATM   26  C   UNL     1     -10.657   7.763  72.851  1.00  0.00    -0.366 C  
ENDBRANCH  18  20
TORSDOF 1
ENDMDL
MODEL       15
REMARK 921   NORMALIZED FREE ENERGY PREDICTED BY IDOCK:   -6.83 KCAL/MOL
REMARK 922        TOTAL FREE ENERGY PREDICTED BY IDOCK:   -7.63 KCAL/MOL
REMARK 923 INTER-LIGAND FREE ENERGY PREDICTED BY IDOCK:   -7.51 KCAL/MOL
REMARK 924 INTRA-LIGAND FREE ENERGY PREDICTED BY IDOCK:   -0.12 KCAL/MOL
REMARK 927      BINDING AFFINITY PREDICTED BY RF-SCORE:    0.00 PKD
ROOT
HETATM    1  C   UNL     1     -10.817   9.677  71.173  1.00  0.00    -0.404 C  
HETATM    2  C   UNL     1     -11.592  10.005  69.885  1.00  0.00    -0.175 C  
HETATM    3  C   UNL     1     -10.910   9.274  68.724  1.00  0.00    -0.088 C  
HETATM    4  O   UNL     1     -10.633   9.964  67.522  1.00  0.00    -0.241 OA 
HETATM    5  C   UNL     1     -10.675  11.328  67.502  1.00  0.00    -0.232 A  
HETATM    6  C   UNL     1     -11.229  12.062  68.567  1.00  0.00    -0.256 A  
HETATM    7  N   UNL     1     -11.733  11.461  69.734  1.00  0.00    -0.315 NA 
HETATM    8  C   UNL     1     -12.389  12.245  70.676  1.00  0.00    -0.286 C  
HETATM    9  C   UNL     1     -12.532  13.579  70.644  1.00  0.00    -0.405 C  
HETATM   10  C   UNL     1     -11.950  14.274  69.483  1.00  0.00    -0.336 C  
HETATM   11  C   UNL     1     -13.242  14.265  71.743  1.00  0.00    -0.367 C  
HETATM   12  C   UNL     1     -11.302  13.463  68.429  1.00  0.00    -0.329 A  
HETATM   13  O   UNL     1     -13.718  13.676  72.702  1.00  0.00    -0.668 OA 
HETATM   14  O   UNL     1     -13.316  15.605  71.611  1.00  0.00    -0.485 OA 
HETATM   15  O   UNL     1     -12.028  15.500  69.403  1.00  0.00    -0.345 OA 
HETATM   16  C   UNL     1     -10.813  14.115  67.302  1.00  0.00    -0.288 A  
HETATM   17  C   UNL     1     -10.252  13.367  66.282  1.00  0.00    -0.298 A  
HETATM   18  C   UNL     1     -10.161  11.958  66.328  1.00  0.00    -0.216 A  
HETATM   19  F   UNL     1      -9.858  14.039  65.188  1.00  0.00    -0.335 F  
ENDROOT
BRANCH  18  20
HETATM   20  N   UNL     1      -9.647  11.264  65.234  1.00  0.00    -0.227 NA 
HETATM   21  C   UNL     1     -10.396  11.086  63.982  1.00  0.00    -0.371 C  
HETATM   22  C   UNL     1      -9.430  11.146  62.774  1.00  0.00    -0.329 C  
HETATM   23  N   UNL     1      -8.252  10.254  62.843  1.00  0.00    -0.152 NA 
HETATM   24  C   UNL     1      -7.577  10.459  64.149  1.00  0.00    -0.017 C  
HETATM   25  C   UNL     1      -8.633   8.858  62.649  1.00  0.00    -0.180 C  
HETATM   26  C   UNL     1      -8.497  10.356  65.390  1.00  0.00    -0.168 C  
ENDBRANCH  18  20
TORSDOF 1
ENDMDL
MODEL       16
REMARK 921   NORMALIZED FREE ENERGY PREDICTED BY IDOCK:   -6.82 KCAL/MOL
REMARK 922        TOTAL FREE ENERGY PREDICTED BY IDOCK:   -7.62 KCAL/MOL
REMARK 923 INTER-LIGAND FREE ENERGY PREDICTED BY IDOCK:   -7.74 KCAL/MOL
REMARK 924 INTRA-LIGAND FREE ENERGY PREDICTED BY IDOCK:    0.12 KCAL/MOL
REMARK 927      BINDING AFFINITY PREDICTED BY RF-SCORE:    0.00 PKD
ROOT
HETATM    1  C   UNL     1      -9.092  16.135  65.934  1.00  0.00    -0.268 C  
HETATM    2  C   UNL     1     -10.502  15.681  66.348  1.00  0.00    -0.305 C  
HETATM    3  C   UNL     1     -10.868  16.401  67.650  1.00  0.00    -0.280 C  
HETATM    4  O   UNL     1     -11.423  15.674  68.726  1.00  0.00    -0.334 OA 
HETATM    5  C   UNL     1     -11.341  14.312  68.734  1.00  0.00    -0.275 A  
HETATM    6  C   UNL     1     -10.949  13.593  67.590  1.00  0.00    -0.267 A  
HETATM    7  N   UNL     1     -10.573  14.212  66.384  1.00  0.00    -0.277 NA 
HETATM    8  C   UNL     1     -10.334  13.429  65.262  1.00  0.00    -0.319 C  
HETATM    9  C   UNL     1     -10.336  12.088  65.209  1.00  0.00    -0.311 C  
HETATM   10  C   UNL     1     -10.641  11.381  66.464  1.00  0.00    -0.263 C  
HETATM   11  C   UNL     1     -10.037  11.406  63.933  1.00  0.00    -0.345 C  
HETATM   12  C   UNL     1     -10.966  12.185  67.663  1.00  0.00    -0.289 A  
HETATM   13  O   UNL     1      -9.782  12.005  62.898  1.00  0.00    -0.334 OA 
HETATM   14  O   UNL     1     -10.056  10.059  63.999  1.00  0.00    -0.041 OA 
HETATM   15  O   UNL     1     -10.639  10.151  66.489  1.00  0.00    -0.189 OA 
HETATM   16  C   UNL     1     -11.320  11.516  68.830  1.00  0.00    -0.327 A  
HETATM   17  C   UNL     1     -11.678  12.252  69.946  1.00  0.00    -0.273 A  
HETATM   18  C   UNL     1     -11.712  13.664  69.952  1.00  0.00    -0.276 A  
HETATM   19  F   UNL     1     -12.077  11.557  71.024  1.00  0.00    -0.430 F  
ENDROOT
BRANCH  18  20
HETATM   20  N   UNL     1     -12.149  14.339  71.090  1.00  0.00    -0.345 NA 
HETATM   21  C   UNL     1     -11.291  15.259  71.848  1.00  0.00    -0.366 C  
HETATM   22  C   UNL     1     -12.127  16.447  72.382  1.00  0.00    -0.415 C  
HETATM   23  N   UNL     1     -13.350  16.088  73.134  1.00  0.00    -0.569 NA 
HETATM   24  C   UNL     1     -14.140  15.127  72.327  1.00  0.00    -0.534 C  
HETATM   25  C   UNL     1     -13.023  15.544  74.449  1.00  0.00     0.276 C  
HETATM   26  C   UNL     1     -13.354  13.895  71.814  1.00  0.00    -0.381 C  
ENDBRANCH  18  20
TORSDOF 1
ENDMDL
MODEL       17
REMARK 921   NORMALIZED FREE ENERGY PREDICTED BY IDOCK:   -6.78 KCAL/MOL
REMARK 922        TOTAL FREE ENERGY PREDICTED BY IDOCK:   -7.57 KCAL/MOL
REMARK 923 INTER-LIGAND FREE ENERGY PREDICTED BY IDOCK:   -7.15 KCAL/MOL
REMARK 924 INTRA-LIGAND FREE ENERGY PREDICTED BY IDOCK:   -0.42 KCAL/MOL
REMARK 927      BINDING AFFINITY PREDICTED BY RF-SCORE:    0.00 PKD
ROOT
HETATM    1  C   UNL     1     -11.432  13.607  69.769  1.00  0.00    -0.256 C  
HETATM    2  C   UNL     1     -12.133  12.284  69.413  1.00  0.00    -0.176 C  
HETATM    3  C   UNL     1     -11.929  11.312  70.579  1.00  0.00    -0.371 C  
HETATM    4  O   UNL     1     -11.519   9.984  70.327  1.00  0.00    -0.265 OA 
HETATM    5  C   UNL     1     -11.004   9.657  69.106  1.00  0.00    -0.151 A  
HETATM    6  C   UNL     1     -11.101  10.533  68.009  1.00  0.00    -0.300 A  
HETATM    7  N   UNL     1     -11.684  11.810  68.094  1.00  0.00    -0.455 NA 
HETATM    8  C   UNL     1     -11.864  12.555  66.936  1.00  0.00    -0.334 C  
HETATM    9  C   UNL     1     -11.455  12.225  65.702  1.00  0.00    -0.416 C  
HETATM   10  C   UNL     1     -10.761  10.933  65.564  1.00  0.00    -0.112 C  
HETATM   11  C   UNL     1     -11.708  13.146  64.575  1.00  0.00    -0.371 C  
HETATM   12  C   UNL     1     -10.611  10.083  66.766  1.00  0.00    -0.229 A  
HETATM   13  O   UNL     1     -12.282  14.217  64.704  1.00  0.00    -0.433 OA 
HETATM   14  O   UNL     1     -11.244  12.716  63.384  1.00  0.00    -0.467 OA 
HETATM   15  O   UNL     1     -10.342  10.579  64.463  1.00  0.00    -0.348 OA 
HETATM   16  C   UNL     1     -10.016   8.835  66.621  1.00  0.00    -0.355 A  
HETATM   17  C   UNL     1      -9.915   8.005  67.725  1.00  0.00    -0.175 A  
HETATM   18  C   UNL     1     -10.401   8.367  69.000  1.00  0.00    -0.218 A  
HETATM   19  F   UNL     1      -9.395   6.784  67.515  1.00  0.00    -0.125 F  
ENDROOT
BRANCH  18  20
HETATM   20  N   UNL     1     -10.328   7.453  70.051  1.00  0.00    -0.214 NA 
HETATM   21  C   UNL     1      -9.078   7.163  70.765  1.00  0.00    -0.153 C  
HETATM   22  C   UNL     1      -9.369   6.921  72.267  1.00  0.00    -0.137 C  
HETATM   23  N   UNL     1     -10.421   5.926  72.568  1.00  0.00    -0.197 NA 
HETATM   24  C   UNL     1     -11.632   6.260  71.779  1.00  0.00    -0.304 C  
HETATM   25  C   UNL     1      -9.960   4.568  72.295  1.00  0.00    -0.179 C  
HETATM   26  C   UNL     1     -11.396   6.459  70.262  1.00  0.00    -0.403 C  
ENDBRANCH  18  20
TORSDOF 1
ENDMDL
MODEL       18
REMARK 921   NORMALIZED FREE ENERGY PREDICTED BY IDOCK:   -6.76 KCAL/MOL
REMARK 922        TOTAL FREE ENERGY PREDICTED BY IDOCK:   -7.55 KCAL/MOL
REMARK 923 INTER-LIGAND FREE ENERGY PREDICTED BY IDOCK:   -7.33 KCAL/MOL
REMARK 924 INTRA-LIGAND FREE ENERGY PREDICTED BY IDOCK:   -0.22 KCAL/MOL
REMARK 927      BINDING AFFINITY PREDICTED BY RF-SCORE:    0.00 PKD
ROOT
HETATM    1  C   UNL     1     -11.596  12.866  66.669  1.00  0.00    -0.428 C  
HETATM    2  C   UNL     1     -10.695  12.409  67.829  1.00  0.00    -0.221 C  
HETATM    3  C   UNL     1     -10.044  11.081  67.429  1.00  0.00    -0.186 C  
HETATM    4  O   UNL     1     -10.032   9.999  68.338  1.00  0.00    -0.153 OA 
HETATM    5  C   UNL     1     -10.859  10.022  69.424  1.00  0.00    -0.239 A  
HETATM    6  C   UNL     1     -11.537  11.193  69.808  1.00  0.00    -0.334 A  
HETATM    7  N   UNL     1     -11.455  12.399  69.089  1.00  0.00    -0.284 NA 
HETATM    8  C   UNL     1     -12.043  13.545  69.610  1.00  0.00    -0.306 C  
HETATM    9  C   UNL     1     -12.785  13.624  70.726  1.00  0.00    -0.338 C  
HETATM   10  C   UNL     1     -12.977  12.373  71.478  1.00  0.00    -0.285 C  
HETATM   11  C   UNL     1     -13.360  14.924  71.131  1.00  0.00    -0.418 C  
HETATM   12  C   UNL     1     -12.309  11.147  70.987  1.00  0.00    -0.487 A  
HETATM   13  O   UNL     1     -13.195  15.955  70.496  1.00  0.00    -0.384 OA 
HETATM   14  O   UNL     1     -14.095  14.883  72.260  1.00  0.00    -0.450 OA 
HETATM   15  O   UNL     1     -13.664  12.373  72.499  1.00  0.00    -0.349 OA 
HETATM   16  C   UNL     1     -12.436   9.982  71.734  1.00  0.00    -0.475 A  
HETATM   17  C   UNL     1     -11.775   8.840  71.318  1.00  0.00    -0.298 A  
HETATM   18  C   UNL     1     -10.962   8.804  70.164  1.00  0.00    -0.223 A  
HETATM   19  F   UNL     1     -11.875   7.762  72.113  1.00  0.00    -0.288 F  
ENDROOT
BRANCH  18  20
HETATM   20  N   UNL     1     -10.270   7.638  69.843  1.00  0.00    -0.210 NA 
HETATM   21  C   UNL     1      -8.804   7.550  69.873  1.00  0.00    -0.141 C  
HETATM   22  C   UNL     1      -8.366   6.150  70.368  1.00  0.00    -0.125 C  
HETATM   23  N   UNL     1      -8.974   4.998  69.666  1.00  0.00    -0.097 NA 
HETATM   24  C   UNL     1     -10.446   5.180  69.638  1.00  0.00    -0.191 C  
HETATM   25  C   UNL     1      -8.426   4.848  68.321  1.00  0.00    -0.098 C  
HETATM   26  C   UNL     1     -10.930   6.549  69.101  1.00  0.00    -0.323 C  
ENDBRANCH  18  20
TORSDOF 1
ENDMDL
MODEL       19
REMARK 921   NORMALIZED FREE ENERGY PREDICTED BY IDOCK:   -6.72 KCAL/MOL
REMARK 922        TOTAL FREE ENERGY PREDICTED BY IDOCK:   -7.51 KCAL/MOL
REMARK 923 INTER-LIGAND FREE ENERGY PREDICTED BY IDOCK:   -7.14 KCAL/MOL
REMARK 924 INTRA-LIGAND FREE ENERGY PREDICTED BY IDOCK:   -0.37 KCAL/MOL
REMARK 927      BINDING AFFINITY PREDICTED BY RF-SCORE:    0.00 PKD
ROOT
HETATM    1  C   UNL     1      -7.989   9.032  68.539  1.00  0.00    -0.103 C  
HETATM    2  C   UNL     1      -9.266   9.632  67.929  1.00  0.00    -0.124 C  
HETATM    3  C   UNL     1      -8.868  10.878  67.130  1.00  0.00    -0.135 C  
HETATM    4  O   UNL     1      -9.598  12.078  67.284  1.00  0.00    -0.180 OA 
HETATM    5  C   UNL     1     -10.435  12.226  68.352  1.00  0.00    -0.233 A  
HETATM    6  C   UNL     1     -10.789  11.134  69.166  1.00  0.00    -0.238 A  
HETATM    7  N   UNL     1     -10.282   9.836  68.974  1.00  0.00    -0.193 NA 
HETATM    8  C   UNL     1     -10.787   8.788  69.732  1.00  0.00    -0.193 C  
HETATM    9  C   UNL     1     -11.681   8.881  70.728  1.00  0.00    -0.269 C  
HETATM   10  C   UNL     1     -12.187  10.231  71.032  1.00  0.00    -0.384 C  
HETATM   11  C   UNL     1     -12.099   7.664  71.453  1.00  0.00    -0.316 C  
HETATM   12  C   UNL     1     -11.720  11.361  70.200  1.00  0.00    -0.414 A  
HETATM   13  O   UNL     1     -11.669   6.550  71.193  1.00  0.00    -0.318 OA 
HETATM   14  O   UNL     1     -12.992   7.879  72.441  1.00  0.00    -0.154 OA 
HETATM   15  O   UNL     1     -12.993  10.389  71.948  1.00  0.00    -0.438 OA 
HETATM   16  C   UNL     1     -12.249  12.624  70.444  1.00  0.00    -0.368 A  
HETATM   17  C   UNL     1     -11.863  13.683  69.642  1.00  0.00    -0.335 A  
HETATM   18  C   UNL     1     -10.956  13.538  68.569  1.00  0.00    -0.267 A  
HETATM   19  F   UNL     1     -12.456  14.865  69.877  1.00  0.00    -0.343 F  
ENDROOT
BRANCH  18  20
HETATM   20  N   UNL     1     -10.665  14.634  67.758  1.00  0.00    -0.261 NA 
HETATM   21  C   UNL     1      -9.880  15.783  68.228  1.00  0.00    -0.213 C  
HETATM   22  C   UNL     1      -8.988  16.320  67.081  1.00  0.00    -0.195 C  
HETATM   23  N   UNL     1      -9.681  16.609  65.806  1.00  0.00    -0.531 NA 
HETATM   24  C   UNL     1     -10.484  15.422  65.422  1.00  0.00    -0.402 C  
HETATM   25  C   UNL     1     -10.509  17.807  65.912  1.00  0.00    -0.251 C  
HETATM   26  C   UNL     1     -11.430  14.882  66.523  1.00  0.00    -0.286 C  
ENDBRANCH  18  20
TORSDOF 1
ENDMDL
MODEL       20
REMARK 921   NORMALIZED FREE ENERGY PREDICTED BY IDOCK:   -6.72 KCAL/MOL
REMARK 922        TOTAL FREE ENERGY PREDICTED BY IDOCK:   -7.51 KCAL/MOL
REMARK 923 INTER-LIGAND FREE ENERGY PREDICTED BY IDOCK:   -7.17 KCAL/MOL
REMARK 924 INTRA-LIGAND FREE ENERGY PREDICTED BY IDOCK:   -0.33 KCAL/MOL
REMARK 927      BINDING AFFINITY PREDICTED BY RF-SCORE:    0.00 PKD
ROOT
HETATM    1  C   UNL     1     -14.234  14.177  71.583  1.00  0.00    -0.405 C  
HETATM    2  C   UNL     1     -12.711  14.388  71.523  1.00  0.00    -0.345 C  
HETATM    3  C   UNL     1     -12.451  15.844  71.124  1.00  0.00    -0.365 C  
HETATM    4  O   UNL     1     -11.509  16.142  70.114  1.00  0.00    -0.340 OA 
HETATM    5  C   UNL     1     -11.071  15.149  69.286  1.00  0.00    -0.274 A  
HETATM    6  C   UNL     1     -11.333  13.794  69.561  1.00  0.00    -0.224 A  
HETATM    7  N   UNL     1     -12.090  13.366  70.666  1.00  0.00    -0.334 NA 
HETATM    8  C   UNL     1     -12.184  12.008  70.943  1.00  0.00    -0.225 C  
HETATM    9  C   UNL     1     -11.687  11.006  70.202  1.00  0.00    -0.442 C  
HETATM   10  C   UNL     1     -10.954  11.390  68.984  1.00  0.00    -0.236 C  
HETATM   11  C   UNL     1     -11.897   9.607  70.629  1.00  0.00    -0.256 C  
HETATM   12  C   UNL     1     -10.777  12.831  68.694  1.00  0.00    -0.273 A  
HETATM   13  O   UNL     1     -12.510   9.301  71.641  1.00  0.00    -0.324 OA 
HETATM   14  O   UNL     1     -11.363   8.684  69.803  1.00  0.00    -0.066 OA 
HETATM   15  O   UNL     1     -10.490  10.519  68.250  1.00  0.00    -0.164 OA 
HETATM   16  C   UNL     1     -10.028  13.192  67.581  1.00  0.00    -0.219 A  
HETATM   17  C   UNL     1      -9.808  14.534  67.324  1.00  0.00    -0.236 A  
HETATM   18  C   UNL     1     -10.306  15.563  68.153  1.00  0.00    -0.237 A  
HETATM   19  F   UNL     1      -9.020  14.826  66.276  1.00  0.00    -0.287 F  
ENDROOT
BRANCH  18  20
HETATM   20  N   UNL     1      -9.987  16.891  67.873  1.00  0.00    -0.266 NA 
HETATM   21  C   UNL     1      -8.871  17.593  68.519  1.00  0.00    -0.285 C  
HETATM   22  C   UNL     1      -8.197  18.557  67.513  1.00  0.00    -0.252 C  
HETATM   23  N   UNL     1      -9.102  19.491  66.808  1.00  0.00    -0.321 NA 
HETATM   24  C   UNL     1     -10.223  18.715  66.222  1.00  0.00    -0.427 C  
HETATM   25  C   UNL     1      -9.585  20.539  67.703  1.00  0.00    -0.349 C  
HETATM   26  C   UNL     1     -10.960  17.775  67.207  1.00  0.00    -0.023 C  
ENDBRANCH  18  20
TORSDOF 1
ENDMDL
MODEL       21
REMARK 921   NORMALIZED FREE ENERGY PREDICTED BY IDOCK:   -6.64 KCAL/MOL
REMARK 922        TOTAL FREE ENERGY PREDICTED BY IDOCK:   -7.43 KCAL/MOL
REMARK 923 INTER-LIGAND FREE ENERGY PREDICTED BY IDOCK:   -7.05 KCAL/MOL
REMARK 924 INTRA-LIGAND FREE ENERGY PREDICTED BY IDOCK:   -0.38 KCAL/MOL
REMARK 927      BINDING AFFINITY PREDICTED BY RF-SCORE:    0.00 PKD
ROOT
HETATM    1  C   UNL     1     -13.937   9.273  72.090  1.00  0.00    -0.422 C  
HETATM    2  C   UNL     1     -12.530   9.817  71.789  1.00  0.00    -0.398 C  
HETATM    3  C   UNL     1     -12.686  11.183  71.115  1.00  0.00    -0.408 C  
HETATM    4  O   UNL     1     -11.943  11.485  69.951  1.00  0.00    -0.310 OA 
HETATM    5  C   UNL     1     -11.342  10.476  69.255  1.00  0.00    -0.262 A  
HETATM    6  C   UNL     1     -11.224   9.181  69.791  1.00  0.00    -0.056 A  
HETATM    7  N   UNL     1     -11.747   8.818  71.045  1.00  0.00    -0.284 NA 
HETATM    8  C   UNL     1     -11.467   7.559  71.561  1.00  0.00    -0.265 C  
HETATM    9  C   UNL     1     -10.799   6.573  70.943  1.00  0.00    -0.302 C  
HETATM   10  C   UNL     1     -10.298   6.867  69.590  1.00  0.00    -0.206 C  
HETATM   11  C   UNL     1     -10.607   5.278  71.629  1.00  0.00    -0.192 C  
HETATM   12  C   UNL     1     -10.521   8.220  69.036  1.00  0.00    -0.212 A  
HETATM   13  O   UNL     1     -11.031   5.046  72.751  1.00  0.00    -0.234 OA 
HETATM   14  O   UNL     1      -9.931   4.359  70.910  1.00  0.00    -0.197 OA 
HETATM   15  O   UNL     1      -9.695   5.999  68.960  1.00  0.00    -0.128 OA 
HETATM   16  C   UNL     1      -9.989   8.517  67.786  1.00  0.00    -0.241 A  
HETATM   17  C   UNL     1     -10.142   9.794  67.275  1.00  0.00    -0.207 A  
HETATM   18  C   UNL     1     -10.810  10.822  67.975  1.00  0.00    -0.255 A  
HETATM   19  F   UNL     1      -9.550  10.046  66.096  1.00  0.00    -0.201 F  
ENDROOT
BRANCH  18  20
HETATM   20  N   UNL     1     -10.866  12.104  67.430  1.00  0.00    -0.236 NA 
HETATM   21  C   UNL     1     -11.683  12.433  66.254  1.00  0.00    -0.395 C  
HETATM   22  C   UNL     1     -12.276  13.855  66.401  1.00  0.00    -0.449 C  
HETATM   23  N   UNL     1     -11.309  14.929  66.718  1.00  0.00    -0.345 NA 
HETATM   24  C   UNL     1     -10.495  14.506  67.884  1.00  0.00    -0.242 C  
HETATM   25  C   UNL     1     -10.471  15.245  65.565  1.00  0.00    -0.374 C  
HETATM   26  C   UNL     1      -9.839  13.109  67.758  1.00  0.00    -0.228 C  
ENDBRANCH  18  20
TORSDOF 1
ENDMDL
MODEL       22
REMARK 921   NORMALIZED FREE ENERGY PREDICTED BY IDOCK:   -6.62 KCAL/MOL
REMARK 922        TOTAL FREE ENERGY PREDICTED BY IDOCK:   -7.40 KCAL/MOL
REMARK 923 INTER-LIGAND FREE ENERGY PREDICTED BY IDOCK:   -7.07 KCAL/MOL
REMARK 924 INTRA-LIGAND FREE ENERGY PREDICTED BY IDOCK:   -0.33 KCAL/MOL
REMARK 927      BINDING AFFINITY PREDICTED BY RF-SCORE:    0.00 PKD
ROOT
HETATM    1  C   UNL     1     -11.758  15.977  71.235  1.00  0.00    -0.516 C  
HETATM    2  C   UNL     1     -12.129  15.185  69.969  1.00  0.00    -0.345 C  
HETATM    3  C   UNL     1     -12.177  13.698  70.339  1.00  0.00    -0.363 C  
HETATM    4  O   UNL     1     -11.537  12.746  69.515  1.00  0.00    -0.284 OA 
HETATM    5  C   UNL     1     -10.624  13.160  68.589  1.00  0.00    -0.239 A  
HETATM    6  C   UNL     1     -10.484  14.518  68.251  1.00  0.00    -0.242 A  
HETATM    7  N   UNL     1     -11.228  15.543  68.863  1.00  0.00    -0.283 NA 
HETATM    8  C   UNL     1     -11.131  16.840  68.375  1.00  0.00    -0.266 C  
HETATM    9  C   UNL     1     -10.312  17.268  67.402  1.00  0.00    -0.338 C  
HETATM   10  C   UNL     1      -9.446  16.253  66.779  1.00  0.00    -0.235 C  
HETATM   11  C   UNL     1     -10.317  18.695  67.016  1.00  0.00    -0.404 C  
HETATM   12  C   UNL     1      -9.572  14.849  67.228  1.00  0.00    -0.216 A  
HETATM   13  O   UNL     1     -11.039  19.527  67.544  1.00  0.00    -0.398 OA 
HETATM   14  O   UNL     1      -9.447  19.012  66.036  1.00  0.00    -0.457 OA 
HETATM   15  O   UNL     1      -8.657  16.583  65.894  1.00  0.00    -0.441 OA 
HETATM   16  C   UNL     1      -8.802  13.881  66.592  1.00  0.00    -0.105 A  
HETATM   17  C   UNL     1      -8.945  12.556  66.964  1.00  0.00    -0.211 A  
HETATM   18  C   UNL     1      -9.853  12.135  67.960  1.00  0.00    -0.202 A  
HETATM   19  F   UNL     1      -8.229  11.655  66.271  1.00  0.00    -0.166 F  
ENDROOT
BRANCH  18  20
HETATM   20  N   UNL     1      -9.995  10.776  68.234  1.00  0.00    -0.163 NA 
HETATM   21  C   UNL     1     -11.014   9.937  67.588  1.00  0.00    -0.200 C  
HETATM   22  C   UNL     1     -10.449   8.519  67.331  1.00  0.00    -0.280 C  
HETATM   23  N   UNL     1      -9.840   7.846  68.500  1.00  0.00    -0.172 NA 
HETATM   24  C   UNL     1      -8.859   8.768  69.122  1.00  0.00    -0.137 C  
HETATM   25  C   UNL     1     -10.857   7.419  69.456  1.00  0.00    -0.189 C  
HETATM   26  C   UNL     1      -9.397  10.183  69.444  1.00  0.00    -0.219 C  
ENDBRANCH  18  20
TORSDOF 1
ENDMDL
MODEL       23
REMARK 921   NORMALIZED FREE ENERGY PREDICTED BY IDOCK:   -6.59 KCAL/MOL
REMARK 922        TOTAL FREE ENERGY PREDICTED BY IDOCK:   -7.37 KCAL/MOL
REMARK 923 INTER-LIGAND FREE ENERGY PREDICTED BY IDOCK:   -7.06 KCAL/MOL
REMARK 924 INTRA-LIGAND FREE ENERGY PREDICTED BY IDOCK:   -0.31 KCAL/MOL
REMARK 927      BINDING AFFINITY PREDICTED BY RF-SCORE:    0.00 PKD
ROOT
HETATM    1  C   UNL     1     -13.209  10.431  71.082  1.00  0.00    -0.399 C  
HETATM    2  C   UNL     1     -11.782  10.840  70.677  1.00  0.00    -0.342 C  
HETATM    3  C   UNL     1     -11.805  12.324  70.297  1.00  0.00    -0.240 C  
HETATM    4  O   UNL     1     -11.173  12.757  69.110  1.00  0.00    -0.256 OA 
HETATM    5  C   UNL     1     -10.827  11.843  68.157  1.00  0.00    -0.221 A  
HETATM    6  C   UNL     1     -10.847  10.462  68.422  1.00  0.00    -0.245 A  
HETATM    7  N   UNL     1     -11.262   9.921  69.653  1.00  0.00    -0.232 NA 
HETATM    8  C   UNL     1     -11.120   8.558  69.880  1.00  0.00    -0.112 C  
HETATM    9  C   UNL     1     -10.695   7.641  68.998  1.00  0.00    -0.134 C  
HETATM   10  C   UNL     1     -10.325   8.137  67.662  1.00  0.00    -0.247 C  
HETATM   11  C   UNL     1     -10.624   6.220  69.397  1.00  0.00    -0.271 C  
HETATM   12  C   UNL     1     -10.400   9.593  67.406  1.00  0.00    -0.306 A  
HETATM   13  O   UNL     1     -10.937   5.821  70.508  1.00  0.00    -0.288 OA 
HETATM   14  O   UNL     1     -10.193   5.387  68.427  1.00  0.00    -0.173 OA 
HETATM   15  O   UNL     1      -9.946   7.345  66.799  1.00  0.00    -0.217 OA 
HETATM   16  C   UNL     1      -9.986  10.067  66.166  1.00  0.00    -0.322 A  
HETATM   17  C   UNL     1     -10.000  11.430  65.928  1.00  0.00    -0.234 A  
HETATM   18  C   UNL     1     -10.409  12.371  66.897  1.00  0.00    -0.224 A  
HETATM   19  F   UNL     1      -9.526  11.839  64.739  1.00  0.00    -0.223 F  
ENDROOT
BRANCH  18  20
HETATM   20  N   UNL     1     -10.331  13.734  66.613  1.00  0.00    -0.275 NA 
HETATM   21  C   UNL     1      -9.290  14.605  67.174  1.00  0.00    -0.223 C  
HETATM   22  C   UNL     1      -8.866  15.667  66.130  1.00  0.00    -0.276 C  
HETATM   23  N   UNL     1      -9.966  16.445  65.519  1.00  0.00    -0.549 NA 
HETATM   24  C   UNL     1     -10.994  15.501  65.016  1.00  0.00    -0.440 C  
HETATM   25  C   UNL     1     -10.531  17.400  66.468  1.00  0.00    -0.264 C  
HETATM   26  C   UNL     1     -11.485  14.453  66.045  1.00  0.00    -0.349 C  
ENDBRANCH  18  20
TORSDOF 1
ENDMDL
MODEL       24
REMARK 921   NORMALIZED FREE ENERGY PREDICTED BY IDOCK:   -6.52 KCAL/MOL
REMARK 922        TOTAL FREE ENERGY PREDICTED BY IDOCK:   -7.30 KCAL/MOL
REMARK 923 INTER-LIGAND FREE ENERGY PREDICTED BY IDOCK:   -6.87 KCAL/MOL
REMARK 924 INTRA-LIGAND FREE ENERGY PREDICTED BY IDOCK:   -0.43 KCAL/MOL
REMARK 927      BINDING AFFINITY PREDICTED BY RF-SCORE:    0.00 PKD
ROOT
HETATM    1  C   UNL     1     -12.411  12.719  63.336  1.00  0.00    -0.531 C  
HETATM    2  C   UNL     1     -10.916  12.507  63.630  1.00  0.00    -0.456 C  
HETATM    3  C   UNL     1     -10.656  10.999  63.699  1.00  0.00    -0.269 C  
HETATM    4  O   UNL     1      -9.899  10.461  64.763  1.00  0.00    -0.294 OA 
HETATM    5  C   UNL     1      -9.673  11.214  65.879  1.00  0.00    -0.229 A  
HETATM    6  C   UNL     1      -9.951  12.593  65.903  1.00  0.00    -0.264 A  
HETATM    7  N   UNL     1     -10.516  13.283  64.815  1.00  0.00    -0.370 NA 
HETATM    8  C   UNL     1     -10.630  14.666  64.870  1.00  0.00    -0.422 C  
HETATM    9  C   UNL     1     -10.330  15.451  65.916  1.00  0.00    -0.359 C  
HETATM   10  C   UNL     1      -9.811  14.775  67.117  1.00  0.00    -0.232 C  
HETATM   11  C   UNL     1     -10.532  16.911  65.817  1.00  0.00    -0.268 C  
HETATM   12  C   UNL     1      -9.615  13.309  67.070  1.00  0.00    -0.243 A  
HETATM   13  O   UNL     1     -10.966  17.459  64.815  1.00  0.00    -0.964 OA 
HETATM   14  O   UNL     1     -10.207  17.598  66.931  1.00  0.00    -0.311 OA 
HETATM   15  O   UNL     1      -9.536  15.434  68.119  1.00  0.00    -0.201 OA 
HETATM   16  C   UNL     1      -9.062  12.681  68.181  1.00  0.00    -0.204 A  
HETATM   17  C   UNL     1      -8.822  11.319  68.134  1.00  0.00    -0.159 A  
HETATM   18  C   UNL     1      -9.106  10.531  66.998  1.00  0.00    -0.143 A  
HETATM   19  F   UNL     1      -8.224  10.775  69.208  1.00  0.00    -0.143 F  
ENDROOT
BRANCH  18  20
HETATM   20  N   UNL     1      -8.774   9.177  66.996  1.00  0.00    -0.123 NA 
HETATM   21  C   UNL     1      -9.647   8.144  67.569  1.00  0.00    -0.157 C  
HETATM   22  C   UNL     1      -9.569   6.852  66.720  1.00  0.00    -0.168 C  
HETATM   23  N   UNL     1      -8.208   6.337  66.452  1.00  0.00    -0.111 NA 
HETATM   24  C   UNL     1      -7.377   7.445  65.919  1.00  0.00    -0.075 C  
HETATM   25  C   UNL     1      -7.617   5.752  67.652  1.00  0.00    -0.089 C  
HETATM   26  C   UNL     1      -7.385   8.741  66.765  1.00  0.00    -0.082 C  
ENDBRANCH  18  20
TORSDOF 1
ENDMDL
MODEL       25
REMARK 921   NORMALIZED FREE ENERGY PREDICTED BY IDOCK:   -6.49 KCAL/MOL
REMARK 922        TOTAL FREE ENERGY PREDICTED BY IDOCK:   -7.27 KCAL/MOL
REMARK 923 INTER-LIGAND FREE ENERGY PREDICTED BY IDOCK:   -7.21 KCAL/MOL
REMARK 924 INTRA-LIGAND FREE ENERGY PREDICTED BY IDOCK:   -0.06 KCAL/MOL
REMARK 927      BINDING AFFINITY PREDICTED BY RF-SCORE:    0.00 PKD
ROOT
HETATM    1  C   UNL     1      -8.385   7.487  67.301  1.00  0.00    -0.118 C  
HETATM    2  C   UNL     1      -9.808   8.035  67.098  1.00  0.00    -0.210 C  
HETATM    3  C   UNL     1      -9.738   9.161  66.062  1.00  0.00    -0.287 C  
HETATM    4  O   UNL     1     -10.396  10.387  66.306  1.00  0.00    -0.236 OA 
HETATM    5  C   UNL     1     -10.816  10.687  67.570  1.00  0.00    -0.296 A  
HETATM    6  C   UNL     1     -10.843   9.714  68.586  1.00  0.00    -0.167 A  
HETATM    7  N   UNL     1     -10.405   8.391  68.395  1.00  0.00    -0.210 NA 
HETATM    8  C   UNL     1     -10.595   7.457  69.406  1.00  0.00    -0.226 C  
HETATM    9  C   UNL     1     -11.092   7.696  70.629  1.00  0.00    -0.269 C  
HETATM   10  C   UNL     1     -11.492   9.084  70.917  1.00  0.00    -0.291 C  
HETATM   11  C   UNL     1     -11.207   6.588  71.601  1.00  0.00    -0.270 C  
HETATM   12  C   UNL     1     -11.365  10.090  69.840  1.00  0.00    -0.306 A  
HETATM   13  O   UNL     1     -10.869   5.441  71.350  1.00  0.00    -0.222 OA 
HETATM   14  O   UNL     1     -11.709   6.945  72.800  1.00  0.00    -0.154 OA 
HETATM   15  O   UNL     1     -11.936   9.373  72.027  1.00  0.00    -0.355 OA 
HETATM   16  C   UNL     1     -11.806  11.385  70.092  1.00  0.00    -0.440 A  
HETATM   17  C   UNL     1     -11.743  12.326  69.079  1.00  0.00    -0.324 A  
HETATM   18  C   UNL     1     -11.259  12.027  67.787  1.00  0.00    -0.271 A  
HETATM   19  F   UNL     1     -12.245  13.541  69.354  1.00  0.00    -0.340 F  
ENDROOT
BRANCH  18  20
HETATM   20  N   UNL     1     -11.290  13.006  66.795  1.00  0.00    -0.309 NA 
HETATM   21  C   UNL     1     -10.074  13.626  66.252  1.00  0.00    -0.299 C  
HETATM   22  C   UNL     1     -10.250  13.902  64.739  1.00  0.00    -0.324 C  
HETATM   23  N   UNL     1     -11.468  14.650  64.356  1.00  0.00    -0.309 NA 
HETATM   24  C   UNL     1     -12.644  13.991  64.976  1.00  0.00    -0.390 C  
HETATM   25  C   UNL     1     -11.372  16.054  64.744  1.00  0.00    -0.280 C  
HETATM   26  C   UNL     1     -12.533  13.742  66.500  1.00  0.00    -0.309 C  
ENDBRANCH  18  20
TORSDOF 1
ENDMDL
MODEL       26
REMARK 921   NORMALIZED FREE ENERGY PREDICTED BY IDOCK:   -6.45 KCAL/MOL
REMARK 922        TOTAL FREE ENERGY PREDICTED BY IDOCK:   -7.23 KCAL/MOL
REMARK 923 INTER-LIGAND FREE ENERGY PREDICTED BY IDOCK:   -6.93 KCAL/MOL
REMARK 924 INTRA-LIGAND FREE ENERGY PREDICTED BY IDOCK:   -0.30 KCAL/MOL
REMARK 927      BINDING AFFINITY PREDICTED BY RF-SCORE:    0.00 PKD
ROOT
HETATM    1  C   UNL     1      -9.753   9.972  65.054  1.00  0.00    -0.386 C  
HETATM    2  C   UNL     1      -9.220  10.226  66.474  1.00  0.00    -0.153 C  
HETATM    3  C   UNL     1      -9.268   8.900  67.241  1.00  0.00    -0.138 C  
HETATM    4  O   UNL     1      -9.804   8.860  68.548  1.00  0.00    -0.159 OA 
HETATM    5  C   UNL     1     -10.557   9.905  69.000  1.00  0.00    -0.220 A  
HETATM    6  C   UNL     1     -10.609  11.128  68.307  1.00  0.00    -0.190 A  
HETATM    7  N   UNL     1      -9.936  11.352  67.092  1.00  0.00    -0.190 NA 
HETATM    8  C   UNL     1      -9.925  12.629  66.545  1.00  0.00    -0.251 C  
HETATM    9  C   UNL     1     -10.578  13.704  67.013  1.00  0.00    -0.274 C  
HETATM   10  C   UNL     1     -11.368  13.510  68.240  1.00  0.00    -0.294 C  
HETATM   11  C   UNL     1     -10.477  14.992  66.294  1.00  0.00    -0.304 C  
HETATM   12  C   UNL     1     -11.349  12.179  68.886  1.00  0.00    -0.335 A  
HETATM   13  O   UNL     1      -9.819  15.138  65.275  1.00  0.00    -0.313 OA 
HETATM   14  O   UNL     1     -11.182  15.999  66.849  1.00  0.00    -0.125 OA 
HETATM   15  O   UNL     1     -12.008  14.450  68.710  1.00  0.00    -0.319 OA 
HETATM   16  C   UNL     1     -12.042  12.016  70.081  1.00  0.00    -0.377 A  
HETATM   17  C   UNL     1     -11.991  10.792  70.726  1.00  0.00    -0.362 A  
HETATM   18  C   UNL     1     -11.254   9.696  70.230  1.00  0.00    -0.271 A  
HETATM   19  F   UNL     1     -12.621  10.709  71.910  1.00  0.00    -0.471 F  
ENDROOT
BRANCH  18  20
HETATM   20  N   UNL     1     -11.191   8.515  70.968  1.00  0.00    -0.260 NA 
HETATM   21  C   UNL     1     -10.180   8.281  72.008  1.00  0.00    -0.269 C  
HETATM   22  C   UNL     1     -10.798   7.474  73.176  1.00  0.00    -0.395 C  
HETATM   23  N   UNL     1     -11.499   6.227  72.798  1.00  0.00    -0.212 NA 
HETATM   24  C   UNL     1     -12.467   6.535  71.717  1.00  0.00    -0.240 C  
HETATM   25  C   UNL     1     -10.555   5.189  72.394  1.00  0.00    -0.221 C  
HETATM   26  C   UNL     1     -11.880   7.298  70.504  1.00  0.00    -0.199 C  
ENDBRANCH  18  20
TORSDOF 1
ENDMDL
MODEL       27
REMARK 921   NORMALIZED FREE ENERGY PREDICTED BY IDOCK:   -6.43 KCAL/MOL
REMARK 922        TOTAL FREE ENERGY PREDICTED BY IDOCK:   -7.20 KCAL/MOL
REMARK 923 INTER-LIGAND FREE ENERGY PREDICTED BY IDOCK:   -6.88 KCAL/MOL
REMARK 924 INTRA-LIGAND FREE ENERGY PREDICTED BY IDOCK:   -0.33 KCAL/MOL
REMARK 927      BINDING AFFINITY PREDICTED BY RF-SCORE:    0.00 PKD
ROOT
HETATM    1  C   UNL     1     -11.779  11.859  63.755  1.00  0.00    -0.554 C  
HETATM    2  C   UNL     1     -11.999  12.475  65.148  1.00  0.00    -0.434 C  
HETATM    3  C   UNL     1     -12.044  13.999  64.989  1.00  0.00    -0.415 C  
HETATM    4  O   UNL     1     -11.297  14.821  65.862  1.00  0.00    -0.339 OA 
HETATM    5  C   UNL     1     -10.307  14.272  66.624  1.00  0.00    -0.279 A  
HETATM    6  C   UNL     1     -10.171  12.879  66.760  1.00  0.00    -0.241 A  
HETATM    7  N   UNL     1     -11.000  11.957  66.096  1.00  0.00    -0.297 NA 
HETATM    8  C   UNL     1     -10.889  10.604  66.391  1.00  0.00    -0.062 C  
HETATM    9  C   UNL     1      -9.988  10.037  67.208  1.00  0.00    -0.245 C  
HETATM   10  C   UNL     1      -9.036  10.946  67.869  1.00  0.00    -0.149 C  
HETATM   11  C   UNL     1      -9.992   8.571  67.396  1.00  0.00    -0.214 C  
HETATM   12  C   UNL     1      -9.169  12.399  67.628  1.00  0.00    -0.185 A  
HETATM   13  O   UNL     1     -10.786   7.828  66.839  1.00  0.00    -0.345 OA 
HETATM   14  O   UNL     1      -9.037   8.111  68.229  1.00  0.00    -0.136 OA 
HETATM   15  O   UNL     1      -8.171  10.487  68.614  1.00  0.00    -0.115 OA 
HETATM   16  C   UNL     1      -8.313  13.261  68.305  1.00  0.00    -0.154 A  
HETATM   17  C   UNL     1      -8.457  14.626  68.133  1.00  0.00    -0.156 A  
HETATM   18  C   UNL     1      -9.449  15.191  67.302  1.00  0.00    -0.210 A  
HETATM   19  F   UNL     1      -7.650  15.415  68.862  1.00  0.00    -0.124 F  
ENDROOT
BRANCH  18  20
HETATM   20  N   UNL     1      -9.582  16.577  67.230  1.00  0.00    -0.239 NA 
HETATM   21  C   UNL     1     -10.624  17.315  67.957  1.00  0.00    -0.394 C  
HETATM   22  C   UNL     1     -10.069  18.675  68.444  1.00  0.00    -0.383 C  
HETATM   23  N   UNL     1      -9.417  19.513  67.413  1.00  0.00    -0.310 NA 
HETATM   24  C   UNL     1      -8.413  18.689  66.696  1.00  0.00    -0.292 C  
HETATM   25  C   UNL     1     -10.399  20.083  66.495  1.00  0.00    -0.450 C  
HETATM   26  C   UNL     1      -8.939  17.341  66.146  1.00  0.00    -0.154 C  
ENDBRANCH  18  20
TORSDOF 1
ENDMDL
MODEL       28
REMARK 921   NORMALIZED FREE ENERGY PREDICTED BY IDOCK:   -6.41 KCAL/MOL
REMARK 922        TOTAL FREE ENERGY PREDICTED BY IDOCK:   -7.18 KCAL/MOL
REMARK 923 INTER-LIGAND FREE ENERGY PREDICTED BY IDOCK:   -6.75 KCAL/MOL
REMARK 924 INTRA-LIGAND FREE ENERGY PREDICTED BY IDOCK:   -0.44 KCAL/MOL
REMARK 927      BINDING AFFINITY PREDICTED BY RF-SCORE:    0.00 PKD
ROOT
HETATM    1  C   UNL     1      -6.735  15.728  67.236  1.00  0.00    -0.197 C  
HETATM    2  C   UNL     1      -7.850  14.913  67.914  1.00  0.00    -0.137 C  
HETATM    3  C   UNL     1      -7.197  13.733  68.642  1.00  0.00    -0.109 C  
HETATM    4  O   UNL     1      -7.733  12.433  68.500  1.00  0.00    -0.132 OA 
HETATM    5  C   UNL     1      -8.612  12.173  67.489  1.00  0.00    -0.171 A  
HETATM    6  C   UNL     1      -9.197  13.209  66.738  1.00  0.00    -0.230 A  
HETATM    7  N   UNL     1      -8.894  14.568  66.937  1.00  0.00    -0.238 NA 
HETATM    8  C   UNL     1      -9.617  15.535  66.251  1.00  0.00    -0.309 C  
HETATM    9  C   UNL     1     -10.556  15.317  65.317  1.00  0.00    -0.438 C  
HETATM   10  C   UNL     1     -10.858  13.910  65.005  1.00  0.00    -0.382 C  
HETATM   11  C   UNL     1     -11.218  16.465  64.663  1.00  0.00    -0.192 C  
HETATM   12  C   UNL     1     -10.153  12.854  65.765  1.00  0.00    -0.294 A  
HETATM   13  O   UNL     1     -10.956  17.628  64.929  1.00  0.00    -0.886 OA 
HETATM   14  O   UNL     1     -12.135  16.127  63.734  1.00  0.00    -0.946 OA 
HETATM   15  O   UNL     1     -11.694  13.641  64.143  1.00  0.00    -0.397 OA 
HETATM   16  C   UNL     1     -10.488  11.527  65.517  1.00  0.00    -0.327 A  
HETATM   17  C   UNL     1      -9.877  10.529  66.255  1.00  0.00    -0.217 A  
HETATM   18  C   UNL     1      -8.928  10.798  67.266  1.00  0.00    -0.140 A  
HETATM   19  F   UNL     1     -10.287   9.271  66.023  1.00  0.00    -0.353 F  
ENDROOT
BRANCH  18  20
HETATM   20  N   UNL     1      -8.404   9.747  68.018  1.00  0.00    -0.110 NA 
HETATM   21  C   UNL     1      -7.339   8.867  67.519  1.00  0.00    -0.081 C  
HETATM   22  C   UNL     1      -6.387   8.479  68.677  1.00  0.00    -0.053 C  
HETATM   23  N   UNL     1      -7.034   7.930  69.888  1.00  0.00    -0.049 NA 
HETATM   24  C   UNL     1      -8.123   8.848  70.303  1.00  0.00    -0.123 C  
HETATM   25  C   UNL     1      -7.532   6.577  69.657  1.00  0.00    -0.093 C  
HETATM   26  C   UNL     1      -9.130   9.223  69.188  1.00  0.00    -0.145 C  
ENDBRANCH  18  20
TORSDOF 1
ENDMDL
MODEL       29
REMARK 921   NORMALIZED FREE ENERGY PREDICTED BY IDOCK:   -6.40 KCAL/MOL
REMARK 922        TOTAL FREE ENERGY PREDICTED BY IDOCK:   -7.17 KCAL/MOL
REMARK 923 INTER-LIGAND FREE ENERGY PREDICTED BY IDOCK:   -6.73 KCAL/MOL
REMARK 924 INTRA-LIGAND FREE ENERGY PREDICTED BY IDOCK:   -0.44 KCAL/MOL
REMARK 927      BINDING AFFINITY PREDICTED BY RF-SCORE:    0.00 PKD
ROOT
HETATM    1  C   UNL     1     -11.631  12.591  64.756  1.00  0.00    -0.387 C  
HETATM    2  C   UNL     1     -10.524  12.121  65.715  1.00  0.00    -0.253 C  
HETATM    3  C   UNL     1     -10.137  10.691  65.325  1.00  0.00    -0.297 C  
HETATM    4  O   UNL     1     -10.014   9.697  66.322  1.00  0.00    -0.237 OA 
HETATM    5  C   UNL     1     -10.538   9.918  67.563  1.00  0.00    -0.275 A  
HETATM    6  C   UNL     1     -10.973  11.195  67.961  1.00  0.00    -0.252 A  
HETATM    7  N   UNL     1     -10.945  12.316  67.111  1.00  0.00    -0.250 NA 
HETATM    8  C   UNL     1     -11.262  13.567  67.624  1.00  0.00    -0.279 C  
HETATM    9  C   UNL     1     -11.691  13.836  68.866  1.00  0.00    -0.374 C  
HETATM   10  C   UNL     1     -11.821  12.688  69.779  1.00  0.00    -0.309 C  
HETATM   11  C   UNL     1     -12.007  15.229  69.246  1.00  0.00    -0.299 C  
HETATM   12  C   UNL     1     -11.429  11.349  69.286  1.00  0.00    -0.370 A  
HETATM   13  O   UNL     1     -11.898  16.172  68.477  1.00  0.00    -0.300 OA 
HETATM   14  O   UNL     1     -12.440  15.379  70.514  1.00  0.00    -0.372 OA 
HETATM   15  O   UNL     1     -12.230  12.863  70.926  1.00  0.00    -0.347 OA 
HETATM   16  C   UNL     1     -11.489  10.277  70.169  1.00  0.00    -0.383 A  
HETATM   17  C   UNL     1     -11.076   9.028  69.741  1.00  0.00    -0.104 A  
HETATM   18  C   UNL     1     -10.582   8.790  68.439  1.00  0.00    -0.137 A  
HETATM   19  F   UNL     1     -11.089   8.043  70.654  1.00  0.00    -0.245 F  
ENDROOT
BRANCH  18  20
HETATM   20  N   UNL     1     -10.119   7.521  68.098  1.00  0.00    -0.176 NA 
HETATM   21  C   UNL     1     -11.014   6.433  67.683  1.00  0.00    -0.349 C  
HETATM   22  C   UNL     1     -10.336   5.576  66.586  1.00  0.00    -0.269 C  
HETATM   23  N   UNL     1      -8.977   5.082  66.901  1.00  0.00    -0.112 NA 
HETATM   24  C   UNL     1      -8.148   6.227  67.353  1.00  0.00    -0.109 C  
HETATM   25  C   UNL     1      -9.018   4.021  67.903  1.00  0.00    -0.125 C  
HETATM   26  C   UNL     1      -8.766   7.082  68.486  1.00  0.00    -0.122 C  
ENDBRANCH  18  20
TORSDOF 1
ENDMDL
MODEL       30
REMARK 921   NORMALIZED FREE ENERGY PREDICTED BY IDOCK:   -6.36 KCAL/MOL
REMARK 922        TOTAL FREE ENERGY PREDICTED BY IDOCK:   -7.13 KCAL/MOL
REMARK 923 INTER-LIGAND FREE ENERGY PREDICTED BY IDOCK:   -7.16 KCAL/MOL
REMARK 924 INTRA-LIGAND FREE ENERGY PREDICTED BY IDOCK:    0.03 KCAL/MOL
REMARK 927      BINDING AFFINITY PREDICTED BY RF-SCORE:    0.00 PKD
ROOT
HETATM    1  C   UNL     1     -10.766   7.791  68.914  1.00  0.00    -0.108 C  
HETATM    2  C   UNL     1     -10.070   9.152  69.081  1.00  0.00    -0.194 C  
HETATM    3  C   UNL     1     -10.617   9.810  70.352  1.00  0.00    -0.304 C  
HETATM    4  O   UNL     1     -11.020  11.164  70.329  1.00  0.00    -0.077 OA 
HETATM    5  C   UNL     1     -11.223  11.787  69.131  1.00  0.00    -0.264 A  
HETATM    6  C   UNL     1     -10.804  11.206  67.920  1.00  0.00    -0.235 A  
HETATM    7  N   UNL     1     -10.194   9.941  67.845  1.00  0.00    -0.181 NA 
HETATM    8  C   UNL     1      -9.684   9.501  66.630  1.00  0.00    -0.211 C  
HETATM    9  C   UNL     1      -9.783  10.130  65.448  1.00  0.00    -0.355 C  
HETATM   10  C   UNL     1     -10.487  11.424  65.449  1.00  0.00    -0.280 C  
HETATM   11  C   UNL     1      -9.202   9.511  64.239  1.00  0.00    -0.107 C  
HETATM   12  C   UNL     1     -10.984  11.953  66.738  1.00  0.00    -0.337 A  
HETATM   13  O   UNL     1      -8.622   8.435  64.252  1.00  0.00    -0.079 OA 
HETATM   14  O   UNL     1      -9.370  10.225  63.108  1.00  0.00    -0.271 OA 
HETATM   15  O   UNL     1     -10.630  12.042  64.395  1.00  0.00    -0.279 OA 
HETATM   16  C   UNL     1     -11.589  13.205  66.748  1.00  0.00    -0.414 A  
HETATM   17  C   UNL     1     -12.012  13.739  67.952  1.00  0.00    -0.356 A  
HETATM   18  C   UNL     1     -11.848  13.070  69.185  1.00  0.00    -0.310 A  
HETATM   19  F   UNL     1     -12.527  14.979  67.914  1.00  0.00    -0.129 F  
ENDROOT
BRANCH  18  20
HETATM   20  N   UNL     1     -12.235  13.698  70.368  1.00  0.00    -0.353 NA 
HETATM   21  C   UNL     1     -11.565  14.897  70.887  1.00  0.00    -0.297 C  
HETATM   22  C   UNL     1     -12.600  15.838  71.551  1.00  0.00    -0.455 C  
HETATM   23  N   UNL     1     -13.480  15.216  72.565  1.00  0.00    -0.420 NA 
HETATM   24  C   UNL     1     -14.084  13.992  71.983  1.00  0.00    -0.509 C  
HETATM   25  C   UNL     1     -12.749  14.922  73.794  1.00  0.00    -0.389 C  
HETATM   26  C   UNL     1     -13.079  12.997  71.352  1.00  0.00    -0.248 C  
ENDBRANCH  18  20
TORSDOF 1
ENDMDL
MODEL       31
REMARK 921   NORMALIZED FREE ENERGY PREDICTED BY IDOCK:   -6.30 KCAL/MOL
REMARK 922        TOTAL FREE ENERGY PREDICTED BY IDOCK:   -7.06 KCAL/MOL
REMARK 923 INTER-LIGAND FREE ENERGY PREDICTED BY IDOCK:   -7.40 KCAL/MOL
REMARK 924 INTRA-LIGAND FREE ENERGY PREDICTED BY IDOCK:    0.34 KCAL/MOL
REMARK 927      BINDING AFFINITY PREDICTED BY RF-SCORE:    0.00 PKD
ROOT
HETATM    1  C   UNL     1     -12.323   6.983  70.852  1.00  0.00    -0.361 C  
HETATM    2  C   UNL     1     -11.332   8.154  70.962  1.00  0.00    -0.269 C  
HETATM    3  C   UNL     1     -11.938   9.200  71.904  1.00  0.00    -0.373 C  
HETATM    4  O   UNL     1     -11.937  10.564  71.537  1.00  0.00    -0.300 OA 
HETATM    5  C   UNL     1     -11.696  10.914  70.240  1.00  0.00    -0.347 A  
HETATM    6  C   UNL     1     -11.200   9.984  69.308  1.00  0.00    -0.166 A  
HETATM    7  N   UNL     1     -10.961   8.634  69.621  1.00  0.00    -0.153 NA 
HETATM    8  C   UNL     1     -10.342   7.816  68.685  1.00  0.00    -0.199 C  
HETATM    9  C   UNL     1     -10.005   8.151  67.431  1.00  0.00    -0.271 C  
HETATM   10  C   UNL     1     -10.307   9.532  67.016  1.00  0.00    -0.250 C  
HETATM   11  C   UNL     1      -9.368   7.149  66.551  1.00  0.00    -0.164 C  
HETATM   12  C   UNL     1     -10.906  10.450  68.010  1.00  0.00    -0.319 A  
HETATM   13  O   UNL     1      -9.125   6.005  66.907  1.00  0.00    -0.120 OA 
HETATM   14  O   UNL     1      -9.083   7.593  65.310  1.00  0.00     0.136 OA 
HETATM   15  O   UNL     1     -10.042   9.898  65.872  1.00  0.00    -0.271 OA 
HETATM   16  C   UNL     1     -11.129  11.770  67.637  1.00  0.00    -0.312 A  
HETATM   17  C   UNL     1     -11.640  12.656  68.570  1.00  0.00    -0.323 A  
HETATM   18  C   UNL     1     -11.938  12.280  69.898  1.00  0.00    -0.306 A  
HETATM   19  F   UNL     1     -11.771  13.934  68.179  1.00  0.00    -0.303 F  
ENDROOT
BRANCH  18  20
HETATM   20  N   UNL     1     -12.385  13.240  70.804  1.00  0.00    -0.368 NA 
HETATM   21  C   UNL     1     -11.645  14.481  71.076  1.00  0.00    -0.176 C  
HETATM   22  C   UNL     1     -12.635  15.647  71.312  1.00  0.00    -0.463 C  
HETATM   23  N   UNL     1     -13.692  15.403  72.318  1.00  0.00    -0.479 NA 
HETATM   24  C   UNL     1     -14.361  14.117  72.003  1.00  0.00    -0.512 C  
HETATM   25  C   UNL     1     -13.146  15.407  73.672  1.00  0.00    -0.372 C  
HETATM   26  C   UNL     1     -13.411  12.910  71.809  1.00  0.00    -0.359 C  
ENDBRANCH  18  20
TORSDOF 1
ENDMDL
MODEL       32
REMARK 921   NORMALIZED FREE ENERGY PREDICTED BY IDOCK:   -6.23 KCAL/MOL
REMARK 922        TOTAL FREE ENERGY PREDICTED BY IDOCK:   -6.99 KCAL/MOL
REMARK 923 INTER-LIGAND FREE ENERGY PREDICTED BY IDOCK:   -6.59 KCAL/MOL
REMARK 924 INTRA-LIGAND FREE ENERGY PREDICTED BY IDOCK:   -0.41 KCAL/MOL
REMARK 927      BINDING AFFINITY PREDICTED BY RF-SCORE:    0.00 PKD
ROOT
HETATM    1  C   UNL     1     -13.094   8.447  71.628  1.00  0.00    -0.355 C  
HETATM    2  C   UNL     1     -12.282   9.752  71.570  1.00  0.00    -0.406 C  
HETATM    3  C   UNL     1     -12.907  10.651  70.498  1.00  0.00    -0.279 C  
HETATM    4  O   UNL     1     -12.083  11.290  69.546  1.00  0.00    -0.321 OA 
HETATM    5  C   UNL     1     -10.796  10.869  69.376  1.00  0.00    -0.240 A  
HETATM    6  C   UNL     1     -10.183   9.992  70.289  1.00  0.00    -0.206 A  
HETATM    7  N   UNL     1     -10.851   9.453  71.404  1.00  0.00    -0.359 NA 
HETATM    8  C   UNL     1     -10.136   8.706  72.332  1.00  0.00    -0.250 C  
HETATM    9  C   UNL     1      -8.845   8.351  72.246  1.00  0.00    -0.289 C  
HETATM   10  C   UNL     1      -8.113   8.817  71.056  1.00  0.00    -0.156 C  
HETATM   11  C   UNL     1      -8.239   7.531  73.315  1.00  0.00    -0.125 C  
HETATM   12  C   UNL     1      -8.827   9.670  70.080  1.00  0.00    -0.266 A  
HETATM   13  O   UNL     1      -8.859   7.148  74.296  1.00  0.00    -0.187 OA 
HETATM   14  O   UNL     1      -6.941   7.225  73.119  1.00  0.00    -0.068 OA 
HETATM   15  O   UNL     1      -6.931   8.508  70.906  1.00  0.00    -0.047 OA 
HETATM   16  C   UNL     1      -8.116  10.164  68.992  1.00  0.00    -0.125 A  
HETATM   17  C   UNL     1      -8.753  11.007  68.098  1.00  0.00    -0.141 A  
HETATM   18  C   UNL     1     -10.101  11.400  68.246  1.00  0.00    -0.196 A  
HETATM   19  F   UNL     1      -8.003  11.510  67.105  1.00  0.00    -0.129 F  
ENDROOT
BRANCH  18  20
HETATM   20  N   UNL     1     -10.659  12.306  67.346  1.00  0.00    -0.219 NA 
HETATM   21  C   UNL     1     -11.017  11.940  65.969  1.00  0.00    -0.309 C  
HETATM   22  C   UNL     1     -12.307  12.682  65.541  1.00  0.00    -0.391 C  
HETATM   23  N   UNL     1     -12.304  14.148  65.739  1.00  0.00    -0.458 NA 
HETATM   24  C   UNL     1     -11.891  14.439  67.135  1.00  0.00    -0.410 C  
HETATM   25  C   UNL     1     -11.434  14.812  64.773  1.00  0.00    -0.410 C  
HETATM   26  C   UNL     1     -10.577  13.758  67.589  1.00  0.00    -0.242 C  
ENDBRANCH  18  20
TORSDOF 1
ENDMDL
MODEL       33
REMARK 921   NORMALIZED FREE ENERGY PREDICTED BY IDOCK:   -6.19 KCAL/MOL
REMARK 922        TOTAL FREE ENERGY PREDICTED BY IDOCK:   -6.95 KCAL/MOL
REMARK 923 INTER-LIGAND FREE ENERGY PREDICTED BY IDOCK:   -6.62 KCAL/MOL
REMARK 924 INTRA-LIGAND FREE ENERGY PREDICTED BY IDOCK:   -0.33 KCAL/MOL
REMARK 927      BINDING AFFINITY PREDICTED BY RF-SCORE:    0.00 PKD
ROOT
HETATM    1  C   UNL     1      -6.729  15.731  67.240  1.00  0.00    -0.197 C  
HETATM    2  C   UNL     1      -7.858  14.936  67.918  1.00  0.00    -0.137 C  
HETATM    3  C   UNL     1      -7.228  13.734  68.629  1.00  0.00    -0.109 C  
HETATM    4  O   UNL     1      -7.794  12.448  68.478  1.00  0.00    -0.137 OA 
HETATM    5  C   UNL     1      -8.685  12.218  67.470  1.00  0.00    -0.177 A  
HETATM    6  C   UNL     1      -9.252  13.275  66.734  1.00  0.00    -0.233 A  
HETATM    7  N   UNL     1      -8.916  14.625  66.944  1.00  0.00    -0.242 NA 
HETATM    8  C   UNL     1      -9.621  15.615  66.273  1.00  0.00    -0.308 C  
HETATM    9  C   UNL     1     -10.571  15.428  65.343  1.00  0.00    -0.430 C  
HETATM   10  C   UNL     1     -10.907  14.032  65.020  1.00  0.00    -0.392 C  
HETATM   11  C   UNL     1     -11.211  16.598  64.706  1.00  0.00    -0.066 C  
HETATM   12  C   UNL     1     -10.222  12.952  65.764  1.00  0.00    -0.298 A  
HETATM   13  O   UNL     1     -10.920  17.752  64.982  1.00  0.00    -0.784 OA 
HETATM   14  O   UNL     1     -12.141  16.291  63.780  1.00  0.00    -0.959 OA 
HETATM   15  O   UNL     1     -11.755  13.791  64.161  1.00  0.00    -0.395 OA 
HETATM   16  C   UNL     1     -10.589  11.636  65.504  1.00  0.00    -0.329 A  
HETATM   17  C   UNL     1      -9.996  10.617  66.229  1.00  0.00    -0.222 A  
HETATM   18  C   UNL     1      -9.035  10.853  67.235  1.00  0.00    -0.137 A  
HETATM   19  F   UNL     1     -10.437   9.371  65.987  1.00  0.00    -0.312 F  
ENDROOT
BRANCH  18  20
HETATM   20  N   UNL     1      -8.531   9.783  67.973  1.00  0.00    -0.117 NA 
HETATM   21  C   UNL     1      -8.994   9.467  69.331  1.00  0.00    -0.157 C  
HETATM   22  C   UNL     1      -9.025   7.933  69.537  1.00  0.00    -0.142 C  
HETATM   23  N   UNL     1      -7.780   7.210  69.195  1.00  0.00    -0.107 NA 
HETATM   24  C   UNL     1      -7.354   7.614  67.833  1.00  0.00    -0.102 C  
HETATM   25  C   UNL     1      -6.734   7.461  70.182  1.00  0.00    -0.050 C  
HETATM   26  C   UNL     1      -7.258   9.141  67.598  1.00  0.00    -0.083 C  
ENDBRANCH  18  20
TORSDOF 1
ENDMDL
MODEL       34
REMARK 921   NORMALIZED FREE ENERGY PREDICTED BY IDOCK:   -6.15 KCAL/MOL
REMARK 922        TOTAL FREE ENERGY PREDICTED BY IDOCK:   -6.91 KCAL/MOL
REMARK 923 INTER-LIGAND FREE ENERGY PREDICTED BY IDOCK:   -6.48 KCAL/MOL
REMARK 924 INTRA-LIGAND FREE ENERGY PREDICTED BY IDOCK:   -0.43 KCAL/MOL
REMARK 927      BINDING AFFINITY PREDICTED BY RF-SCORE:    0.00 PKD
ROOT
HETATM    1  C   UNL     1      -7.646   8.534  65.005  1.00  0.00    -0.093 C  
HETATM    2  C   UNL     1      -9.010   9.243  65.065  1.00  0.00    -0.197 C  
HETATM    3  C   UNL     1      -8.804  10.701  64.643  1.00  0.00    -0.177 C  
HETATM    4  O   UNL     1      -9.371  11.744  65.409  1.00  0.00    -0.190 OA 
HETATM    5  C   UNL     1      -9.820  11.486  66.672  1.00  0.00    -0.202 A  
HETATM    6  C   UNL     1      -9.970  10.170  67.144  1.00  0.00    -0.196 A  
HETATM    7  N   UNL     1      -9.632   9.037  66.383  1.00  0.00    -0.222 NA 
HETATM    8  C   UNL     1      -9.940   7.772  66.869  1.00  0.00    -0.261 C  
HETATM    9  C   UNL     1     -10.468   7.485  68.068  1.00  0.00    -0.253 C  
HETATM   10  C   UNL     1     -10.767   8.629  68.945  1.00  0.00    -0.082 C  
HETATM   11  C   UNL     1     -10.714   6.076  68.441  1.00  0.00    -0.280 C  
HETATM   12  C   UNL     1     -10.513   9.994  68.433  1.00  0.00    -0.235 A  
HETATM   13  O   UNL     1     -10.459   5.136  67.704  1.00  0.00    -0.151 OA 
HETATM   14  O   UNL     1     -11.237   5.906  69.672  1.00  0.00    -0.395 OA 
HETATM   15  O   UNL     1     -11.234   8.433  70.067  1.00  0.00    -0.206 OA 
HETATM   16  C   UNL     1     -10.858  11.075  69.237  1.00  0.00    -0.285 A  
HETATM   17  C   UNL     1     -10.677  12.359  68.752  1.00  0.00    -0.209 A  
HETATM   18  C   UNL     1     -10.163  12.624  67.464  1.00  0.00    -0.215 A  
HETATM   19  F   UNL     1     -11.091  13.364  69.541  1.00  0.00    -0.268 F  
ENDROOT
BRANCH  18  20
HETATM   20  N   UNL     1     -10.072  13.941  67.015  1.00  0.00    -0.252 NA 
HETATM   21  C   UNL     1      -8.996  14.850  67.432  1.00  0.00    -0.189 C  
HETATM   22  C   UNL     1      -8.593  15.770  66.254  1.00  0.00    -0.272 C  
HETATM   23  N   UNL     1      -9.701  16.493  65.592  1.00  0.00    -0.534 NA 
HETATM   24  C   UNL     1     -10.763  15.519  65.242  1.00  0.00    -0.422 C  
HETATM   25  C   UNL     1     -10.214  17.567  66.438  1.00  0.00    -0.354 C  
HETATM   26  C   UNL     1     -11.234  14.612  66.405  1.00  0.00    -0.336 C  
ENDBRANCH  18  20
TORSDOF 1
ENDMDL
MODEL       35
REMARK 921   NORMALIZED FREE ENERGY PREDICTED BY IDOCK:   -6.07 KCAL/MOL
REMARK 922        TOTAL FREE ENERGY PREDICTED BY IDOCK:   -6.82 KCAL/MOL
REMARK 923 INTER-LIGAND FREE ENERGY PREDICTED BY IDOCK:   -6.49 KCAL/MOL
REMARK 924 INTRA-LIGAND FREE ENERGY PREDICTED BY IDOCK:   -0.33 KCAL/MOL
REMARK 927      BINDING AFFINITY PREDICTED BY RF-SCORE:    0.00 PKD
ROOT
HETATM    1  C   UNL     1     -12.560   7.986  71.712  1.00  0.00    -0.353 C  
HETATM    2  C   UNL     1     -11.254   8.635  71.221  1.00  0.00    -0.276 C  
HETATM    3  C   UNL     1     -11.492  10.144  71.106  1.00  0.00    -0.307 C  
HETATM    4  O   UNL     1     -11.078  10.837  69.945  1.00  0.00    -0.266 OA 
HETATM    5  C   UNL     1     -10.766  10.135  68.817  1.00  0.00    -0.220 A  
HETATM    6  C   UNL     1     -10.598   8.739  68.842  1.00  0.00    -0.155 A  
HETATM    7  N   UNL     1     -10.780   7.963  70.002  1.00  0.00    -0.243 NA 
HETATM    8  C   UNL     1     -10.460   6.612  69.975  1.00  0.00    -0.212 C  
HETATM    9  C   UNL     1     -10.059   5.907  68.906  1.00  0.00    -0.231 C  
HETATM   10  C   UNL     1      -9.930   6.650  67.640  1.00  0.00    -0.131 C  
HETATM   11  C   UNL     1      -9.779   4.463  69.044  1.00  0.00    -0.153 C  
HETATM   12  C   UNL     1     -10.200   8.105  67.648  1.00  0.00    -0.296 A  
HETATM   13  O   UNL     1      -9.893   3.859  70.100  1.00  0.00    -0.200 OA 
HETATM   14  O   UNL     1      -9.394   3.855  67.903  1.00  0.00    -0.151 OA 
HETATM   15  O   UNL     1      -9.587   6.058  66.617  1.00  0.00    -0.147 OA 
HETATM   16  C   UNL     1     -10.013   8.816  66.468  1.00  0.00    -0.360 A  
HETATM   17  C   UNL     1     -10.209  10.186  66.470  1.00  0.00    -0.223 A  
HETATM   18  C   UNL     1     -10.583  10.903  67.626  1.00  0.00    -0.224 A  
HETATM   19  F   UNL     1      -9.948  10.834  65.322  1.00  0.00    -0.264 F  
ENDROOT
BRANCH  18  20
HETATM   20  N   UNL     1     -10.696  12.292  67.572  1.00  0.00    -0.220 NA 
HETATM   21  C   UNL     1      -9.604  13.193  67.966  1.00  0.00    -0.220 C  
HETATM   22  C   UNL     1      -9.586  14.438  67.046  1.00  0.00    -0.247 C  
HETATM   23  N   UNL     1     -10.872  15.156  66.907  1.00  0.00    -0.313 NA 
HETATM   24  C   UNL     1     -11.928  14.176  66.553  1.00  0.00    -0.442 C  
HETATM   25  C   UNL     1     -11.206  15.888  68.125  1.00  0.00    -0.339 C  
HETATM   26  C   UNL     1     -12.016  12.939  67.479  1.00  0.00    -0.296 C  
ENDBRANCH  18  20
TORSDOF 1
ENDMDL
MODEL       36
REMARK 921   NORMALIZED FREE ENERGY PREDICTED BY IDOCK:   -6.07 KCAL/MOL
REMARK 922        TOTAL FREE ENERGY PREDICTED BY IDOCK:   -6.82 KCAL/MOL
REMARK 923 INTER-LIGAND FREE ENERGY PREDICTED BY IDOCK:   -6.39 KCAL/MOL
REMARK 924 INTRA-LIGAND FREE ENERGY PREDICTED BY IDOCK:   -0.42 KCAL/MOL
REMARK 927      BINDING AFFINITY PREDICTED BY RF-SCORE:    0.00 PKD
ROOT
HETATM    1  C   UNL     1     -10.408  11.484  63.497  1.00  0.00    -0.484 C  
HETATM    2  C   UNL     1      -9.512  11.204  64.715  1.00  0.00    -0.218 C  
HETATM    3  C   UNL     1      -9.269   9.692  64.785  1.00  0.00    -0.238 C  
HETATM    4  O   UNL     1      -9.413   9.011  66.015  1.00  0.00    -0.221 OA 
HETATM    5  C   UNL     1     -10.065   9.617  67.049  1.00  0.00    -0.214 A  
HETATM    6  C   UNL     1     -10.377  10.989  67.019  1.00  0.00    -0.228 A  
HETATM    7  N   UNL     1     -10.087  11.819  65.921  1.00  0.00    -0.226 NA 
HETATM    8  C   UNL     1     -10.301  13.187  66.027  1.00  0.00    -0.287 C  
HETATM    9  C   UNL     1     -10.854  13.831  67.066  1.00  0.00    -0.288 C  
HETATM   10  C   UNL     1     -11.256  13.002  68.214  1.00  0.00    -0.275 C  
HETATM   11  C   UNL     1     -11.031  15.297  67.008  1.00  0.00    -0.324 C  
HETATM   12  C   UNL     1     -10.982  11.549  68.163  1.00  0.00    -0.279 A  
HETATM   13  O   UNL     1     -10.695  15.974  66.047  1.00  0.00    -0.319 OA 
HETATM   14  O   UNL     1     -11.606  15.836  68.102  1.00  0.00    -0.344 OA 
HETATM   15  O   UNL     1     -11.788  13.528  69.191  1.00  0.00    -0.300 OA 
HETATM   16  C   UNL     1     -11.301  10.778  69.275  1.00  0.00    -0.352 A  
HETATM   17  C   UNL     1     -11.003   9.426  69.264  1.00  0.00    -0.117 A  
HETATM   18  C   UNL     1     -10.375   8.790  68.172  1.00  0.00    -0.216 A  
HETATM   19  F   UNL     1     -11.269   8.742  70.390  1.00  0.00    -0.248 F  
ENDROOT
BRANCH  18  20
HETATM   20  N   UNL     1     -10.042   7.439  68.258  1.00  0.00    -0.171 NA 
HETATM   21  C   UNL     1     -10.988   6.364  67.929  1.00  0.00    -0.325 C  
HETATM   22  C   UNL     1     -10.243   5.190  67.250  1.00  0.00    -0.190 C  
HETATM   23  N   UNL     1      -9.055   4.678  67.968  1.00  0.00    -0.114 NA 
HETATM   24  C   UNL     1      -8.172   5.823  68.303  1.00  0.00    -0.108 C  
HETATM   25  C   UNL     1      -9.439   3.929  69.161  1.00  0.00    -0.176 C  
HETATM   26  C   UNL     1      -8.867   7.000  69.031  1.00  0.00    -0.134 C  
ENDBRANCH  18  20
TORSDOF 1
ENDMDL
MODEL       37
REMARK 921   NORMALIZED FREE ENERGY PREDICTED BY IDOCK:   -6.06 KCAL/MOL
REMARK 922        TOTAL FREE ENERGY PREDICTED BY IDOCK:   -6.81 KCAL/MOL
REMARK 923 INTER-LIGAND FREE ENERGY PREDICTED BY IDOCK:   -6.54 KCAL/MOL
REMARK 924 INTRA-LIGAND FREE ENERGY PREDICTED BY IDOCK:   -0.27 KCAL/MOL
REMARK 927      BINDING AFFINITY PREDICTED BY RF-SCORE:    0.00 PKD
ROOT
HETATM    1  C   UNL     1     -12.524  12.362  64.482  1.00  0.00    -0.519 C  
HETATM    2  C   UNL     1     -12.205  12.892  65.891  1.00  0.00    -0.407 C  
HETATM    3  C   UNL     1     -12.314  14.420  65.857  1.00  0.00    -0.326 C  
HETATM    4  O   UNL     1     -11.297  15.213  66.435  1.00  0.00    -0.320 OA 
HETATM    5  C   UNL     1     -10.090  14.650  66.732  1.00  0.00    -0.265 A  
HETATM    6  C   UNL     1      -9.906  13.255  66.719  1.00  0.00    -0.264 A  
HETATM    7  N   UNL     1     -10.921  12.349  66.359  1.00  0.00    -0.265 NA 
HETATM    8  C   UNL     1     -10.700  10.986  66.505  1.00  0.00    -0.241 C  
HETATM    9  C   UNL     1      -9.555  10.398  66.886  1.00  0.00    -0.207 C  
HETATM   10  C   UNL     1      -8.428  11.295  67.196  1.00  0.00    -0.149 C  
HETATM   11  C   UNL     1      -9.481   8.925  66.969  1.00  0.00    -0.166 C  
HETATM   12  C   UNL     1      -8.648  12.756  67.115  1.00  0.00    -0.197 A  
HETATM   13  O   UNL     1     -10.423   8.192  66.706  1.00  0.00    -0.326 OA 
HETATM   14  O   UNL     1      -8.280   8.445  67.351  1.00  0.00    -0.118 OA 
HETATM   15  O   UNL     1      -7.344  10.819  67.531  1.00  0.00    -0.089 OA 
HETATM   16  C   UNL     1      -7.604  13.601  67.472  1.00  0.00    -0.180 A  
HETATM   17  C   UNL     1      -7.809  14.970  67.453  1.00  0.00    -0.200 A  
HETATM   18  C   UNL     1      -9.044  15.553  67.094  1.00  0.00    -0.217 A  
HETATM   19  F   UNL     1      -6.790  15.737  67.874  1.00  0.00    -0.111 F  
ENDROOT
BRANCH  18  20
HETATM   20  N   UNL     1      -9.200  16.936  67.164  1.00  0.00    -0.225 NA 
HETATM   21  C   UNL     1      -9.125  17.805  65.982  1.00  0.00    -0.003 C  
HETATM   22  C   UNL     1     -10.138  18.968  66.113  1.00  0.00    -0.406 C  
HETATM   23  N   UNL     1     -10.072  19.743  67.372  1.00  0.00    -0.392 NA 
HETATM   24  C   UNL     1     -10.109  18.797  68.514  1.00  0.00    -0.392 C  
HETATM   25  C   UNL     1      -8.883  20.588  67.412  1.00  0.00    -0.281 C  
HETATM   26  C   UNL     1      -9.076  17.645  68.450  1.00  0.00    -0.277 C  
ENDBRANCH  18  20
TORSDOF 1
ENDMDL
MODEL       38
REMARK 921   NORMALIZED FREE ENERGY PREDICTED BY IDOCK:   -6.06 KCAL/MOL
REMARK 922        TOTAL FREE ENERGY PREDICTED BY IDOCK:   -6.81 KCAL/MOL
REMARK 923 INTER-LIGAND FREE ENERGY PREDICTED BY IDOCK:   -6.54 KCAL/MOL
REMARK 924 INTRA-LIGAND FREE ENERGY PREDICTED BY IDOCK:   -0.26 KCAL/MOL
REMARK 927      BINDING AFFINITY PREDICTED BY RF-SCORE:    0.00 PKD
ROOT
HETATM    1  C   UNL     1     -11.624  13.925  64.106  1.00  0.00    -0.323 C  
HETATM    2  C   UNL     1     -11.356  14.744  65.380  1.00  0.00    -0.356 C  
HETATM    3  C   UNL     1     -10.868  16.133  64.955  1.00  0.00    -0.363 C  
HETATM    4  O   UNL     1      -9.732  16.701  65.574  1.00  0.00    -0.538 OA 
HETATM    5  C   UNL     1      -8.895  15.909  66.305  1.00  0.00    -0.351 A  
HETATM    6  C   UNL     1      -9.256  14.600  66.673  1.00  0.00    -0.267 A  
HETATM    7  N   UNL     1     -10.468  13.999  66.285  1.00  0.00    -0.282 NA 
HETATM    8  C   UNL     1     -10.809  12.757  66.805  1.00  0.00    -0.264 C  
HETATM    9  C   UNL     1     -10.051  11.989  67.602  1.00  0.00    -0.205 C  
HETATM   10  C   UNL     1      -8.733  12.530  67.975  1.00  0.00    -0.186 C  
HETATM   11  C   UNL     1     -10.558  10.676  68.051  1.00  0.00    -0.211 C  
HETATM   12  C   UNL     1      -8.364  13.880  67.493  1.00  0.00    -0.202 A  
HETATM   13  O   UNL     1     -11.653  10.238  67.732  1.00  0.00    -0.331 OA 
HETATM   14  O   UNL     1      -9.708   9.987  68.839  1.00  0.00    -0.165 OA 
HETATM   15  O   UNL     1      -7.980  11.867  68.687  1.00  0.00    -0.145 OA 
HETATM   16  C   UNL     1      -7.148  14.416  67.901  1.00  0.00    -0.169 A  
HETATM   17  C   UNL     1      -6.811  15.698  67.503  1.00  0.00    -0.191 A  
HETATM   18  C   UNL     1      -7.656  16.498  66.703  1.00  0.00    -0.275 A  
HETATM   19  F   UNL     1      -5.657  16.194  67.981  1.00  0.00    -0.089 F  
ENDROOT
BRANCH  18  20
HETATM   20  N   UNL     1      -7.283  17.806  66.398  1.00  0.00    -0.247 NA 
HETATM   21  C   UNL     1      -6.078  18.127  65.620  1.00  0.00    -0.230 C  
HETATM   22  C   UNL     1      -6.345  19.349  64.708  1.00  0.00    -0.198 C  
HETATM   23  N   UNL     1      -6.906  20.544  65.377  1.00  0.00    -0.237 NA 
HETATM   24  C   UNL     1      -8.088  20.132  66.174  1.00  0.00    -0.209 C  
HETATM   25  C   UNL     1      -5.903  21.206  66.207  1.00  0.00    -0.274 C  
HETATM   26  C   UNL     1      -7.851  18.945  67.139  1.00  0.00    -0.240 C  
ENDBRANCH  18  20
TORSDOF 1
ENDMDL
MODEL       39
REMARK 921   NORMALIZED FREE ENERGY PREDICTED BY IDOCK:   -6.00 KCAL/MOL
REMARK 922        TOTAL FREE ENERGY PREDICTED BY IDOCK:   -6.75 KCAL/MOL
REMARK 923 INTER-LIGAND FREE ENERGY PREDICTED BY IDOCK:   -6.47 KCAL/MOL
REMARK 924 INTRA-LIGAND FREE ENERGY PREDICTED BY IDOCK:   -0.28 KCAL/MOL
REMARK 927      BINDING AFFINITY PREDICTED BY RF-SCORE:    0.00 PKD
ROOT
HETATM    1  C   UNL     1     -11.130   7.816  73.017  1.00  0.00    -0.419 C  
HETATM    2  C   UNL     1     -11.832   7.615  71.664  1.00  0.00    -0.291 C  
HETATM    3  C   UNL     1     -11.281   6.333  71.031  1.00  0.00    -0.312 C  
HETATM    4  O   UNL     1     -10.886   6.330  69.674  1.00  0.00    -0.265 OA 
HETATM    5  C   UNL     1     -10.694   7.515  69.025  1.00  0.00    -0.134 A  
HETATM    6  C   UNL     1     -11.118   8.735  69.581  1.00  0.00    -0.028 A  
HETATM    7  N   UNL     1     -11.722   8.834  70.847  1.00  0.00    -0.279 NA 
HETATM    8  C   UNL     1     -12.237  10.055  71.263  1.00  0.00    -0.402 C  
HETATM    9  C   UNL     1     -12.150  11.223  70.609  1.00  0.00    -0.480 C  
HETATM   10  C   UNL     1     -11.454  11.198  69.311  1.00  0.00    -0.294 C  
HETATM   11  C   UNL     1     -12.737  12.441  71.205  1.00  0.00    -0.240 C  
HETATM   12  C   UNL     1     -10.951   9.902  68.807  1.00  0.00    -0.217 A  
HETATM   13  O   UNL     1     -13.310  12.448  72.284  1.00  0.00    -0.522 OA 
HETATM   14  O   UNL     1     -12.580  13.558  70.465  1.00  0.00    -0.304 OA 
HETATM   15  O   UNL     1     -11.321  12.240  68.670  1.00  0.00    -0.244 OA 
HETATM   16  C   UNL     1     -10.353   9.869  67.552  1.00  0.00    -0.289 A  
HETATM   17  C   UNL     1      -9.924   8.656  67.042  1.00  0.00    -0.249 A  
HETATM   18  C   UNL     1     -10.076   7.437  67.739  1.00  0.00    -0.184 A  
HETATM   19  F   UNL     1      -9.417   8.670  65.798  1.00  0.00    -0.267 F  
ENDROOT
BRANCH  18  20
HETATM   20  N   UNL     1      -9.684   6.243  67.135  1.00  0.00    -0.133 NA 
HETATM   21  C   UNL     1     -10.646   5.245  66.650  1.00  0.00    -0.270 C  
HETATM   22  C   UNL     1     -10.119   4.586  65.352  1.00  0.00    -0.192 C  
HETATM   23  N   UNL     1      -8.745   4.042  65.418  1.00  0.00    -0.117 NA 
HETATM   24  C   UNL     1      -7.843   5.090  65.956  1.00  0.00    -0.099 C  
HETATM   25  C   UNL     1      -8.694   2.825  66.223  1.00  0.00    -0.131 C  
HETATM   26  C   UNL     1      -8.307   5.740  67.282  1.00  0.00    -0.104 C  
ENDBRANCH  18  20
TORSDOF 1
ENDMDL
MODEL       40
REMARK 921   NORMALIZED FREE ENERGY PREDICTED BY IDOCK:   -6.00 KCAL/MOL
REMARK 922        TOTAL FREE ENERGY PREDICTED BY IDOCK:   -6.74 KCAL/MOL
REMARK 923 INTER-LIGAND FREE ENERGY PREDICTED BY IDOCK:   -6.36 KCAL/MOL
REMARK 924 INTRA-LIGAND FREE ENERGY PREDICTED BY IDOCK:   -0.39 KCAL/MOL
REMARK 927      BINDING AFFINITY PREDICTED BY RF-SCORE:    0.00 PKD
ROOT
HETATM    1  C   UNL     1      -8.761   7.840  65.089  1.00  0.00     0.051 C  
HETATM    2  C   UNL     1      -8.427   8.689  66.328  1.00  0.00    -0.125 C  
HETATM    3  C   UNL     1      -8.243   7.740  67.516  1.00  0.00    -0.124 C  
HETATM    4  O   UNL     1      -8.871   8.024  68.750  1.00  0.00    -0.137 OA 
HETATM    5  C   UNL     1      -9.877   8.946  68.798  1.00  0.00    -0.173 A  
HETATM    6  C   UNL     1     -10.140   9.804  67.715  1.00  0.00    -0.180 A  
HETATM    7  N   UNL     1      -9.430   9.751  66.502  1.00  0.00    -0.167 NA 
HETATM    8  C   UNL     1      -9.658  10.723  65.536  1.00  0.00    -0.222 C  
HETATM    9  C   UNL     1     -10.574  11.702  65.588  1.00  0.00    -0.324 C  
HETATM   10  C   UNL     1     -11.407  11.757  66.802  1.00  0.00    -0.320 C  
HETATM   11  C   UNL     1     -10.703  12.646  64.459  1.00  0.00    -0.341 C  
HETATM   12  C   UNL     1     -11.147  10.777  67.879  1.00  0.00    -0.369 A  
HETATM   13  O   UNL     1     -10.006  12.586  63.456  1.00  0.00    -0.380 OA 
HETATM   14  O   UNL     1     -11.662  13.580  64.615  1.00  0.00    -0.351 OA 
HETATM   15  O   UNL     1     -12.281  12.618  66.904  1.00  0.00    -0.489 OA 
HETATM   16  C   UNL     1     -11.888  10.873  69.051  1.00  0.00    -0.370 A  
HETATM   17  C   UNL     1     -11.622   9.999  70.090  1.00  0.00    -0.252 A  
HETATM   18  C   UNL     1     -10.615   9.011  70.019  1.00  0.00    -0.228 A  
HETATM   19  F   UNL     1     -12.319  10.179  71.224  1.00  0.00    -0.366 F  
ENDROOT
BRANCH  18  20
HETATM   20  N   UNL     1     -10.354   8.210  71.129  1.00  0.00    -0.196 NA 
HETATM   21  C   UNL     1     -11.272   7.156  71.582  1.00  0.00    -0.244 C  
HETATM   22  C   UNL     1     -10.468   5.948  72.122  1.00  0.00    -0.207 C  
HETATM   23  N   UNL     1      -9.441   6.260  73.140  1.00  0.00    -0.138 NA 
HETATM   24  C   UNL     1      -8.584   7.359  72.630  1.00  0.00    -0.113 C  
HETATM   25  C   UNL     1     -10.051   6.605  74.420  1.00  0.00    -0.315 C  
HETATM   26  C   UNL     1      -9.346   8.609  72.127  1.00  0.00    -0.273 C  
ENDBRANCH  18  20
TORSDOF 1
ENDMDL
MODEL       41
REMARK 921   NORMALIZED FREE ENERGY PREDICTED BY IDOCK:   -5.88 KCAL/MOL
REMARK 922        TOTAL FREE ENERGY PREDICTED BY IDOCK:   -6.62 KCAL/MOL
REMARK 923 INTER-LIGAND FREE ENERGY PREDICTED BY IDOCK:   -6.19 KCAL/MOL
REMARK 924 INTRA-LIGAND FREE ENERGY PREDICTED BY IDOCK:   -0.44 KCAL/MOL
REMARK 927      BINDING AFFINITY PREDICTED BY RF-SCORE:    0.00 PKD
ROOT
HETATM    1  C   UNL     1     -12.055  15.933  71.349  1.00  0.00    -0.508 C  
HETATM    2  C   UNL     1     -11.997  15.359  69.923  1.00  0.00    -0.359 C  
HETATM    3  C   UNL     1     -12.096  13.834  70.022  1.00  0.00    -0.349 C  
HETATM    4  O   UNL     1     -11.201  13.020  69.292  1.00  0.00    -0.250 OA 
HETATM    5  C   UNL     1     -10.069  13.569  68.762  1.00  0.00    -0.103 A  
HETATM    6  C   UNL     1      -9.887  14.962  68.701  1.00  0.00    -0.225 A  
HETATM    7  N   UNL     1     -10.820  15.883  69.212  1.00  0.00    -0.254 NA 
HETATM    8  C   UNL     1     -10.631  17.240  68.987  1.00  0.00    -0.247 C  
HETATM    9  C   UNL     1      -9.576  17.811  68.387  1.00  0.00    -0.323 C  
HETATM   10  C   UNL     1      -8.524  16.901  67.903  1.00  0.00    -0.203 C  
HETATM   11  C   UNL     1      -9.520  19.281  68.247  1.00  0.00    -0.359 C  
HETATM   12  C   UNL     1      -8.723  15.444  68.067  1.00  0.00    -0.160 A  
HETATM   13  O   UNL     1     -10.399  20.025  68.655  1.00  0.00    -0.437 OA 
HETATM   14  O   UNL     1      -8.409  19.744  67.638  1.00  0.00    -0.301 OA 
HETATM   15  O   UNL     1      -7.519  17.361  67.362  1.00  0.00    -0.176 OA 
HETATM   16  C   UNL     1      -7.761  14.584  67.550  1.00  0.00    -0.208 A  
HETATM   17  C   UNL     1      -7.958  13.217  67.648  1.00  0.00    -0.176 A  
HETATM   18  C   UNL     1      -9.105  12.651  68.244  1.00  0.00    -0.181 A  
HETATM   19  F   UNL     1      -7.032  12.433  67.072  1.00  0.00    -0.145 F  
ENDROOT
BRANCH  18  20
HETATM   20  N   UNL     1      -9.270  11.266  68.245  1.00  0.00    -0.170 NA 
HETATM   21  C   UNL     1      -8.609  10.388  69.220  1.00  0.00    -0.150 C  
HETATM   22  C   UNL     1      -9.547   9.217  69.600  1.00  0.00    -0.176 C  
HETATM   23  N   UNL     1     -10.118   8.454  68.468  1.00  0.00    -0.192 NA 
HETATM   24  C   UNL     1     -10.726   9.409  67.509  1.00  0.00    -0.222 C  
HETATM   25  C   UNL     1      -9.106   7.620  67.827  1.00  0.00    -0.130 C  
HETATM   26  C   UNL     1      -9.804  10.569  67.062  1.00  0.00    -0.183 C  
ENDBRANCH  18  20
TORSDOF 1
ENDMDL
MODEL       42
REMARK 921   NORMALIZED FREE ENERGY PREDICTED BY IDOCK:   -5.88 KCAL/MOL
REMARK 922        TOTAL FREE ENERGY PREDICTED BY IDOCK:   -6.62 KCAL/MOL
REMARK 923 INTER-LIGAND FREE ENERGY PREDICTED BY IDOCK:   -6.24 KCAL/MOL
REMARK 924 INTRA-LIGAND FREE ENERGY PREDICTED BY IDOCK:   -0.38 KCAL/MOL
REMARK 927      BINDING AFFINITY PREDICTED BY RF-SCORE:    0.00 PKD
ROOT
HETATM    1  C   UNL     1     -11.367  12.625  69.517  1.00  0.00    -0.227 C  
HETATM    2  C   UNL     1     -11.701  11.291  68.828  1.00  0.00    -0.338 C  
HETATM    3  C   UNL     1     -10.960  10.175  69.571  1.00  0.00    -0.256 C  
HETATM    4  O   UNL     1     -10.239   9.201  68.845  1.00  0.00    -0.195 OA 
HETATM    5  C   UNL     1      -9.938   9.424  67.532  1.00  0.00    -0.199 A  
HETATM    6  C   UNL     1     -10.535  10.473  66.809  1.00  0.00    -0.242 A  
HETATM    7  N   UNL     1     -11.439  11.385  67.383  1.00  0.00    -0.499 NA 
HETATM    8  C   UNL     1     -12.089  12.304  66.569  1.00  0.00    -0.015 C  
HETATM    9  C   UNL     1     -11.888  12.490  65.256  1.00  0.00    -0.461 C  
HETATM   10  C   UNL     1     -10.889  11.618  64.614  1.00  0.00    -0.314 C  
HETATM   11  C   UNL     1     -12.651  13.532  64.538  1.00  0.00    -0.206 C  
HETATM   12  C   UNL     1     -10.226  10.583  65.438  1.00  0.00    -0.340 A  
HETATM   13  O   UNL     1     -13.475  14.251  65.084  1.00  0.00    -0.459 OA 
HETATM   14  O   UNL     1     -12.359  13.637  63.226  1.00  0.00    -0.743 OA 
HETATM   15  O   UNL     1     -10.642  11.751  63.416  1.00  0.00    -0.395 OA 
HETATM   16  C   UNL     1      -9.333   9.717  64.817  1.00  0.00    -0.327 A  
HETATM   17  C   UNL     1      -8.744   8.710  65.561  1.00  0.00    -0.186 A  
HETATM   18  C   UNL     1      -9.017   8.513  66.932  1.00  0.00    -0.143 A  
HETATM   19  F   UNL     1      -7.944   7.860  64.896  1.00  0.00    -0.108 F  
ENDROOT
BRANCH  18  20
HETATM   20  N   UNL     1      -8.440   7.435  67.602  1.00  0.00    -0.120 NA 
HETATM   21  C   UNL     1      -7.008   7.376  67.927  1.00  0.00    -0.072 C  
HETATM   22  C   UNL     1      -6.804   6.691  69.300  1.00  0.00    -0.065 C  
HETATM   23  N   UNL     1      -7.464   5.377  69.471  1.00  0.00    -0.068 NA 
HETATM   24  C   UNL     1      -8.890   5.508  69.083  1.00  0.00    -0.102 C  
HETATM   25  C   UNL     1      -6.789   4.340  68.696  1.00  0.00    -0.047 C  
HETATM   26  C   UNL     1      -9.139   6.141  67.693  1.00  0.00    -0.109 C  
ENDBRANCH  18  20
TORSDOF 1
ENDMDL
MODEL       43
REMARK 921   NORMALIZED FREE ENERGY PREDICTED BY IDOCK:   -5.83 KCAL/MOL
REMARK 922        TOTAL FREE ENERGY PREDICTED BY IDOCK:   -6.57 KCAL/MOL
REMARK 923 INTER-LIGAND FREE ENERGY PREDICTED BY IDOCK:   -6.24 KCAL/MOL
REMARK 924 INTRA-LIGAND FREE ENERGY PREDICTED BY IDOCK:   -0.33 KCAL/MOL
REMARK 927      BINDING AFFINITY PREDICTED BY RF-SCORE:    0.00 PKD
ROOT
HETATM    1  C   UNL     1     -14.120  12.601  72.111  1.00  0.00     0.077 C  
HETATM    2  C   UNL     1     -12.646  12.798  71.715  1.00  0.00    -0.023 C  
HETATM    3  C   UNL     1     -12.540  14.111  70.931  1.00  0.00    -0.363 C  
HETATM    4  O   UNL     1     -11.813  14.152  69.720  1.00  0.00    -0.282 OA 
HETATM    5  C   UNL     1     -11.483  12.987  69.091  1.00  0.00    -0.299 A  
HETATM    6  C   UNL     1     -11.619  11.742  69.732  1.00  0.00    -0.299 A  
HETATM    7  N   UNL     1     -12.139  11.598  71.031  1.00  0.00    -0.226 NA 
HETATM    8  C   UNL     1     -12.110  10.351  71.643  1.00  0.00    -0.167 C  
HETATM    9  C   UNL     1     -11.705   9.199  71.088  1.00  0.00    -0.380 C  
HETATM   10  C   UNL     1     -11.226   9.272  69.697  1.00  0.00    -0.041 C  
HETATM   11  C   UNL     1     -11.760   7.949  71.874  1.00  0.00    -0.297 C  
HETATM   12  C   UNL     1     -11.181  10.596  69.037  1.00  0.00    -0.324 A  
HETATM   13  O   UNL     1     -12.163   7.902  73.027  1.00  0.00    -0.080 OA 
HETATM   14  O   UNL     1     -11.339   6.852  71.212  1.00  0.00    -0.256 OA 
HETATM   15  O   UNL     1     -10.859   8.248  69.122  1.00  0.00    -0.151 OA 
HETATM   16  C   UNL     1     -10.666  10.673  67.748  1.00  0.00    -0.302 A  
HETATM   17  C   UNL     1     -10.567  11.910  67.136  1.00  0.00    -0.231 A  
HETATM   18  C   UNL     1     -10.958  13.110  67.768  1.00  0.00    -0.251 A  
HETATM   19  F   UNL     1      -9.999  11.936  65.918  1.00  0.00    -0.225 F  
ENDROOT
BRANCH  18  20
HETATM   20  N   UNL     1     -10.766  14.328  67.119  1.00  0.00    -0.279 NA 
HETATM   21  C   UNL     1      -9.654  15.233  67.440  1.00  0.00    -0.207 C  
HETATM   22  C   UNL     1      -9.142  15.924  66.152  1.00  0.00    -0.350 C  
HETATM   23  N   UNL     1     -10.173  16.588  65.324  1.00  0.00    -0.596 NA 
HETATM   24  C   UNL     1     -11.278  15.629  65.080  1.00  0.00    -0.329 C  
HETATM   25  C   UNL     1     -10.654  17.812  65.957  1.00  0.00    -0.229 C  
HETATM   26  C   UNL     1     -11.855  14.952  66.347  1.00  0.00    -0.131 C  
ENDBRANCH  18  20
TORSDOF 1
ENDMDL
MODEL       44
REMARK 921   NORMALIZED FREE ENERGY PREDICTED BY IDOCK:   -5.81 KCAL/MOL
REMARK 922        TOTAL FREE ENERGY PREDICTED BY IDOCK:   -6.55 KCAL/MOL
REMARK 923 INTER-LIGAND FREE ENERGY PREDICTED BY IDOCK:   -6.23 KCAL/MOL
REMARK 924 INTRA-LIGAND FREE ENERGY PREDICTED BY IDOCK:   -0.33 KCAL/MOL
REMARK 927      BINDING AFFINITY PREDICTED BY RF-SCORE:    0.00 PKD
ROOT
HETATM    1  C   UNL     1      -8.424  11.129  68.102  1.00  0.00    -0.138 C  
HETATM    2  C   UNL     1      -9.444  12.147  67.564  1.00  0.00    -0.180 C  
HETATM    3  C   UNL     1      -8.669  13.266  66.860  1.00  0.00    -0.142 C  
HETATM    4  O   UNL     1      -8.987  14.618  67.122  1.00  0.00    -0.202 OA 
HETATM    5  C   UNL     1      -9.744  14.933  68.213  1.00  0.00    -0.215 A  
HETATM    6  C   UNL     1     -10.429  13.944  68.943  1.00  0.00    -0.187 A  
HETATM    7  N   UNL     1     -10.353  12.573  68.640  1.00  0.00    -0.210 NA 
HETATM    8  C   UNL     1     -11.168  11.678  69.321  1.00  0.00    -0.265 C  
HETATM    9  C   UNL     1     -11.995  11.965  70.337  1.00  0.00    -0.400 C  
HETATM   10  C   UNL     1     -12.055  13.376  70.757  1.00  0.00    -0.250 C  
HETATM   11  C   UNL     1     -12.779  10.885  70.970  1.00  0.00    -0.407 C  
HETATM   12  C   UNL     1     -11.250  14.367  70.009  1.00  0.00    -0.193 A  
HETATM   13  O   UNL     1     -12.718   9.718  70.614  1.00  0.00    -0.210 OA 
HETATM   14  O   UNL     1     -13.568  11.287  71.988  1.00  0.00    -0.287 OA 
HETATM   15  O   UNL     1     -12.778  13.703  71.697  1.00  0.00    -0.341 OA 
HETATM   16  C   UNL     1     -11.359  15.707  70.363  1.00  0.00    -0.373 A  
HETATM   17  C   UNL     1     -10.654  16.654  69.640  1.00  0.00    -0.274 A  
HETATM   18  C   UNL     1      -9.829  16.320  68.544  1.00  0.00    -0.223 A  
HETATM   19  F   UNL     1     -10.849  17.939  69.979  1.00  0.00     0.195 F  
ENDROOT
BRANCH  18  20
HETATM   20  N   UNL     1      -9.203  17.332  67.817  1.00  0.00    -0.236 NA 
HETATM   21  C   UNL     1      -9.704  17.805  66.520  1.00  0.00    -0.320 C  
HETATM   22  C   UNL     1      -9.484  19.332  66.391  1.00  0.00    -0.365 C  
HETATM   23  N   UNL     1      -8.110  19.811  66.660  1.00  0.00    -0.300 NA 
HETATM   24  C   UNL     1      -7.660  19.258  67.961  1.00  0.00    -0.284 C  
HETATM   25  C   UNL     1      -7.200  19.447  65.578  1.00  0.00    -0.155 C  
HETATM   26  C   UNL     1      -7.814  17.725  68.114  1.00  0.00    -0.264 C  
ENDBRANCH  18  20
TORSDOF 1
ENDMDL
MODEL       45
REMARK 921   NORMALIZED FREE ENERGY PREDICTED BY IDOCK:   -5.73 KCAL/MOL
REMARK 922        TOTAL FREE ENERGY PREDICTED BY IDOCK:   -6.46 KCAL/MOL
REMARK 923 INTER-LIGAND FREE ENERGY PREDICTED BY IDOCK:   -6.16 KCAL/MOL
REMARK 924 INTRA-LIGAND FREE ENERGY PREDICTED BY IDOCK:   -0.30 KCAL/MOL
REMARK 927      BINDING AFFINITY PREDICTED BY RF-SCORE:    0.00 PKD
ROOT
HETATM    1  C   UNL     1     -12.233  14.632  71.583  1.00  0.00    -0.411 C  
HETATM    2  C   UNL     1     -12.611  13.467  70.652  1.00  0.00    -0.275 C  
HETATM    3  C   UNL     1     -12.736  12.201  71.506  1.00  0.00    -0.243 C  
HETATM    4  O   UNL     1     -12.122  11.001  71.084  1.00  0.00    -0.321 OA 
HETATM    5  C   UNL     1     -11.169  11.039  70.106  1.00  0.00    -0.183 A  
HETATM    6  C   UNL     1     -10.959  12.193  69.329  1.00  0.00    -0.110 A  
HETATM    7  N   UNL     1     -11.668  13.392  69.525  1.00  0.00    -0.310 NA 
HETATM    8  C   UNL     1     -11.499  14.438  68.627  1.00  0.00    -0.287 C  
HETATM    9  C   UNL     1     -10.640  14.475  67.598  1.00  0.00    -0.251 C  
HETATM   10  C   UNL     1      -9.808  13.278  67.393  1.00  0.00    -0.227 C  
HETATM   11  C   UNL     1     -10.569  15.682  66.747  1.00  0.00    -0.307 C  
HETATM   12  C   UNL     1     -10.009  12.119  68.290  1.00  0.00    -0.212 A  
HETATM   13  O   UNL     1     -11.264  16.670  66.930  1.00  0.00     0.087 OA 
HETATM   14  O   UNL     1      -9.663  15.612  65.750  1.00  0.00    -0.328 OA 
HETATM   15  O   UNL     1      -8.984  13.255  66.479  1.00  0.00    -0.175 OA 
HETATM   16  C   UNL     1      -9.270  10.965  68.054  1.00  0.00    -0.156 A  
HETATM   17  C   UNL     1      -9.484   9.854  68.851  1.00  0.00    -0.170 A  
HETATM   18  C   UNL     1     -10.433   9.834  69.896  1.00  0.00    -0.261 A  
HETATM   19  F   UNL     1      -8.794   8.745  68.536  1.00  0.00    -0.134 F  
ENDROOT
BRANCH  18  20
HETATM   20  N   UNL     1     -10.644   8.658  70.614  1.00  0.00    -0.204 NA 
HETATM   21  C   UNL     1     -10.024   8.402  71.921  1.00  0.00    -0.261 C  
HETATM   22  C   UNL     1     -11.005   7.622  72.830  1.00  0.00    -0.400 C  
HETATM   23  N   UNL     1     -11.589   6.394  72.247  1.00  0.00    -0.298 NA 
HETATM   24  C   UNL     1     -12.154   6.723  70.915  1.00  0.00    -0.367 C  
HETATM   25  C   UNL     1     -10.599   5.325  72.161  1.00  0.00    -0.221 C  
HETATM   26  C   UNL     1     -11.189   7.458  69.953  1.00  0.00    -0.135 C  
ENDBRANCH  18  20
TORSDOF 1
ENDMDL
MODEL       46
REMARK 921   NORMALIZED FREE ENERGY PREDICTED BY IDOCK:   -5.70 KCAL/MOL
REMARK 922        TOTAL FREE ENERGY PREDICTED BY IDOCK:   -6.43 KCAL/MOL
REMARK 923 INTER-LIGAND FREE ENERGY PREDICTED BY IDOCK:   -6.12 KCAL/MOL
REMARK 924 INTRA-LIGAND FREE ENERGY PREDICTED BY IDOCK:   -0.31 KCAL/MOL
REMARK 927      BINDING AFFINITY PREDICTED BY RF-SCORE:    0.00 PKD
ROOT
HETATM    1  C   UNL     1     -10.577  11.975  63.644  1.00  0.00    -0.503 C  
HETATM    2  C   UNL     1     -10.930  12.795  64.897  1.00  0.00    -0.294 C  
HETATM    3  C   UNL     1     -10.669  14.272  64.584  1.00  0.00    -0.365 C  
HETATM    4  O   UNL     1      -9.958  15.073  65.505  1.00  0.00    -0.338 OA 
HETATM    5  C   UNL     1      -9.238  14.479  66.501  1.00  0.00    -0.255 A  
HETATM    6  C   UNL     1      -9.383  13.112  66.796  1.00  0.00    -0.244 A  
HETATM    7  N   UNL     1     -10.231  12.254  66.072  1.00  0.00    -0.237 NA 
HETATM    8  C   UNL     1     -10.421  10.951  66.515  1.00  0.00    -0.253 C  
HETATM    9  C   UNL     1      -9.801  10.360  67.548  1.00  0.00    -0.202 C  
HETATM   10  C   UNL     1      -8.837  11.185  68.295  1.00  0.00    -0.155 C  
HETATM   11  C   UNL     1     -10.104   8.951  67.874  1.00  0.00    -0.206 C  
HETATM   12  C   UNL     1      -8.658  12.597  67.892  1.00  0.00    -0.181 A  
HETATM   13  O   UNL     1     -10.905   8.276  67.244  1.00  0.00    -0.232 OA 
HETATM   14  O   UNL     1      -9.415   8.458  68.923  1.00  0.00    -0.147 OA 
HETATM   15  O   UNL     1      -8.219  10.697  69.240  1.00  0.00    -0.154 OA 
HETATM   16  C   UNL     1      -7.798  13.394  68.639  1.00  0.00    -0.073 A  
HETATM   17  C   UNL     1      -7.660  14.730  68.308  1.00  0.00    -0.115 A  
HETATM   18  C   UNL     1      -8.366  15.331  67.244  1.00  0.00    -0.200 A  
HETATM   19  F   UNL     1      -6.870  15.469  69.105  1.00  0.00    -0.120 F  
ENDROOT
BRANCH  18  20
HETATM   20  N   UNL     1      -8.230  16.699  67.011  1.00  0.00    -0.176 NA 
HETATM   21  C   UNL     1      -6.964  17.311  66.586  1.00  0.00    -0.237 C  
HETATM   22  C   UNL     1      -7.240  18.469  65.596  1.00  0.00    -0.119 C  
HETATM   23  N   UNL     1      -8.219  19.483  66.046  1.00  0.00    -0.411 NA 
HETATM   24  C   UNL     1      -9.449  18.788  66.499  1.00  0.00    -0.338 C  
HETATM   25  C   UNL     1      -7.662  20.328  67.098  1.00  0.00    -0.323 C  
HETATM   26  C   UNL     1      -9.224  17.655  67.530  1.00  0.00    -0.243 C  
ENDBRANCH  18  20
TORSDOF 1
ENDMDL
MODEL       47
REMARK 921   NORMALIZED FREE ENERGY PREDICTED BY IDOCK:   -5.66 KCAL/MOL
REMARK 922        TOTAL FREE ENERGY PREDICTED BY IDOCK:   -6.39 KCAL/MOL
REMARK 923 INTER-LIGAND FREE ENERGY PREDICTED BY IDOCK:   -6.07 KCAL/MOL
REMARK 924 INTRA-LIGAND FREE ENERGY PREDICTED BY IDOCK:   -0.32 KCAL/MOL
REMARK 927      BINDING AFFINITY PREDICTED BY RF-SCORE:    0.00 PKD
ROOT
HETATM    1  C   UNL     1      -6.030  11.933  68.873  1.00  0.00    -0.055 C  
HETATM    2  C   UNL     1      -7.090  12.327  67.830  1.00  0.00    -0.105 C  
HETATM    3  C   UNL     1      -6.879  13.803  67.476  1.00  0.00    -0.131 C  
HETATM    4  O   UNL     1      -7.983  14.684  67.437  1.00  0.00    -0.176 OA 
HETATM    5  C   UNL     1      -9.164  14.312  68.012  1.00  0.00    -0.192 A  
HETATM    6  C   UNL     1      -9.397  12.986  68.420  1.00  0.00    -0.149 A  
HETATM    7  N   UNL     1      -8.433  11.967  68.311  1.00  0.00    -0.165 NA 
HETATM    8  C   UNL     1      -8.789  10.658  68.607  1.00  0.00    -0.151 C  
HETATM    9  C   UNL     1      -9.971  10.240  69.086  1.00  0.00    -0.235 C  
HETATM   10  C   UNL     1     -10.996  11.276  69.300  1.00  0.00    -0.243 C  
HETATM   11  C   UNL     1     -10.180   8.805  69.370  1.00  0.00    -0.210 C  
HETATM   12  C   UNL     1     -10.672  12.673  68.933  1.00  0.00    -0.201 A  
HETATM   13  O   UNL     1      -9.320   7.956  69.190  1.00  0.00    -0.154 OA 
HETATM   14  O   UNL     1     -11.400   8.503  69.858  1.00  0.00    -0.114 OA 
HETATM   15  O   UNL     1     -12.094  10.963  69.757  1.00  0.00    -0.309 OA 
HETATM   16  C   UNL     1     -11.663  13.638  69.073  1.00  0.00    -0.375 A  
HETATM   17  C   UNL     1     -11.395  14.939  68.685  1.00  0.00    -0.292 A  
HETATM   18  C   UNL     1     -10.154  15.333  68.138  1.00  0.00    -0.229 A  
HETATM   19  F   UNL     1     -12.408  15.816  68.777  1.00  0.00    -0.298 F  
ENDROOT
BRANCH  18  20
HETATM   20  N   UNL     1      -9.977  16.646  67.704  1.00  0.00    -0.257 NA 
HETATM   21  C   UNL     1      -9.989  17.022  66.284  1.00  0.00    -0.310 C  
HETATM   22  C   UNL     1     -10.658  18.407  66.107  1.00  0.00    -0.315 C  
HETATM   23  N   UNL     1     -10.128  19.493  66.960  1.00  0.00    -0.367 NA 
HETATM   24  C   UNL     1     -10.106  19.024  68.368  1.00  0.00    -0.403 C  
HETATM   25  C   UNL     1      -8.804  19.919  66.515  1.00  0.00    -0.365 C  
HETATM   26  C   UNL     1      -9.400  17.665  68.598  1.00  0.00    -0.270 C  
ENDBRANCH  18  20
TORSDOF 1
ENDMDL
MODEL       48
REMARK 921   NORMALIZED FREE ENERGY PREDICTED BY IDOCK:   -5.66 KCAL/MOL
REMARK 922        TOTAL FREE ENERGY PREDICTED BY IDOCK:   -6.39 KCAL/MOL
REMARK 923 INTER-LIGAND FREE ENERGY PREDICTED BY IDOCK:   -6.11 KCAL/MOL
REMARK 924 INTRA-LIGAND FREE ENERGY PREDICTED BY IDOCK:   -0.28 KCAL/MOL
REMARK 927      BINDING AFFINITY PREDICTED BY RF-SCORE:    0.00 PKD
ROOT
HETATM    1  C   UNL     1      -6.244  12.064  68.908  1.00  0.00    -0.072 C  
HETATM    2  C   UNL     1      -6.909  12.971  67.859  1.00  0.00    -0.130 C  
HETATM    3  C   UNL     1      -6.080  14.255  67.750  1.00  0.00    -0.118 C  
HETATM    4  O   UNL     1      -6.723  15.513  67.760  1.00  0.00    -0.134 OA 
HETATM    5  C   UNL     1      -8.018  15.605  68.179  1.00  0.00    -0.128 A  
HETATM    6  C   UNL     1      -8.815  14.460  68.362  1.00  0.00    -0.182 A  
HETATM    7  N   UNL     1      -8.335  13.151  68.174  1.00  0.00    -0.155 NA 
HETATM    8  C   UNL     1      -9.222  12.084  68.239  1.00  0.00    -0.192 C  
HETATM    9  C   UNL     1     -10.524  12.147  68.557  1.00  0.00    -0.248 C  
HETATM   10  C   UNL     1     -11.066  13.485  68.847  1.00  0.00    -0.267 C  
HETATM   11  C   UNL     1     -11.326  10.906  68.604  1.00  0.00    -0.295 C  
HETATM   12  C   UNL     1     -10.165  14.651  68.722  1.00  0.00    -0.242 A  
HETATM   13  O   UNL     1     -10.862   9.801  68.364  1.00  0.00    -0.233 OA 
HETATM   14  O   UNL     1     -12.618  11.087  68.944  1.00  0.00    -0.366 OA 
HETATM   15  O   UNL     1     -12.248  13.609  69.165  1.00  0.00    -0.326 OA 
HETATM   16  C   UNL     1     -10.695  15.920  68.930  1.00  0.00    -0.254 A  
HETATM   17  C   UNL     1      -9.879  17.026  68.766  1.00  0.00    -0.278 A  
HETATM   18  C   UNL     1      -8.524  16.926  68.383  1.00  0.00    -0.239 A  
HETATM   19  F   UNL     1     -10.458  18.229  68.912  1.00  0.00    -0.356 F  
ENDROOT
BRANCH  18  20
HETATM   20  N   UNL     1      -7.780  18.085  68.168  1.00  0.00    -0.263 NA 
HETATM   21  C   UNL     1      -7.779  18.802  66.886  1.00  0.00    -0.236 C  
HETATM   22  C   UNL     1      -7.698  20.328  67.131  1.00  0.00    -0.323 C  
HETATM   23  N   UNL     1      -6.603  20.782  68.018  1.00  0.00    -0.309 NA 
HETATM   24  C   UNL     1      -6.642  19.984  69.268  1.00  0.00    -0.311 C  
HETATM   25  C   UNL     1      -5.307  20.678  67.355  1.00  0.00    -0.182 C  
HETATM   26  C   UNL     1      -6.672  18.449  69.069  1.00  0.00    -0.267 C  
ENDBRANCH  18  20
TORSDOF 1
ENDMDL
MODEL       49
REMARK 921   NORMALIZED FREE ENERGY PREDICTED BY IDOCK:   -5.66 KCAL/MOL
REMARK 922        TOTAL FREE ENERGY PREDICTED BY IDOCK:   -6.39 KCAL/MOL
REMARK 923 INTER-LIGAND FREE ENERGY PREDICTED BY IDOCK:   -6.06 KCAL/MOL
REMARK 924 INTRA-LIGAND FREE ENERGY PREDICTED BY IDOCK:   -0.32 KCAL/MOL
REMARK 927      BINDING AFFINITY PREDICTED BY RF-SCORE:    0.00 PKD
ROOT
HETATM    1  C   UNL     1     -10.213  10.424  65.753  1.00  0.00    -0.305 C  
HETATM    2  C   UNL     1      -9.443  10.365  67.083  1.00  0.00    -0.159 C  
HETATM    3  C   UNL     1      -8.937   8.931  67.272  1.00  0.00    -0.128 C  
HETATM    4  O   UNL     1      -9.108   8.280  68.515  1.00  0.00    -0.137 OA 
HETATM    5  C   UNL     1      -9.987   8.789  69.427  1.00  0.00    -0.196 A  
HETATM    6  C   UNL     1     -10.539  10.075  69.278  1.00  0.00    -0.227 A  
HETATM    7  N   UNL     1     -10.269  10.904  68.174  1.00  0.00    -0.170 NA 
HETATM    8  C   UNL     1     -10.742  12.210  68.171  1.00  0.00    -0.211 C  
HETATM    9  C   UNL     1     -11.532  12.775  69.097  1.00  0.00    -0.361 C  
HETATM   10  C   UNL     1     -11.917  11.927  70.239  1.00  0.00    -0.330 C  
HETATM   11  C   UNL     1     -11.966  14.178  68.931  1.00  0.00    -0.341 C  
HETATM   12  C   UNL     1     -11.376  10.552  70.307  1.00  0.00    -0.407 A  
HETATM   13  O   UNL     1     -11.642  14.869  67.978  1.00  0.00    -0.324 OA 
HETATM   14  O   UNL     1     -12.765  14.637  69.916  1.00  0.00    -0.241 OA 
HETATM   15  O   UNL     1     -12.656  12.378  71.113  1.00  0.00    -0.364 OA 
HETATM   16  C   UNL     1     -11.686   9.776  71.418  1.00  0.00    -0.475 A  
HETATM   17  C   UNL     1     -11.146   8.506  71.524  1.00  0.00    -0.275 A  
HETATM   18  C   UNL     1     -10.279   7.960  70.553  1.00  0.00    -0.198 A  
HETATM   19  F   UNL     1     -11.422   7.826  72.649  1.00  0.00    -0.333 F  
ENDROOT
BRANCH  18  20
HETATM   20  N   UNL     1      -9.717   6.701  70.759  1.00  0.00    -0.179 NA 
HETATM   21  C   UNL     1      -8.331   6.514  71.211  1.00  0.00    -0.125 C  
HETATM   22  C   UNL     1      -8.244   5.298  72.164  1.00  0.00    -0.114 C  
HETATM   23  N   UNL     1      -8.835   4.038  71.659  1.00  0.00    -0.106 NA 
HETATM   24  C   UNL     1     -10.212   4.317  71.182  1.00  0.00    -0.017 C  
HETATM   25  C   UNL     1      -8.011   3.451  70.607  1.00  0.00    -0.053 C  
HETATM   26  C   UNL     1     -10.338   5.495  70.185  1.00  0.00    -0.284 C  
ENDBRANCH  18  20
TORSDOF 1
ENDMDL
MODEL       50
REMARK 921   NORMALIZED FREE ENERGY PREDICTED BY IDOCK:   -5.52 KCAL/MOL
REMARK 922        TOTAL FREE ENERGY PREDICTED BY IDOCK:   -6.24 KCAL/MOL
REMARK 923 INTER-LIGAND FREE ENERGY PREDICTED BY IDOCK:   -5.91 KCAL/MOL
REMARK 924 INTRA-LIGAND FREE ENERGY PREDICTED BY IDOCK:   -0.33 KCAL/MOL
REMARK 927      BINDING AFFINITY PREDICTED BY RF-SCORE:    0.00 PKD
ROOT
HETATM    1  C   UNL     1     -12.269  11.594  64.533  1.00  0.00     0.048 C  
HETATM    2  C   UNL     1     -10.736  11.715  64.497  1.00  0.00    -0.322 C  
HETATM    3  C   UNL     1     -10.146  10.401  65.021  1.00  0.00    -0.309 C  
HETATM    4  O   UNL     1      -9.109  10.427  65.980  1.00  0.00    -0.154 OA 
HETATM    5  C   UNL     1      -8.853  11.579  66.667  1.00  0.00    -0.187 A  
HETATM    6  C   UNL     1      -9.415  12.807  66.276  1.00  0.00    -0.196 A  
HETATM    7  N   UNL     1     -10.306  12.936  65.195  1.00  0.00    -0.300 NA 
HETATM    8  C   UNL     1     -10.706  14.203  64.789  1.00  0.00    -0.419 C  
HETATM    9  C   UNL     1     -10.399  15.366  65.383  1.00  0.00    -0.422 C  
HETATM   10  C   UNL     1      -9.535  15.288  66.574  1.00  0.00    -0.283 C  
HETATM   11  C   UNL     1     -10.928  16.631  64.834  1.00  0.00    -0.150 C  
HETATM   12  C   UNL     1      -9.036  13.960  66.995  1.00  0.00    -0.259 A  
HETATM   13  O   UNL     1     -11.646  16.682  63.846  1.00  0.00    -1.204 OA 
HETATM   14  O   UNL     1     -10.564  17.735  65.517  1.00  0.00    -0.632 OA 
HETATM   15  O   UNL     1      -9.233  16.316  67.178  1.00  0.00    -0.208 OA 
HETATM   16  C   UNL     1      -8.167  13.895  68.078  1.00  0.00    -0.161 A  
HETATM   17  C   UNL     1      -7.649  12.667  68.453  1.00  0.00    -0.132 A  
HETATM   18  C   UNL     1      -7.957  11.468  67.773  1.00  0.00    -0.128 A  
HETATM   19  F   UNL     1      -6.762  12.670  69.461  1.00  0.00    -0.111 F  
ENDROOT
BRANCH  18  20
HETATM   20  N   UNL     1      -7.344  10.278  68.162  1.00  0.00    -0.084 NA 
HETATM   21  C   UNL     1      -6.190   9.710  67.453  1.00  0.00    -0.064 C  
HETATM   22  C   UNL     1      -5.221   9.045  68.461  1.00  0.00    -0.034 C  
HETATM   23  N   UNL     1      -5.830   8.071  69.394  1.00  0.00    -0.030 NA 
HETATM   24  C   UNL     1      -7.010   8.700  70.036  1.00  0.00    -0.043 C  
HETATM   25  C   UNL     1      -6.189   6.833  68.708  1.00  0.00    -0.027 C  
HETATM   26  C   UNL     1      -8.032   9.333  69.060  1.00  0.00    -0.097 C  
ENDBRANCH  18  20
TORSDOF 1
ENDMDL
MODEL       51
REMARK 921   NORMALIZED FREE ENERGY PREDICTED BY IDOCK:   -5.49 KCAL/MOL
REMARK 922        TOTAL FREE ENERGY PREDICTED BY IDOCK:   -6.21 KCAL/MOL
REMARK 923 INTER-LIGAND FREE ENERGY PREDICTED BY IDOCK:   -5.95 KCAL/MOL
REMARK 924 INTRA-LIGAND FREE ENERGY PREDICTED BY IDOCK:   -0.26 KCAL/MOL
REMARK 927      BINDING AFFINITY PREDICTED BY RF-SCORE:    0.00 PKD
ROOT
HETATM    1  C   UNL     1     -12.041  12.688  63.172  1.00  0.00    -0.362 C  
HETATM    2  C   UNL     1     -12.031  12.021  64.558  1.00  0.00    -0.268 C  
HETATM    3  C   UNL     1     -12.623  13.012  65.565  1.00  0.00    -0.362 C  
HETATM    4  O   UNL     1     -11.968  13.243  66.796  1.00  0.00    -0.382 OA 
HETATM    5  C   UNL     1     -10.674  12.841  66.957  1.00  0.00    -0.253 A  
HETATM    6  C   UNL     1     -10.050  11.983  66.034  1.00  0.00    -0.230 A  
HETATM    7  N   UNL     1     -10.684  11.516  64.868  1.00  0.00    -0.297 NA 
HETATM    8  C   UNL     1     -10.049  10.563  64.082  1.00  0.00    -0.281 C  
HETATM    9  C   UNL     1      -8.812  10.074  64.263  1.00  0.00    -0.245 C  
HETATM   10  C   UNL     1      -8.065  10.590  65.422  1.00  0.00    -0.141 C  
HETATM   11  C   UNL     1      -8.275   9.075  63.315  1.00  0.00    -0.181 C  
HETATM   12  C   UNL     1      -8.737  11.556  66.319  1.00  0.00    -0.159 A  
HETATM   13  O   UNL     1      -8.905   8.658  62.355  1.00  0.00    -0.169 OA 
HETATM   14  O   UNL     1      -7.020   8.663  63.588  1.00  0.00    -0.087 OA 
HETATM   15  O   UNL     1      -6.918  10.198  65.633  1.00  0.00    -0.111 OA 
HETATM   16  C   UNL     1      -8.055  11.991  67.450  1.00  0.00    -0.168 A  
HETATM   17  C   UNL     1      -8.688  12.854  68.327  1.00  0.00    -0.168 A  
HETATM   18  C   UNL     1     -10.009  13.310  68.131  1.00  0.00    -0.234 A  
HETATM   19  F   UNL     1      -8.010  13.187  69.438  1.00  0.00     0.229 F  
ENDROOT
BRANCH  18  20
HETATM   20  N   UNL     1     -10.608  14.123  69.092  1.00  0.00    -0.202 NA 
HETATM   21  C   UNL     1     -10.092  15.454  69.440  1.00  0.00    -0.269 C  
HETATM   22  C   UNL     1     -11.267  16.416  69.743  1.00  0.00    -0.249 C  
HETATM   23  N   UNL     1     -12.259  15.934  70.729  1.00  0.00    -0.386 NA 
HETATM   24  C   UNL     1     -12.698  14.572  70.335  1.00  0.00    -0.322 C  
HETATM   25  C   UNL     1     -11.712  15.950  72.083  1.00  0.00    -0.485 C  
HETATM   26  C   UNL     1     -11.555  13.562  70.072  1.00  0.00    -0.164 C  
ENDBRANCH  18  20
TORSDOF 1
ENDMDL
MODEL       52
REMARK 921   NORMALIZED FREE ENERGY PREDICTED BY IDOCK:   -5.47 KCAL/MOL
REMARK 922        TOTAL FREE ENERGY PREDICTED BY IDOCK:   -6.19 KCAL/MOL
REMARK 923 INTER-LIGAND FREE ENERGY PREDICTED BY IDOCK:   -6.20 KCAL/MOL
REMARK 924 INTRA-LIGAND FREE ENERGY PREDICTED BY IDOCK:    0.01 KCAL/MOL
REMARK 927      BINDING AFFINITY PREDICTED BY RF-SCORE:    0.00 PKD
ROOT
HETATM    1  C   UNL     1      -9.965  14.697  64.801  1.00  0.00     0.074 C  
HETATM    2  C   UNL     1     -11.127  13.896  65.413  1.00  0.00    -0.310 C  
HETATM    3  C   UNL     1     -11.727  14.727  66.551  1.00  0.00    -0.271 C  
HETATM    4  O   UNL     1     -11.995  14.123  67.800  1.00  0.00    -0.366 OA 
HETATM    5  C   UNL     1     -11.438  12.913  68.097  1.00  0.00    -0.315 A  
HETATM    6  C   UNL     1     -10.814  12.129  67.111  1.00  0.00    -0.244 A  
HETATM    7  N   UNL     1     -10.676  12.542  65.773  1.00  0.00    -0.263 NA 
HETATM    8  C   UNL     1     -10.172  11.652  64.833  1.00  0.00    -0.270 C  
HETATM    9  C   UNL     1      -9.702  10.419  65.073  1.00  0.00    -0.362 C  
HETATM   10  C   UNL     1      -9.744   9.960  66.472  1.00  0.00    -0.204 C  
HETATM   11  C   UNL     1      -9.178   9.606  63.956  1.00  0.00    -0.148 C  
HETATM   12  C   UNL     1     -10.335  10.858  67.489  1.00  0.00    -0.237 A  
HETATM   13  O   UNL     1      -9.147   9.999  62.800  1.00  0.00    -0.246 OA 
HETATM   14  O   UNL     1      -8.723   8.388  64.315  1.00  0.00    -0.008 OA 
HETATM   15  O   UNL     1      -9.309   8.847  66.763  1.00  0.00    -0.155 OA 
HETATM   16  C   UNL     1     -10.435  10.397  68.797  1.00  0.00    -0.219 A  
HETATM   17  C   UNL     1     -11.033  11.202  69.750  1.00  0.00    -0.150 A  
HETATM   18  C   UNL     1     -11.562  12.477  69.452  1.00  0.00    -0.305 A  
HETATM   19  F   UNL     1     -11.166  10.681  70.982  1.00  0.00    -0.364 F  
ENDROOT
BRANCH  18  20
HETATM   20  N   UNL     1     -12.213  13.204  70.447  1.00  0.00    -0.345 NA 
HETATM   21  C   UNL     1     -13.495  12.784  71.028  1.00  0.00     0.519 C  
HETATM   22  C   UNL     1     -13.533  13.129  72.537  1.00  0.00    -0.475 C  
HETATM   23  N   UNL     1     -13.200  14.528  72.887  1.00  0.00    -0.507 NA 
HETATM   24  C   UNL     1     -11.921  14.891  72.230  1.00  0.00    -0.309 C  
HETATM   25  C   UNL     1     -14.276  15.439  72.508  1.00  0.00    -0.409 C  
HETATM   26  C   UNL     1     -11.858  14.610  70.709  1.00  0.00    -0.311 C  
ENDBRANCH  18  20
TORSDOF 1
ENDMDL
MODEL       53
REMARK 921   NORMALIZED FREE ENERGY PREDICTED BY IDOCK:   -5.41 KCAL/MOL
REMARK 922        TOTAL FREE ENERGY PREDICTED BY IDOCK:   -6.13 KCAL/MOL
REMARK 923 INTER-LIGAND FREE ENERGY PREDICTED BY IDOCK:   -5.74 KCAL/MOL
REMARK 924 INTRA-LIGAND FREE ENERGY PREDICTED BY IDOCK:   -0.39 KCAL/MOL
REMARK 927      BINDING AFFINITY PREDICTED BY RF-SCORE:    0.00 PKD
ROOT
HETATM    1  C   UNL     1      -6.040  11.998  70.156  1.00  0.00    -0.131 C  
HETATM    2  C   UNL     1      -6.526  12.428  68.762  1.00  0.00    -0.084 C  
HETATM    3  C   UNL     1      -6.595  13.958  68.736  1.00  0.00    -0.098 C  
HETATM    4  O   UNL     1      -7.740  14.604  68.217  1.00  0.00    -0.110 OA 
HETATM    5  C   UNL     1      -8.892  13.894  68.037  1.00  0.00    -0.184 A  
HETATM    6  C   UNL     1      -8.909  12.490  68.112  1.00  0.00    -0.191 A  
HETATM    7  N   UNL     1      -7.771  11.722  68.418  1.00  0.00    -0.124 NA 
HETATM    8  C   UNL     1      -7.840  10.337  68.335  1.00  0.00    -0.102 C  
HETATM    9  C   UNL     1      -8.934   9.607  68.069  1.00  0.00    -0.122 C  
HETATM   10  C   UNL     1     -10.179  10.355  67.822  1.00  0.00    -0.193 C  
HETATM   11  C   UNL     1      -8.841   8.133  68.041  1.00  0.00    -0.131 C  
HETATM   12  C   UNL     1     -10.126  11.834  67.837  1.00  0.00    -0.195 A  
HETATM   13  O   UNL     1      -7.802   7.525  68.250  1.00  0.00    -0.117 OA 
HETATM   14  O   UNL     1     -10.003   7.503  67.774  1.00  0.00    -0.155 OA 
HETATM   15  O   UNL     1     -11.222   9.745  67.592  1.00  0.00    -0.178 OA 
HETATM   16  C   UNL     1     -11.287  12.538  67.537  1.00  0.00    -0.368 A  
HETATM   17  C   UNL     1     -11.243  13.921  67.494  1.00  0.00    -0.303 A  
HETATM   18  C   UNL     1     -10.061  14.656  67.733  1.00  0.00    -0.228 A  
HETATM   19  F   UNL     1     -12.374  14.549  67.133  1.00  0.00    -0.421 F  
ENDROOT
BRANCH  18  20
HETATM   20  N   UNL     1     -10.074  16.044  67.604  1.00  0.00    -0.241 NA 
HETATM   21  C   UNL     1     -10.744  16.925  68.570  1.00  0.00    -0.359 C  
HETATM   22  C   UNL     1      -9.931  18.229  68.752  1.00  0.00    -0.370 C  
HETATM   23  N   UNL     1      -9.573  18.946  67.508  1.00  0.00    -0.300 NA 
HETATM   24  C   UNL     1      -8.944  17.984  66.570  1.00  0.00    -0.265 C  
HETATM   25  C   UNL     1     -10.740  19.591  66.913  1.00  0.00    -0.464 C  
HETATM   26  C   UNL     1      -9.750  16.686  66.318  1.00  0.00    -0.304 C  
ENDBRANCH  18  20
TORSDOF 1
ENDMDL
MODEL       54
REMARK 921   NORMALIZED FREE ENERGY PREDICTED BY IDOCK:   -5.39 KCAL/MOL
REMARK 922        TOTAL FREE ENERGY PREDICTED BY IDOCK:   -6.11 KCAL/MOL
REMARK 923 INTER-LIGAND FREE ENERGY PREDICTED BY IDOCK:   -5.78 KCAL/MOL
REMARK 924 INTRA-LIGAND FREE ENERGY PREDICTED BY IDOCK:   -0.33 KCAL/MOL
REMARK 927      BINDING AFFINITY PREDICTED BY RF-SCORE:    0.00 PKD
ROOT
HETATM    1  C   UNL     1      -6.641   7.811  64.511  1.00  0.00    -0.048 C  
HETATM    2  C   UNL     1      -8.145   8.122  64.424  1.00  0.00    -0.138 C  
HETATM    3  C   UNL     1      -8.301   9.615  64.117  1.00  0.00    -0.170 C  
HETATM    4  O   UNL     1      -9.220  10.395  64.856  1.00  0.00    -0.185 OA 
HETATM    5  C   UNL     1      -9.724   9.912  66.028  1.00  0.00    -0.247 A  
HETATM    6  C   UNL     1      -9.559   8.565  66.400  1.00  0.00    -0.245 A  
HETATM    7  N   UNL     1      -8.834   7.638  65.629  1.00  0.00    -0.104 NA 
HETATM    8  C   UNL     1      -8.836   6.298  65.996  1.00  0.00    -0.151 C  
HETATM    9  C   UNL     1      -9.401   5.771  67.093  1.00  0.00    -0.116 C  
HETATM   10  C   UNL     1     -10.104   6.709  67.985  1.00  0.00    -0.154 C  
HETATM   11  C   UNL     1      -9.290   4.320  67.348  1.00  0.00    -0.163 C  
HETATM   12  C   UNL     1     -10.179   8.133  67.591  1.00  0.00    -0.296 A  
HETATM   13  O   UNL     1      -8.701   3.553  66.601  1.00  0.00    -0.112 OA 
HETATM   14  O   UNL     1      -9.885   3.903  68.484  1.00  0.00    -0.090 OA 
HETATM   15  O   UNL     1     -10.626   6.293  69.019  1.00  0.00    -0.209 OA 
HETATM   16  C   UNL     1     -10.900   9.004  68.399  1.00  0.00    -0.062 A  
HETATM   17  C   UNL     1     -11.025  10.329  68.018  1.00  0.00    -0.289 A  
HETATM   18  C   UNL     1     -10.457  10.839  66.830  1.00  0.00    -0.252 A  
HETATM   19  F   UNL     1     -11.789  11.111  68.798  1.00  0.00    -0.328 F  
ENDROOT
BRANCH  18  20
HETATM   20  N   UNL     1     -10.682  12.168  66.473  1.00  0.00    -0.247 NA 
HETATM   21  C   UNL     1     -11.771  12.576  65.576  1.00  0.00    -0.409 C  
HETATM   22  C   UNL     1     -12.351  13.938  66.030  1.00  0.00    -0.475 C  
HETATM   23  N   UNL     1     -11.366  15.023  66.233  1.00  0.00    -0.316 NA 
HETATM   24  C   UNL     1     -10.280  14.522  67.111  1.00  0.00    -0.260 C  
HETATM   25  C   UNL     1     -10.846  15.512  64.960  1.00  0.00    -0.450 C  
HETATM   26  C   UNL     1      -9.635  13.187  66.664  1.00  0.00    -0.260 C  
ENDBRANCH  18  20
TORSDOF 1
ENDMDL
MODEL       55
REMARK 921   NORMALIZED FREE ENERGY PREDICTED BY IDOCK:   -5.38 KCAL/MOL
REMARK 922        TOTAL FREE ENERGY PREDICTED BY IDOCK:   -6.09 KCAL/MOL
REMARK 923 INTER-LIGAND FREE ENERGY PREDICTED BY IDOCK:   -7.11 KCAL/MOL
REMARK 924 INTRA-LIGAND FREE ENERGY PREDICTED BY IDOCK:    1.02 KCAL/MOL
REMARK 927      BINDING AFFINITY PREDICTED BY RF-SCORE:    0.00 PKD
ROOT
HETATM    1  C   UNL     1      -8.151  11.093  66.749  1.00  0.00    -0.155 C  
HETATM    2  C   UNL     1      -9.678  11.062  66.934  1.00  0.00    -0.188 C  
HETATM    3  C   UNL     1     -10.113  12.419  67.497  1.00  0.00    -0.202 C  
HETATM    4  O   UNL     1     -11.002  12.475  68.594  1.00  0.00    -0.235 OA 
HETATM    5  C   UNL     1     -11.220  11.356  69.344  1.00  0.00    -0.268 A  
HETATM    6  C   UNL     1     -10.788  10.088  68.914  1.00  0.00    -0.220 A  
HETATM    7  N   UNL     1     -10.070   9.883  67.722  1.00  0.00    -0.170 NA 
HETATM    8  C   UNL     1      -9.802   8.587  67.302  1.00  0.00    -0.199 C  
HETATM    9  C   UNL     1     -10.085   7.457  67.968  1.00  0.00    -0.216 C  
HETATM   10  C   UNL     1     -10.763   7.612  69.266  1.00  0.00    -0.161 C  
HETATM   11  C   UNL     1      -9.709   6.151  67.387  1.00  0.00    -0.120 C  
HETATM   12  C   UNL     1     -11.123   8.976  69.713  1.00  0.00    -0.117 A  
HETATM   13  O   UNL     1      -9.144   6.037  66.309  1.00  0.00    -0.145 OA 
HETATM   14  O   UNL     1     -10.032   5.086  68.148  1.00  0.00    -0.153 OA 
HETATM   15  O   UNL     1     -11.032   6.617  69.937  1.00  0.00    -0.266 OA 
HETATM   16  C   UNL     1     -11.823   9.115  70.907  1.00  0.00    -0.327 A  
HETATM   17  C   UNL     1     -12.213  10.379  71.314  1.00  0.00    -0.389 A  
HETATM   18  C   UNL     1     -11.941  11.543  70.562  1.00  0.00    -0.344 A  
HETATM   19  F   UNL     1     -12.946  10.450  72.438  1.00  0.00    -0.482 F  
ENDROOT
BRANCH  18  20
HETATM   20  N   UNL     1     -12.426  12.775  70.998  1.00  0.00    -0.347 NA 
HETATM   21  C   UNL     1     -11.788  14.050  70.643  1.00  0.00    -0.239 C  
HETATM   22  C   UNL     1     -12.866  15.142  70.435  1.00  0.00    -0.304 C  
HETATM   23  N   UNL     1     -13.844  15.301  71.534  1.00  0.00    -0.497 NA 
HETATM   24  C   UNL     1     -14.409  13.970  71.864  1.00  0.00    -0.382 C  
HETATM   25  C   UNL     1     -13.232  15.930  72.701  1.00  0.00    -0.472 C  
HETATM   26  C   UNL     1     -13.365  12.859  72.131  1.00  0.00    -0.515 C  
ENDBRANCH  18  20
TORSDOF 1
ENDMDL
MODEL       56
REMARK 921   NORMALIZED FREE ENERGY PREDICTED BY IDOCK:   -5.36 KCAL/MOL
REMARK 922        TOTAL FREE ENERGY PREDICTED BY IDOCK:   -6.07 KCAL/MOL
REMARK 923 INTER-LIGAND FREE ENERGY PREDICTED BY IDOCK:   -5.64 KCAL/MOL
REMARK 924 INTRA-LIGAND FREE ENERGY PREDICTED BY IDOCK:   -0.43 KCAL/MOL
REMARK 927      BINDING AFFINITY PREDICTED BY RF-SCORE:    0.00 PKD
ROOT
HETATM    1  C   UNL     1      -9.670   7.183  70.752  1.00  0.00    -0.171 C  
HETATM    2  C   UNL     1     -10.369   7.650  69.464  1.00  0.00    -0.217 C  
HETATM    3  C   UNL     1      -9.418   7.391  68.290  1.00  0.00    -0.142 C  
HETATM    4  O   UNL     1      -9.197   8.400  67.326  1.00  0.00    -0.134 OA 
HETATM    5  C   UNL     1      -9.565   9.686  67.598  1.00  0.00    -0.142 A  
HETATM    6  C   UNL     1     -10.384   9.998  68.699  1.00  0.00    -0.190 A  
HETATM    7  N   UNL     1     -10.842   9.034  69.615  1.00  0.00    -0.218 NA 
HETATM    8  C   UNL     1     -11.758   9.403  70.592  1.00  0.00    -0.240 C  
HETATM    9  C   UNL     1     -12.216  10.642  70.830  1.00  0.00    -0.497 C  
HETATM   10  C   UNL     1     -11.706  11.710  69.954  1.00  0.00    -0.337 C  
HETATM   11  C   UNL     1     -13.177  10.868  71.930  1.00  0.00    -0.403 C  
HETATM   12  C   UNL     1     -10.780  11.342  68.861  1.00  0.00    -0.246 A  
HETATM   13  O   UNL     1     -13.590   9.972  72.651  1.00  0.00    -0.152 OA 
HETATM   14  O   UNL     1     -13.560  12.152  72.084  1.00  0.00    -0.431 OA 
HETATM   15  O   UNL     1     -12.070  12.872  70.133  1.00  0.00    -0.340 OA 
HETATM   16  C   UNL     1     -10.353  12.341  67.993  1.00  0.00    -0.220 A  
HETATM   17  C   UNL     1      -9.528  12.005  66.934  1.00  0.00    -0.203 A  
HETATM   18  C   UNL     1      -9.105  10.682  66.684  1.00  0.00    -0.160 A  
HETATM   19  F   UNL     1      -9.201  12.996  66.087  1.00  0.00    -0.222 F  
ENDROOT
BRANCH  18  20
HETATM   20  N   UNL     1      -8.331  10.405  65.558  1.00  0.00    -0.164 NA 
HETATM   21  C   UNL     1      -6.872  10.575  65.535  1.00  0.00    -0.100 C  
HETATM   22  C   UNL     1      -6.222   9.462  64.677  1.00  0.00    -0.078 C  
HETATM   23  N   UNL     1      -6.779   9.288  63.317  1.00  0.00    -0.091 NA 
HETATM   24  C   UNL     1      -8.254   9.168  63.419  1.00  0.00    -0.178 C  
HETATM   25  C   UNL     1      -6.388  10.387  62.439  1.00  0.00    -0.134 C  
HETATM   26  C   UNL     1      -8.952  10.290  64.226  1.00  0.00    -0.234 C  
ENDBRANCH  18  20
TORSDOF 1
ENDMDL
MODEL       57
REMARK 921   NORMALIZED FREE ENERGY PREDICTED BY IDOCK:   -5.31 KCAL/MOL
REMARK 922        TOTAL FREE ENERGY PREDICTED BY IDOCK:   -6.02 KCAL/MOL
REMARK 923 INTER-LIGAND FREE ENERGY PREDICTED BY IDOCK:   -5.82 KCAL/MOL
REMARK 924 INTRA-LIGAND FREE ENERGY PREDICTED BY IDOCK:   -0.20 KCAL/MOL
REMARK 927      BINDING AFFINITY PREDICTED BY RF-SCORE:    0.00 PKD
ROOT
HETATM    1  C   UNL     1      -9.633   4.566  67.972  1.00  0.00    -0.209 C  
HETATM    2  C   UNL     1     -10.735   5.633  68.081  1.00  0.00    -0.153 C  
HETATM    3  C   UNL     1     -10.716   6.466  66.794  1.00  0.00    -0.285 C  
HETATM    4  O   UNL     1     -10.757   7.876  66.866  1.00  0.00    -0.333 OA 
HETATM    5  C   UNL     1     -10.496   8.499  68.053  1.00  0.00    -0.191 A  
HETATM    6  C   UNL     1     -10.436   7.783  69.261  1.00  0.00    -0.217 A  
HETATM    7  N   UNL     1     -10.591   6.386  69.336  1.00  0.00    -0.229 NA 
HETATM    8  C   UNL     1     -10.657   5.774  70.581  1.00  0.00    -0.277 C  
HETATM    9  C   UNL     1     -10.498   6.369  71.773  1.00  0.00    -0.246 C  
HETATM   10  C   UNL     1     -10.248   7.820  71.755  1.00  0.00    -0.191 C  
HETATM   11  C   UNL     1     -10.576   5.563  73.009  1.00  0.00    -0.239 C  
HETATM   12  C   UNL     1     -10.238   8.516  70.449  1.00  0.00    -0.215 A  
HETATM   13  O   UNL     1     -10.781   4.358  73.010  1.00  0.00    -0.190 OA 
HETATM   14  O   UNL     1     -10.390   6.263  74.147  1.00  0.00    -0.298 OA 
HETATM   15  O   UNL     1     -10.073   8.423  72.813  1.00  0.00    -0.286 OA 
HETATM   16  C   UNL     1     -10.069   9.896  70.438  1.00  0.00    -0.258 A  
HETATM   17  C   UNL     1     -10.110  10.570  69.230  1.00  0.00    -0.224 A  
HETATM   18  C   UNL     1     -10.328   9.917  67.998  1.00  0.00    -0.203 A  
HETATM   19  F   UNL     1     -10.010  11.908  69.283  1.00  0.00    -0.065 F  
ENDROOT
BRANCH  18  20
HETATM   20  N   UNL     1     -10.427  10.667  66.827  1.00  0.00    -0.245 NA 
HETATM   21  C   UNL     1      -9.345  10.738  65.835  1.00  0.00    -0.189 C  
HETATM   22  C   UNL     1      -9.938  10.799  64.407  1.00  0.00    -0.338 C  
HETATM   23  N   UNL     1     -10.965  11.839  64.178  1.00  0.00    -0.347 NA 
HETATM   24  C   UNL     1     -11.996  11.731  65.240  1.00  0.00     0.138 C  
HETATM   25  C   UNL     1     -10.371  13.172  64.139  1.00  0.00    -0.263 C  
HETATM   26  C   UNL     1     -11.450  11.719  66.689  1.00  0.00    -0.267 C  
ENDBRANCH  18  20
TORSDOF 1
ENDMDL
MODEL       58
REMARK 921   NORMALIZED FREE ENERGY PREDICTED BY IDOCK:   -5.29 KCAL/MOL
REMARK 922        TOTAL FREE ENERGY PREDICTED BY IDOCK:   -6.00 KCAL/MOL
REMARK 923 INTER-LIGAND FREE ENERGY PREDICTED BY IDOCK:   -5.59 KCAL/MOL
REMARK 924 INTRA-LIGAND FREE ENERGY PREDICTED BY IDOCK:   -0.41 KCAL/MOL
REMARK 927      BINDING AFFINITY PREDICTED BY RF-SCORE:    0.00 PKD
ROOT
HETATM    1  C   UNL     1      -9.554  10.848  62.485  1.00  0.00    -0.235 C  
HETATM    2  C   UNL     1      -8.798  10.643  63.809  1.00  0.00    -0.171 C  
HETATM    3  C   UNL     1      -8.260   9.208  63.829  1.00  0.00    -0.173 C  
HETATM    4  O   UNL     1      -8.431   8.407  64.980  1.00  0.00    -0.168 OA 
HETATM    5  C   UNL     1      -9.332   8.781  65.935  1.00  0.00    -0.218 A  
HETATM    6  C   UNL     1      -9.912  10.062  65.936  1.00  0.00    -0.269 A  
HETATM    7  N   UNL     1      -9.650  11.026  64.945  1.00  0.00    -0.232 NA 
HETATM    8  C   UNL     1     -10.154  12.312  65.095  1.00  0.00    -0.261 C  
HETATM    9  C   UNL     1     -10.967  12.742  66.072  1.00  0.00    -0.306 C  
HETATM   10  C   UNL     1     -11.345  11.752  67.095  1.00  0.00    -0.322 C  
HETATM   11  C   UNL     1     -11.433  14.144  66.071  1.00  0.00    -0.342 C  
HETATM   12  C   UNL     1     -10.773  10.391  67.003  1.00  0.00    -0.298 A  
HETATM   13  O   UNL     1     -11.113  14.954  65.214  1.00  0.00    -0.340 OA 
HETATM   14  O   UNL     1     -12.254  14.462  67.093  1.00  0.00    -0.390 OA 
HETATM   15  O   UNL     1     -12.106  12.077  68.006  1.00  0.00    -0.514 OA 
HETATM   16  C   UNL     1     -11.078   9.478  68.006  1.00  0.00    -0.056 A  
HETATM   17  C   UNL     1     -10.510   8.217  67.964  1.00  0.00    -0.181 A  
HETATM   18  C   UNL     1      -9.618   7.814  66.946  1.00  0.00    -0.198 A  
HETATM   19  F   UNL     1     -10.783   7.398  68.994  1.00  0.00    -0.210 F  
ENDROOT
BRANCH  18  20
HETATM   20  N   UNL     1      -9.029   6.552  67.005  1.00  0.00    -0.118 NA 
HETATM   21  C   UNL     1      -9.652   5.356  66.423  1.00  0.00    -0.159 C  
HETATM   22  C   UNL     1      -8.566   4.427  65.827  1.00  0.00    -0.115 C  
HETATM   23  N   UNL     1      -7.446   4.082  66.730  1.00  0.00    -0.072 NA 
HETATM   24  C   UNL     1      -6.900   5.333  67.310  1.00  0.00    -0.060 C  
HETATM   25  C   UNL     1      -7.872   3.149  67.770  1.00  0.00    -0.075 C  
HETATM   26  C   UNL     1      -7.946   6.269  67.964  1.00  0.00    -0.108 C  
ENDBRANCH  18  20
TORSDOF 1
ENDMDL
MODEL       59
REMARK 921   NORMALIZED FREE ENERGY PREDICTED BY IDOCK:   -5.25 KCAL/MOL
REMARK 922        TOTAL FREE ENERGY PREDICTED BY IDOCK:   -5.95 KCAL/MOL
REMARK 923 INTER-LIGAND FREE ENERGY PREDICTED BY IDOCK:   -5.62 KCAL/MOL
REMARK 924 INTRA-LIGAND FREE ENERGY PREDICTED BY IDOCK:   -0.33 KCAL/MOL
REMARK 927      BINDING AFFINITY PREDICTED BY RF-SCORE:    0.00 PKD
ROOT
HETATM    1  C   UNL     1      -6.149  12.290  69.849  1.00  0.00    -0.140 C  
HETATM    2  C   UNL     1      -6.066  12.968  68.471  1.00  0.00    -0.076 C  
HETATM    3  C   UNL     1      -5.727  14.446  68.690  1.00  0.00    -0.088 C  
HETATM    4  O   UNL     1      -6.455  15.445  68.007  1.00  0.00    -0.111 OA 
HETATM    5  C   UNL     1      -7.642  15.128  67.412  1.00  0.00    -0.203 A  
HETATM    6  C   UNL     1      -8.043  13.791  67.239  1.00  0.00    -0.139 A  
HETATM    7  N   UNL     1      -7.288  12.696  67.697  1.00  0.00    -0.125 NA 
HETATM    8  C   UNL     1      -7.684  11.407  67.364  1.00  0.00    -0.135 C  
HETATM    9  C   UNL     1      -8.797  11.061  66.699  1.00  0.00    -0.168 C  
HETATM   10  C   UNL     1      -9.673  12.163  66.265  1.00  0.00    -0.238 C  
HETATM   11  C   UNL     1      -9.083   9.633  66.444  1.00  0.00    -0.156 C  
HETATM   12  C   UNL     1      -9.247  13.552  66.545  1.00  0.00    -0.187 A  
HETATM   13  O   UNL     1      -8.349   8.729  66.812  1.00  0.00    -0.106 OA 
HETATM   14  O   UNL     1     -10.233   9.403  65.778  1.00  0.00    -0.231 OA 
HETATM   15  O   UNL     1     -10.719  11.912  65.669  1.00  0.00    -0.263 OA 
HETATM   16  C   UNL     1     -10.041  14.592  66.077  1.00  0.00    -0.330 A  
HETATM   17  C   UNL     1      -9.632  15.898  66.284  1.00  0.00    -0.316 A  
HETATM   18  C   UNL     1      -8.428  16.225  66.946  1.00  0.00    -0.224 A  
HETATM   19  F   UNL     1     -10.400  16.862  65.751  1.00  0.00    -0.328 F  
ENDROOT
BRANCH  18  20
HETATM   20  N   UNL     1      -8.044  17.561  67.058  1.00  0.00    -0.209 NA 
HETATM   21  C   UNL     1      -7.138  18.210  66.100  1.00  0.00    -0.281 C  
HETATM   22  C   UNL     1      -7.564  19.681  65.880  1.00  0.00    -0.310 C  
HETATM   23  N   UNL     1      -7.744  20.491  67.106  1.00  0.00    -0.328 NA 
HETATM   24  C   UNL     1      -8.631  19.753  68.038  1.00  0.00    -0.295 C  
HETATM   25  C   UNL     1      -6.460  20.808  67.724  1.00  0.00    -0.331 C  
HETATM   26  C   UNL     1      -8.213  18.291  68.327  1.00  0.00    -0.298 C  
ENDBRANCH  18  20
TORSDOF 1
ENDMDL
MODEL       60
REMARK 921   NORMALIZED FREE ENERGY PREDICTED BY IDOCK:   -5.19 KCAL/MOL
REMARK 922        TOTAL FREE ENERGY PREDICTED BY IDOCK:   -5.89 KCAL/MOL
REMARK 923 INTER-LIGAND FREE ENERGY PREDICTED BY IDOCK:   -5.46 KCAL/MOL
REMARK 924 INTRA-LIGAND FREE ENERGY PREDICTED BY IDOCK:   -0.43 KCAL/MOL
REMARK 927      BINDING AFFINITY PREDICTED BY RF-SCORE:    0.00 PKD
ROOT
HETATM    1  C   UNL     1      -5.505  15.573  68.141  1.00  0.00    -0.124 C  
HETATM    2  C   UNL     1      -6.838  14.981  68.630  1.00  0.00    -0.109 C  
HETATM    3  C   UNL     1      -6.606  13.502  68.960  1.00  0.00    -0.110 C  
HETATM    4  O   UNL     1      -7.513  12.525  68.493  1.00  0.00    -0.116 OA 
HETATM    5  C   UNL     1      -8.397  12.843  67.503  1.00  0.00    -0.183 A  
HETATM    6  C   UNL     1      -8.609  14.176  67.107  1.00  0.00    -0.214 A  
HETATM    7  N   UNL     1      -7.906  15.262  67.658  1.00  0.00    -0.144 NA 
HETATM    8  C   UNL     1      -8.273  16.557  67.313  1.00  0.00    -0.173 C  
HETATM    9  C   UNL     1      -9.203  16.910  66.412  1.00  0.00    -0.308 C  
HETATM   10  C   UNL     1      -9.915  15.811  65.739  1.00  0.00    -0.358 C  
HETATM   11  C   UNL     1      -9.456  18.341  66.144  1.00  0.00    -0.155 C  
HETATM   12  C   UNL     1      -9.597  14.420  66.131  1.00  0.00    -0.309 A  
HETATM   13  O   UNL     1      -8.855  19.243  66.708  1.00  0.00    -0.291 OA 
HETATM   14  O   UNL     1     -10.403  18.577  65.214  1.00  0.00    -0.348 OA 
HETATM   15  O   UNL     1     -10.766  16.066  64.887  1.00  0.00    -0.576 OA 
HETATM   16  C   UNL     1     -10.317  13.387  65.544  1.00  0.00    -0.302 A  
HETATM   17  C   UNL     1     -10.069  12.084  65.938  1.00  0.00    -0.236 A  
HETATM   18  C   UNL     1      -9.116  11.752  66.925  1.00  0.00    -0.192 A  
HETATM   19  F   UNL     1     -10.841  11.131  65.389  1.00  0.00    -0.330 F  
ENDROOT
BRANCH  18  20
HETATM   20  N   UNL     1      -8.967  10.424  67.323  1.00  0.00    -0.135 NA 
HETATM   21  C   UNL     1      -8.136   9.463  66.586  1.00  0.00    -0.108 C  
HETATM   22  C   UNL     1      -7.436   8.499  67.575  1.00  0.00    -0.093 C  
HETATM   23  N   UNL     1      -8.318   7.828  68.555  1.00  0.00    -0.128 NA 
HETATM   24  C   UNL     1      -9.154   8.856  69.224  1.00  0.00    -0.145 C  
HETATM   25  C   UNL     1      -9.137   6.803  67.917  1.00  0.00    -0.114 C  
HETATM   26  C   UNL     1      -9.914   9.810  68.271  1.00  0.00    -0.153 C  
ENDBRANCH  18  20
TORSDOF 1
ENDMDL
MODEL       61
REMARK 921   NORMALIZED FREE ENERGY PREDICTED BY IDOCK:   -5.15 KCAL/MOL
REMARK 922        TOTAL FREE ENERGY PREDICTED BY IDOCK:   -5.85 KCAL/MOL
REMARK 923 INTER-LIGAND FREE ENERGY PREDICTED BY IDOCK:   -5.42 KCAL/MOL
REMARK 924 INTRA-LIGAND FREE ENERGY PREDICTED BY IDOCK:   -0.43 KCAL/MOL
REMARK 927      BINDING AFFINITY PREDICTED BY RF-SCORE:    0.00 PKD
ROOT
HETATM    1  C   UNL     1     -13.163  11.453  71.664  1.00  0.00    -0.413 C  
HETATM    2  C   UNL     1     -12.546  10.253  70.924  1.00  0.00    -0.371 C  
HETATM    3  C   UNL     1     -12.129   9.215  71.971  1.00  0.00    -0.361 C  
HETATM    4  O   UNL     1     -10.851   8.616  71.901  1.00  0.00    -0.297 OA 
HETATM    5  C   UNL     1      -9.886   9.176  71.115  1.00  0.00    -0.301 A  
HETATM    6  C   UNL     1     -10.192  10.180  70.178  1.00  0.00    -0.179 A  
HETATM    7  N   UNL     1     -11.484  10.710  70.013  1.00  0.00    -0.299 NA 
HETATM    8  C   UNL     1     -11.730  11.597  68.973  1.00  0.00    -0.324 C  
HETATM    9  C   UNL     1     -10.823  12.098  68.120  1.00  0.00    -0.256 C  
HETATM   10  C   UNL     1      -9.433  11.643  68.297  1.00  0.00    -0.191 C  
HETATM   11  C   UNL     1     -11.249  13.055  67.078  1.00  0.00    -0.289 C  
HETATM   12  C   UNL     1      -9.148  10.647  69.353  1.00  0.00    -0.064 A  
HETATM   13  O   UNL     1     -12.405  13.426  66.944  1.00  0.00    -0.328 OA 
HETATM   14  O   UNL     1     -10.252  13.500  66.286  1.00  0.00    -0.285 OA 
HETATM   15  O   UNL     1      -8.549  12.081  67.562  1.00  0.00    -0.152 OA 
HETATM   16  C   UNL     1      -7.848  10.169  69.475  1.00  0.00    -0.165 A  
HETATM   17  C   UNL     1      -7.574   9.198  70.423  1.00  0.00    -0.115 A  
HETATM   18  C   UNL     1      -8.564   8.658  71.272  1.00  0.00    -0.187 A  
HETATM   19  F   UNL     1      -6.318   8.722  70.452  1.00  0.00    -0.035 F  
ENDROOT
BRANCH  18  20
HETATM   20  N   UNL     1      -8.231   7.632  72.155  1.00  0.00    -0.102 NA 
HETATM   21  C   UNL     1      -7.631   7.882  73.473  1.00  0.00    -0.147 C  
HETATM   22  C   UNL     1      -8.172   6.862  74.504  1.00  0.00    -0.149 C  
HETATM   23  N   UNL     1      -8.076   5.438  74.115  1.00  0.00    -0.109 NA 
HETATM   24  C   UNL     1      -8.660   5.274  72.761  1.00  0.00    -0.120 C  
HETATM   25  C   UNL     1      -6.695   4.967  74.165  1.00  0.00    -0.071 C  
HETATM   26  C   UNL     1      -8.109   6.241  71.685  1.00  0.00    -0.106 C  
ENDBRANCH  18  20
TORSDOF 1
ENDMDL
MODEL       62
REMARK 921   NORMALIZED FREE ENERGY PREDICTED BY IDOCK:   -5.10 KCAL/MOL
REMARK 922        TOTAL FREE ENERGY PREDICTED BY IDOCK:   -5.79 KCAL/MOL
REMARK 923 INTER-LIGAND FREE ENERGY PREDICTED BY IDOCK:   -5.38 KCAL/MOL
REMARK 924 INTRA-LIGAND FREE ENERGY PREDICTED BY IDOCK:   -0.41 KCAL/MOL
REMARK 927      BINDING AFFINITY PREDICTED BY RF-SCORE:    0.00 PKD
ROOT
HETATM    1  C   UNL     1     -12.151  14.403  66.686  1.00  0.00    -0.392 C  
HETATM    2  C   UNL     1     -11.099  13.379  66.227  1.00  0.00    -0.293 C  
HETATM    3  C   UNL     1     -11.612  11.981  66.587  1.00  0.00    -0.319 C  
HETATM    4  O   UNL     1     -10.753  11.056  67.222  1.00  0.00    -0.233 OA 
HETATM    5  C   UNL     1      -9.594  11.495  67.795  1.00  0.00    -0.175 A  
HETATM    6  C   UNL     1      -9.102  12.791  67.558  1.00  0.00    -0.193 A  
HETATM    7  N   UNL     1      -9.775  13.736  66.762  1.00  0.00    -0.267 NA 
HETATM    8  C   UNL     1      -9.155  14.942  66.464  1.00  0.00    -0.277 C  
HETATM    9  C   UNL     1      -7.973  15.370  66.935  1.00  0.00    -0.230 C  
HETATM   10  C   UNL     1      -7.258  14.456  67.842  1.00  0.00    -0.160 C  
HETATM   11  C   UNL     1      -7.463  16.698  66.534  1.00  0.00    -0.271 C  
HETATM   12  C   UNL     1      -7.859  13.135  68.127  1.00  0.00    -0.145 A  
HETATM   13  O   UNL     1      -8.068  17.447  65.783  1.00  0.00    -0.543 OA 
HETATM   14  O   UNL     1      -6.272  17.027  67.076  1.00  0.00    -0.153 OA 
HETATM   15  O   UNL     1      -6.178  14.796  68.325  1.00  0.00    -0.104 OA 
HETATM   16  C   UNL     1      -7.151  12.247  68.930  1.00  0.00    -0.088 A  
HETATM   17  C   UNL     1      -7.673  10.987  69.164  1.00  0.00    -0.102 A  
HETATM   18  C   UNL     1      -8.898  10.553  68.613  1.00  0.00    -0.147 A  
HETATM   19  F   UNL     1      -6.917  10.146  69.889  1.00  0.00    -0.068 F  
ENDROOT
BRANCH  18  20
HETATM   20  N   UNL     1      -9.330   9.247  68.834  1.00  0.00    -0.149 NA 
HETATM   21  C   UNL     1      -9.862   8.794  70.127  1.00  0.00    -0.176 C  
HETATM   22  C   UNL     1     -11.005   7.774  69.903  1.00  0.00    -0.190 C  
HETATM   23  N   UNL     1     -10.691   6.639  69.007  1.00  0.00    -0.236 NA 
HETATM   24  C   UNL     1     -10.120   7.172  67.746  1.00  0.00    -0.172 C  
HETATM   25  C   UNL     1      -9.783   5.693  69.649  1.00  0.00    -0.169 C  
HETATM   26  C   UNL     1      -8.939   8.158  67.922  1.00  0.00    -0.133 C  
ENDBRANCH  18  20
TORSDOF 1
ENDMDL
MODEL       63
REMARK 921   NORMALIZED FREE ENERGY PREDICTED BY IDOCK:   -5.06 KCAL/MOL
REMARK 922        TOTAL FREE ENERGY PREDICTED BY IDOCK:   -5.75 KCAL/MOL
REMARK 923 INTER-LIGAND FREE ENERGY PREDICTED BY IDOCK:   -5.32 KCAL/MOL
REMARK 924 INTRA-LIGAND FREE ENERGY PREDICTED BY IDOCK:   -0.43 KCAL/MOL
REMARK 927      BINDING AFFINITY PREDICTED BY RF-SCORE:    0.00 PKD
ROOT
HETATM    1  C   UNL     1      -5.896  12.391  67.681  1.00  0.00    -0.127 C  
HETATM    2  C   UNL     1      -6.893  12.367  68.852  1.00  0.00    -0.099 C  
HETATM    3  C   UNL     1      -6.406  11.326  69.866  1.00  0.00    -0.142 C  
HETATM    4  O   UNL     1      -7.314  10.388  70.405  1.00  0.00    -0.245 OA 
HETATM    5  C   UNL     1      -8.524  10.197  69.802  1.00  0.00    -0.128 A  
HETATM    6  C   UNL     1      -9.002  11.080  68.816  1.00  0.00    -0.149 A  
HETATM    7  N   UNL     1      -8.263  12.182  68.349  1.00  0.00    -0.157 NA 
HETATM    8  C   UNL     1      -8.862  13.083  67.477  1.00  0.00    -0.195 C  
HETATM    9  C   UNL     1     -10.085  12.978  66.936  1.00  0.00    -0.243 C  
HETATM   10  C   UNL     1     -10.876  11.798  67.325  1.00  0.00    -0.253 C  
HETATM   11  C   UNL     1     -10.565  14.019  66.003  1.00  0.00    -0.297 C  
HETATM   12  C   UNL     1     -10.295  10.852  68.303  1.00  0.00    -0.194 A  
HETATM   13  O   UNL     1      -9.897  14.992  65.687  1.00  0.00    -0.329 OA 
HETATM   14  O   UNL     1     -11.803  13.805  65.514  1.00  0.00    -0.335 OA 
HETATM   15  O   UNL     1     -11.998  11.631  66.849  1.00  0.00    -0.567 OA 
HETATM   16  C   UNL     1     -11.069   9.775  68.720  1.00  0.00    -0.140 A  
HETATM   17  C   UNL     1     -10.562   8.911  69.674  1.00  0.00    -0.226 A  
HETATM   18  C   UNL     1      -9.287   9.079  70.258  1.00  0.00    -0.198 A  
HETATM   19  F   UNL     1     -11.377   7.927  70.090  1.00  0.00    -0.265 F  
ENDROOT
BRANCH  18  20
HETATM   20  N   UNL     1      -8.869   8.210  71.264  1.00  0.00    -0.137 NA 
HETATM   21  C   UNL     1      -8.279   6.894  70.983  1.00  0.00    -0.118 C  
HETATM   22  C   UNL     1      -7.169   6.579  72.015  1.00  0.00    -0.086 C  
HETATM   23  N   UNL     1      -7.550   6.720  73.437  1.00  0.00    -0.086 NA 
HETATM   24  C   UNL     1      -8.176   8.051  73.632  1.00  0.00    -0.227 C  
HETATM   25  C   UNL     1      -8.441   5.642  73.856  1.00  0.00    -0.112 C  
HETATM   26  C   UNL     1      -9.328   8.387  72.653  1.00  0.00    -0.264 C  
ENDBRANCH  18  20
TORSDOF 1
ENDMDL
MODEL       64
REMARK 921   NORMALIZED FREE ENERGY PREDICTED BY IDOCK:   -5.04 KCAL/MOL
REMARK 922        TOTAL FREE ENERGY PREDICTED BY IDOCK:   -5.74 KCAL/MOL
REMARK 923 INTER-LIGAND FREE ENERGY PREDICTED BY IDOCK:   -5.44 KCAL/MOL
REMARK 924 INTRA-LIGAND FREE ENERGY PREDICTED BY IDOCK:   -0.30 KCAL/MOL
REMARK 927      BINDING AFFINITY PREDICTED BY RF-SCORE:    0.00 PKD
ROOT
HETATM    1  C   UNL     1     -11.203   7.861  70.476  1.00  0.00    -0.259 C  
HETATM    2  C   UNL     1     -10.126   8.774  69.867  1.00  0.00    -0.191 C  
HETATM    3  C   UNL     1     -10.764  10.139  69.591  1.00  0.00    -0.264 C  
HETATM    4  O   UNL     1     -10.559  10.775  68.346  1.00  0.00    -0.175 OA 
HETATM    5  C   UNL     1     -10.075  10.055  67.292  1.00  0.00    -0.209 A  
HETATM    6  C   UNL     1      -9.534   8.768  67.468  1.00  0.00    -0.141 A  
HETATM    7  N   UNL     1      -9.493   8.115  68.713  1.00  0.00    -0.147 NA 
HETATM    8  C   UNL     1      -8.819   6.906  68.827  1.00  0.00    -0.132 C  
HETATM    9  C   UNL     1      -8.248   6.213  67.830  1.00  0.00    -0.117 C  
HETATM   10  C   UNL     1      -8.332   6.808  66.485  1.00  0.00    -0.121 C  
HETATM   11  C   UNL     1      -7.586   4.924  68.119  1.00  0.00    -0.082 C  
HETATM   12  C   UNL     1      -8.985   8.128  66.339  1.00  0.00    -0.207 A  
HETATM   13  O   UNL     1      -7.526   4.441  69.240  1.00  0.00    -0.054 OA 
HETATM   14  O   UNL     1      -7.057   4.312  67.041  1.00  0.00    -0.065 OA 
HETATM   15  O   UNL     1      -7.847   6.214  65.523  1.00  0.00    -0.092 OA 
HETATM   16  C   UNL     1      -9.004   8.718  65.080  1.00  0.00    -0.152 A  
HETATM   17  C   UNL     1      -9.564   9.976  64.935  1.00  0.00    -0.310 A  
HETATM   18  C   UNL     1     -10.113  10.697  66.017  1.00  0.00    -0.250 A  
HETATM   19  F   UNL     1      -9.495  10.529  63.713  1.00  0.00    -0.221 F  
ENDROOT
BRANCH  18  20
HETATM   20  N   UNL     1     -10.598  11.988  65.811  1.00  0.00    -0.254 NA 
HETATM   21  C   UNL     1     -11.754  12.275  64.951  1.00  0.00    -0.352 C  
HETATM   22  C   UNL     1     -12.586  13.435  65.550  1.00  0.00    -0.465 C  
HETATM   23  N   UNL     1     -11.832  14.662  65.889  1.00  0.00    -0.317 NA 
HETATM   24  C   UNL     1     -10.661  14.287  66.718  1.00  0.00    -0.278 C  
HETATM   25  C   UNL     1     -11.430  15.386  64.686  1.00  0.00    -0.337 C  
HETATM   26  C   UNL     1      -9.770  13.165  66.131  1.00  0.00    -0.248 C  
ENDBRANCH  18  20
TORSDOF 1
ENDMDL
MODEL       65
REMARK 921   NORMALIZED FREE ENERGY PREDICTED BY IDOCK:   -4.92 KCAL/MOL
REMARK 922        TOTAL FREE ENERGY PREDICTED BY IDOCK:   -5.61 KCAL/MOL
REMARK 923 INTER-LIGAND FREE ENERGY PREDICTED BY IDOCK:   -5.66 KCAL/MOL
REMARK 924 INTRA-LIGAND FREE ENERGY PREDICTED BY IDOCK:    0.05 KCAL/MOL
REMARK 927      BINDING AFFINITY PREDICTED BY RF-SCORE:    0.00 PKD
ROOT
HETATM    1  C   UNL     1     -11.659  12.615  63.479  1.00  0.00    -0.584 C  
HETATM    2  C   UNL     1     -10.419  12.177  64.276  1.00  0.00    -0.339 C  
HETATM    3  C   UNL     1      -9.930  10.846  63.696  1.00  0.00    -0.359 C  
HETATM    4  O   UNL     1      -9.606   9.776  64.560  1.00  0.00    -0.273 OA 
HETATM    5  C   UNL     1     -10.021   9.809  65.860  1.00  0.00    -0.275 A  
HETATM    6  C   UNL     1     -10.542  10.983  66.435  1.00  0.00    -0.251 A  
HETATM    7  N   UNL     1     -10.714  12.180  65.717  1.00  0.00    -0.258 NA 
HETATM    8  C   UNL     1     -11.102  13.330  66.393  1.00  0.00    -0.295 C  
HETATM    9  C   UNL     1     -11.429  13.421  67.691  1.00  0.00    -0.353 C  
HETATM   10  C   UNL     1     -11.348  12.179  68.478  1.00  0.00    -0.275 C  
HETATM   11  C   UNL     1     -11.845  14.724  68.251  1.00  0.00    -0.284 C  
HETATM   12  C   UNL     1     -10.874  10.950  67.805  1.00  0.00    -0.309 A  
HETATM   13  O   UNL     1     -11.910  15.747  67.586  1.00  0.00    -0.039 OA 
HETATM   14  O   UNL     1     -12.160  14.695  69.562  1.00  0.00    -0.305 OA 
HETATM   15  O   UNL     1     -11.654  12.190  69.670  1.00  0.00    -0.298 OA 
HETATM   16  C   UNL     1     -10.734   9.794  68.565  1.00  0.00    -0.252 A  
HETATM   17  C   UNL     1     -10.242   8.648  67.964  1.00  0.00    -0.210 A  
HETATM   18  C   UNL     1      -9.862   8.601  66.605  1.00  0.00    -0.266 A  
HETATM   19  F   UNL     1     -10.062   7.580  68.759  1.00  0.00    -0.165 F  
ENDROOT
BRANCH  18  20
HETATM   20  N   UNL     1      -9.308   7.433  66.083  1.00  0.00    -0.108 NA 
HETATM   21  C   UNL     1      -8.050   7.420  65.325  1.00  0.00    -0.131 C  
HETATM   22  C   UNL     1      -7.250   6.134  65.646  1.00  0.00    -0.074 C  
HETATM   23  N   UNL     1      -7.991   4.861  65.508  1.00  0.00    -0.098 NA 
HETATM   24  C   UNL     1      -9.264   4.968  66.262  1.00  0.00    -0.144 C  
HETATM   25  C   UNL     1      -8.224   4.533  64.104  1.00  0.00    -0.106 C  
HETATM   26  C   UNL     1     -10.122   6.214  65.933  1.00  0.00     0.391 C  
ENDBRANCH  18  20
TORSDOF 1
ENDMDL
MODEL       66
REMARK 921   NORMALIZED FREE ENERGY PREDICTED BY IDOCK:   -4.90 KCAL/MOL
REMARK 922        TOTAL FREE ENERGY PREDICTED BY IDOCK:   -5.58 KCAL/MOL
REMARK 923 INTER-LIGAND FREE ENERGY PREDICTED BY IDOCK:   -5.25 KCAL/MOL
REMARK 924 INTRA-LIGAND FREE ENERGY PREDICTED BY IDOCK:   -0.33 KCAL/MOL
REMARK 927      BINDING AFFINITY PREDICTED BY RF-SCORE:    0.00 PKD
ROOT
HETATM    1  C   UNL     1      -6.250  10.313  70.595  1.00  0.00    -0.093 C  
HETATM    2  C   UNL     1      -6.511  10.797  69.159  1.00  0.00    -0.059 C  
HETATM    3  C   UNL     1      -6.653  12.322  69.192  1.00  0.00    -0.105 C  
HETATM    4  O   UNL     1      -7.722  12.946  68.512  1.00  0.00    -0.129 OA 
HETATM    5  C   UNL     1      -8.788  12.199  68.101  1.00  0.00    -0.187 A  
HETATM    6  C   UNL     1      -8.746  10.793  68.107  1.00  0.00    -0.130 A  
HETATM    7  N   UNL     1      -7.639  10.059  68.571  1.00  0.00    -0.086 NA 
HETATM    8  C   UNL     1      -7.623   8.679  68.413  1.00  0.00    -0.096 C  
HETATM    9  C   UNL     1      -8.615   7.918  67.927  1.00  0.00    -0.125 C  
HETATM   10  C   UNL     1      -9.835   8.625  67.501  1.00  0.00    -0.180 C  
HETATM   11  C   UNL     1      -8.443   6.453  67.847  1.00  0.00    -0.118 C  
HETATM   12  C   UNL     1      -9.862  10.101  67.593  1.00  0.00    -0.201 A  
HETATM   13  O   UNL     1      -7.426   5.879  68.207  1.00  0.00    -0.082 OA 
HETATM   14  O   UNL     1      -9.508   5.790  67.353  1.00  0.00    -0.111 OA 
HETATM   15  O   UNL     1     -10.791   7.984  67.065  1.00  0.00    -0.283 OA 
HETATM   16  C   UNL     1     -10.989  10.771  67.128  1.00  0.00    -0.324 A  
HETATM   17  C   UNL     1     -11.009  12.154  67.158  1.00  0.00    -0.268 A  
HETATM   18  C   UNL     1      -9.925  12.925  67.632  1.00  0.00    -0.218 A  
HETATM   19  F   UNL     1     -12.092  12.752  66.634  1.00  0.00    -0.435 F  
ENDROOT
BRANCH  18  20
HETATM   20  N   UNL     1      -9.987  14.316  67.568  1.00  0.00    -0.233 NA 
HETATM   21  C   UNL     1      -9.435  15.085  66.444  1.00  0.00    -0.297 C  
HETATM   22  C   UNL     1     -10.336  16.308  66.145  1.00  0.00    -0.341 C  
HETATM   23  N   UNL     1     -10.654  17.174  67.302  1.00  0.00    -0.306 NA 
HETATM   24  C   UNL     1     -11.162  16.323  68.407  1.00  0.00    -0.349 C  
HETATM   25  C   UNL     1      -9.491  17.954  67.716  1.00  0.00    -0.263 C  
HETATM   26  C   UNL     1     -10.265  15.116  68.774  1.00  0.00    -0.235 C  
ENDBRANCH  18  20
TORSDOF 1
ENDMDL
MODEL       67
REMARK 921   NORMALIZED FREE ENERGY PREDICTED BY IDOCK:   -4.89 KCAL/MOL
REMARK 922        TOTAL FREE ENERGY PREDICTED BY IDOCK:   -5.57 KCAL/MOL
REMARK 923 INTER-LIGAND FREE ENERGY PREDICTED BY IDOCK:   -5.14 KCAL/MOL
REMARK 924 INTRA-LIGAND FREE ENERGY PREDICTED BY IDOCK:   -0.43 KCAL/MOL
REMARK 927      BINDING AFFINITY PREDICTED BY RF-SCORE:    0.00 PKD
ROOT
HETATM    1  C   UNL     1     -10.401   9.420  71.549  1.00  0.00    -0.265 C  
HETATM    2  C   UNL     1     -11.059   8.800  70.304  1.00  0.00    -0.222 C  
HETATM    3  C   UNL     1     -10.507   7.380  70.136  1.00  0.00    -0.220 C  
HETATM    4  O   UNL     1     -10.065   6.941  68.868  1.00  0.00    -0.160 OA 
HETATM    5  C   UNL     1      -9.830   7.855  67.881  1.00  0.00    -0.165 A  
HETATM    6  C   UNL     1     -10.253   9.192  68.002  1.00  0.00    -0.211 A  
HETATM    7  N   UNL     1     -10.899   9.693  69.146  1.00  0.00    -0.214 NA 
HETATM    8  C   UNL     1     -11.408  10.986  69.130  1.00  0.00    -0.280 C  
HETATM    9  C   UNL     1     -11.279  11.882  68.141  1.00  0.00    -0.316 C  
HETATM   10  C   UNL     1     -10.538  11.441  66.947  1.00  0.00    -0.252 C  
HETATM   11  C   UNL     1     -11.865  13.230  68.293  1.00  0.00    -0.354 C  
HETATM   12  C   UNL     1     -10.039  10.049  66.903  1.00  0.00    -0.287 A  
HETATM   13  O   UNL     1     -12.475  13.584  69.291  1.00  0.00    -0.179 OA 
HETATM   14  O   UNL     1     -11.664  14.051  67.242  1.00  0.00    -0.346 OA 
HETATM   15  O   UNL     1     -10.365  12.222  66.012  1.00  0.00    -0.235 OA 
HETATM   16  C   UNL     1      -9.398   9.613  65.749  1.00  0.00    -0.286 A  
HETATM   17  C   UNL     1      -8.972   8.299  65.670  1.00  0.00    -0.109 A  
HETATM   18  C   UNL     1      -9.169   7.368  66.713  1.00  0.00    -0.156 A  
HETATM   19  F   UNL     1      -8.422   7.913  64.507  1.00  0.00    -0.139 F  
ENDROOT
BRANCH  18  20
HETATM   20  N   UNL     1      -8.776   6.042  66.538  1.00  0.00    -0.124 NA 
HETATM   21  C   UNL     1      -7.378   5.606  66.652  1.00  0.00    -0.083 C  
HETATM   22  C   UNL     1      -7.311   4.200  67.297  1.00  0.00    -0.069 C  
HETATM   23  N   UNL     1      -8.164   3.163  66.674  1.00  0.00    -0.088 NA 
HETATM   24  C   UNL     1      -9.545   3.692  66.554  1.00  0.00    -0.138 C  
HETATM   25  C   UNL     1      -7.633   2.748  65.379  1.00  0.00    -0.076 C  
HETATM   26  C   UNL     1      -9.663   5.075  65.867  1.00  0.00    -0.166 C  
ENDBRANCH  18  20
TORSDOF 1
ENDMDL
MODEL       68
REMARK 921   NORMALIZED FREE ENERGY PREDICTED BY IDOCK:   -4.88 KCAL/MOL
REMARK 922        TOTAL FREE ENERGY PREDICTED BY IDOCK:   -5.56 KCAL/MOL
REMARK 923 INTER-LIGAND FREE ENERGY PREDICTED BY IDOCK:   -6.21 KCAL/MOL
REMARK 924 INTRA-LIGAND FREE ENERGY PREDICTED BY IDOCK:    0.64 KCAL/MOL
REMARK 927      BINDING AFFINITY PREDICTED BY RF-SCORE:    0.00 PKD
ROOT
HETATM    1  C   UNL     1      -7.013  13.636  67.362  1.00  0.00    -0.075 C  
HETATM    2  C   UNL     1      -8.527  13.635  67.087  1.00  0.00    -0.174 C  
HETATM    3  C   UNL     1      -9.193  14.563  68.108  1.00  0.00    -0.195 C  
HETATM    4  O   UNL     1     -10.349  14.137  68.800  1.00  0.00    -0.235 OA 
HETATM    5  C   UNL     1     -10.684  12.814  68.803  1.00  0.00    -0.214 A  
HETATM    6  C   UNL     1     -10.063  11.897  67.935  1.00  0.00    -0.192 A  
HETATM    7  N   UNL     1      -9.035  12.256  67.045  1.00  0.00    -0.198 NA 
HETATM    8  C   UNL     1      -8.573  11.322  66.126  1.00  0.00    -0.156 C  
HETATM    9  C   UNL     1      -8.946  10.036  66.037  1.00  0.00    -0.174 C  
HETATM   10  C   UNL     1      -9.961   9.579  67.001  1.00  0.00    -0.213 C  
HETATM   11  C   UNL     1      -8.336   9.166  65.010  1.00  0.00    -0.158 C  
HETATM   12  C   UNL     1     -10.524  10.564  67.951  1.00  0.00    -0.247 A  
HETATM   13  O   UNL     1      -7.492   9.558  64.218  1.00  0.00    -0.109 OA 
HETATM   14  O   UNL     1      -8.778   7.892  65.021  1.00  0.00    -0.051 OA 
HETATM   15  O   UNL     1     -10.332   8.406  66.987  1.00  0.00    -0.277 OA 
HETATM   16  C   UNL     1     -11.530  10.147  68.815  1.00  0.00    -0.110 A  
HETATM   17  C   UNL     1     -12.105  11.069  69.673  1.00  0.00    -0.340 A  
HETATM   18  C   UNL     1     -11.721  12.427  69.706  1.00  0.00    -0.291 A  
HETATM   19  F   UNL     1     -13.119  10.629  70.437  1.00  0.00    -0.378 F  
ENDROOT
BRANCH  18  20
HETATM   20  N   UNL     1     -12.391  13.314  70.547  1.00  0.00    -0.339 NA 
HETATM   21  C   UNL     1     -12.504  14.750  70.259  1.00  0.00    -0.340 C  
HETATM   22  C   UNL     1     -13.887  15.275  70.716  1.00  0.00    -0.103 C  
HETATM   23  N   UNL     1     -14.268  14.960  72.110  1.00  0.00    -0.496 NA 
HETATM   24  C   UNL     1     -14.086  13.505  72.336  1.00  0.00    -0.461 C  
HETATM   25  C   UNL     1     -13.496  15.753  73.063  1.00  0.00    -0.583 C  
HETATM   26  C   UNL     1     -12.697  12.946  71.941  1.00  0.00    -0.096 C  
ENDBRANCH  18  20
TORSDOF 1
ENDMDL
MODEL       69
REMARK 921   NORMALIZED FREE ENERGY PREDICTED BY IDOCK:   -4.87 KCAL/MOL
REMARK 922        TOTAL FREE ENERGY PREDICTED BY IDOCK:   -5.55 KCAL/MOL
REMARK 923 INTER-LIGAND FREE ENERGY PREDICTED BY IDOCK:   -5.24 KCAL/MOL
REMARK 924 INTRA-LIGAND FREE ENERGY PREDICTED BY IDOCK:   -0.31 KCAL/MOL
REMARK 927      BINDING AFFINITY PREDICTED BY RF-SCORE:    0.00 PKD
ROOT
HETATM    1  C   UNL     1     -10.510   6.631  73.920  1.00  0.00    -0.351 C  
HETATM    2  C   UNL     1      -9.484   7.048  72.853  1.00  0.00    -0.146 C  
HETATM    3  C   UNL     1      -9.687   8.538  72.558  1.00  0.00    -0.256 C  
HETATM    4  O   UNL     1      -9.742   8.992  71.221  1.00  0.00    -0.262 OA 
HETATM    5  C   UNL     1      -9.934   8.094  70.212  1.00  0.00    -0.189 A  
HETATM    6  C   UNL     1      -9.826   6.708  70.430  1.00  0.00    -0.175 A  
HETATM    7  N   UNL     1      -9.562   6.147  71.693  1.00  0.00    -0.152 NA 
HETATM    8  C   UNL     1      -9.334   4.781  71.797  1.00  0.00    -0.141 C  
HETATM    9  C   UNL     1      -9.421   3.879  70.807  1.00  0.00    -0.233 C  
HETATM   10  C   UNL     1      -9.777   4.397  69.476  1.00  0.00    -0.210 C  
HETATM   11  C   UNL     1      -9.167   2.452  71.094  1.00  0.00    -0.120 C  
HETATM   12  C   UNL     1      -9.963   5.856  69.315  1.00  0.00    -0.224 A  
HETATM   13  O   UNL     1      -8.875   2.034  72.204  1.00  0.00    -0.067 OA 
HETATM   14  O   UNL     1      -9.294   1.635  70.028  1.00  0.00    -0.098 OA 
HETATM   15  O   UNL     1      -9.895   3.620  68.529  1.00  0.00    -0.065 OA 
HETATM   16  C   UNL     1     -10.233   6.351  68.044  1.00  0.00    -0.195 A  
HETATM   17  C   UNL     1     -10.356   7.718  67.866  1.00  0.00    -0.217 A  
HETATM   18  C   UNL     1     -10.210   8.643  68.922  1.00  0.00    -0.207 A  
HETATM   19  F   UNL     1     -10.548   8.147  66.607  1.00  0.00    -0.384 F  
ENDROOT
BRANCH  18  20
HETATM   20  N   UNL     1     -10.278  10.010  68.657  1.00  0.00    -0.172 NA 
HETATM   21  C   UNL     1      -9.100  10.809  68.294  1.00  0.00    -0.157 C  
HETATM   22  C   UNL     1      -9.491  11.888  67.255  1.00  0.00    -0.175 C  
HETATM   23  N   UNL     1     -10.646  12.740  67.613  1.00  0.00    -0.217 NA 
HETATM   24  C   UNL     1     -11.777  11.865  68.009  1.00  0.00    -0.312 C  
HETATM   25  C   UNL     1     -10.301  13.684  68.671  1.00  0.00    -0.219 C  
HETATM   26  C   UNL     1     -11.444  10.804  69.085  1.00  0.00    -0.298 C  
ENDBRANCH  18  20
TORSDOF 1
ENDMDL
MODEL       70
REMARK 921   NORMALIZED FREE ENERGY PREDICTED BY IDOCK:   -4.82 KCAL/MOL
REMARK 922        TOTAL FREE ENERGY PREDICTED BY IDOCK:   -5.50 KCAL/MOL
REMARK 923 INTER-LIGAND FREE ENERGY PREDICTED BY IDOCK:   -5.12 KCAL/MOL
REMARK 924 INTRA-LIGAND FREE ENERGY PREDICTED BY IDOCK:   -0.39 KCAL/MOL
REMARK 927      BINDING AFFINITY PREDICTED BY RF-SCORE:    0.00 PKD
ROOT
HETATM    1  C   UNL     1     -10.596   7.390  69.597  1.00  0.00    -0.243 C  
HETATM    2  C   UNL     1      -9.535   8.462  69.296  1.00  0.00    -0.155 C  
HETATM    3  C   UNL     1      -9.995   9.776  69.936  1.00  0.00    -0.245 C  
HETATM    4  O   UNL     1      -9.949  10.976  69.192  1.00  0.00    -0.195 OA 
HETATM    5  C   UNL     1      -9.803  10.925  67.836  1.00  0.00    -0.172 A  
HETATM    6  C   UNL     1      -9.445   9.733  67.180  1.00  0.00    -0.154 A  
HETATM    7  N   UNL     1      -9.257   8.512  67.853  1.00  0.00    -0.139 NA 
HETATM    8  C   UNL     1      -8.770   7.416  67.152  1.00  0.00    -0.121 C  
HETATM    9  C   UNL     1      -8.525   7.355  65.834  1.00  0.00    -0.155 C  
HETATM   10  C   UNL     1      -8.784   8.582  65.061  1.00  0.00    -0.088 C  
HETATM   11  C   UNL     1      -8.027   6.098  65.239  1.00  0.00    -0.115 C  
HETATM   12  C   UNL     1      -9.241   9.788  65.786  1.00  0.00    -0.242 A  
HETATM   13  O   UNL     1      -7.819   5.086  65.892  1.00  0.00    -0.090 OA 
HETATM   14  O   UNL     1      -7.827   6.149  63.906  1.00  0.00    -0.104 OA 
HETATM   15  O   UNL     1      -8.601   8.587  63.844  1.00  0.00    -0.087 OA 
HETATM   16  C   UNL     1      -9.420  10.963  65.065  1.00  0.00    -0.274 A  
HETATM   17  C   UNL     1      -9.796  12.114  65.736  1.00  0.00    -0.245 A  
HETATM   18  C   UNL     1      -9.997  12.153  67.133  1.00  0.00    -0.200 A  
HETATM   19  F   UNL     1      -9.888  13.236  65.003  1.00  0.00    -0.266 F  
ENDROOT
BRANCH  18  20
HETATM   20  N   UNL     1     -10.307  13.363  67.752  1.00  0.00    -0.237 NA 
HETATM   21  C   UNL     1     -11.688  13.818  67.961  1.00  0.00    -0.355 C  
HETATM   22  C   UNL     1     -11.802  14.566  69.311  1.00  0.00    -0.323 C  
HETATM   23  N   UNL     1     -10.824  15.654  69.530  1.00  0.00    -0.247 NA 
HETATM   24  C   UNL     1      -9.462  15.131  69.259  1.00  0.00    -0.212 C  
HETATM   25  C   UNL     1     -11.128  16.816  68.701  1.00  0.00    -0.247 C  
HETATM   26  C   UNL     1      -9.290  14.419  67.895  1.00  0.00    -0.203 C  
ENDBRANCH  18  20
TORSDOF 1
ENDMDL
MODEL       71
REMARK 921   NORMALIZED FREE ENERGY PREDICTED BY IDOCK:   -4.77 KCAL/MOL
REMARK 922        TOTAL FREE ENERGY PREDICTED BY IDOCK:   -5.44 KCAL/MOL
REMARK 923 INTER-LIGAND FREE ENERGY PREDICTED BY IDOCK:   -5.70 KCAL/MOL
REMARK 924 INTRA-LIGAND FREE ENERGY PREDICTED BY IDOCK:    0.25 KCAL/MOL
REMARK 927      BINDING AFFINITY PREDICTED BY RF-SCORE:    0.00 PKD
ROOT
HETATM    1  C   UNL     1      -9.267   6.687  69.262  1.00  0.00    -0.140 C  
HETATM    2  C   UNL     1      -8.899   8.180  69.261  1.00  0.00    -0.144 C  
HETATM    3  C   UNL     1      -9.691   8.864  70.380  1.00  0.00    -0.191 C  
HETATM    4  O   UNL     1     -10.371  10.076  70.124  1.00  0.00    -0.263 OA 
HETATM    5  C   UNL     1     -10.590  10.467  68.834  1.00  0.00    -0.216 A  
HETATM    6  C   UNL     1      -9.943   9.837  67.755  1.00  0.00    -0.168 A  
HETATM    7  N   UNL     1      -9.071   8.745  67.913  1.00  0.00    -0.139 NA 
HETATM    8  C   UNL     1      -8.367   8.270  66.814  1.00  0.00    -0.107 C  
HETATM    9  C   UNL     1      -8.487   8.693  65.546  1.00  0.00    -0.181 C  
HETATM   10  C   UNL     1      -9.448   9.782  65.305  1.00  0.00    -0.279 C  
HETATM   11  C   UNL     1      -7.674   8.063  64.485  1.00  0.00    -0.125 C  
HETATM   12  C   UNL     1     -10.167  10.356  66.464  1.00  0.00    -0.289 A  
HETATM   13  O   UNL     1      -6.881   7.158  64.698  1.00  0.00    -0.048 OA 
HETATM   14  O   UNL     1      -7.885   8.560  63.249  1.00  0.00    -0.137 OA 
HETATM   15  O   UNL     1      -9.621  10.202  64.161  1.00  0.00    -0.290 OA 
HETATM   16  C   UNL     1     -11.025  11.428  66.243  1.00  0.00    -0.303 A  
HETATM   17  C   UNL     1     -11.664  12.011  67.323  1.00  0.00    -0.269 A  
HETATM   18  C   UNL     1     -11.478  11.571  68.651  1.00  0.00    -0.293 A  
HETATM   19  F   UNL     1     -12.427  13.086  67.063  1.00  0.00    -0.332 F  
ENDROOT
BRANCH  18  20
HETATM   20  N   UNL     1     -12.100  12.250  69.698  1.00  0.00    -0.253 NA 
HETATM   21  C   UNL     1     -12.999  11.586  70.652  1.00  0.00     0.057 C  
HETATM   22  C   UNL     1     -12.817  12.195  72.064  1.00  0.00    -0.151 C  
HETATM   23  N   UNL     1     -12.914  13.669  72.148  1.00  0.00    -0.338 NA 
HETATM   24  C   UNL     1     -12.015  14.264  71.129  1.00  0.00    -0.282 C  
HETATM   25  C   UNL     1     -14.292  14.120  71.978  1.00  0.00    -0.512 C  
HETATM   26  C   UNL     1     -12.199  13.720  69.691  1.00  0.00    -0.305 C  
ENDBRANCH  18  20
TORSDOF 1
ENDMDL
MODEL       72
REMARK 921   NORMALIZED FREE ENERGY PREDICTED BY IDOCK:   -4.74 KCAL/MOL
REMARK 922        TOTAL FREE ENERGY PREDICTED BY IDOCK:   -5.41 KCAL/MOL
REMARK 923 INTER-LIGAND FREE ENERGY PREDICTED BY IDOCK:   -5.08 KCAL/MOL
REMARK 924 INTRA-LIGAND FREE ENERGY PREDICTED BY IDOCK:   -0.33 KCAL/MOL
REMARK 927      BINDING AFFINITY PREDICTED BY RF-SCORE:    0.00 PKD
ROOT
HETATM    1  C   UNL     1     -10.517  12.096  65.236  1.00  0.00    -0.311 C  
HETATM    2  C   UNL     1      -9.491  11.553  66.245  1.00  0.00    -0.217 C  
HETATM    3  C   UNL     1      -8.824  10.321  65.624  1.00  0.00    -0.168 C  
HETATM    4  O   UNL     1      -8.677   9.139  66.384  1.00  0.00    -0.124 OA 
HETATM    5  C   UNL     1      -9.397   8.983  67.534  1.00  0.00    -0.135 A  
HETATM    6  C   UNL     1     -10.087  10.060  68.121  1.00  0.00    -0.159 A  
HETATM    7  N   UNL     1     -10.127  11.347  67.555  1.00  0.00    -0.182 NA 
HETATM    8  C   UNL     1     -10.712  12.386  68.268  1.00  0.00    -0.230 C  
HETATM    9  C   UNL     1     -11.347  12.288  69.446  1.00  0.00    -0.294 C  
HETATM   10  C   UNL     1     -11.411  10.946  70.048  1.00  0.00    -0.307 C  
HETATM   11  C   UNL     1     -11.938  13.495  70.061  1.00  0.00    -0.340 C  
HETATM   12  C   UNL     1     -10.740   9.828  69.349  1.00  0.00    -0.250 A  
HETATM   13  O   UNL     1     -11.880  14.603  69.549  1.00  0.00    -0.295 OA 
HETATM   14  O   UNL     1     -12.560  13.277  71.237  1.00  0.00    -0.358 OA 
HETATM   15  O   UNL     1     -11.997  10.784  71.118  1.00  0.00    -0.329 OA 
HETATM   16  C   UNL     1     -10.743   8.576  69.952  1.00  0.00    -0.224 A  
HETATM   17  C   UNL     1     -10.075   7.531  69.337  1.00  0.00    -0.190 A  
HETATM   18  C   UNL     1      -9.375   7.681  68.121  1.00  0.00    -0.144 A  
HETATM   19  F   UNL     1     -10.052   6.360  69.996  1.00  0.00    -0.175 F  
ENDROOT
BRANCH  18  20
HETATM   20  N   UNL     1      -8.666   6.603  67.594  1.00  0.00    -0.119 NA 
HETATM   21  C   UNL     1      -7.235   6.392  67.850  1.00  0.00    -0.087 C  
HETATM   22  C   UNL     1      -6.936   4.878  67.978  1.00  0.00    -0.061 C  
HETATM   23  N   UNL     1      -7.430   4.027  66.874  1.00  0.00    -0.072 NA 
HETATM   24  C   UNL     1      -8.865   4.328  66.647  1.00  0.00    -0.116 C  
HETATM   25  C   UNL     1      -6.643   4.222  65.660  1.00  0.00    -0.047 C  
HETATM   26  C   UNL     1      -9.203   5.828  66.462  1.00  0.00    -0.143 C  
ENDBRANCH  18  20
TORSDOF 1
ENDMDL
MODEL       73
REMARK 921   NORMALIZED FREE ENERGY PREDICTED BY IDOCK:   -4.64 KCAL/MOL
REMARK 922        TOTAL FREE ENERGY PREDICTED BY IDOCK:   -5.31 KCAL/MOL
REMARK 923 INTER-LIGAND FREE ENERGY PREDICTED BY IDOCK:   -5.00 KCAL/MOL
REMARK 924 INTRA-LIGAND FREE ENERGY PREDICTED BY IDOCK:   -0.31 KCAL/MOL
REMARK 927      BINDING AFFINITY PREDICTED BY RF-SCORE:    0.00 PKD
ROOT
HETATM    1  C   UNL     1      -5.137  15.389  67.667  1.00  0.00    -0.025 C  
HETATM    2  C   UNL     1      -6.387  15.430  68.563  1.00  0.00    -0.097 C  
HETATM    3  C   UNL     1      -6.669  14.003  69.047  1.00  0.00    -0.109 C  
HETATM    4  O   UNL     1      -7.980  13.482  68.981  1.00  0.00     0.025 OA 
HETATM    5  C   UNL     1      -8.917  14.108  68.210  1.00  0.00    -0.188 A  
HETATM    6  C   UNL     1      -8.694  15.392  67.681  1.00  0.00    -0.167 A  
HETATM    7  N   UNL     1      -7.493  16.101  67.862  1.00  0.00    -0.124 NA 
HETATM    8  C   UNL     1      -7.405  17.416  67.425  1.00  0.00    -0.168 C  
HETATM    9  C   UNL     1      -8.342  18.096  66.746  1.00  0.00    -0.270 C  
HETATM   10  C   UNL     1      -9.593  17.376  66.453  1.00  0.00    -0.276 C  
HETATM   11  C   UNL     1      -8.079  19.491  66.334  1.00  0.00    -0.320 C  
HETATM   12  C   UNL     1      -9.746  15.995  66.961  1.00  0.00    -0.235 A  
HETATM   13  O   UNL     1      -7.035  20.075  66.581  1.00  0.00    -0.213 OA 
HETATM   14  O   UNL     1      -9.085  20.071  65.648  1.00  0.00    -0.245 OA 
HETATM   15  O   UNL     1     -10.484  17.936  65.815  1.00  0.00    -0.564 OA 
HETATM   16  C   UNL     1     -10.953  15.341  66.741  1.00  0.00    -0.306 A  
HETATM   17  C   UNL     1     -11.133  14.069  67.256  1.00  0.00    -0.302 A  
HETATM   18  C   UNL     1     -10.142  13.402  68.008  1.00  0.00    -0.241 A  
HETATM   19  F   UNL     1     -12.341  13.511  67.074  1.00  0.00    -0.409 F  
ENDROOT
BRANCH  18  20
HETATM   20  N   UNL     1     -10.417  12.149  68.555  1.00  0.00    -0.230 NA 
HETATM   21  C   UNL     1     -11.004  11.977  69.891  1.00  0.00     0.357 C  
HETATM   22  C   UNL     1     -11.977  10.772  69.892  1.00  0.00    -0.342 C  
HETATM   23  N   UNL     1     -11.433   9.503  69.360  1.00  0.00     0.059 NA 
HETATM   24  C   UNL     1     -10.821   9.767  68.034  1.00  0.00    -0.223 C  
HETATM   25  C   UNL     1     -10.473   8.909  70.285  1.00  0.00    -0.210 C  
HETATM   26  C   UNL     1      -9.802  10.932  67.998  1.00  0.00    -0.171 C  
ENDBRANCH  18  20
TORSDOF 1
ENDMDL
MODEL       74
REMARK 921   NORMALIZED FREE ENERGY PREDICTED BY IDOCK:   -4.57 KCAL/MOL
REMARK 922        TOTAL FREE ENERGY PREDICTED BY IDOCK:   -5.23 KCAL/MOL
REMARK 923 INTER-LIGAND FREE ENERGY PREDICTED BY IDOCK:   -4.91 KCAL/MOL
REMARK 924 INTRA-LIGAND FREE ENERGY PREDICTED BY IDOCK:   -0.32 KCAL/MOL
REMARK 927      BINDING AFFINITY PREDICTED BY RF-SCORE:    0.00 PKD
ROOT
HETATM    1  C   UNL     1     -10.573  16.095  68.004  1.00  0.00    -0.304 C  
HETATM    2  C   UNL     1      -9.635  14.956  68.441  1.00  0.00    -0.209 C  
HETATM    3  C   UNL     1      -8.654  14.686  67.296  1.00  0.00    -0.214 C  
HETATM    4  O   UNL     1      -8.406  13.360  66.877  1.00  0.00    -0.125 OA 
HETATM    5  C   UNL     1      -9.256  12.362  67.260  1.00  0.00    -0.187 A  
HETATM    6  C   UNL     1     -10.224  12.564  68.260  1.00  0.00    -0.234 A  
HETATM    7  N   UNL     1     -10.420  13.800  68.902  1.00  0.00    -0.210 NA 
HETATM    8  C   UNL     1     -11.300  13.880  69.974  1.00  0.00    -0.063 C  
HETATM    9  C   UNL     1     -12.083  12.894  70.439  1.00  0.00    -0.385 C  
HETATM   10  C   UNL     1     -11.983  11.596  69.751  1.00  0.00    -0.332 C  
HETATM   11  C   UNL     1     -12.984  13.153  71.581  1.00  0.00    -0.335 C  
HETATM   12  C   UNL     1     -11.007  11.457  68.648  1.00  0.00    -0.267 A  
HETATM   13  O   UNL     1     -13.059  14.237  72.141  1.00  0.00    -0.335 OA 
HETATM   14  O   UNL     1     -13.732  12.095  71.955  1.00  0.00    -0.278 OA 
HETATM   15  O   UNL     1     -12.689  10.656  70.115  1.00  0.00    -0.308 OA 
HETATM   16  C   UNL     1     -10.866  10.213  68.044  1.00  0.00    -0.320 A  
HETATM   17  C   UNL     1      -9.921  10.052  67.046  1.00  0.00    -0.205 A  
HETATM   18  C   UNL     1      -9.078  11.100  66.615  1.00  0.00    -0.170 A  
HETATM   19  F   UNL     1      -9.778   8.814  66.545  1.00  0.00    -0.228 F  
ENDROOT
BRANCH  18  20
HETATM   20  N   UNL     1      -8.101  10.848  65.653  1.00  0.00    -0.111 NA 
HETATM   21  C   UNL     1      -6.683  10.666  65.990  1.00  0.00    -0.128 C  
HETATM   22  C   UNL     1      -6.050   9.599  65.065  1.00  0.00    -0.085 C  
HETATM   23  N   UNL     1      -6.250   9.803  63.613  1.00  0.00    -0.109 NA 
HETATM   24  C   UNL     1      -7.695  10.023  63.359  1.00  0.00    -0.148 C  
HETATM   25  C   UNL     1      -5.443  10.913  63.118  1.00  0.00    -0.051 C  
HETATM   26  C   UNL     1      -8.358  11.119  64.228  1.00  0.00     0.432 C  
ENDBRANCH  18  20
TORSDOF 1
ENDMDL
MODEL       75
REMARK 921   NORMALIZED FREE ENERGY PREDICTED BY IDOCK:   -4.53 KCAL/MOL
REMARK 922        TOTAL FREE ENERGY PREDICTED BY IDOCK:   -5.19 KCAL/MOL
REMARK 923 INTER-LIGAND FREE ENERGY PREDICTED BY IDOCK:   -4.76 KCAL/MOL
REMARK 924 INTRA-LIGAND FREE ENERGY PREDICTED BY IDOCK:   -0.43 KCAL/MOL
REMARK 927      BINDING AFFINITY PREDICTED BY RF-SCORE:    0.00 PKD
ROOT
HETATM    1  C   UNL     1     -10.469   6.848  73.707  1.00  0.00    -0.390 C  
HETATM    2  C   UNL     1     -10.967   6.283  72.366  1.00  0.00    -0.254 C  
HETATM    3  C   UNL     1     -10.147   5.028  72.049  1.00  0.00    -0.196 C  
HETATM    4  O   UNL     1      -9.600   4.850  70.758  1.00  0.00    -0.160 OA 
HETATM    5  C   UNL     1      -9.525   5.913  69.905  1.00  0.00    -0.150 A  
HETATM    6  C   UNL     1     -10.202   7.118  70.171  1.00  0.00    -0.195 A  
HETATM    7  N   UNL     1     -10.958   7.334  71.337  1.00  0.00    -0.231 NA 
HETATM    8  C   UNL     1     -11.707   8.497  71.458  1.00  0.00    -0.297 C  
HETATM    9  C   UNL     1     -11.732   9.524  70.594  1.00  0.00    -0.330 C  
HETATM   10  C   UNL     1     -10.894   9.391  69.391  1.00  0.00    -0.189 C  
HETATM   11  C   UNL     1     -12.572  10.705  70.886  1.00  0.00    -0.407 C  
HETATM   12  C   UNL     1     -10.134   8.136  69.198  1.00  0.00    -0.204 A  
HETATM   13  O   UNL     1     -13.261  10.803  71.890  1.00  0.00    -0.469 OA 
HETATM   14  O   UNL     1     -12.510  11.679  69.955  1.00  0.00    -0.197 OA 
HETATM   15  O   UNL     1     -10.855  10.306  68.569  1.00  0.00    -0.213 OA 
HETATM   16  C   UNL     1      -9.396   7.985  68.030  1.00  0.00    -0.146 A  
HETATM   17  C   UNL     1      -8.722   6.797  67.808  1.00  0.00    -0.120 A  
HETATM   18  C   UNL     1      -8.757   5.717  68.717  1.00  0.00    -0.108 A  
HETATM   19  F   UNL     1      -8.081   6.677  66.633  1.00  0.00    -0.103 F  
ENDROOT
BRANCH  18  20
HETATM   20  N   UNL     1      -8.111   4.524  68.397  1.00  0.00    -0.082 NA 
HETATM   21  C   UNL     1      -6.655   4.357  68.497  1.00  0.00    -0.046 C  
HETATM   22  C   UNL     1      -6.316   2.924  68.973  1.00  0.00    -0.029 C  
HETATM   23  N   UNL     1      -6.946   1.824  68.209  1.00  0.00    -0.039 NA 
HETATM   24  C   UNL     1      -8.403   2.086  68.114  1.00  0.00    -0.059 C  
HETATM   25  C   UNL     1      -6.339   1.680  66.889  1.00  0.00    -0.020 C  
HETATM   26  C   UNL     1      -8.788   3.492  67.592  1.00  0.00    -0.125 C  
ENDBRANCH  18  20
TORSDOF 1
ENDMDL
MODEL       76
REMARK 921   NORMALIZED FREE ENERGY PREDICTED BY IDOCK:   -4.52 KCAL/MOL
REMARK 922        TOTAL FREE ENERGY PREDICTED BY IDOCK:   -5.18 KCAL/MOL
REMARK 923 INTER-LIGAND FREE ENERGY PREDICTED BY IDOCK:   -4.77 KCAL/MOL
REMARK 924 INTRA-LIGAND FREE ENERGY PREDICTED BY IDOCK:   -0.41 KCAL/MOL
REMARK 927      BINDING AFFINITY PREDICTED BY RF-SCORE:    0.00 PKD
ROOT
HETATM    1  C   UNL     1     -12.059  10.699  70.984  1.00  0.00    -0.473 C  
HETATM    2  C   UNL     1     -11.852  10.776  69.462  1.00  0.00    -0.308 C  
HETATM    3  C   UNL     1     -11.240   9.449  69.001  1.00  0.00     0.115 C  
HETATM    4  O   UNL     1     -10.129   9.450  68.128  1.00  0.00    -0.166 OA 
HETATM    5  C   UNL     1      -9.412  10.598  67.950  1.00  0.00    -0.159 A  
HETATM    6  C   UNL     1      -9.887  11.840  68.408  1.00  0.00    -0.199 A  
HETATM    7  N   UNL     1     -11.096  11.988  69.112  1.00  0.00    -0.231 NA 
HETATM    8  C   UNL     1     -11.561  13.264  69.406  1.00  0.00    -0.305 C  
HETATM    9  C   UNL     1     -10.927  14.421  69.163  1.00  0.00    -0.288 C  
HETATM   10  C   UNL     1      -9.615  14.324  68.501  1.00  0.00    -0.220 C  
HETATM   11  C   UNL     1     -11.555  15.698  69.562  1.00  0.00    -0.357 C  
HETATM   12  C   UNL     1      -9.119  12.985  68.114  1.00  0.00    -0.204 A  
HETATM   13  O   UNL     1     -12.643  15.764  70.113  1.00  0.00    -0.347 OA 
HETATM   14  O   UNL     1     -10.823  16.794  69.278  1.00  0.00    -0.325 OA 
HETATM   15  O   UNL     1      -8.971  15.347  68.268  1.00  0.00    -0.178 OA 
HETATM   16  C   UNL     1      -7.912  12.901  67.429  1.00  0.00    -0.178 A  
HETATM   17  C   UNL     1      -7.459  11.661  67.013  1.00  0.00    -0.150 A  
HETATM   18  C   UNL     1      -8.177  10.468  67.244  1.00  0.00    -0.119 A  
HETATM   19  F   UNL     1      -6.322  11.644  66.296  1.00  0.00    -0.113 F  
ENDROOT
BRANCH  18  20
HETATM   20  N   UNL     1      -7.695   9.263  66.735  1.00  0.00    -0.093 NA 
HETATM   21  C   UNL     1      -6.737   8.419  67.463  1.00  0.00    -0.063 C  
HETATM   22  C   UNL     1      -7.051   6.924  67.215  1.00  0.00    -0.084 C  
HETATM   23  N   UNL     1      -7.179   6.518  65.798  1.00  0.00    -0.069 NA 
HETATM   24  C   UNL     1      -8.125   7.439  65.122  1.00  0.00    -0.129 C  
HETATM   25  C   UNL     1      -5.880   6.499  65.132  1.00  0.00    -0.026 C  
HETATM   26  C   UNL     1      -7.818   8.946  65.301  1.00  0.00    -0.104 C  
ENDBRANCH  18  20
TORSDOF 1
ENDMDL
MODEL       77
REMARK 921   NORMALIZED FREE ENERGY PREDICTED BY IDOCK:   -4.48 KCAL/MOL
REMARK 922        TOTAL FREE ENERGY PREDICTED BY IDOCK:   -5.14 KCAL/MOL
REMARK 923 INTER-LIGAND FREE ENERGY PREDICTED BY IDOCK:   -5.02 KCAL/MOL
REMARK 924 INTRA-LIGAND FREE ENERGY PREDICTED BY IDOCK:   -0.12 KCAL/MOL
REMARK 927      BINDING AFFINITY PREDICTED BY RF-SCORE:    0.00 PKD
ROOT
HETATM    1  C   UNL     1      -7.905  12.273  68.790  1.00  0.00     0.006 C  
HETATM    2  C   UNL     1      -8.694  11.050  68.292  1.00  0.00    -0.144 C  
HETATM    3  C   UNL     1      -7.711   9.886  68.133  1.00  0.00    -0.082 C  
HETATM    4  O   UNL     1      -7.729   9.102  66.958  1.00  0.00    -0.097 OA 
HETATM    5  C   UNL     1      -8.383   9.561  65.851  1.00  0.00    -0.120 A  
HETATM    6  C   UNL     1      -9.250  10.667  65.916  1.00  0.00    -0.182 A  
HETATM    7  N   UNL     1      -9.473  11.402  67.094  1.00  0.00    -0.174 NA 
HETATM    8  C   UNL     1     -10.448  12.391  67.107  1.00  0.00    -0.219 C  
HETATM    9  C   UNL     1     -11.177  12.806  66.060  1.00  0.00    -0.335 C  
HETATM   10  C   UNL     1     -10.929  12.129  64.776  1.00  0.00    -0.310 C  
HETATM   11  C   UNL     1     -12.163  13.892  66.240  1.00  0.00    -0.461 C  
HETATM   12  C   UNL     1      -9.944  11.025  64.742  1.00  0.00    -0.350 A  
HETATM   13  O   UNL     1     -12.358  14.447  67.310  1.00  0.00    -0.322 OA 
HETATM   14  O   UNL     1     -12.830  14.234  65.119  1.00  0.00    -0.659 OA 
HETATM   15  O   UNL     1     -11.549  12.476  63.772  1.00  0.00    -0.394 OA 
HETATM   16  C   UNL     1      -9.759  10.342  63.545  1.00  0.00    -0.333 A  
HETATM   17  C   UNL     1      -8.881   9.273  63.508  1.00  0.00    -0.118 A  
HETATM   18  C   UNL     1      -8.165   8.833  64.642  1.00  0.00    -0.165 A  
HETATM   19  F   UNL     1      -8.792   8.607  62.345  1.00  0.00    -0.216 F  
ENDROOT
BRANCH  18  20
HETATM   20  N   UNL     1      -7.350   7.705  64.549  1.00  0.00    -0.080 NA 
HETATM   21  C   UNL     1      -5.883   7.781  64.568  1.00  0.00    -0.041 C  
HETATM   22  C   UNL     1      -5.298   6.565  65.327  1.00  0.00    -0.021 C  
HETATM   23  N   UNL     1      -5.776   5.237  64.883  1.00  0.00    -0.017 NA 
HETATM   24  C   UNL     1      -7.259   5.253  64.847  1.00  0.00    -0.066 C  
HETATM   25  C   UNL     1      -5.212   4.877  63.586  1.00  0.00    -0.009 C  
HETATM   26  C   UNL     1      -7.887   6.425  64.054  1.00  0.00    -0.111 C  
ENDBRANCH  18  20
TORSDOF 1
ENDMDL
MODEL       78
REMARK 921   NORMALIZED FREE ENERGY PREDICTED BY IDOCK:   -4.45 KCAL/MOL
REMARK 922        TOTAL FREE ENERGY PREDICTED BY IDOCK:   -5.10 KCAL/MOL
REMARK 923 INTER-LIGAND FREE ENERGY PREDICTED BY IDOCK:   -4.70 KCAL/MOL
REMARK 924 INTRA-LIGAND FREE ENERGY PREDICTED BY IDOCK:   -0.40 KCAL/MOL
REMARK 927      BINDING AFFINITY PREDICTED BY RF-SCORE:    0.00 PKD
ROOT
HETATM    1  C   UNL     1      -5.622  13.594  71.381  1.00  0.00    -0.208 C  
HETATM    2  C   UNL     1      -5.596  14.077  69.920  1.00  0.00    -0.106 C  
HETATM    3  C   UNL     1      -5.905  15.578  69.913  1.00  0.00    -0.144 C  
HETATM    4  O   UNL     1      -6.849  16.099  69.000  1.00  0.00    -0.151 OA 
HETATM    5  C   UNL     1      -7.705  15.251  68.358  1.00  0.00    -0.124 A  
HETATM    6  C   UNL     1      -7.515  13.858  68.381  1.00  0.00    -0.117 A  
HETATM    7  N   UNL     1      -6.473  13.236  69.091  1.00  0.00    -0.102 NA 
HETATM    8  C   UNL     1      -6.273  11.868  68.949  1.00  0.00    -0.064 C  
HETATM    9  C   UNL     1      -7.039  11.017  68.250  1.00  0.00    -0.072 C  
HETATM   10  C   UNL     1      -8.197  11.600  67.551  1.00  0.00    -0.148 C  
HETATM   11  C   UNL     1      -6.697   9.580  68.220  1.00  0.00    -0.058 C  
HETATM   12  C   UNL     1      -8.402  13.063  67.627  1.00  0.00    -0.181 A  
HETATM   13  O   UNL     1      -5.735   9.110  68.807  1.00  0.00    -0.040 OA 
HETATM   14  O   UNL     1      -7.543   8.819  67.496  1.00  0.00    -0.092 OA 
HETATM   15  O   UNL     1      -8.953  10.871  66.909  1.00  0.00    -0.148 OA 
HETATM   16  C   UNL     1      -9.457  13.619  66.911  1.00  0.00    -0.263 A  
HETATM   17  C   UNL     1      -9.632  14.992  66.928  1.00  0.00    -0.239 A  
HETATM   18  C   UNL     1      -8.775  15.863  67.636  1.00  0.00    -0.167 A  
HETATM   19  F   UNL     1     -10.623  15.483  66.165  1.00  0.00    -0.282 F  
ENDROOT
BRANCH  18  20
HETATM   20  N   UNL     1      -8.970  17.241  67.552  1.00  0.00    -0.221 NA 
HETATM   21  C   UNL     1     -10.077  17.930  68.228  1.00  0.00    -0.375 C  
HETATM   22  C   UNL     1      -9.610  19.316  68.735  1.00  0.00    -0.425 C  
HETATM   23  N   UNL     1      -8.952  20.182  67.731  1.00  0.00    -0.306 NA 
HETATM   24  C   UNL     1      -7.879  19.405  67.064  1.00  0.00    -0.253 C  
HETATM   25  C   UNL     1      -9.916  20.703  66.767  1.00  0.00    -0.145 C  
HETATM   26  C   UNL     1      -8.314  18.032  66.496  1.00  0.00    -0.268 C  
ENDBRANCH  18  20
TORSDOF 1
ENDMDL
MODEL       79
REMARK 921   NORMALIZED FREE ENERGY PREDICTED BY IDOCK:   -4.43 KCAL/MOL
REMARK 922        TOTAL FREE ENERGY PREDICTED BY IDOCK:   -5.08 KCAL/MOL
REMARK 923 INTER-LIGAND FREE ENERGY PREDICTED BY IDOCK:   -4.74 KCAL/MOL
REMARK 924 INTRA-LIGAND FREE ENERGY PREDICTED BY IDOCK:   -0.34 KCAL/MOL
REMARK 927      BINDING AFFINITY PREDICTED BY RF-SCORE:    0.00 PKD
ROOT
HETATM    1  C   UNL     1     -10.805   9.315  71.696  1.00  0.00    -0.418 C  
HETATM    2  C   UNL     1     -11.064   9.745  70.242  1.00  0.00    -0.292 C  
HETATM    3  C   UNL     1      -9.950   9.158  69.369  1.00  0.00    -0.191 C  
HETATM    4  O   UNL     1      -9.293   9.974  68.421  1.00  0.00    -0.135 OA 
HETATM    5  C   UNL     1      -9.418  11.331  68.497  1.00  0.00    -0.191 A  
HETATM    6  C   UNL     1     -10.377  11.936  69.329  1.00  0.00     0.166 A  
HETATM    7  N   UNL     1     -11.238  11.204  70.167  1.00  0.00    -0.206 NA 
HETATM    8  C   UNL     1     -12.249  11.867  70.852  1.00  0.00    -0.249 C  
HETATM    9  C   UNL     1     -12.460  13.192  70.876  1.00  0.00    -0.407 C  
HETATM   10  C   UNL     1     -11.537  14.020  70.081  1.00  0.00    -0.204 C  
HETATM   11  C   UNL     1     -13.574  13.741  71.678  1.00  0.00    -0.309 C  
HETATM   12  C   UNL     1     -10.489  13.340  69.287  1.00  0.00     0.164 A  
HETATM   13  O   UNL     1     -14.332  13.043  72.335  1.00  0.00    -0.458 OA 
HETATM   14  O   UNL     1     -13.685  15.084  71.636  1.00  0.00    -0.384 OA 
HETATM   15  O   UNL     1     -11.663  15.244  70.077  1.00  0.00    -0.270 OA 
HETATM   16  C   UNL     1      -9.661  14.118  68.486  1.00  0.00    -0.219 A  
HETATM   17  C   UNL     1      -8.710  13.495  67.696  1.00  0.00    -0.194 A  
HETATM   18  C   UNL     1      -8.548  12.093  67.658  1.00  0.00    -0.166 A  
HETATM   19  F   UNL     1      -7.984  14.287  66.890  1.00  0.00    -0.187 F  
ENDROOT
BRANCH  18  20
HETATM   20  N   UNL     1      -7.617  11.529  66.787  1.00  0.00    -0.146 NA 
HETATM   21  C   UNL     1      -6.168  11.709  66.948  1.00  0.00    -0.149 C  
HETATM   22  C   UNL     1      -5.424  10.414  66.541  1.00  0.00    -0.055 C  
HETATM   23  N   UNL     1      -5.767   9.863  65.212  1.00  0.00    -0.065 NA 
HETATM   24  C   UNL     1      -7.243   9.752  65.110  1.00  0.00    -0.122 C  
HETATM   25  C   UNL     1      -5.214  10.684  64.139  1.00  0.00    -0.144 C  
HETATM   26  C   UNL     1      -8.026  11.042  65.458  1.00  0.00     0.086 C  
ENDBRANCH  18  20
TORSDOF 1
ENDMDL
MODEL       80
REMARK 921   NORMALIZED FREE ENERGY PREDICTED BY IDOCK:   -4.35 KCAL/MOL
REMARK 922        TOTAL FREE ENERGY PREDICTED BY IDOCK:   -5.01 KCAL/MOL
REMARK 923 INTER-LIGAND FREE ENERGY PREDICTED BY IDOCK:   -4.58 KCAL/MOL
REMARK 924 INTRA-LIGAND FREE ENERGY PREDICTED BY IDOCK:   -0.43 KCAL/MOL
REMARK 927      BINDING AFFINITY PREDICTED BY RF-SCORE:    0.00 PKD
ROOT
HETATM    1  C   UNL     1      -8.675  12.576  67.804  1.00  0.00    -0.178 C  
HETATM    2  C   UNL     1      -9.778  11.504  67.795  1.00  0.00    -0.174 C  
HETATM    3  C   UNL     1     -10.030  11.073  69.244  1.00  0.00    -0.063 C  
HETATM    4  O   UNL     1     -10.111   9.700  69.567  1.00  0.00    -0.185 OA 
HETATM    5  C   UNL     1      -9.659   8.769  68.676  1.00  0.00    -0.154 A  
HETATM    6  C   UNL     1      -9.348   9.113  67.348  1.00  0.00    -0.134 A  
HETATM    7  N   UNL     1      -9.433  10.428  66.854  1.00  0.00    -0.166 NA 
HETATM    8  C   UNL     1      -9.243  10.660  65.498  1.00  0.00    -0.196 C  
HETATM    9  C   UNL     1      -8.889   9.753  64.574  1.00  0.00    -0.248 C  
HETATM   10  C   UNL     1      -8.703   8.371  65.049  1.00  0.00    -0.056 C  
HETATM   11  C   UNL     1      -8.705  10.172  63.170  1.00  0.00    -0.211 C  
HETATM   12  C   UNL     1      -8.962   8.075  66.475  1.00  0.00    -0.188 A  
HETATM   13  O   UNL     1      -8.860  11.323  62.790  1.00  0.00    -0.266 OA 
HETATM   14  O   UNL     1      -8.340   9.180  62.332  1.00  0.00    -0.153 OA 
HETATM   15  O   UNL     1      -8.359   7.494  64.257  1.00  0.00    -0.046 OA 
HETATM   16  C   UNL     1      -8.852   6.758  66.907  1.00  0.00    -0.120 A  
HETATM   17  C   UNL     1      -9.142   6.456  68.226  1.00  0.00    -0.114 A  
HETATM   18  C   UNL     1      -9.559   7.429  69.160  1.00  0.00    -0.156 A  
HETATM   19  F   UNL     1      -9.086   5.159  68.573  1.00  0.00    -0.106 F  
ENDROOT
BRANCH  18  20
HETATM   20  N   UNL     1      -9.902   7.041  70.454  1.00  0.00    -0.179 NA 
HETATM   21  C   UNL     1      -8.908   6.875  71.523  1.00  0.00    -0.132 C  
HETATM   22  C   UNL     1      -9.502   7.336  72.876  1.00  0.00    -0.159 C  
HETATM   23  N   UNL     1     -10.809   6.746  73.242  1.00  0.00    -0.285 NA 
HETATM   24  C   UNL     1     -11.742   6.914  72.100  1.00  0.00    -0.288 C  
HETATM   25  C   UNL     1     -10.671   5.343  73.620  1.00  0.00    -0.293 C  
HETATM   26  C   UNL     1     -11.208   6.418  70.734  1.00  0.00    -0.327 C  
ENDBRANCH  18  20
TORSDOF 1
ENDMDL
MODEL       81
REMARK 921   NORMALIZED FREE ENERGY PREDICTED BY IDOCK:   -4.32 KCAL/MOL
REMARK 922        TOTAL FREE ENERGY PREDICTED BY IDOCK:   -4.96 KCAL/MOL
REMARK 923 INTER-LIGAND FREE ENERGY PREDICTED BY IDOCK:   -4.54 KCAL/MOL
REMARK 924 INTRA-LIGAND FREE ENERGY PREDICTED BY IDOCK:   -0.43 KCAL/MOL
REMARK 927      BINDING AFFINITY PREDICTED BY RF-SCORE:    0.00 PKD
ROOT
HETATM    1  C   UNL     1     -10.052   8.441  69.857  1.00  0.00    -0.195 C  
HETATM    2  C   UNL     1     -10.535   7.874  68.511  1.00  0.00    -0.167 C  
HETATM    3  C   UNL     1      -9.859   6.515  68.301  1.00  0.00    -0.132 C  
HETATM    4  O   UNL     1      -9.263   6.208  67.058  1.00  0.00    -0.119 OA 
HETATM    5  C   UNL     1      -9.006   7.211  66.168  1.00  0.00    -0.140 A  
HETATM    6  C   UNL     1      -9.543   8.500  66.337  1.00  0.00    -0.245 A  
HETATM    7  N   UNL     1     -10.335   8.864  67.442  1.00  0.00    -0.251 NA 
HETATM    8  C   UNL     1     -10.940  10.114  67.464  1.00  0.00    -0.255 C  
HETATM    9  C   UNL     1     -10.786  11.092  66.558  1.00  0.00    -0.298 C  
HETATM   10  C   UNL     1      -9.900  10.798  65.419  1.00  0.00    -0.262 C  
HETATM   11  C   UNL     1     -11.489  12.378  66.744  1.00  0.00    -0.362 C  
HETATM   12  C   UNL     1      -9.291   9.453  65.329  1.00  0.00    -0.303 A  
HETATM   13  O   UNL     1     -12.219  12.610  67.695  1.00  0.00    -0.367 OA 
HETATM   14  O   UNL     1     -11.251  13.290  65.779  1.00  0.00    -0.292 OA 
HETATM   15  O   UNL     1      -9.699  11.660  64.564  1.00  0.00    -0.236 OA 
HETATM   16  C   UNL     1      -8.509   9.155  64.219  1.00  0.00    -0.200 A  
HETATM   17  C   UNL     1      -7.975   7.885  64.093  1.00  0.00    -0.125 A  
HETATM   18  C   UNL     1      -8.198   6.864  65.042  1.00  0.00    -0.096 A  
HETATM   19  F   UNL     1      -7.285   7.630  62.968  1.00  0.00    -0.072 F  
ENDROOT
BRANCH  18  20
HETATM   20  N   UNL     1      -7.687   5.587  64.815  1.00  0.00    -0.086 NA 
HETATM   21  C   UNL     1      -6.313   5.206  65.172  1.00  0.00    -0.035 C  
HETATM   22  C   UNL     1      -6.280   3.740  65.667  1.00  0.00    -0.031 C  
HETATM   23  N   UNL     1      -6.916   2.744  64.777  1.00  0.00    -0.048 NA 
HETATM   24  C   UNL     1      -8.277   3.218  64.427  1.00  0.00    -0.086 C  
HETATM   25  C   UNL     1      -6.108   2.506  63.585  1.00  0.00    -0.014 C  
HETATM   26  C   UNL     1      -8.351   4.664  63.878  1.00  0.00    -0.121 C  
ENDBRANCH  18  20
TORSDOF 1
ENDMDL
MODEL       82
REMARK 921   NORMALIZED FREE ENERGY PREDICTED BY IDOCK:   -4.29 KCAL/MOL
REMARK 922        TOTAL FREE ENERGY PREDICTED BY IDOCK:   -4.94 KCAL/MOL
REMARK 923 INTER-LIGAND FREE ENERGY PREDICTED BY IDOCK:   -4.51 KCAL/MOL
REMARK 924 INTRA-LIGAND FREE ENERGY PREDICTED BY IDOCK:   -0.43 KCAL/MOL
REMARK 927      BINDING AFFINITY PREDICTED BY RF-SCORE:    0.00 PKD
ROOT
HETATM    1  C   UNL     1      -7.522  16.123  67.712  1.00  0.00    -0.150 C  
HETATM    2  C   UNL     1      -7.514  14.781  68.464  1.00  0.00    -0.117 C  
HETATM    3  C   UNL     1      -6.665  13.793  67.658  1.00  0.00    -0.176 C  
HETATM    4  O   UNL     1      -7.148  12.488  67.409  1.00  0.00    -0.138 OA 
HETATM    5  C   UNL     1      -8.470  12.211  67.599  1.00  0.00    -0.163 A  
HETATM    6  C   UNL     1      -9.320  13.106  68.274  1.00  0.00    -0.201 A  
HETATM    7  N   UNL     1      -8.891  14.356  68.758  1.00  0.00    -0.166 NA 
HETATM    8  C   UNL     1      -9.755  15.118  69.534  1.00  0.00    -0.165 C  
HETATM    9  C   UNL     1     -11.034  14.832  69.821  1.00  0.00    -0.261 C  
HETATM   10  C   UNL     1     -11.565  13.574  69.271  1.00  0.00    -0.316 C  
HETATM   11  C   UNL     1     -11.825  15.768  70.647  1.00  0.00    -0.385 C  
HETATM   12  C   UNL     1     -10.653  12.705  68.495  1.00  0.00    -0.262 A  
HETATM   13  O   UNL     1     -11.372  16.811  71.095  1.00  0.00    -0.115 OA 
HETATM   14  O   UNL     1     -13.100  15.384  70.863  1.00  0.00    -0.455 OA 
HETATM   15  O   UNL     1     -12.737  13.263  69.480  1.00  0.00     0.117 OA 
HETATM   16  C   UNL     1     -11.137  11.486  68.034  1.00  0.00    -0.313 A  
HETATM   17  C   UNL     1     -10.283  10.637  67.352  1.00  0.00    -0.204 A  
HETATM   18  C   UNL     1      -8.928  10.949  67.110  1.00  0.00    -0.138 A  
HETATM   19  F   UNL     1     -10.782   9.444  66.989  1.00  0.00    -0.320 F  
ENDROOT
BRANCH  18  20
HETATM   20  N   UNL     1      -8.107  10.016  66.477  1.00  0.00    -0.117 NA 
HETATM   21  C   UNL     1      -8.029   9.889  65.016  1.00  0.00    -0.137 C  
HETATM   22  C   UNL     1      -6.580   9.547  64.589  1.00  0.00    -0.093 C  
HETATM   23  N   UNL     1      -5.960   8.394  65.278  1.00  0.00    -0.045 NA 
HETATM   24  C   UNL     1      -6.117   8.574  66.742  1.00  0.00    -0.054 C  
HETATM   25  C   UNL     1      -6.539   7.132  64.826  1.00  0.00    -0.043 C  
HETATM   26  C   UNL     1      -7.561   8.866  67.219  1.00  0.00    -0.089 C  
ENDBRANCH  18  20
TORSDOF 1
ENDMDL
MODEL       83
REMARK 921   NORMALIZED FREE ENERGY PREDICTED BY IDOCK:   -4.20 KCAL/MOL
REMARK 922        TOTAL FREE ENERGY PREDICTED BY IDOCK:   -4.84 KCAL/MOL
REMARK 923 INTER-LIGAND FREE ENERGY PREDICTED BY IDOCK:   -4.43 KCAL/MOL
REMARK 924 INTRA-LIGAND FREE ENERGY PREDICTED BY IDOCK:   -0.42 KCAL/MOL
REMARK 927      BINDING AFFINITY PREDICTED BY RF-SCORE:    0.00 PKD
ROOT
HETATM    1  C   UNL     1      -9.265  10.715  65.139  1.00  0.00    -0.241 C  
HETATM    2  C   UNL     1      -9.756  11.440  66.403  1.00  0.00    -0.204 C  
HETATM    3  C   UNL     1     -10.180  12.857  66.000  1.00  0.00    -0.284 C  
HETATM    4  O   UNL     1      -9.751  13.965  66.764  1.00  0.00    -0.261 OA 
HETATM    5  C   UNL     1      -8.723  13.817  67.650  1.00  0.00    -0.185 A  
HETATM    6  C   UNL     1      -8.243  12.545  68.012  1.00  0.00    -0.166 A  
HETATM    7  N   UNL     1      -8.744  11.350  67.467  1.00  0.00    -0.137 NA 
HETATM    8  C   UNL     1      -8.313  10.133  67.980  1.00  0.00    -0.117 C  
HETATM    9  C   UNL     1      -7.371   9.951  68.917  1.00  0.00    -0.078 C  
HETATM   10  C   UNL     1      -6.748  11.166  69.468  1.00  0.00    -0.132 C  
HETATM   11  C   UNL     1      -7.012   8.580  69.337  1.00  0.00    -0.049 C  
HETATM   12  C   UNL     1      -7.230  12.482  68.992  1.00  0.00     0.002 A  
HETATM   13  O   UNL     1      -7.535   7.579  68.870  1.00  0.00    -0.092 OA 
HETATM   14  O   UNL     1      -6.046   8.517  70.277  1.00  0.00    -0.030 OA 
HETATM   15  O   UNL     1      -5.862  11.068  70.316  1.00  0.00    -0.097 OA 
HETATM   16  C   UNL     1      -6.689  13.629  69.561  1.00  0.00    -0.023 A  
HETATM   17  C   UNL     1      -7.166  14.866  69.166  1.00  0.00    -0.153 A  
HETATM   18  C   UNL     1      -8.194  15.019  68.210  1.00  0.00    -0.146 A  
HETATM   19  F   UNL     1      -6.657  15.938  69.796  1.00  0.00    -0.171 F  
ENDROOT
BRANCH  18  20
HETATM   20  N   UNL     1      -8.674  16.294  67.911  1.00  0.00    -0.174 NA 
HETATM   21  C   UNL     1      -7.928  17.248  67.080  1.00  0.00    -0.214 C  
HETATM   22  C   UNL     1      -8.908  18.069  66.206  1.00  0.00    -0.170 C  
HETATM   23  N   UNL     1     -10.025  18.719  66.925  1.00  0.00    -0.326 NA 
HETATM   24  C   UNL     1     -10.699  17.705  67.773  1.00  0.00    -0.332 C  
HETATM   25  C   UNL     1      -9.558  19.854  67.715  1.00  0.00    -0.378 C  
HETATM   26  C   UNL     1      -9.761  16.895  68.702  1.00  0.00    -0.267 C  
ENDBRANCH  18  20
TORSDOF 1
ENDMDL
MODEL       84
REMARK 921   NORMALIZED FREE ENERGY PREDICTED BY IDOCK:   -4.20 KCAL/MOL
REMARK 922        TOTAL FREE ENERGY PREDICTED BY IDOCK:   -4.84 KCAL/MOL
REMARK 923 INTER-LIGAND FREE ENERGY PREDICTED BY IDOCK:   -4.50 KCAL/MOL
REMARK 924 INTRA-LIGAND FREE ENERGY PREDICTED BY IDOCK:   -0.34 KCAL/MOL
REMARK 927      BINDING AFFINITY PREDICTED BY RF-SCORE:    0.00 PKD
ROOT
HETATM    1  C   UNL     1      -9.464   6.285  67.500  1.00  0.00    -0.115 C  
HETATM    2  C   UNL     1     -10.060   7.497  68.237  1.00  0.00    -0.183 C  
HETATM    3  C   UNL     1     -10.899   8.294  67.233  1.00  0.00    -0.033 C  
HETATM    4  O   UNL     1     -10.759   9.698  67.154  1.00  0.00    -0.250 OA 
HETATM    5  C   UNL     1      -9.676  10.301  67.725  1.00  0.00    -0.156 A  
HETATM    6  C   UNL     1      -8.826   9.605  68.605  1.00  0.00    -0.128 A  
HETATM    7  N   UNL     1      -8.997   8.246  68.924  1.00  0.00    -0.144 NA 
HETATM    8  C   UNL     1      -8.200   7.672  69.907  1.00  0.00    -0.130 C  
HETATM    9  C   UNL     1      -7.185   8.261  70.557  1.00  0.00    -0.045 C  
HETATM   10  C   UNL     1      -6.905   9.663  70.204  1.00  0.00    -0.097 C  
HETATM   11  C   UNL     1      -6.419   7.497  71.564  1.00  0.00    -0.039 C  
HETATM   12  C   UNL     1      -7.777  10.326  69.210  1.00  0.00    -0.130 A  
HETATM   13  O   UNL     1      -6.661   6.333  71.845  1.00  0.00    -0.059 OA 
HETATM   14  O   UNL     1      -5.417   8.186  72.146  1.00  0.00    -0.035 OA 
HETATM   15  O   UNL     1      -5.974  10.256  70.749  1.00  0.00    -0.092 OA 
HETATM   16  C   UNL     1      -7.553  11.669  68.927  1.00  0.00    -0.087 A  
HETATM   17  C   UNL     1      -8.391  12.319  68.039  1.00  0.00    -0.165 A  
HETATM   18  C   UNL     1      -9.481  11.680  67.409  1.00  0.00    -0.167 A  
HETATM   19  F   UNL     1      -8.173  13.632  67.855  1.00  0.00    -0.127 F  
ENDROOT
BRANCH  18  20
HETATM   20  N   UNL     1     -10.326  12.414  66.579  1.00  0.00    -0.226 NA 
HETATM   21  C   UNL     1     -10.163  12.462  65.120  1.00  0.00    -0.281 C  
HETATM   22  C   UNL     1     -11.548  12.508  64.431  1.00  0.00    -0.358 C  
HETATM   23  N   UNL     1     -12.476  13.553  64.917  1.00  0.00    -0.559 NA 
HETATM   24  C   UNL     1     -12.554  13.470  66.396  1.00  0.00    -0.186 C  
HETATM   25  C   UNL     1     -12.057  14.880  64.476  1.00  0.00    -0.407 C  
HETATM   26  C   UNL     1     -11.191  13.473  67.129  1.00  0.00    -0.305 C  
ENDBRANCH  18  20
TORSDOF 1
ENDMDL
MODEL       85
REMARK 921   NORMALIZED FREE ENERGY PREDICTED BY IDOCK:   -4.16 KCAL/MOL
REMARK 922        TOTAL FREE ENERGY PREDICTED BY IDOCK:   -4.80 KCAL/MOL
REMARK 923 INTER-LIGAND FREE ENERGY PREDICTED BY IDOCK:   -4.38 KCAL/MOL
REMARK 924 INTRA-LIGAND FREE ENERGY PREDICTED BY IDOCK:   -0.41 KCAL/MOL
REMARK 927      BINDING AFFINITY PREDICTED BY RF-SCORE:    0.00 PKD
ROOT
HETATM    1  C   UNL     1      -7.315   8.315  73.077  1.00  0.00    -0.146 C  
HETATM    2  C   UNL     1      -7.074   8.016  71.588  1.00  0.00    -0.072 C  
HETATM    3  C   UNL     1      -7.411   9.280  70.791  1.00  0.00    -0.128 C  
HETATM    4  O   UNL     1      -8.215   9.191  69.632  1.00  0.00    -0.103 OA 
HETATM    5  C   UNL     1      -8.943   8.059  69.402  1.00  0.00    -0.148 A  
HETATM    6  C   UNL     1      -8.727   6.883  70.143  1.00  0.00    -0.141 A  
HETATM    7  N   UNL     1      -7.794   6.795  71.192  1.00  0.00    -0.100 NA 
HETATM    8  C   UNL     1      -7.544   5.562  71.780  1.00  0.00    -0.095 C  
HETATM    9  C   UNL     1      -8.174   4.408  71.514  1.00  0.00    -0.092 C  
HETATM   10  C   UNL     1      -9.223   4.455  70.481  1.00  0.00    -0.125 C  
HETATM   11  C   UNL     1      -7.800   3.183  72.250  1.00  0.00    -0.058 C  
HETATM   12  C   UNL     1      -9.470   5.739  69.787  1.00  0.00    -0.183 A  
HETATM   13  O   UNL     1      -6.930   3.158  73.107  1.00  0.00    -0.036 OA 
HETATM   14  O   UNL     1      -8.507   2.086  71.908  1.00  0.00    -0.058 OA 
HETATM   15  O   UNL     1      -9.854   3.436  70.203  1.00  0.00    -0.122 OA 
HETATM   16  C   UNL     1     -10.413   5.766  68.766  1.00  0.00    -0.312 A  
HETATM   17  C   UNL     1     -10.619   6.945  68.071  1.00  0.00    -0.222 A  
HETATM   18  C   UNL     1      -9.901   8.130  68.345  1.00  0.00    -0.171 A  
HETATM   19  F   UNL     1     -11.490   6.898  67.050  1.00  0.00    -0.445 F  
ENDROOT
BRANCH  18  20
HETATM   20  N   UNL     1     -10.111   9.261  67.559  1.00  0.00    -0.203 NA 
HETATM   21  C   UNL     1     -11.161  10.247  67.849  1.00  0.00    -0.276 C  
HETATM   22  C   UNL     1     -10.661  11.672  67.506  1.00  0.00    -0.209 C  
HETATM   23  N   UNL     1     -10.096  11.849  66.150  1.00  0.00    -0.221 NA 
HETATM   24  C   UNL     1      -9.079  10.794  65.917  1.00  0.00    -0.188 C  
HETATM   25  C   UNL     1     -11.143  11.820  65.133  1.00  0.00    -0.282 C  
HETATM   26  C   UNL     1      -9.554   9.348  66.197  1.00  0.00    -0.247 C  
ENDBRANCH  18  20
TORSDOF 1
ENDMDL
MODEL       86
REMARK 921   NORMALIZED FREE ENERGY PREDICTED BY IDOCK:   -4.14 KCAL/MOL
REMARK 922        TOTAL FREE ENERGY PREDICTED BY IDOCK:   -4.77 KCAL/MOL
REMARK 923 INTER-LIGAND FREE ENERGY PREDICTED BY IDOCK:   -4.45 KCAL/MOL
REMARK 924 INTRA-LIGAND FREE ENERGY PREDICTED BY IDOCK:   -0.33 KCAL/MOL
REMARK 927      BINDING AFFINITY PREDICTED BY RF-SCORE:    0.00 PKD
ROOT
HETATM    1  C   UNL     1      -7.188   8.815  68.891  1.00  0.00    -0.074 C  
HETATM    2  C   UNL     1      -6.795   9.979  67.964  1.00  0.00    -0.068 C  
HETATM    3  C   UNL     1      -7.144  11.289  68.677  1.00  0.00    -0.093 C  
HETATM    4  O   UNL     1      -7.833  12.309  67.982  1.00  0.00    -0.126 OA 
HETATM    5  C   UNL     1      -8.459  12.018  66.805  1.00  0.00    -0.155 A  
HETATM    6  C   UNL     1      -8.232  10.803  66.132  1.00  0.00    -0.163 A  
HETATM    7  N   UNL     1      -7.392   9.792  66.633  1.00  0.00    -0.093 NA 
HETATM    8  C   UNL     1      -7.112   8.685  65.842  1.00  0.00    -0.076 C  
HETATM    9  C   UNL     1      -7.637   8.410  64.638  1.00  0.00    -0.104 C  
HETATM   10  C   UNL     1      -8.590   9.394  64.097  1.00  0.00    -0.198 C  
HETATM   11  C   UNL     1      -7.248   7.170  63.936  1.00  0.00    -0.077 C  
HETATM   12  C   UNL     1      -8.860  10.618  64.883  1.00  0.00    -0.204 A  
HETATM   13  O   UNL     1      -6.458   6.360  64.398  1.00  0.00    -0.032 OA 
HETATM   14  O   UNL     1      -7.845   6.992  62.740  1.00  0.00    -0.111 OA 
HETATM   15  O   UNL     1      -9.123   9.192  63.007  1.00  0.00    -0.115 OA 
HETATM   16  C   UNL     1      -9.708  11.577  64.341  1.00  0.00    -0.229 A  
HETATM   17  C   UNL     1      -9.931  12.751  65.039  1.00  0.00    -0.150 A  
HETATM   18  C   UNL     1      -9.323  13.029  66.282  1.00  0.00    -0.140 A  
HETATM   19  F   UNL     1     -10.703  13.672  64.438  1.00  0.00    -0.373 F  
ENDROOT
BRANCH  18  20
HETATM   20  N   UNL     1      -9.537  14.262  66.896  1.00  0.00    -0.252 NA 
HETATM   21  C   UNL     1     -10.849  14.674  67.414  1.00  0.00    -0.298 C  
HETATM   22  C   UNL     1     -10.671  15.500  68.711  1.00  0.00    -0.249 C  
HETATM   23  N   UNL     1      -9.728  16.638  68.628  1.00  0.00    -0.238 NA 
HETATM   24  C   UNL     1      -8.448  16.153  68.057  1.00  0.00    -0.168 C  
HETATM   25  C   UNL     1     -10.287  17.732  67.840  1.00  0.00    -0.386 C  
HETATM   26  C   UNL     1      -8.574  15.365  66.730  1.00  0.00    -0.273 C  
ENDBRANCH  18  20
TORSDOF 1
ENDMDL
MODEL       87
REMARK 921   NORMALIZED FREE ENERGY PREDICTED BY IDOCK:   -4.11 KCAL/MOL
REMARK 922        TOTAL FREE ENERGY PREDICTED BY IDOCK:   -4.75 KCAL/MOL
REMARK 923 INTER-LIGAND FREE ENERGY PREDICTED BY IDOCK:   -5.13 KCAL/MOL
REMARK 924 INTRA-LIGAND FREE ENERGY PREDICTED BY IDOCK:    0.38 KCAL/MOL
REMARK 927      BINDING AFFINITY PREDICTED BY RF-SCORE:    0.00 PKD
ROOT
HETATM    1  C   UNL     1     -12.139  11.710  70.337  1.00  0.00    -0.462 C  
HETATM    2  C   UNL     1     -10.777  11.166  69.876  1.00  0.00     0.095 C  
HETATM    3  C   UNL     1     -10.470  11.765  68.499  1.00  0.00    -0.215 C  
HETATM    4  O   UNL     1     -10.012  10.932  67.454  1.00  0.00    -0.180 OA 
HETATM    5  C   UNL     1     -10.145   9.577  67.564  1.00  0.00    -0.204 A  
HETATM    6  C   UNL     1     -10.488   8.969  68.784  1.00  0.00    -0.206 A  
HETATM    7  N   UNL     1     -10.763   9.697  69.956  1.00  0.00    -0.240 NA 
HETATM    8  C   UNL     1     -10.957   9.017  71.152  1.00  0.00    -0.301 C  
HETATM    9  C   UNL     1     -11.001   7.686  71.315  1.00  0.00    -0.260 C  
HETATM   10  C   UNL     1     -10.803   6.869  70.105  1.00  0.00    -0.263 C  
HETATM   11  C   UNL     1     -11.241   7.121  72.659  1.00  0.00    -0.293 C  
HETATM   12  C   UNL     1     -10.527   7.560  68.827  1.00  0.00    -0.212 A  
HETATM   13  O   UNL     1     -11.407   7.811  73.654  1.00  0.00    -0.034 OA 
HETATM   14  O   UNL     1     -11.275   5.773  72.702  1.00  0.00    -0.270 OA 
HETATM   15  O   UNL     1     -10.852   5.642  70.182  1.00  0.00    -0.316 OA 
HETATM   16  C   UNL     1     -10.275   6.786  67.700  1.00  0.00    -0.225 A  
HETATM   17  C   UNL     1      -9.962   7.416  66.507  1.00  0.00    -0.124 A  
HETATM   18  C   UNL     1      -9.877   8.819  66.383  1.00  0.00    -0.282 A  
HETATM   19  F   UNL     1      -9.660   6.620  65.467  1.00  0.00     0.087 F  
ENDROOT
BRANCH  18  20
HETATM   20  N   UNL     1      -9.490   9.383  65.168  1.00  0.00    -0.239 NA 
HETATM   21  C   UNL     1      -8.257   8.994  64.469  1.00  0.00    -0.159 C  
HETATM   22  C   UNL     1      -8.488   9.006  62.939  1.00  0.00    -0.200 C  
HETATM   23  N   UNL     1      -9.068  10.249  62.384  1.00  0.00    -0.262 NA 
HETATM   24  C   UNL     1     -10.279  10.600  63.167  1.00  0.00    -0.008 C  
HETATM   25  C   UNL     1      -8.094  11.336  62.387  1.00  0.00    -0.003 C  
HETATM   26  C   UNL     1     -10.080  10.649  64.701  1.00  0.00    -0.349 C  
ENDBRANCH  18  20
TORSDOF 1
ENDMDL
MODEL       88
REMARK 921   NORMALIZED FREE ENERGY PREDICTED BY IDOCK:   -4.05 KCAL/MOL
REMARK 922        TOTAL FREE ENERGY PREDICTED BY IDOCK:   -4.69 KCAL/MOL
REMARK 923 INTER-LIGAND FREE ENERGY PREDICTED BY IDOCK:   -4.35 KCAL/MOL
REMARK 924 INTRA-LIGAND FREE ENERGY PREDICTED BY IDOCK:   -0.33 KCAL/MOL
REMARK 927      BINDING AFFINITY PREDICTED BY RF-SCORE:    0.00 PKD
ROOT
HETATM    1  C   UNL     1      -5.769  10.440  64.746  1.00  0.00    -0.133 C  
HETATM    2  C   UNL     1      -6.153   9.754  66.068  1.00  0.00    -0.066 C  
HETATM    3  C   UNL     1      -5.813   8.265  65.944  1.00  0.00    -0.041 C  
HETATM    4  O   UNL     1      -6.755   7.291  66.344  1.00  0.00    -0.057 OA 
HETATM    5  C   UNL     1      -8.057   7.650  66.535  1.00  0.00    -0.119 A  
HETATM    6  C   UNL     1      -8.446   9.001  66.594  1.00  0.00    -0.122 A  
HETATM    7  N   UNL     1      -7.547  10.068  66.418  1.00  0.00    -0.101 NA 
HETATM    8  C   UNL     1      -7.984  11.370  66.629  1.00  0.00    -0.148 C  
HETATM    9  C   UNL     1      -9.238  11.755  66.911  1.00  0.00    -0.189 C  
HETATM   10  C   UNL     1     -10.244  10.685  67.025  1.00  0.00    -0.220 C  
HETATM   11  C   UNL     1      -9.541  13.191  67.084  1.00  0.00    -0.235 C  
HETATM   12  C   UNL     1      -9.800   9.282  66.872  1.00  0.00    -0.276 A  
HETATM   13  O   UNL     1      -8.697  14.069  66.983  1.00  0.00    -0.219 OA 
HETATM   14  O   UNL     1     -10.835  13.461  67.353  1.00  0.00    -0.263 OA 
HETATM   15  O   UNL     1     -11.417  10.972  67.261  1.00  0.00    -0.470 OA 
HETATM   16  C   UNL     1     -10.737   8.270  67.047  1.00  0.00    -0.225 A  
HETATM   17  C   UNL     1     -10.328   6.951  66.959  1.00  0.00    -0.278 A  
HETATM   18  C   UNL     1      -8.988   6.581  66.709  1.00  0.00    -0.131 A  
HETATM   19  F   UNL     1     -11.259   6.014  67.205  1.00  0.00    -0.357 F  
ENDROOT
BRANCH  18  20
HETATM   20  N   UNL     1      -8.634   5.233  66.704  1.00  0.00    -0.111 NA 
HETATM   21  C   UNL     1      -8.036   4.564  67.867  1.00  0.00    -0.088 C  
HETATM   22  C   UNL     1      -8.555   3.109  67.968  1.00  0.00    -0.093 C  
HETATM   23  N   UNL     1      -8.434   2.294  66.739  1.00  0.00    -0.093 NA 
HETATM   24  C   UNL     1      -9.019   3.052  65.606  1.00  0.00    -0.146 C  
HETATM   25  C   UNL     1      -7.044   1.928  66.481  1.00  0.00    -0.047 C  
HETATM   26  C   UNL     1      -8.488   4.496  65.436  1.00  0.00    -0.123 C  
ENDBRANCH  18  20
TORSDOF 1
ENDMDL
MODEL       89
REMARK 921   NORMALIZED FREE ENERGY PREDICTED BY IDOCK:   -3.97 KCAL/MOL
REMARK 922        TOTAL FREE ENERGY PREDICTED BY IDOCK:   -4.60 KCAL/MOL
REMARK 923 INTER-LIGAND FREE ENERGY PREDICTED BY IDOCK:   -4.35 KCAL/MOL
REMARK 924 INTRA-LIGAND FREE ENERGY PREDICTED BY IDOCK:   -0.25 KCAL/MOL
REMARK 927      BINDING AFFINITY PREDICTED BY RF-SCORE:    0.00 PKD
ROOT
HETATM    1  C   UNL     1      -8.222  10.269  65.091  1.00  0.00    -0.161 C  
HETATM    2  C   UNL     1      -9.268   9.199  65.448  1.00  0.00    -0.202 C  
HETATM    3  C   UNL     1     -10.063   9.701  66.658  1.00  0.00    -0.239 C  
HETATM    4  O   UNL     1     -10.299   8.841  67.753  1.00  0.00    -0.215 OA 
HETATM    5  C   UNL     1      -9.568   7.695  67.881  1.00  0.00    -0.144 A  
HETATM    6  C   UNL     1      -8.766   7.214  66.830  1.00  0.00    -0.126 A  
HETATM    7  N   UNL     1      -8.621   7.887  65.604  1.00  0.00    -0.150 NA 
HETATM    8  C   UNL     1      -7.923   7.277  64.570  1.00  0.00    -0.112 C  
HETATM    9  C   UNL     1      -7.270   6.106  64.629  1.00  0.00    -0.064 C  
HETATM   10  C   UNL     1      -7.316   5.393  65.917  1.00  0.00    -0.077 C  
HETATM   11  C   UNL     1      -6.554   5.606  63.437  1.00  0.00    -0.032 C  
HETATM   12  C   UNL     1      -8.106   5.983  67.020  1.00  0.00    -0.106 A  
HETATM   13  O   UNL     1      -6.521   6.210  62.375  1.00  0.00    -0.029 OA 
HETATM   14  O   UNL     1      -5.924   4.427  63.615  1.00  0.00    -0.017 OA 
HETATM   15  O   UNL     1      -6.720   4.324  66.045  1.00  0.00    -0.047 OA 
HETATM   16  C   UNL     1      -8.204   5.276  68.213  1.00  0.00    -0.094 A  
HETATM   17  C   UNL     1      -8.982   5.787  69.237  1.00  0.00    -0.119 A  
HETATM   18  C   UNL     1      -9.696   6.999  69.122  1.00  0.00    -0.156 A  
HETATM   19  F   UNL     1      -9.097   5.031  70.341  1.00  0.00    -0.131 F  
ENDROOT
BRANCH  18  20
HETATM   20  N   UNL     1     -10.516   7.419  70.168  1.00  0.00    -0.215 NA 
HETATM   21  C   UNL     1     -11.883   6.916  70.358  1.00  0.00    -0.299 C  
HETATM   22  C   UNL     1     -12.194   6.778  71.868  1.00  0.00    -0.335 C  
HETATM   23  N   UNL     1     -11.927   7.977  72.694  1.00  0.00    -0.332 NA 
HETATM   24  C   UNL     1     -10.549   8.450  72.415  1.00  0.00    -0.335 C  
HETATM   25  C   UNL     1     -12.914   9.023  72.443  1.00  0.00    -0.405 C  
HETATM   26  C   UNL     1     -10.211   8.651  70.918  1.00  0.00    -0.209 C  
ENDBRANCH  18  20
TORSDOF 1
ENDMDL
MODEL       90
REMARK 921   NORMALIZED FREE ENERGY PREDICTED BY IDOCK:   -3.93 KCAL/MOL
REMARK 922        TOTAL FREE ENERGY PREDICTED BY IDOCK:   -4.56 KCAL/MOL
REMARK 923 INTER-LIGAND FREE ENERGY PREDICTED BY IDOCK:   -4.38 KCAL/MOL
REMARK 924 INTRA-LIGAND FREE ENERGY PREDICTED BY IDOCK:   -0.17 KCAL/MOL
REMARK 927      BINDING AFFINITY PREDICTED BY RF-SCORE:    0.00 PKD
ROOT
HETATM    1  C   UNL     1      -7.276   8.306  65.190  1.00  0.00    -0.079 C  
HETATM    2  C   UNL     1      -8.648   7.687  65.511  1.00  0.00    -0.092 C  
HETATM    3  C   UNL     1      -9.318   8.553  66.583  1.00  0.00    -0.189 C  
HETATM    4  O   UNL     1      -9.916   7.944  67.709  1.00  0.00    -0.155 OA 
HETATM    5  C   UNL     1      -9.629   6.643  68.005  1.00  0.00    -0.123 A  
HETATM    6  C   UNL     1      -8.958   5.812  67.089  1.00  0.00    -0.113 A  
HETATM    7  N   UNL     1      -8.498   6.261  65.838  1.00  0.00    -0.141 NA 
HETATM    8  C   UNL     1      -7.969   5.345  64.938  1.00  0.00    -0.108 C  
HETATM    9  C   UNL     1      -7.758   4.038  65.160  1.00  0.00    -0.082 C  
HETATM   10  C   UNL     1      -8.144   3.526  66.485  1.00  0.00    -0.092 C  
HETATM   11  C   UNL     1      -7.163   3.202  64.096  1.00  0.00    -0.058 C  
HETATM   12  C   UNL     1      -8.771   4.461  67.445  1.00  0.00    -0.110 A  
HETATM   13  O   UNL     1      -6.845   3.641  63.001  1.00  0.00    -0.034 OA 
HETATM   14  O   UNL     1      -6.987   1.909  64.433  1.00  0.00    -0.040 OA 
HETATM   15  O   UNL     1      -7.958   2.341  66.760  1.00  0.00    -0.070 OA 
HETATM   16  C   UNL     1      -9.196   3.961  68.671  1.00  0.00    -0.211 A  
HETATM   17  C   UNL     1      -9.832   4.810  69.560  1.00  0.00    -0.222 A  
HETATM   18  C   UNL     1     -10.082   6.169  69.274  1.00  0.00    -0.174 A  
HETATM   19  F   UNL     1     -10.283   4.260  70.700  1.00  0.00    -0.274 F  
ENDROOT
BRANCH  18  20
HETATM   20  N   UNL     1     -10.790   6.949  70.188  1.00  0.00    -0.250 NA 
HETATM   21  C   UNL     1     -12.249   6.865  70.341  1.00  0.00    -0.119 C  
HETATM   22  C   UNL     1     -12.638   7.048  71.828  1.00  0.00    -0.350 C  
HETATM   23  N   UNL     1     -12.080   8.243  72.498  1.00  0.00    -0.380 NA 
HETATM   24  C   UNL     1     -10.616   8.281  72.262  1.00  0.00    -0.323 C  
HETATM   25  C   UNL     1     -12.731   9.465  72.032  1.00  0.00    -0.403 C  
HETATM   26  C   UNL     1     -10.184   8.153  70.781  1.00  0.00    -0.194 C  
ENDBRANCH  18  20
TORSDOF 1
ENDMDL
MODEL       91
REMARK 921   NORMALIZED FREE ENERGY PREDICTED BY IDOCK:   -3.91 KCAL/MOL
REMARK 922        TOTAL FREE ENERGY PREDICTED BY IDOCK:   -4.54 KCAL/MOL
REMARK 923 INTER-LIGAND FREE ENERGY PREDICTED BY IDOCK:   -4.17 KCAL/MOL
REMARK 924 INTRA-LIGAND FREE ENERGY PREDICTED BY IDOCK:   -0.36 KCAL/MOL
REMARK 927      BINDING AFFINITY PREDICTED BY RF-SCORE:    0.00 PKD
ROOT
HETATM    1  C   UNL     1      -5.207   9.033  67.876  1.00  0.00    -0.034 C  
HETATM    2  C   UNL     1      -6.097   9.512  66.716  1.00  0.00    -0.064 C  
HETATM    3  C   UNL     1      -6.092  11.044  66.718  1.00  0.00    -0.104 C  
HETATM    4  O   UNL     1      -7.308  11.754  66.600  1.00  0.00    -0.091 OA 
HETATM    5  C   UNL     1      -8.491  11.104  66.803  1.00  0.00    -0.153 A  
HETATM    6  C   UNL     1      -8.555   9.701  66.877  1.00  0.00    -0.128 A  
HETATM    7  N   UNL     1      -7.421   8.874  66.794  1.00  0.00    -0.082 NA 
HETATM    8  C   UNL     1      -7.585   7.496  66.736  1.00  0.00    -0.101 C  
HETATM    9  C   UNL     1      -8.742   6.824  66.839  1.00  0.00    -0.117 C  
HETATM   10  C   UNL     1      -9.959   7.635  67.011  1.00  0.00    -0.240 C  
HETATM   11  C   UNL     1      -8.739   5.348  66.779  1.00  0.00    -0.113 C  
HETATM   12  C   UNL     1      -9.828   9.109  67.011  1.00  0.00    -0.267 A  
HETATM   13  O   UNL     1      -7.721   4.687  66.638  1.00  0.00    -0.089 OA 
HETATM   14  O   UNL     1      -9.956   4.780  66.903  1.00  0.00    -0.189 OA 
HETATM   15  O   UNL     1     -11.050   7.081  67.132  1.00  0.00    -0.350 OA 
HETATM   16  C   UNL     1     -10.985   9.874  67.107  1.00  0.00    -0.147 A  
HETATM   17  C   UNL     1     -10.886  11.253  67.055  1.00  0.00    -0.280 A  
HETATM   18  C   UNL     1      -9.655  11.926  66.897  1.00  0.00    -0.200 A  
HETATM   19  F   UNL     1     -12.040  11.942  67.082  1.00  0.00    -0.322 F  
ENDROOT
BRANCH  18  20
HETATM   20  N   UNL     1      -9.638  13.316  66.783  1.00  0.00    -0.251 NA 
HETATM   21  C   UNL     1      -9.446  14.205  67.936  1.00  0.00    -0.211 C  
HETATM   22  C   UNL     1      -8.609  15.440  67.520  1.00  0.00    -0.174 C  
HETATM   23  N   UNL     1      -9.090  16.175  66.330  1.00  0.00    -0.275 NA 
HETATM   24  C   UNL     1      -9.301  15.206  65.226  1.00  0.00     0.441 C  
HETATM   25  C   UNL     1     -10.307  16.925  66.627  1.00  0.00    -0.299 C  
HETATM   26  C   UNL     1     -10.177  13.981  65.583  1.00  0.00    -0.334 C  
ENDBRANCH  18  20
TORSDOF 1
ENDMDL
MODEL       92
REMARK 921   NORMALIZED FREE ENERGY PREDICTED BY IDOCK:   -3.90 KCAL/MOL
REMARK 922        TOTAL FREE ENERGY PREDICTED BY IDOCK:   -4.52 KCAL/MOL
REMARK 923 INTER-LIGAND FREE ENERGY PREDICTED BY IDOCK:   -4.09 KCAL/MOL
REMARK 924 INTRA-LIGAND FREE ENERGY PREDICTED BY IDOCK:   -0.43 KCAL/MOL
REMARK 927      BINDING AFFINITY PREDICTED BY RF-SCORE:    0.00 PKD
ROOT
HETATM    1  C   UNL     1      -6.711   6.001  64.625  1.00  0.00    -0.046 C  
HETATM    2  C   UNL     1      -6.635   6.967  65.820  1.00  0.00    -0.051 C  
HETATM    3  C   UNL     1      -6.564   6.129  67.101  1.00  0.00    -0.055 C  
HETATM    4  O   UNL     1      -7.392   6.449  68.200  1.00  0.00    -0.085 OA 
HETATM    5  C   UNL     1      -8.460   7.280  68.020  1.00  0.00    -0.123 A  
HETATM    6  C   UNL     1      -8.619   8.028  66.839  1.00  0.00    -0.128 A  
HETATM    7  N   UNL     1      -7.731   7.946  65.752  1.00  0.00    -0.086 NA 
HETATM    8  C   UNL     1      -7.881   8.819  64.682  1.00  0.00    -0.127 C  
HETATM    9  C   UNL     1      -8.866   9.715  64.515  1.00  0.00    -0.257 C  
HETATM   10  C   UNL     1      -9.876   9.788  65.584  1.00  0.00    -0.301 C  
HETATM   11  C   UNL     1      -8.891  10.556  63.300  1.00  0.00    -0.210 C  
HETATM   12  C   UNL     1      -9.710   8.919  66.770  1.00  0.00    -0.282 A  
HETATM   13  O   UNL     1      -8.048  10.483  62.419  1.00  0.00    -0.155 OA 
HETATM   14  O   UNL     1      -9.932  11.412  63.233  1.00  0.00    -0.342 OA 
HETATM   15  O   UNL     1     -10.818  10.573  65.482  1.00  0.00    -0.048 OA 
HETATM   16  C   UNL     1     -10.627   9.037  67.808  1.00  0.00    -0.278 A  
HETATM   17  C   UNL     1     -10.456   8.269  68.947  1.00  0.00    -0.191 A  
HETATM   18  C   UNL     1      -9.379   7.372  69.110  1.00  0.00    -0.146 A  
HETATM   19  F   UNL     1     -11.330   8.473  69.947  1.00  0.00    -0.221 F  
ENDROOT
BRANCH  18  20
HETATM   20  N   UNL     1      -9.231   6.682  70.312  1.00  0.00    -0.155 NA 
HETATM   21  C   UNL     1      -9.927   5.420  70.595  1.00  0.00    -0.214 C  
HETATM   22  C   UNL     1      -9.013   4.484  71.424  1.00  0.00    -0.127 C  
HETATM   23  N   UNL     1      -8.423   5.075  72.645  1.00  0.00    -0.116 NA 
HETATM   24  C   UNL     1      -7.779   6.363  72.288  1.00  0.00    -0.098 C  
HETATM   25  C   UNL     1      -9.428   5.248  73.690  1.00  0.00    -0.133 C  
HETATM   26  C   UNL     1      -8.675   7.351  71.502  1.00  0.00    -0.117 C  
ENDBRANCH  18  20
TORSDOF 1
ENDMDL
MODEL       93
REMARK 921   NORMALIZED FREE ENERGY PREDICTED BY IDOCK:   -3.89 KCAL/MOL
REMARK 922        TOTAL FREE ENERGY PREDICTED BY IDOCK:   -4.51 KCAL/MOL
REMARK 923 INTER-LIGAND FREE ENERGY PREDICTED BY IDOCK:   -4.08 KCAL/MOL
REMARK 924 INTRA-LIGAND FREE ENERGY PREDICTED BY IDOCK:   -0.44 KCAL/MOL
REMARK 927      BINDING AFFINITY PREDICTED BY RF-SCORE:    0.00 PKD
ROOT
HETATM    1  C   UNL     1     -10.657   9.056  69.198  1.00  0.00    -0.219 C  
HETATM    2  C   UNL     1      -9.390   8.186  69.154  1.00  0.00    -0.151 C  
HETATM    3  C   UNL     1      -9.012   7.975  67.684  1.00  0.00    -0.135 C  
HETATM    4  O   UNL     1      -8.686   6.681  67.218  1.00  0.00    -0.118 OA 
HETATM    5  C   UNL     1      -9.009   5.591  67.973  1.00  0.00    -0.108 A  
HETATM    6  C   UNL     1      -9.426   5.721  69.310  1.00  0.00    -0.129 A  
HETATM    7  N   UNL     1      -9.584   6.964  69.949  1.00  0.00    -0.156 NA 
HETATM    8  C   UNL     1      -9.863   7.000  71.310  1.00  0.00    -0.175 C  
HETATM    9  C   UNL     1     -10.095   5.945  72.106  1.00  0.00    -0.210 C  
HETATM   10  C   UNL     1     -10.025   4.617  71.473  1.00  0.00    -0.195 C  
HETATM   11  C   UNL     1     -10.402   6.161  73.535  1.00  0.00    -0.250 C  
HETATM   12  C   UNL     1      -9.664   4.538  70.040  1.00  0.00    -0.283 A  
HETATM   13  O   UNL     1     -10.459   7.269  74.047  1.00  0.00    -0.311 OA 
HETATM   14  O   UNL     1     -10.627   5.031  74.236  1.00  0.00    -0.283 OA 
HETATM   15  O   UNL     1     -10.247   3.609  72.143  1.00  0.00    -0.167 OA 
HETATM   16  C   UNL     1      -9.534   3.281  69.461  1.00  0.00    -0.205 A  
HETATM   17  C   UNL     1      -9.145   3.187  68.136  1.00  0.00    -0.170 A  
HETATM   18  C   UNL     1      -8.862   4.319  67.341  1.00  0.00    -0.110 A  
HETATM   19  F   UNL     1      -8.967   1.949  67.647  1.00  0.00    -0.110 F  
ENDROOT
BRANCH  18  20
HETATM   20  N   UNL     1      -8.408   4.148  66.034  1.00  0.00    -0.108 NA 
HETATM   21  C   UNL     1      -9.313   3.883  64.907  1.00  0.00    -0.158 C  
HETATM   22  C   UNL     1      -8.797   4.595  63.633  1.00  0.00    -0.129 C  
HETATM   23  N   UNL     1      -7.383   4.339  63.278  1.00  0.00    -0.049 NA 
HETATM   24  C   UNL     1      -6.541   4.585  64.474  1.00  0.00    -0.043 C  
HETATM   25  C   UNL     1      -7.203   2.985  62.763  1.00  0.00    -0.044 C  
HETATM   26  C   UNL     1      -6.991   3.850  65.760  1.00  0.00    -0.062 C  
ENDBRANCH  18  20
TORSDOF 1
ENDMDL
MODEL       94
REMARK 921   NORMALIZED FREE ENERGY PREDICTED BY IDOCK:   -3.88 KCAL/MOL
REMARK 922        TOTAL FREE ENERGY PREDICTED BY IDOCK:   -4.50 KCAL/MOL
REMARK 923 INTER-LIGAND FREE ENERGY PREDICTED BY IDOCK:   -4.23 KCAL/MOL
REMARK 924 INTRA-LIGAND FREE ENERGY PREDICTED BY IDOCK:   -0.27 KCAL/MOL
REMARK 927      BINDING AFFINITY PREDICTED BY RF-SCORE:    0.00 PKD
ROOT
HETATM    1  C   UNL     1      -8.055  14.585  67.062  1.00  0.00    -0.125 C  
HETATM    2  C   UNL     1      -8.868  13.341  67.462  1.00  0.00    -0.206 C  
HETATM    3  C   UNL     1      -7.934  12.390  68.219  1.00  0.00    -0.160 C  
HETATM    4  O   UNL     1      -7.911  11.016  67.892  1.00  0.00    -0.105 OA 
HETATM    5  C   UNL     1      -8.464  10.592  66.718  1.00  0.00    -0.134 A  
HETATM    6  C   UNL     1      -9.278  11.437  65.942  1.00  0.00    -0.216 A  
HETATM    7  N   UNL     1      -9.544  12.775  66.284  1.00  0.00    -0.258 NA 
HETATM    8  C   UNL     1     -10.468  13.498  65.540  1.00  0.00    -0.299 C  
HETATM    9  C   UNL     1     -11.102  13.082  64.433  1.00  0.00    -0.400 C  
HETATM   10  C   UNL     1     -10.800  11.715  63.977  1.00  0.00    -0.392 C  
HETATM   11  C   UNL     1     -12.043  13.990  63.745  1.00  0.00    -0.224 C  
HETATM   12  C   UNL     1      -9.871  10.894  64.784  1.00  0.00    -0.343 A  
HETATM   13  O   UNL     1     -12.283  15.124  64.133  1.00  0.00    -0.600 OA 
HETATM   14  O   UNL     1     -12.614  13.471  62.639  1.00  0.00    -0.218 OA 
HETATM   15  O   UNL     1     -11.332  11.280  62.957  1.00  0.00     0.017 OA 
HETATM   16  C   UNL     1      -9.638   9.581  64.389  1.00  0.00     0.111 A  
HETATM   17  C   UNL     1      -8.813   8.782  65.161  1.00  0.00    -0.133 A  
HETATM   18  C   UNL     1      -8.200   9.238  66.348  1.00  0.00    -0.111 A  
HETATM   19  F   UNL     1      -8.677   7.503  64.773  1.00  0.00    -0.051 F  
ENDROOT
BRANCH  18  20
HETATM   20  N   UNL     1      -7.437   8.358  67.113  1.00  0.00    -0.088 NA 
HETATM   21  C   UNL     1      -8.029   7.445  68.101  1.00  0.00    -0.123 C  
HETATM   22  C   UNL     1      -7.261   6.102  68.111  1.00  0.00    -0.084 C  
HETATM   23  N   UNL     1      -5.792   6.199  68.261  1.00  0.00    -0.012 NA 
HETATM   24  C   UNL     1      -5.275   7.168  67.263  1.00  0.00    -0.013 C  
HETATM   25  C   UNL     1      -5.423   6.581  69.621  1.00  0.00    -0.014 C  
HETATM   26  C   UNL     1      -5.982   8.545  67.254  1.00  0.00    -0.051 C  
ENDBRANCH  18  20
TORSDOF 1
ENDMDL
MODEL       95
REMARK 921   NORMALIZED FREE ENERGY PREDICTED BY IDOCK:   -3.86 KCAL/MOL
REMARK 922        TOTAL FREE ENERGY PREDICTED BY IDOCK:   -4.48 KCAL/MOL
REMARK 923 INTER-LIGAND FREE ENERGY PREDICTED BY IDOCK:   -4.08 KCAL/MOL
REMARK 924 INTRA-LIGAND FREE ENERGY PREDICTED BY IDOCK:   -0.41 KCAL/MOL
REMARK 927      BINDING AFFINITY PREDICTED BY RF-SCORE:    0.00 PKD
ROOT
HETATM    1  C   UNL     1      -6.249  10.650  70.111  1.00  0.00    -0.125 C  
HETATM    2  C   UNL     1      -7.604   9.967  70.360  1.00  0.00    -0.099 C  
HETATM    3  C   UNL     1      -7.341   8.483  70.637  1.00  0.00    -0.061 C  
HETATM    4  O   UNL     1      -8.114   7.496  69.984  1.00  0.00    -0.122 OA 
HETATM    5  C   UNL     1      -8.859   7.836  68.892  1.00  0.00    -0.135 A  
HETATM    6  C   UNL     1      -9.084   9.181  68.545  1.00  0.00    -0.132 A  
HETATM    7  N   UNL     1      -8.532  10.261  69.257  1.00  0.00    -0.158 NA 
HETATM    8  C   UNL     1      -8.915  11.557  68.935  1.00  0.00     0.039 C  
HETATM    9  C   UNL     1      -9.720  11.923  67.926  1.00  0.00    -0.192 C  
HETATM   10  C   UNL     1     -10.265  10.838  67.092  1.00  0.00    -0.213 C  
HETATM   11  C   UNL     1     -10.011  13.355  67.706  1.00  0.00    -0.233 C  
HETATM   12  C   UNL     1      -9.930   9.442  67.448  1.00  0.00    -0.252 A  
HETATM   13  O   UNL     1      -9.550  14.246  68.404  1.00  0.00    -0.211 OA 
HETATM   14  O   UNL     1     -10.822  13.607  66.658  1.00  0.00    -0.281 OA 
HETATM   15  O   UNL     1     -10.993  11.108  66.138  1.00  0.00    -0.236 OA 
HETATM   16  C   UNL     1     -10.498   8.416  66.701  1.00  0.00    -0.221 A  
HETATM   17  C   UNL     1     -10.238   7.103  67.052  1.00  0.00    -0.269 A  
HETATM   18  C   UNL     1      -9.424   6.753  68.151  1.00  0.00    -0.120 A  
HETATM   19  F   UNL     1     -10.867   6.153  66.341  1.00  0.00    -0.295 F  
ENDROOT
BRANCH  18  20
HETATM   20  N   UNL     1      -9.262   5.411  68.490  1.00  0.00    -0.108 NA 
HETATM   21  C   UNL     1      -8.435   4.487  67.702  1.00  0.00    -0.103 C  
HETATM   22  C   UNL     1      -7.715   3.487  68.639  1.00  0.00    -0.055 C  
HETATM   23  N   UNL     1      -8.580   2.769  69.603  1.00  0.00    -0.062 NA 
HETATM   24  C   UNL     1      -9.412   3.762  70.326  1.00  0.00    -0.187 C  
HETATM   25  C   UNL     1      -9.401   1.766  68.933  1.00  0.00    -0.149 C  
HETATM   26  C   UNL     1     -10.191   4.751  69.424  1.00  0.00    -0.096 C  
ENDBRANCH  18  20
TORSDOF 1
ENDMDL
MODEL       96
REMARK 921   NORMALIZED FREE ENERGY PREDICTED BY IDOCK:   -3.86 KCAL/MOL
REMARK 922        TOTAL FREE ENERGY PREDICTED BY IDOCK:   -4.48 KCAL/MOL
REMARK 923 INTER-LIGAND FREE ENERGY PREDICTED BY IDOCK:   -4.26 KCAL/MOL
REMARK 924 INTRA-LIGAND FREE ENERGY PREDICTED BY IDOCK:   -0.23 KCAL/MOL
REMARK 927      BINDING AFFINITY PREDICTED BY RF-SCORE:    0.00 PKD
ROOT
HETATM    1  C   UNL     1     -10.289   4.845  66.534  1.00  0.00    -0.311 C  
HETATM    2  C   UNL     1     -10.812   5.873  67.552  1.00  0.00    -0.242 C  
HETATM    3  C   UNL     1     -10.927   7.226  66.843  1.00  0.00    -0.067 C  
HETATM    4  O   UNL     1     -10.419   8.391  67.459  1.00  0.00    -0.249 OA 
HETATM    5  C   UNL     1      -9.560   8.277  68.514  1.00  0.00    -0.149 A  
HETATM    6  C   UNL     1      -9.360   7.048  69.169  1.00  0.00    -0.140 A  
HETATM    7  N   UNL     1      -9.983   5.852  68.768  1.00  0.00    -0.142 NA 
HETATM    8  C   UNL     1      -9.842   4.714  69.551  1.00  0.00    -0.216 C  
HETATM    9  C   UNL     1      -9.079   4.589  70.648  1.00  0.00    -0.175 C  
HETATM   10  C   UNL     1      -8.335   5.788  71.070  1.00  0.00    -0.123 C  
HETATM   11  C   UNL     1      -9.023   3.293  71.356  1.00  0.00    -0.095 C  
HETATM   12  C   UNL     1      -8.515   7.036  70.297  1.00  0.00    -0.138 A  
HETATM   13  O   UNL     1      -9.644   2.306  70.993  1.00  0.00    -0.141 OA 
HETATM   14  O   UNL     1      -8.217   3.281  72.438  1.00  0.00    -0.072 OA 
HETATM   15  O   UNL     1      -7.602   5.735  72.057  1.00  0.00    -0.097 OA 
HETATM   16  C   UNL     1      -7.864   8.184  70.737  1.00  0.00    -0.089 A  
HETATM   17  C   UNL     1      -8.063   9.372  70.057  1.00  0.00    -0.152 A  
HETATM   18  C   UNL     1      -8.911   9.478  68.933  1.00  0.00    -0.141 A  
HETATM   19  F   UNL     1      -7.465  10.464  70.564  1.00  0.00    -0.142 F  
ENDROOT
BRANCH  18  20
HETATM   20  N   UNL     1      -9.119  10.722  68.339  1.00  0.00    -0.156 NA 
HETATM   21  C   UNL     1     -10.420  11.404  68.357  1.00  0.00    -0.200 C  
HETATM   22  C   UNL     1     -10.217  12.932  68.495  1.00  0.00    -0.205 C  
HETATM   23  N   UNL     1      -9.284  13.549  67.527  1.00  0.00    -0.209 NA 
HETATM   24  C   UNL     1      -8.014  12.782  67.535  1.00  0.00    -0.177 C  
HETATM   25  C   UNL     1      -9.868  13.607  66.191  1.00  0.00    -0.293 C  
HETATM   26  C   UNL     1      -8.167  11.253  67.348  1.00  0.00    -0.135 C  
ENDBRANCH  18  20
TORSDOF 1
ENDMDL
MODEL       97
REMARK 921   NORMALIZED FREE ENERGY PREDICTED BY IDOCK:   -3.76 KCAL/MOL
REMARK 922        TOTAL FREE ENERGY PREDICTED BY IDOCK:   -4.38 KCAL/MOL
REMARK 923 INTER-LIGAND FREE ENERGY PREDICTED BY IDOCK:   -4.05 KCAL/MOL
REMARK 924 INTRA-LIGAND FREE ENERGY PREDICTED BY IDOCK:   -0.33 KCAL/MOL
REMARK 927      BINDING AFFINITY PREDICTED BY RF-SCORE:    0.00 PKD
ROOT
HETATM    1  C   UNL     1      -6.888  13.593  68.942  1.00  0.00    -0.110 C  
HETATM    2  C   UNL     1      -8.021  12.566  68.782  1.00  0.00     0.060 C  
HETATM    3  C   UNL     1      -7.416  11.166  68.939  1.00  0.00    -0.125 C  
HETATM    4  O   UNL     1      -7.739  10.150  68.013  1.00  0.00    -0.088 OA 
HETATM    5  C   UNL     1      -8.318  10.482  66.822  1.00  0.00    -0.128 A  
HETATM    6  C   UNL     1      -8.835  11.770  66.590  1.00  0.00    -0.189 A  
HETATM    7  N   UNL     1      -8.757  12.811  67.532  1.00  0.00    -0.174 NA 
HETATM    8  C   UNL     1      -9.413  14.009  67.281  1.00  0.00    -0.231 C  
HETATM    9  C   UNL     1     -10.073  14.337  66.159  1.00  0.00    -0.325 C  
HETATM   10  C   UNL     1     -10.118  13.315  65.100  1.00  0.00    -0.231 C  
HETATM   11  C   UNL     1     -10.701  15.670  66.043  1.00  0.00    -0.317 C  
HETATM   12  C   UNL     1      -9.486  12.003  65.361  1.00  0.00    -0.080 A  
HETATM   13  O   UNL     1     -10.653  16.511  66.929  1.00  0.00    -0.302 OA 
HETATM   14  O   UNL     1     -11.327  15.894  64.870  1.00  0.00    -0.335 OA 
HETATM   15  O   UNL     1     -10.690  13.560  64.038  1.00  0.00    -0.296 OA 
HETATM   16  C   UNL     1      -9.588  11.016  64.387  1.00  0.00    -0.301 A  
HETATM   17  C   UNL     1      -9.048   9.767  64.636  1.00  0.00    -0.245 A  
HETATM   18  C   UNL     1      -8.402   9.441  65.848  1.00  0.00    -0.120 A  
HETATM   19  F   UNL     1      -9.234   8.831  63.690  1.00  0.00     0.037 F  
ENDROOT
BRANCH  18  20
HETATM   20  N   UNL     1      -7.943   8.141  66.058  1.00  0.00    -0.096 NA 
HETATM   21  C   UNL     1      -8.753   7.110  66.721  1.00  0.00    -0.127 C  
HETATM   22  C   UNL     1      -8.491   5.730  66.070  1.00  0.00    -0.135 C  
HETATM   23  N   UNL     1      -7.072   5.328  65.957  1.00  0.00    -0.067 NA 
HETATM   24  C   UNL     1      -6.314   6.434  65.321  1.00  0.00    -0.038 C  
HETATM   25  C   UNL     1      -6.515   4.976  67.260  1.00  0.00    -0.049 C  
HETATM   26  C   UNL     1      -6.506   7.825  65.973  1.00  0.00    -0.042 C  
ENDBRANCH  18  20
TORSDOF 1
ENDMDL
MODEL       98
REMARK 921   NORMALIZED FREE ENERGY PREDICTED BY IDOCK:   -3.60 KCAL/MOL
REMARK 922        TOTAL FREE ENERGY PREDICTED BY IDOCK:   -4.21 KCAL/MOL
REMARK 923 INTER-LIGAND FREE ENERGY PREDICTED BY IDOCK:   -3.89 KCAL/MOL
REMARK 924 INTRA-LIGAND FREE ENERGY PREDICTED BY IDOCK:   -0.32 KCAL/MOL
REMARK 927      BINDING AFFINITY PREDICTED BY RF-SCORE:    0.00 PKD
ROOT
HETATM    1  C   UNL     1     -12.728  12.928  65.798  1.00  0.00     0.022 C  
HETATM    2  C   UNL     1     -11.323  12.836  65.177  1.00  0.00    -0.311 C  
HETATM    3  C   UNL     1     -11.217  11.495  64.444  1.00  0.00    -0.256 C  
HETATM    4  O   UNL     1     -10.079  10.678  64.628  1.00  0.00    -0.311 OA 
HETATM    5  C   UNL     1      -9.240  10.918  65.677  1.00  0.00    -0.203 A  
HETATM    6  C   UNL     1      -9.327  12.101  66.433  1.00  0.00    -0.224 A  
HETATM    7  N   UNL     1     -10.298  13.092  66.201  1.00  0.00    -0.278 NA 
HETATM    8  C   UNL     1     -10.229  14.291  66.899  1.00  0.00    -0.266 C  
HETATM    9  C   UNL     1      -9.359  14.599  67.873  1.00  0.00    -0.198 C  
HETATM   10  C   UNL     1      -8.368  13.566  68.219  1.00  0.00    -0.165 C  
HETATM   11  C   UNL     1      -9.437  15.918  68.534  1.00  0.00    -0.209 C  
HETATM   12  C   UNL     1      -8.370  12.302  67.450  1.00  0.00    -0.177 A  
HETATM   13  O   UNL     1     -10.266  16.766  68.238  1.00  0.00    -0.266 OA 
HETATM   14  O   UNL     1      -8.520  16.114  69.504  1.00  0.00    -0.166 OA 
HETATM   15  O   UNL     1      -7.554  13.776  69.118  1.00  0.00    -0.036 OA 
HETATM   16  C   UNL     1      -7.392  11.355  67.732  1.00  0.00    -0.098 A  
HETATM   17  C   UNL     1      -7.347  10.191  66.986  1.00  0.00    -0.091 A  
HETATM   18  C   UNL     1      -8.250   9.921  65.935  1.00  0.00    -0.124 A  
HETATM   19  F   UNL     1      -6.341   9.342  67.255  1.00  0.00    -0.056 F  
ENDROOT
BRANCH  18  20
HETATM   20  N   UNL     1      -8.103   8.758  65.180  1.00  0.00    -0.125 NA 
HETATM   21  C   UNL     1      -7.515   8.754  63.833  1.00  0.00    -0.117 C  
HETATM   22  C   UNL     1      -6.679   7.469  63.623  1.00  0.00    -0.054 C  
HETATM   23  N   UNL     1      -7.366   6.195  63.928  1.00  0.00    -0.062 NA 
HETATM   24  C   UNL     1      -7.968   6.292  65.281  1.00  0.00    -0.117 C  
HETATM   25  C   UNL     1      -8.368   5.877  62.916  1.00  0.00    -0.029 C  
HETATM   26  C   UNL     1      -8.856   7.538  65.519  1.00  0.00     0.024 C  
ENDBRANCH  18  20
TORSDOF 1
ENDMDL
MODEL       99
REMARK 921   NORMALIZED FREE ENERGY PREDICTED BY IDOCK:   -3.59 KCAL/MOL
REMARK 922        TOTAL FREE ENERGY PREDICTED BY IDOCK:   -4.20 KCAL/MOL
REMARK 923 INTER-LIGAND FREE ENERGY PREDICTED BY IDOCK:   -3.87 KCAL/MOL
REMARK 924 INTRA-LIGAND FREE ENERGY PREDICTED BY IDOCK:   -0.33 KCAL/MOL
REMARK 927      BINDING AFFINITY PREDICTED BY RF-SCORE:    0.00 PKD
ROOT
HETATM    1  C   UNL     1     -11.754   6.327  71.956  1.00  0.00    -0.374 C  
HETATM    2  C   UNL     1     -10.972   6.997  70.813  1.00  0.00    -0.255 C  
HETATM    3  C   UNL     1     -11.420   6.356  69.495  1.00  0.00    -0.343 C  
HETATM    4  O   UNL     1     -10.456   5.943  68.548  1.00  0.00    -0.192 OA 
HETATM    5  C   UNL     1      -9.150   5.819  68.925  1.00  0.00    -0.115 A  
HETATM    6  C   UNL     1      -8.688   6.328  70.152  1.00  0.00    -0.138 A  
HETATM    7  N   UNL     1      -9.528   6.954  71.090  1.00  0.00    -0.166 NA 
HETATM    8  C   UNL     1      -8.970   7.552  72.213  1.00  0.00    -0.133 C  
HETATM    9  C   UNL     1      -7.676   7.530  72.569  1.00  0.00    -0.108 C  
HETATM   10  C   UNL     1      -6.758   6.816  71.666  1.00  0.00    -0.061 C  
HETATM   11  C   UNL     1      -7.249   8.202  73.814  1.00  0.00    -0.145 C  
HETATM   12  C   UNL     1      -7.309   6.224  70.427  1.00  0.00    -0.089 A  
HETATM   13  O   UNL     1      -8.022   8.789  74.556  1.00  0.00    -0.349 OA 
HETATM   14  O   UNL     1      -5.930   8.107  74.077  1.00  0.00    -0.082 OA 
HETATM   15  O   UNL     1      -5.562   6.742  71.945  1.00  0.00    -0.035 OA 
HETATM   16  C   UNL     1      -6.430   5.609  69.543  1.00  0.00    -0.041 A  
HETATM   17  C   UNL     1      -6.920   5.096  68.354  1.00  0.00    -0.057 A  
HETATM   18  C   UNL     1      -8.281   5.180  67.989  1.00  0.00    -0.098 A  
HETATM   19  F   UNL     1      -6.018   4.574  67.506  1.00  0.00    -0.020 F  
ENDROOT
BRANCH  18  20
HETATM   20  N   UNL     1      -8.692   4.704  66.745  1.00  0.00    -0.111 NA 
HETATM   21  C   UNL     1      -8.900   5.584  65.587  1.00  0.00    -0.152 C  
HETATM   22  C   UNL     1      -8.461   4.865  64.288  1.00  0.00    -0.137 C  
HETATM   23  N   UNL     1      -9.036   3.520  64.069  1.00  0.00    -0.115 NA 
HETATM   24  C   UNL     1      -8.826   2.708  65.293  1.00  0.00    -0.127 C  
HETATM   25  C   UNL     1     -10.450   3.599  63.713  1.00  0.00    -0.266 C  
HETATM   26  C   UNL     1      -9.300   3.368  66.611  1.00  0.00    -0.159 C  
ENDBRANCH  18  20
TORSDOF 1
ENDMDL
MODEL      100
REMARK 921   NORMALIZED FREE ENERGY PREDICTED BY IDOCK:   -3.59 KCAL/MOL
REMARK 922        TOTAL FREE ENERGY PREDICTED BY IDOCK:   -4.20 KCAL/MOL
REMARK 923 INTER-LIGAND FREE ENERGY PREDICTED BY IDOCK:   -4.06 KCAL/MOL
REMARK 924 INTRA-LIGAND FREE ENERGY PREDICTED BY IDOCK:   -0.13 KCAL/MOL
REMARK 927      BINDING AFFINITY PREDICTED BY RF-SCORE:    0.00 PKD
ROOT
HETATM    1  C   UNL     1     -11.569  16.884  67.608  1.00  0.00     0.598 C  
HETATM    2  C   UNL     1     -10.701  16.041  66.657  1.00  0.00    -0.247 C  
HETATM    3  C   UNL     1     -11.136  14.578  66.794  1.00  0.00    -0.325 C  
HETATM    4  O   UNL     1     -10.163  13.564  66.941  1.00  0.00    -0.250 OA 
HETATM    5  C   UNL     1      -8.884  13.901  67.278  1.00  0.00    -0.221 A  
HETATM    6  C   UNL     1      -8.439  15.235  67.237  1.00  0.00    -0.193 A  
HETATM    7  N   UNL     1      -9.275  16.313  66.896  1.00  0.00    -0.209 NA 
HETATM    8  C   UNL     1      -8.726  17.580  66.743  1.00  0.00    -0.257 C  
HETATM    9  C   UNL     1      -7.452  17.931  66.975  1.00  0.00    -0.223 C  
HETATM   10  C   UNL     1      -6.545  16.857  67.417  1.00  0.00    -0.162 C  
HETATM   11  C   UNL     1      -7.033  19.335  66.785  1.00  0.00    -0.200 C  
HETATM   12  C   UNL     1      -7.082  15.483  67.526  1.00  0.00    -0.220 A  
HETATM   13  O   UNL     1      -7.796  20.216  66.421  1.00  0.00    -0.289 OA 
HETATM   14  O   UNL     1      -5.734  19.574  67.058  1.00  0.00    -0.175 OA 
HETATM   15  O   UNL     1      -5.368  17.116  67.667  1.00  0.00    -0.109 OA 
HETATM   16  C   UNL     1      -6.209  14.460  67.878  1.00  0.00    -0.167 A  
HETATM   17  C   UNL     1      -6.682  13.160  67.933  1.00  0.00    -0.138 A  
HETATM   18  C   UNL     1      -8.020  12.820  67.635  1.00  0.00    -0.165 A  
HETATM   19  F   UNL     1      -5.782  12.202  68.211  1.00  0.00    -0.049 F  
ENDROOT
BRANCH  18  20
HETATM   20  N   UNL     1      -8.410  11.482  67.642  1.00  0.00    -0.130 NA 
HETATM   21  C   UNL     1      -8.046  10.542  66.574  1.00  0.00    -0.134 C  
HETATM   22  C   UNL     1      -7.776   9.139  67.170  1.00  0.00    -0.098 C  
HETATM   23  N   UNL     1      -8.838   8.595  68.045  1.00  0.00    -0.141 NA 
HETATM   24  C   UNL     1      -9.182   9.615  69.067  1.00  0.00    -0.156 C  
HETATM   25  C   UNL     1     -10.010   8.195  67.271  1.00  0.00    -0.218 C  
HETATM   26  C   UNL     1      -9.509  11.022  68.510  1.00  0.00    -0.188 C  
ENDBRANCH  18  20
TORSDOF 1
ENDMDL
MODEL      101
REMARK 921   NORMALIZED FREE ENERGY PREDICTED BY IDOCK:   -3.43 KCAL/MOL
REMARK 922        TOTAL FREE ENERGY PREDICTED BY IDOCK:   -4.02 KCAL/MOL
REMARK 923 INTER-LIGAND FREE ENERGY PREDICTED BY IDOCK:   -3.62 KCAL/MOL
REMARK 924 INTRA-LIGAND FREE ENERGY PREDICTED BY IDOCK:   -0.41 KCAL/MOL
REMARK 927      BINDING AFFINITY PREDICTED BY RF-SCORE:    0.00 PKD
ROOT
HETATM    1  C   UNL     1      -7.544  11.202  65.875  1.00  0.00     0.085 C  
HETATM    2  C   UNL     1      -7.285  10.770  67.328  1.00  0.00    -0.096 C  
HETATM    3  C   UNL     1      -6.623   9.389  67.301  1.00  0.00    -0.071 C  
HETATM    4  O   UNL     1      -7.093   8.364  68.153  1.00  0.00    -0.081 OA 
HETATM    5  C   UNL     1      -8.311   8.494  68.757  1.00  0.00    -0.122 A  
HETATM    6  C   UNL     1      -9.002   9.719  68.761  1.00  0.00    -0.133 A  
HETATM    7  N   UNL     1      -8.523  10.875  68.117  1.00  0.00    -0.126 NA 
HETATM    8  C   UNL     1      -9.196  12.078  68.287  1.00  0.00    -0.192 C  
HETATM    9  C   UNL     1     -10.347  12.262  68.952  1.00  0.00    -0.085 C  
HETATM   10  C   UNL     1     -10.941  11.070  69.579  1.00  0.00    -0.243 C  
HETATM   11  C   UNL     1     -10.945  13.612  69.018  1.00  0.00    -0.234 C  
HETATM   12  C   UNL     1     -10.216   9.784  69.474  1.00  0.00    -0.238 A  
HETATM   13  O   UNL     1     -10.442  14.593  68.491  1.00  0.00    -0.233 OA 
HETATM   14  O   UNL     1     -12.105  13.677  69.703  1.00  0.00    -0.316 OA 
HETATM   15  O   UNL     1     -12.007  11.166  70.186  1.00  0.00    -0.303 OA 
HETATM   16  C   UNL     1     -10.745   8.674  70.123  1.00  0.00    -0.244 A  
HETATM   17  C   UNL     1     -10.053   7.476  70.080  1.00  0.00    -0.195 A  
HETATM   18  C   UNL     1      -8.818   7.330  69.411  1.00  0.00    -0.137 A  
HETATM   19  F   UNL     1     -10.573   6.455  70.781  1.00  0.00    -0.235 F  
ENDROOT
BRANCH  18  20
HETATM   20  N   UNL     1      -8.142   6.113  69.467  1.00  0.00    -0.110 NA 
HETATM   21  C   UNL     1      -8.575   4.928  68.714  1.00  0.00    -0.089 C  
HETATM   22  C   UNL     1      -7.342   4.131  68.224  1.00  0.00    -0.060 C  
HETATM   23  N   UNL     1      -6.340   3.791  69.259  1.00  0.00    -0.028 NA 
HETATM   24  C   UNL     1      -5.988   5.026  70.003  1.00  0.00    -0.018 C  
HETATM   25  C   UNL     1      -6.834   2.748  70.153  1.00  0.00    -0.033 C  
HETATM   26  C   UNL     1      -7.191   5.828  70.556  1.00  0.00    -0.078 C  
ENDBRANCH  18  20
TORSDOF 1
ENDMDL
MODEL      102
REMARK 921   NORMALIZED FREE ENERGY PREDICTED BY IDOCK:   -3.25 KCAL/MOL
REMARK 922        TOTAL FREE ENERGY PREDICTED BY IDOCK:   -3.84 KCAL/MOL
REMARK 923 INTER-LIGAND FREE ENERGY PREDICTED BY IDOCK:   -4.27 KCAL/MOL
REMARK 924 INTRA-LIGAND FREE ENERGY PREDICTED BY IDOCK:    0.43 KCAL/MOL
REMARK 927      BINDING AFFINITY PREDICTED BY RF-SCORE:    0.00 PKD
ROOT
HETATM    1  C   UNL     1     -10.816   6.001  67.389  1.00  0.00    -0.394 C  
HETATM    2  C   UNL     1      -9.816   7.169  67.428  1.00  0.00    -0.155 C  
HETATM    3  C   UNL     1     -10.587   8.439  67.801  1.00  0.00    -0.171 C  
HETATM    4  O   UNL     1     -10.387   9.628  67.063  1.00  0.00    -0.234 OA 
HETATM    5  C   UNL     1      -9.768   9.571  65.848  1.00  0.00    -0.282 A  
HETATM    6  C   UNL     1      -9.098   8.412  65.418  1.00  0.00     0.010 A  
HETATM    7  N   UNL     1      -9.052   7.225  66.172  1.00  0.00    -0.153 NA 
HETATM    8  C   UNL     1      -8.254   6.173  65.741  1.00  0.00    -0.138 C  
HETATM    9  C   UNL     1      -7.556   6.118  64.596  1.00  0.00    -0.093 C  
HETATM   10  C   UNL     1      -7.632   7.302  63.723  1.00  0.00    -0.110 C  
HETATM   11  C   UNL     1      -6.771   4.908  64.275  1.00  0.00    -0.043 C  
HETATM   12  C   UNL     1      -8.420   8.466  64.183  1.00  0.00    -0.018 A  
HETATM   13  O   UNL     1      -6.718   3.932  65.008  1.00  0.00    -0.046 OA 
HETATM   14  O   UNL     1      -6.119   4.960  63.096  1.00  0.00    -0.020 OA 
HETATM   15  O   UNL     1      -7.032   7.307  62.648  1.00  0.00    -0.068 OA 
HETATM   16  C   UNL     1      -8.436   9.607  63.388  1.00  0.00    -0.188 A  
HETATM   17  C   UNL     1      -9.124  10.724  63.828  1.00  0.00    -0.200 A  
HETATM   18  C   UNL     1      -9.808  10.764  65.063  1.00  0.00    -0.288 A  
HETATM   19  F   UNL     1      -9.050  11.821  63.056  1.00  0.00    -0.269 F  
ENDROOT
BRANCH  18  20
HETATM   20  N   UNL     1     -10.422  11.945  65.475  1.00  0.00    -0.258 NA 
HETATM   21  C   UNL     1     -10.473  12.366  66.881  1.00  0.00    -0.224 C  
HETATM   22  C   UNL     1     -10.338  13.905  66.981  1.00  0.00    -0.267 C  
HETATM   23  N   UNL     1     -11.265  14.690  66.136  1.00  0.00    -0.338 NA 
HETATM   24  C   UNL     1     -11.189  14.179  64.745  1.00  0.00    -0.378 C  
HETATM   25  C   UNL     1     -12.629  14.636  66.654  1.00  0.00     0.369 C  
HETATM   26  C   UNL     1     -11.371  12.650  64.594  1.00  0.00    -0.318 C  
ENDBRANCH  18  20
TORSDOF 1
ENDMDL
MODEL      103
REMARK 921   NORMALIZED FREE ENERGY PREDICTED BY IDOCK:   -3.24 KCAL/MOL
REMARK 922        TOTAL FREE ENERGY PREDICTED BY IDOCK:   -3.82 KCAL/MOL
REMARK 923 INTER-LIGAND FREE ENERGY PREDICTED BY IDOCK:   -3.39 KCAL/MOL
REMARK 924 INTRA-LIGAND FREE ENERGY PREDICTED BY IDOCK:   -0.44 KCAL/MOL
REMARK 927      BINDING AFFINITY PREDICTED BY RF-SCORE:    0.00 PKD
ROOT
HETATM    1  C   UNL     1     -10.798  12.000  66.771  1.00  0.00    -0.307 C  
HETATM    2  C   UNL     1      -9.558  11.198  66.342  1.00  0.00    -0.200 C  
HETATM    3  C   UNL     1     -10.038   9.931  65.626  1.00  0.00    -0.237 C  
HETATM    4  O   UNL     1      -9.477   8.678  65.958  1.00  0.00    -0.225 OA 
HETATM    5  C   UNL     1      -8.756   8.545  67.110  1.00  0.00    -0.129 A  
HETATM    6  C   UNL     1      -8.340   9.667  67.849  1.00  0.00    -0.117 A  
HETATM    7  N   UNL     1      -8.666  10.988  67.492  1.00  0.00    -0.127 NA 
HETATM    8  C   UNL     1      -8.100  12.044  68.196  1.00  0.00    -0.160 C  
HETATM    9  C   UNL     1      -7.311  11.951  69.277  1.00  0.00     0.094 C  
HETATM   10  C   UNL     1      -7.001  10.590  69.749  1.00  0.00    -0.144 C  
HETATM   11  C   UNL     1      -6.808  13.180  69.924  1.00  0.00     0.343 C  
HETATM   12  C   UNL     1      -7.533   9.442  68.984  1.00  0.00    -0.073 A  
HETATM   13  O   UNL     1      -7.075  14.303  69.523  1.00  0.00    -0.118 OA 
HETATM   14  O   UNL     1      -6.034  12.967  71.007  1.00  0.00    -0.276 OA 
HETATM   15  O   UNL     1      -6.300  10.436  70.748  1.00  0.00    -0.271 OA 
HETATM   16  C   UNL     1      -7.185   8.159  69.392  1.00  0.00    -0.067 A  
HETATM   17  C   UNL     1      -7.630   7.074  68.656  1.00  0.00    -0.108 A  
HETATM   18  C   UNL     1      -8.420   7.211  67.494  1.00  0.00    -0.123 A  
HETATM   19  F   UNL     1      -7.208   5.862  69.054  1.00  0.00    -0.071 F  
ENDROOT
BRANCH  18  20
HETATM   20  N   UNL     1      -8.775   6.079  66.763  1.00  0.00    -0.117 NA 
HETATM   21  C   UNL     1      -9.870   5.185  67.163  1.00  0.00    -0.170 C  
HETATM   22  C   UNL     1     -10.609   4.657  65.910  1.00  0.00    -0.223 C  
HETATM   23  N   UNL     1      -9.755   4.049  64.866  1.00  0.00    -0.183 NA 
HETATM   24  C   UNL     1      -8.651   4.988  64.548  1.00  0.00    -0.143 C  
HETATM   25  C   UNL     1      -9.248   2.747  65.287  1.00  0.00    -0.130 C  
HETATM   26  C   UNL     1      -7.851   5.502  65.770  1.00  0.00    -0.104 C  
ENDBRANCH  18  20
TORSDOF 1
ENDMDL
MODEL      104
REMARK 921   NORMALIZED FREE ENERGY PREDICTED BY IDOCK:   -3.24 KCAL/MOL
REMARK 922        TOTAL FREE ENERGY PREDICTED BY IDOCK:   -3.82 KCAL/MOL
REMARK 923 INTER-LIGAND FREE ENERGY PREDICTED BY IDOCK:   -3.39 KCAL/MOL
REMARK 924 INTRA-LIGAND FREE ENERGY PREDICTED BY IDOCK:   -0.44 KCAL/MOL
REMARK 927      BINDING AFFINITY PREDICTED BY RF-SCORE:    0.00 PKD
ROOT
HETATM    1  C   UNL     1      -9.832   9.445  70.568  1.00  0.00    -0.331 C  
HETATM    2  C   UNL     1     -10.006   9.213  69.057  1.00  0.00    -0.184 C  
HETATM    3  C   UNL     1     -10.303   7.726  68.838  1.00  0.00    -0.213 C  
HETATM    4  O   UNL     1      -9.611   7.009  67.836  1.00  0.00    -0.124 OA 
HETATM    5  C   UNL     1      -8.478   7.537  67.289  1.00  0.00    -0.118 A  
HETATM    6  C   UNL     1      -8.114   8.879  67.505  1.00  0.00    -0.109 A  
HETATM    7  N   UNL     1      -8.851   9.753  68.324  1.00  0.00    -0.119 NA 
HETATM    8  C   UNL     1      -8.503  11.097  68.373  1.00  0.00    -0.151 C  
HETATM    9  C   UNL     1      -7.449  11.671  67.773  1.00  0.00    -0.111 C  
HETATM   10  C   UNL     1      -6.589  10.787  66.967  1.00  0.00    -0.085 C  
HETATM   11  C   UNL     1      -7.207  13.118  67.947  1.00  0.00    -0.133 C  
HETATM   12  C   UNL     1      -6.969   9.363  66.839  1.00  0.00    -0.081 A  
HETATM   13  O   UNL     1      -7.926  13.840  68.620  1.00  0.00    -0.138 OA 
HETATM   14  O   UNL     1      -6.114  13.584  67.308  1.00  0.00    -0.327 OA 
HETATM   15  O   UNL     1      -5.595  11.246  66.408  1.00  0.00    -0.127 OA 
HETATM   16  C   UNL     1      -6.195   8.544  66.024  1.00  0.00    -0.052 A  
HETATM   17  C   UNL     1      -6.566   7.222  65.851  1.00  0.00    -0.052 A  
HETATM   18  C   UNL     1      -7.710   6.663  66.460  1.00  0.00    -0.102 A  
HETATM   19  F   UNL     1      -5.823   6.495  65.000  1.00  0.00    -0.026 F  
ENDROOT
BRANCH  18  20
HETATM   20  N   UNL     1      -8.063   5.343  66.185  1.00  0.00    -0.105 NA 
HETATM   21  C   UNL     1      -7.449   4.197  66.871  1.00  0.00    -0.077 C  
HETATM   22  C   UNL     1      -8.503   3.086  67.096  1.00  0.00    -0.095 C  
HETATM   23  N   UNL     1      -9.267   2.669  65.899  1.00  0.00    -0.106 NA 
HETATM   24  C   UNL     1      -9.816   3.879  65.240  1.00  0.00    -0.178 C  
HETATM   25  C   UNL     1      -8.436   1.890  64.986  1.00  0.00    -0.092 C  
HETATM   26  C   UNL     1      -8.785   4.996  64.948  1.00  0.00    -0.150 C  
ENDBRANCH  18  20
TORSDOF 1
ENDMDL
MODEL      105
REMARK 921   NORMALIZED FREE ENERGY PREDICTED BY IDOCK:   -3.12 KCAL/MOL
REMARK 922        TOTAL FREE ENERGY PREDICTED BY IDOCK:   -3.70 KCAL/MOL
REMARK 923 INTER-LIGAND FREE ENERGY PREDICTED BY IDOCK:   -3.57 KCAL/MOL
REMARK 924 INTRA-LIGAND FREE ENERGY PREDICTED BY IDOCK:   -0.13 KCAL/MOL
REMARK 927      BINDING AFFINITY PREDICTED BY RF-SCORE:    0.00 PKD
ROOT
HETATM    1  C   UNL     1     -10.037   6.803  66.708  1.00  0.00    -0.250 C  
HETATM    2  C   UNL     1     -10.304   7.796  67.852  1.00  0.00    -0.217 C  
HETATM    3  C   UNL     1     -10.770   9.117  67.232  1.00  0.00    -0.154 C  
HETATM    4  O   UNL     1     -10.207  10.338  67.667  1.00  0.00    -0.184 OA 
HETATM    5  C   UNL     1      -9.049  10.327  68.390  1.00  0.00    -0.136 A  
HETATM    6  C   UNL     1      -8.532   9.136  68.932  1.00  0.00    -0.129 A  
HETATM    7  N   UNL     1      -9.132   7.879  68.738  1.00  0.00    -0.141 NA 
HETATM    8  C   UNL     1      -8.639   6.775  69.421  1.00  0.00    -0.132 C  
HETATM    9  C   UNL     1      -7.557   6.745  70.215  1.00  0.00    -0.096 C  
HETATM   10  C   UNL     1      -6.837   8.018  70.391  1.00  0.00    -0.037 C  
HETATM   11  C   UNL     1      -7.152   5.475  70.852  1.00  0.00    -0.069 C  
HETATM   12  C   UNL     1      -7.374   9.228  69.730  1.00  0.00    -0.072 A  
HETATM   13  O   UNL     1      -7.758   4.426  70.696  1.00  0.00    -0.052 OA 
HETATM   14  O   UNL     1      -6.046   5.562  71.619  1.00  0.00    -0.027 OA 
HETATM   15  O   UNL     1      -5.824   8.055  71.090  1.00  0.00    -0.034 OA 
HETATM   16  C   UNL     1      -6.731  10.441  69.952  1.00  0.00    -0.134 A  
HETATM   17  C   UNL     1      -7.251  11.591  69.385  1.00  0.00     0.002 A  
HETATM   18  C   UNL     1      -8.420  11.593  68.593  1.00  0.00    -0.094 A  
HETATM   19  F   UNL     1      -6.631  12.745  69.687  1.00  0.00    -0.116 F  
ENDROOT
BRANCH  18  20
HETATM   20  N   UNL     1      -8.926  12.799  68.112  1.00  0.00    -0.197 NA 
HETATM   21  C   UNL     1     -10.273  13.284  68.442  1.00  0.00    -0.249 C  
HETATM   22  C   UNL     1     -10.259  14.825  68.596  1.00  0.00    -0.236 C  
HETATM   23  N   UNL     1      -9.660  15.580  67.474  1.00  0.00    -0.212 NA 
HETATM   24  C   UNL     1      -8.326  15.006  67.173  1.00  0.00    -0.217 C  
HETATM   25  C   UNL     1     -10.529  15.565  66.301  1.00  0.00    -0.307 C  
HETATM   26  C   UNL     1      -8.302  13.473  66.959  1.00  0.00    -0.080 C  
ENDBRANCH  18  20
TORSDOF 1
ENDMDL
MODEL      106
REMARK 921   NORMALIZED FREE ENERGY PREDICTED BY IDOCK:   -2.93 KCAL/MOL
REMARK 922        TOTAL FREE ENERGY PREDICTED BY IDOCK:   -3.50 KCAL/MOL
REMARK 923 INTER-LIGAND FREE ENERGY PREDICTED BY IDOCK:   -3.11 KCAL/MOL
REMARK 924 INTRA-LIGAND FREE ENERGY PREDICTED BY IDOCK:   -0.39 KCAL/MOL
REMARK 927      BINDING AFFINITY PREDICTED BY RF-SCORE:    0.00 PKD
ROOT
HETATM    1  C   UNL     1      -7.598   9.778  67.203  1.00  0.00    -0.092 C  
HETATM    2  C   UNL     1      -6.926   8.394  67.234  1.00  0.00    -0.075 C  
HETATM    3  C   UNL     1      -7.176   7.717  65.882  1.00  0.00    -0.072 C  
HETATM    4  O   UNL     1      -7.617   6.375  65.837  1.00  0.00    -0.080 OA 
HETATM    5  C   UNL     1      -8.119   5.791  66.963  1.00  0.00    -0.102 A  
HETATM    6  C   UNL     1      -7.981   6.393  68.227  1.00  0.00    -0.106 A  
HETATM    7  N   UNL     1      -7.365   7.643  68.420  1.00  0.00    -0.093 NA 
HETATM    8  C   UNL     1      -7.145   8.102  69.713  1.00  0.00    -0.060 C  
HETATM    9  C   UNL     1      -7.542   7.509  70.849  1.00  0.00    -0.081 C  
HETATM   10  C   UNL     1      -8.267   6.235  70.707  1.00  0.00    -0.125 C  
HETATM   11  C   UNL     1      -7.245   8.145  72.149  1.00  0.00    -0.091 C  
HETATM   12  C   UNL     1      -8.461   5.684  69.347  1.00  0.00    -0.106 A  
HETATM   13  O   UNL     1      -6.644   9.204  72.253  1.00  0.00    -0.298 OA 
HETATM   14  O   UNL     1      -7.700   7.466  73.222  1.00  0.00    -0.090 OA 
HETATM   15  O   UNL     1      -8.677   5.650  71.708  1.00  0.00    -0.134 OA 
HETATM   16  C   UNL     1      -9.086   4.449  69.219  1.00  0.00    -0.174 A  
HETATM   17  C   UNL     1      -9.228   3.894  67.959  1.00  0.00    -0.163 A  
HETATM   18  C   UNL     1      -8.754   4.524  66.788  1.00  0.00    -0.111 A  
HETATM   19  F   UNL     1      -9.777   2.669  67.899  1.00  0.00    -0.261 F  
ENDROOT
BRANCH  18  20
HETATM   20  N   UNL     1      -8.870   3.875  65.560  1.00  0.00    -0.120 NA 
HETATM   21  C   UNL     1     -10.038   4.035  64.683  1.00  0.00    -0.206 C  
HETATM   22  C   UNL     1      -9.594   4.025  63.200  1.00  0.00    -0.150 C  
HETATM   23  N   UNL     1      -8.747   2.885  62.788  1.00  0.00    -0.085 NA 
HETATM   24  C   UNL     1      -7.618   2.762  63.742  1.00  0.00    -0.067 C  
HETATM   25  C   UNL     1      -9.521   1.649  62.710  1.00  0.00    -0.089 C  
HETATM   26  C   UNL     1      -8.020   2.715  65.236  1.00  0.00    -0.082 C  
ENDBRANCH  18  20
TORSDOF 1
ENDMDL
MODEL      107
REMARK 921   NORMALIZED FREE ENERGY PREDICTED BY IDOCK:   -2.91 KCAL/MOL
REMARK 922        TOTAL FREE ENERGY PREDICTED BY IDOCK:   -3.48 KCAL/MOL
REMARK 923 INTER-LIGAND FREE ENERGY PREDICTED BY IDOCK:   -4.65 KCAL/MOL
REMARK 924 INTRA-LIGAND FREE ENERGY PREDICTED BY IDOCK:    1.17 KCAL/MOL
REMARK 927      BINDING AFFINITY PREDICTED BY RF-SCORE:    0.00 PKD
ROOT
HETATM    1  C   UNL     1     -11.197  15.894  64.501  1.00  0.00    -0.324 C  
HETATM    2  C   UNL     1     -10.900  15.739  66.002  1.00  0.00    -0.255 C  
HETATM    3  C   UNL     1     -10.433  17.098  66.535  1.00  0.00    -0.255 C  
HETATM    4  O   UNL     1      -9.285  17.178  67.354  1.00  0.00    -0.229 OA 
HETATM    5  C   UNL     1      -8.422  16.122  67.412  1.00  0.00    -0.170 A  
HETATM    6  C   UNL     1      -8.764  14.864  66.883  1.00  0.00    -0.248 A  
HETATM    7  N   UNL     1      -9.981  14.612  66.225  1.00  0.00    -0.276 NA 
HETATM    8  C   UNL     1     -10.300  13.311  65.856  1.00  0.00    -0.292 C  
HETATM    9  C   UNL     1      -9.514  12.230  65.982  1.00  0.00    -0.194 C  
HETATM   10  C   UNL     1      -8.190  12.448  66.590  1.00  0.00     0.060 C  
HETATM   11  C   UNL     1      -9.999  10.915  65.516  1.00  0.00    -0.260 C  
HETATM   12  C   UNL     1      -7.845  13.809  67.055  1.00  0.00     0.105 A  
HETATM   13  O   UNL     1     -11.099  10.749  65.010  1.00  0.00     0.012 OA 
HETATM   14  O   UNL     1      -9.122   9.904  65.682  1.00  0.00    -0.156 OA 
HETATM   15  O   UNL     1      -7.413  11.502  66.715  1.00  0.00    -0.144 OA 
HETATM   16  C   UNL     1      -6.622  13.999  67.689  1.00  0.00    -0.175 A  
HETATM   17  C   UNL     1      -6.305  15.255  68.177  1.00  0.00    -0.128 A  
HETATM   18  C   UNL     1      -7.177  16.359  68.070  1.00  0.00    -0.136 A  
HETATM   19  F   UNL     1      -5.142  15.367  68.841  1.00  0.00    -0.095 F  
ENDROOT
BRANCH  18  20
HETATM   20  N   UNL     1      -6.822  17.578  68.647  1.00  0.00    -0.217 NA 
HETATM   21  C   UNL     1      -7.521  18.834  68.344  1.00  0.00    -0.298 C  
HETATM   22  C   UNL     1      -7.603  19.715  69.614  1.00  0.00     0.117 C  
HETATM   23  N   UNL     1      -6.325  19.952  70.319  1.00  0.00    -0.325 NA 
HETATM   24  C   UNL     1      -5.660  18.646  70.550  1.00  0.00    -0.197 C  
HETATM   25  C   UNL     1      -5.467  20.866  69.570  1.00  0.00    -0.374 C  
HETATM   26  C   UNL     1      -5.510  17.752  69.294  1.00  0.00    -0.195 C  
ENDBRANCH  18  20
TORSDOF 1
ENDMDL
MODEL      108
REMARK 921   NORMALIZED FREE ENERGY PREDICTED BY IDOCK:   -2.89 KCAL/MOL
REMARK 922        TOTAL FREE ENERGY PREDICTED BY IDOCK:   -3.45 KCAL/MOL
REMARK 923 INTER-LIGAND FREE ENERGY PREDICTED BY IDOCK:   -3.39 KCAL/MOL
REMARK 924 INTRA-LIGAND FREE ENERGY PREDICTED BY IDOCK:   -0.06 KCAL/MOL
REMARK 927      BINDING AFFINITY PREDICTED BY RF-SCORE:    0.00 PKD
ROOT
HETATM    1  C   UNL     1      -5.356   8.270  71.258  1.00  0.00    -0.033 C  
HETATM    2  C   UNL     1      -5.692   8.663  69.810  1.00  0.00    -0.029 C  
HETATM    3  C   UNL     1      -5.979  10.168  69.784  1.00  0.00    -0.047 C  
HETATM    4  O   UNL     1      -7.117  10.658  69.104  1.00  0.00    -0.075 OA 
HETATM    5  C   UNL     1      -8.115   9.796  68.752  1.00  0.00    -0.102 A  
HETATM    6  C   UNL     1      -7.938   8.401  68.815  1.00  0.00    -0.120 A  
HETATM    7  N   UNL     1      -6.757   7.797  69.282  1.00  0.00    -0.043 NA 
HETATM    8  C   UNL     1      -6.611   6.419  69.181  1.00  0.00    -0.048 C  
HETATM    9  C   UNL     1      -7.536   5.547  68.752  1.00  0.00    -0.083 C  
HETATM   10  C   UNL     1      -8.827   6.115  68.328  1.00  0.00    -0.112 C  
HETATM   11  C   UNL     1      -7.226   4.103  68.729  1.00  0.00    -0.055 C  
HETATM   12  C   UNL     1      -8.993   7.585  68.359  1.00  0.00    -0.128 A  
HETATM   13  O   UNL     1      -6.151   3.644  69.086  1.00  0.00    -0.026 OA 
HETATM   14  O   UNL     1      -8.233   3.321  68.289  1.00  0.00    -0.075 OA 
HETATM   15  O   UNL     1      -9.726   5.369  67.943  1.00  0.00    -0.124 OA 
HETATM   16  C   UNL     1     -10.188   8.124  67.895  1.00  0.00    -0.274 A  
HETATM   17  C   UNL     1     -10.340   9.500  67.868  1.00  0.00    -0.227 A  
HETATM   18  C   UNL     1      -9.326  10.390  68.282  1.00  0.00    -0.149 A  
HETATM   19  F   UNL     1     -11.486   9.968  67.346  1.00  0.00    -0.292 F  
ENDROOT
BRANCH  18  20
HETATM   20  N   UNL     1      -9.522  11.764  68.161  1.00  0.00    -0.188 NA 
HETATM   21  C   UNL     1      -8.606  12.635  67.412  1.00  0.00    -0.189 C  
HETATM   22  C   UNL     1      -9.403  13.751  66.693  1.00  0.00    -0.264 C  
HETATM   23  N   UNL     1     -10.333  14.528  67.542  1.00  0.00    -0.243 NA 
HETATM   24  C   UNL     1     -11.192  13.582  68.296  1.00  0.00    -0.274 C  
HETATM   25  C   UNL     1      -9.610  15.427  68.436  1.00  0.00    -0.200 C  
HETATM   26  C   UNL     1     -10.432  12.480  69.073  1.00  0.00     0.010 C  
ENDBRANCH  18  20
TORSDOF 1
ENDMDL
MODEL      109
REMARK 921   NORMALIZED FREE ENERGY PREDICTED BY IDOCK:   -2.82 KCAL/MOL
REMARK 922        TOTAL FREE ENERGY PREDICTED BY IDOCK:   -3.38 KCAL/MOL
REMARK 923 INTER-LIGAND FREE ENERGY PREDICTED BY IDOCK:   -3.39 KCAL/MOL
REMARK 924 INTRA-LIGAND FREE ENERGY PREDICTED BY IDOCK:    0.00 KCAL/MOL
REMARK 927      BINDING AFFINITY PREDICTED BY RF-SCORE:    0.00 PKD
ROOT
HETATM    1  C   UNL     1      -5.975   8.586  67.214  1.00  0.00    -0.051 C  
HETATM    2  C   UNL     1      -7.479   8.588  66.894  1.00  0.00    -0.084 C  
HETATM    3  C   UNL     1      -8.133   9.714  67.702  1.00  0.00    -0.113 C  
HETATM    4  O   UNL     1      -9.323   9.467  68.422  1.00  0.00    -0.134 OA 
HETATM    5  C   UNL     1      -9.712   8.180  68.661  1.00  0.00    -0.153 A  
HETATM    6  C   UNL     1      -9.107   7.095  68.001  1.00  0.00    -0.132 A  
HETATM    7  N   UNL     1      -8.043   7.244  67.093  1.00  0.00    -0.113 NA 
HETATM    8  C   UNL     1      -7.596   6.138  66.380  1.00  0.00    -0.094 C  
HETATM    9  C   UNL     1      -8.020   4.873  66.521  1.00  0.00    -0.107 C  
HETATM   10  C   UNL     1      -9.077   4.641  67.519  1.00  0.00    -0.121 C  
HETATM   11  C   UNL     1      -7.420   3.804  65.695  1.00  0.00    -0.077 C  
HETATM   12  C   UNL     1      -9.623   5.807  68.249  1.00  0.00    -0.139 A  
HETATM   13  O   UNL     1      -6.540   4.010  64.872  1.00  0.00    -0.041 OA 
HETATM   14  O   UNL     1      -7.914   2.572  65.929  1.00  0.00    -0.080 OA 
HETATM   15  O   UNL     1      -9.496   3.501  67.712  1.00  0.00    -0.195 OA 
HETATM   16  C   UNL     1     -10.668   5.596  69.142  1.00  0.00    -0.325 A  
HETATM   17  C   UNL     1     -11.226   6.682  69.794  1.00  0.00    -0.356 A  
HETATM   18  C   UNL     1     -10.787   8.007  69.585  1.00  0.00    -0.169 A  
HETATM   19  F   UNL     1     -12.276   6.430  70.593  1.00  0.00    -0.411 F  
ENDROOT
BRANCH  18  20
HETATM   20  N   UNL     1     -11.441   9.060  70.224  1.00  0.00    -0.185 NA 
HETATM   21  C   UNL     1     -11.968  10.224  69.499  1.00  0.00    -0.016 C  
HETATM   22  C   UNL     1     -13.293  10.696  70.145  1.00  0.00     0.487 C  
HETATM   23  N   UNL     1     -13.252  10.928  71.606  1.00  0.00    -0.401 NA 
HETATM   24  C   UNL     1     -12.669   9.731  72.261  1.00  0.00    -0.251 C  
HETATM   25  C   UNL     1     -12.499  12.137  71.930  1.00  0.00     0.273 C  
HETATM   26  C   UNL     1     -11.316   9.254  71.679  1.00  0.00    -0.397 C  
ENDBRANCH  18  20
TORSDOF 1
ENDMDL
MODEL      110
REMARK 921   NORMALIZED FREE ENERGY PREDICTED BY IDOCK:   -2.69 KCAL/MOL
REMARK 922        TOTAL FREE ENERGY PREDICTED BY IDOCK:   -3.25 KCAL/MOL
REMARK 923 INTER-LIGAND FREE ENERGY PREDICTED BY IDOCK:   -2.95 KCAL/MOL
REMARK 924 INTRA-LIGAND FREE ENERGY PREDICTED BY IDOCK:   -0.29 KCAL/MOL
REMARK 927      BINDING AFFINITY PREDICTED BY RF-SCORE:    0.00 PKD
ROOT
HETATM    1  C   UNL     1      -6.937  11.701  68.304  1.00  0.00    -0.074 C  
HETATM    2  C   UNL     1      -8.059  10.660  68.147  1.00  0.00    -0.114 C  
HETATM    3  C   UNL     1      -8.590  10.324  69.545  1.00  0.00    -0.138 C  
HETATM    4  O   UNL     1      -8.781   8.976  69.922  1.00  0.00    -0.137 OA 
HETATM    5  C   UNL     1      -8.207   7.981  69.184  1.00  0.00    -0.130 A  
HETATM    6  C   UNL     1      -7.642   8.235  67.921  1.00  0.00    -0.102 A  
HETATM    7  N   UNL     1      -7.585   9.519  67.348  1.00  0.00    -0.095 NA 
HETATM    8  C   UNL     1      -7.139   9.663  66.041  1.00  0.00    -0.097 C  
HETATM    9  C   UNL     1      -6.654   8.692  65.251  1.00  0.00    -0.064 C  
HETATM   10  C   UNL     1      -6.610   7.337  65.827  1.00  0.00    -0.048 C  
HETATM   11  C   UNL     1      -6.197   9.020  63.885  1.00  0.00    -0.087 C  
HETATM   12  C   UNL     1      -7.140   7.136  67.194  1.00  0.00    -0.087 A  
HETATM   13  O   UNL     1      -6.236  10.149  63.420  1.00  0.00    -0.130 OA 
HETATM   14  O   UNL     1      -5.720   7.969  63.187  1.00  0.00    -0.061 OA 
HETATM   15  O   UNL     1      -6.158   6.405  65.164  1.00  0.00    -0.029 OA 
HETATM   16  C   UNL     1      -7.161   5.846  67.711  1.00  0.00    -0.071 A  
HETATM   17  C   UNL     1      -7.701   5.632  68.967  1.00  0.00    -0.089 A  
HETATM   18  C   UNL     1      -8.248   6.671  69.751  1.00  0.00    -0.127 A  
HETATM   19  F   UNL     1      -7.759   4.358  69.389  1.00  0.00    -0.054 F  
ENDROOT
BRANCH  18  20
HETATM   20  N   UNL     1      -8.839   6.372  70.978  1.00  0.00    -0.139 NA 
HETATM   21  C   UNL     1     -10.292   6.407  71.189  1.00  0.00    -0.205 C  
HETATM   22  C   UNL     1     -10.715   5.277  72.159  1.00  0.00    -0.209 C  
HETATM   23  N   UNL     1      -9.973   5.212  73.437  1.00  0.00    -0.160 NA 
HETATM   24  C   UNL     1      -8.519   5.225  73.144  1.00  0.00    -0.114 C  
HETATM   25  C   UNL     1     -10.351   6.307  74.325  1.00  0.00    -0.286 C  
HETATM   26  C   UNL     1      -8.043   6.371  72.218  1.00  0.00    -0.107 C  
ENDBRANCH  18  20
TORSDOF 1
ENDMDL
MODEL      111
REMARK 921   NORMALIZED FREE ENERGY PREDICTED BY IDOCK:   -2.69 KCAL/MOL
REMARK 922        TOTAL FREE ENERGY PREDICTED BY IDOCK:   -3.24 KCAL/MOL
REMARK 923 INTER-LIGAND FREE ENERGY PREDICTED BY IDOCK:   -3.17 KCAL/MOL
REMARK 924 INTRA-LIGAND FREE ENERGY PREDICTED BY IDOCK:   -0.08 KCAL/MOL
REMARK 927      BINDING AFFINITY PREDICTED BY RF-SCORE:    0.00 PKD
ROOT
HETATM    1  C   UNL     1      -5.807  18.476  67.144  1.00  0.00    -0.156 C  
HETATM    2  C   UNL     1      -6.887  17.668  67.883  1.00  0.00    -0.190 C  
HETATM    3  C   UNL     1      -6.275  16.323  68.290  1.00  0.00    -0.120 C  
HETATM    4  O   UNL     1      -6.984  15.124  68.051  1.00  0.00    -0.108 OA 
HETATM    5  C   UNL     1      -8.044  15.127  67.190  1.00  0.00    -0.214 A  
HETATM    6  C   UNL     1      -8.611  16.328  66.727  1.00  0.00    -0.237 A  
HETATM    7  N   UNL     1      -8.113  17.597  67.072  1.00  0.00    -0.214 NA 
HETATM    8  C   UNL     1      -8.814  18.733  66.686  1.00  0.00    -0.314 C  
HETATM    9  C   UNL     1      -9.913  18.770  65.918  1.00  0.00    -0.146 C  
HETATM   10  C   UNL     1     -10.435  17.473  65.455  1.00  0.00    -0.068 C  
HETATM   11  C   UNL     1     -10.526  20.071  65.580  1.00  0.00    -0.211 C  
HETATM   12  C   UNL     1      -9.752  16.239  65.903  1.00  0.00    -0.354 A  
HETATM   13  O   UNL     1     -10.081  21.141  65.968  1.00  0.00     0.952 OA 
HETATM   14  O   UNL     1     -11.619  19.988  64.794  1.00  0.00     0.497 OA 
HETATM   15  O   UNL     1     -11.429  17.438  64.730  1.00  0.00    -0.521 OA 
HETATM   16  C   UNL     1     -10.285  15.014  65.520  1.00  0.00    -0.406 A  
HETATM   17  C   UNL     1      -9.690  13.849  65.973  1.00  0.00    -0.250 A  
HETATM   18  C   UNL     1      -8.561  13.848  66.821  1.00  0.00    -0.041 A  
HETATM   19  F   UNL     1     -10.286  12.695  65.631  1.00  0.00    -0.257 F  
ENDROOT
BRANCH  18  20
HETATM   20  N   UNL     1      -8.056  12.638  67.295  1.00  0.00    -0.184 NA 
HETATM   21  C   UNL     1      -8.750  11.828  68.305  1.00  0.00    -0.167 C  
HETATM   22  C   UNL     1      -8.554  10.322  68.003  1.00  0.00    -0.118 C  
HETATM   23  N   UNL     1      -7.156   9.880  67.806  1.00  0.00    -0.086 NA 
HETATM   24  C   UNL     1      -6.512  10.770  66.810  1.00  0.00    -0.096 C  
HETATM   25  C   UNL     1      -6.422   9.865  69.068  1.00  0.00    -0.048 C  
HETATM   26  C   UNL     1      -6.638  12.285  67.101  1.00  0.00    -0.109 C  
ENDBRANCH  18  20
TORSDOF 1
ENDMDL
MODEL      112
REMARK 921   NORMALIZED FREE ENERGY PREDICTED BY IDOCK:   -2.66 KCAL/MOL
REMARK 922        TOTAL FREE ENERGY PREDICTED BY IDOCK:   -3.22 KCAL/MOL
REMARK 923 INTER-LIGAND FREE ENERGY PREDICTED BY IDOCK:   -3.01 KCAL/MOL
REMARK 924 INTRA-LIGAND FREE ENERGY PREDICTED BY IDOCK:   -0.21 KCAL/MOL
REMARK 927      BINDING AFFINITY PREDICTED BY RF-SCORE:    0.00 PKD
ROOT
HETATM    1  C   UNL     1     -11.032   8.420  69.366  1.00  0.00    -0.016 C  
HETATM    2  C   UNL     1     -11.022   8.573  67.835  1.00  0.00     0.165 C  
HETATM    3  C   UNL     1     -10.344   7.334  67.240  1.00  0.00    -0.279 C  
HETATM    4  O   UNL     1      -9.354   7.482  66.243  1.00  0.00    -0.172 OA 
HETATM    5  C   UNL     1      -8.780   8.703  66.038  1.00  0.00    -0.170 A  
HETATM    6  C   UNL     1      -9.316   9.872  66.609  1.00  0.00    -0.157 A  
HETATM    7  N   UNL     1     -10.437   9.869  67.457  1.00  0.00    -0.237 NA 
HETATM    8  C   UNL     1     -10.986  11.078  67.866  1.00  0.00    -0.264 C  
HETATM    9  C   UNL     1     -10.503  12.303  67.606  1.00  0.00    -0.230 C  
HETATM   10  C   UNL     1      -9.279  12.366  66.790  1.00  0.00    -0.212 C  
HETATM   11  C   UNL     1     -11.199  13.492  68.139  1.00  0.00    -0.272 C  
HETATM   12  C   UNL     1      -8.705  11.100  66.282  1.00  0.00    -0.183 A  
HETATM   13  O   UNL     1     -12.213  13.425  68.818  1.00  0.00    -0.295 OA 
HETATM   14  O   UNL     1     -10.619  14.668  67.824  1.00  0.00    -0.247 OA 
HETATM   15  O   UNL     1      -8.772  13.457  66.532  1.00  0.00    -0.071 OA 
HETATM   16  C   UNL     1      -7.589  11.166  65.456  1.00  0.00     0.293 A  
HETATM   17  C   UNL     1      -7.071   9.996  64.929  1.00  0.00    -0.136 A  
HETATM   18  C   UNL     1      -7.635   8.727  65.184  1.00  0.00    -0.096 A  
HETATM   19  F   UNL     1      -6.035  10.123  64.082  1.00  0.00    -0.103 F  
ENDROOT
BRANCH  18  20
HETATM   20  N   UNL     1      -7.104   7.598  64.564  1.00  0.00    -0.063 NA 
HETATM   21  C   UNL     1      -5.707   7.177  64.741  1.00  0.00    -0.033 C  
HETATM   22  C   UNL     1      -5.617   5.632  64.767  1.00  0.00    -0.017 C  
HETATM   23  N   UNL     1      -6.266   4.929  63.639  1.00  0.00    -0.022 NA 
HETATM   24  C   UNL     1      -7.653   5.437  63.497  1.00  0.00    -0.065 C  
HETATM   25  C   UNL     1      -5.506   5.092  62.404  1.00  0.00    -0.013 C  
HETATM   26  C   UNL     1      -7.786   6.977  63.415  1.00  0.00    -0.118 C  
ENDBRANCH  18  20
TORSDOF 1
ENDMDL
MODEL      113
REMARK 921   NORMALIZED FREE ENERGY PREDICTED BY IDOCK:   -2.66 KCAL/MOL
REMARK 922        TOTAL FREE ENERGY PREDICTED BY IDOCK:   -3.21 KCAL/MOL
REMARK 923 INTER-LIGAND FREE ENERGY PREDICTED BY IDOCK:   -3.89 KCAL/MOL
REMARK 924 INTRA-LIGAND FREE ENERGY PREDICTED BY IDOCK:    0.68 KCAL/MOL
REMARK 927      BINDING AFFINITY PREDICTED BY RF-SCORE:    0.00 PKD
ROOT
HETATM    1  C   UNL     1     -12.352  12.471  70.863  1.00  0.00    -0.349 C  
HETATM    2  C   UNL     1     -11.034  12.909  70.202  1.00  0.00     0.889 C  
HETATM    3  C   UNL     1     -10.990  14.440  70.203  1.00  0.00     0.055 C  
HETATM    4  O   UNL     1     -10.628  15.137  69.028  1.00  0.00    -0.228 OA 
HETATM    5  C   UNL     1     -10.629  14.483  67.830  1.00  0.00    -0.250 A  
HETATM    6  C   UNL     1     -10.731  13.082  67.756  1.00  0.00    -0.229 A  
HETATM    7  N   UNL     1     -10.885  12.262  68.889  1.00  0.00    -0.218 NA 
HETATM    8  C   UNL     1     -10.839  10.882  68.742  1.00  0.00    -0.209 C  
HETATM    9  C   UNL     1     -10.746  10.204  67.587  1.00  0.00    -0.339 C  
HETATM   10  C   UNL     1     -10.666  11.010  66.357  1.00  0.00    -0.227 C  
HETATM   11  C   UNL     1     -10.733   8.727  67.605  1.00  0.00    -0.136 C  
HETATM   12  C   UNL     1     -10.646  12.485  66.482  1.00  0.00    -0.265 A  
HETATM   13  O   UNL     1     -10.802   8.070  68.633  1.00  0.00    -0.079 OA 
HETATM   14  O   UNL     1     -10.647   8.153  66.388  1.00  0.00    -0.048 OA 
HETATM   15  O   UNL     1     -10.600  10.451  65.264  1.00  0.00    -0.191 OA 
HETATM   16  C   UNL     1     -10.503  13.243  65.325  1.00  0.00    -0.324 A  
HETATM   17  C   UNL     1     -10.428  14.621  65.429  1.00  0.00    -0.380 A  
HETATM   18  C   UNL     1     -10.481  15.299  66.666  1.00  0.00    -0.290 A  
HETATM   19  F   UNL     1     -10.221  15.300  64.288  1.00  0.00    -0.005 F  
ENDROOT
BRANCH  18  20
HETATM   20  N   UNL     1     -10.329  16.684  66.701  1.00  0.00    -0.301 NA 
HETATM   21  C   UNL     1     -11.139  17.550  67.569  1.00  0.00     0.071 C  
HETATM   22  C   UNL     1     -10.281  18.725  68.096  1.00  0.00    -0.381 C  
HETATM   23  N   UNL     1      -9.550  19.501  67.069  1.00  0.00    -0.321 NA 
HETATM   24  C   UNL     1      -8.794  18.558  66.209  1.00  0.00    -0.207 C  
HETATM   25  C   UNL     1     -10.459  20.332  66.286  1.00  0.00    -0.206 C  
HETATM   26  C   UNL     1      -9.627  17.394  65.618  1.00  0.00     0.272 C  
ENDBRANCH  18  20
TORSDOF 1
ENDMDL
MODEL      114
REMARK 921   NORMALIZED FREE ENERGY PREDICTED BY IDOCK:   -2.65 KCAL/MOL
REMARK 922        TOTAL FREE ENERGY PREDICTED BY IDOCK:   -3.20 KCAL/MOL
REMARK 923 INTER-LIGAND FREE ENERGY PREDICTED BY IDOCK:   -2.77 KCAL/MOL
REMARK 924 INTRA-LIGAND FREE ENERGY PREDICTED BY IDOCK:   -0.43 KCAL/MOL
REMARK 927      BINDING AFFINITY PREDICTED BY RF-SCORE:    0.00 PKD
ROOT
HETATM    1  C   UNL     1     -13.475   9.891  72.454  1.00  0.00    -0.301 C  
HETATM    2  C   UNL     1     -13.213   8.727  71.484  1.00  0.00    -0.314 C  
HETATM    3  C   UNL     1     -12.919   7.475  72.316  1.00  0.00     0.038 C  
HETATM    4  O   UNL     1     -11.814   6.655  71.991  1.00  0.00    -0.302 OA 
HETATM    5  C   UNL     1     -10.841   7.132  71.161  1.00  0.00    -0.239 A  
HETATM    6  C   UNL     1     -11.023   8.312  70.418  1.00  0.00    -0.239 A  
HETATM    7  N   UNL     1     -12.182   9.105  70.504  1.00  0.00    -0.006 NA 
HETATM    8  C   UNL     1     -12.341  10.177  69.635  1.00  0.00     0.226 C  
HETATM    9  C   UNL     1     -11.444  10.619  68.740  1.00  0.00    -0.330 C  
HETATM   10  C   UNL     1     -10.174   9.878  68.662  1.00  0.00    -0.178 C  
HETATM   11  C   UNL     1     -11.764  11.794  67.903  1.00  0.00    -0.276 C  
HETATM   12  C   UNL     1      -9.998   8.690  69.527  1.00  0.00    -0.196 A  
HETATM   13  O   UNL     1     -12.821  12.401  67.980  1.00  0.00     0.936 OA 
HETATM   14  O   UNL     1     -10.786  12.155  67.048  1.00  0.00    -0.226 OA 
HETATM   15  O   UNL     1      -9.300  10.244  67.877  1.00  0.00    -0.137 OA 
HETATM   16  C   UNL     1      -8.825   7.953  69.404  1.00  0.00    -0.145 A  
HETATM   17  C   UNL     1      -8.667   6.809  70.167  1.00  0.00    -0.141 A  
HETATM   18  C   UNL     1      -9.653   6.346  71.064  1.00  0.00    -0.175 A  
HETATM   19  F   UNL     1      -7.547   6.097  69.959  1.00  0.00    -0.084 F  
ENDROOT
BRANCH  18  20
HETATM   20  N   UNL     1      -9.455   5.147  71.749  1.00  0.00    -0.146 NA 
HETATM   21  C   UNL     1      -8.672   5.061  72.989  1.00  0.00    -0.113 C  
HETATM   22  C   UNL     1      -9.304   4.019  73.944  1.00  0.00    -0.095 C  
HETATM   23  N   UNL     1      -9.565   2.684  73.362  1.00  0.00    -0.091 NA 
HETATM   24  C   UNL     1     -10.318   2.857  72.095  1.00  0.00     0.003 C  
HETATM   25  C   UNL     1      -8.323   1.946  73.152  1.00  0.00    -0.057 C  
HETATM   26  C   UNL     1      -9.693   3.852  71.087  1.00  0.00    -0.178 C  
ENDBRANCH  18  20
TORSDOF 1
ENDMDL
MODEL      115
REMARK 921   NORMALIZED FREE ENERGY PREDICTED BY IDOCK:   -2.60 KCAL/MOL
REMARK 922        TOTAL FREE ENERGY PREDICTED BY IDOCK:   -3.15 KCAL/MOL
REMARK 923 INTER-LIGAND FREE ENERGY PREDICTED BY IDOCK:   -2.72 KCAL/MOL
REMARK 924 INTRA-LIGAND FREE ENERGY PREDICTED BY IDOCK:   -0.43 KCAL/MOL
REMARK 927      BINDING AFFINITY PREDICTED BY RF-SCORE:    0.00 PKD
ROOT
HETATM    1  C   UNL     1      -5.473   8.914  64.721  1.00  0.00    -0.046 C  
HETATM    2  C   UNL     1      -5.504   8.510  66.205  1.00  0.00    -0.035 C  
HETATM    3  C   UNL     1      -5.695   6.991  66.278  1.00  0.00    -0.030 C  
HETATM    4  O   UNL     1      -6.654   6.442  67.158  1.00  0.00    -0.054 OA 
HETATM    5  C   UNL     1      -7.613   7.248  67.699  1.00  0.00    -0.110 A  
HETATM    6  C   UNL     1      -7.531   8.650  67.610  1.00  0.00    -0.090 A  
HETATM    7  N   UNL     1      -6.496   9.318  66.931  1.00  0.00    -0.066 NA 
HETATM    8  C   UNL     1      -6.413  10.702  67.009  1.00  0.00    -0.079 C  
HETATM    9  C   UNL     1      -7.287  11.523  67.611  1.00  0.00    -0.105 C  
HETATM   10  C   UNL     1      -8.440  10.885  68.270  1.00  0.00    -0.134 C  
HETATM   11  C   UNL     1      -7.061  12.983  67.582  1.00  0.00    -0.156 C  
HETATM   12  C   UNL     1      -8.525   9.407  68.263  1.00  0.00    -0.120 A  
HETATM   13  O   UNL     1      -6.102  13.499  67.029  1.00  0.00    -0.113 OA 
HETATM   14  O   UNL     1      -8.009  13.709  68.209  1.00  0.00    -0.134 OA 
HETATM   15  O   UNL     1      -9.290  11.581  68.823  1.00  0.00    -0.169 OA 
HETATM   16  C   UNL     1      -9.577   8.804  68.943  1.00  0.00    -0.158 A  
HETATM   17  C   UNL     1      -9.643   7.423  68.992  1.00  0.00    -0.148 A  
HETATM   18  C   UNL     1      -8.677   6.589  68.387  1.00  0.00    -0.121 A  
HETATM   19  F   UNL     1     -10.641   6.893  69.719  1.00  0.00    -0.209 F  
ENDROOT
BRANCH  18  20
HETATM   20  N   UNL     1      -8.769   5.206  68.536  1.00  0.00    -0.097 NA 
HETATM   21  C   UNL     1      -9.715   4.386  67.768  1.00  0.00    -0.137 C  
HETATM   22  C   UNL     1      -9.072   3.021  67.419  1.00  0.00    -0.178 C  
HETATM   23  N   UNL     1      -8.489   2.274  68.555  1.00  0.00    -0.061 NA 
HETATM   24  C   UNL     1      -7.583   3.178  69.304  1.00  0.00    -0.047 C  
HETATM   25  C   UNL     1      -9.530   1.722  69.417  1.00  0.00    -0.059 C  
HETATM   26  C   UNL     1      -8.202   4.535  69.719  1.00  0.00    -0.063 C  
ENDBRANCH  18  20
TORSDOF 1
ENDMDL
MODEL      116
REMARK 921   NORMALIZED FREE ENERGY PREDICTED BY IDOCK:   -2.20 KCAL/MOL
REMARK 922        TOTAL FREE ENERGY PREDICTED BY IDOCK:   -2.72 KCAL/MOL
REMARK 923 INTER-LIGAND FREE ENERGY PREDICTED BY IDOCK:   -3.86 KCAL/MOL
REMARK 924 INTRA-LIGAND FREE ENERGY PREDICTED BY IDOCK:    1.14 KCAL/MOL
REMARK 927      BINDING AFFINITY PREDICTED BY RF-SCORE:    0.00 PKD
ROOT
HETATM    1  C   UNL     1      -6.459   9.701  64.356  1.00  0.00    -0.102 C  
HETATM    2  C   UNL     1      -7.951   9.598  64.717  1.00  0.00    -0.129 C  
HETATM    3  C   UNL     1      -8.512  11.021  64.818  1.00  0.00     0.143 C  
HETATM    4  O   UNL     1      -9.315  11.385  65.922  1.00  0.00    -0.219 OA 
HETATM    5  C   UNL     1      -9.331  10.595  67.035  1.00  0.00    -0.155 A  
HETATM    6  C   UNL     1      -8.774   9.303  67.027  1.00  0.00    -0.124 A  
HETATM    7  N   UNL     1      -8.129   8.751  65.906  1.00  0.00    -0.106 NA 
HETATM    8  C   UNL     1      -7.731   7.420  65.936  1.00  0.00    -0.093 C  
HETATM    9  C   UNL     1      -7.816   6.584  66.982  1.00  0.00    -0.108 C  
HETATM   10  C   UNL     1      -8.408   7.132  68.214  1.00  0.00    -0.124 C  
HETATM   11  C   UNL     1      -7.323   5.197  66.853  1.00  0.00    -0.086 C  
HETATM   12  C   UNL     1      -8.903   8.526  68.197  1.00  0.00    -0.142 A  
HETATM   13  O   UNL     1      -6.831   4.756  65.825  1.00  0.00    -0.058 OA 
HETATM   14  O   UNL     1      -7.448   4.452  67.969  1.00  0.00    -0.067 OA 
HETATM   15  O   UNL     1      -8.496   6.425  69.217  1.00  0.00    -0.123 OA 
HETATM   16  C   UNL     1      -9.522   9.021  69.340  1.00  0.00    -0.159 A  
HETATM   17  C   UNL     1     -10.039  10.305  69.324  1.00  0.00    -0.227 A  
HETATM   18  C   UNL     1      -9.975  11.140  68.187  1.00  0.00    -0.178 A  
HETATM   19  F   UNL     1     -10.687  10.707  70.429  1.00  0.00    -0.318 F  
ENDROOT
BRANCH  18  20
HETATM   20  N   UNL     1     -10.578  12.397  68.220  1.00  0.00    -0.215 NA 
HETATM   21  C   UNL     1     -10.583  13.305  67.065  1.00  0.00    -0.259 C  
HETATM   22  C   UNL     1     -11.923  14.078  67.005  1.00  0.00    -0.438 C  
HETATM   23  N   UNL     1     -12.329  14.766  68.250  1.00  0.00    -0.017 NA 
HETATM   24  C   UNL     1     -12.256  13.799  69.373  1.00  0.00    -0.278 C  
HETATM   25  C   UNL     1     -11.501  15.942  68.500  1.00  0.00    -0.377 C  
HETATM   26  C   UNL     1     -10.913  13.040  69.503  1.00  0.00     0.097 C  
ENDBRANCH  18  20
TORSDOF 1
ENDMDL
MODEL      117
REMARK 921   NORMALIZED FREE ENERGY PREDICTED BY IDOCK:   -2.14 KCAL/MOL
REMARK 922        TOTAL FREE ENERGY PREDICTED BY IDOCK:   -2.67 KCAL/MOL
REMARK 923 INTER-LIGAND FREE ENERGY PREDICTED BY IDOCK:   -3.70 KCAL/MOL
REMARK 924 INTRA-LIGAND FREE ENERGY PREDICTED BY IDOCK:    1.03 KCAL/MOL
REMARK 927      BINDING AFFINITY PREDICTED BY RF-SCORE:    0.00 PKD
ROOT
HETATM    1  C   UNL     1      -6.692   9.392  66.944  1.00  0.00    -0.076 C  
HETATM    2  C   UNL     1      -8.214   9.556  66.798  1.00  0.00    -0.113 C  
HETATM    3  C   UNL     1      -8.529  11.056  66.795  1.00  0.00    -0.148 C  
HETATM    4  O   UNL     1      -9.576  11.558  67.600  1.00  0.00    -0.167 OA 
HETATM    5  C   UNL     1     -10.088  10.784  68.601  1.00  0.00    -0.183 A  
HETATM    6  C   UNL     1      -9.786   9.414  68.698  1.00  0.00    -0.152 A  
HETATM    7  N   UNL     1      -8.912   8.755  67.815  1.00  0.00    -0.135 NA 
HETATM    8  C   UNL     1      -8.775   7.375  67.895  1.00  0.00    -0.123 C  
HETATM    9  C   UNL     1      -9.338   6.568  68.808  1.00  0.00    -0.130 C  
HETATM   10  C   UNL     1     -10.199   7.214  69.813  1.00  0.00    -0.208 C  
HETATM   11  C   UNL     1      -9.070   5.116  68.765  1.00  0.00    -0.114 C  
HETATM   12  C   UNL     1     -10.420   8.674  69.717  1.00  0.00    -0.220 A  
HETATM   13  O   UNL     1      -8.350   4.593  67.927  1.00  0.00    -0.098 OA 
HETATM   14  O   UNL     1      -9.678   4.405  69.737  1.00  0.00    -0.193 OA 
HETATM   15  O   UNL     1     -10.729   6.534  70.691  1.00  0.00    -0.226 OA 
HETATM   16  C   UNL     1     -11.287   9.271  70.626  1.00  0.00    -0.330 A  
HETATM   17  C   UNL     1     -11.545  10.626  70.518  1.00  0.00    -0.350 A  
HETATM   18  C   UNL     1     -10.973  11.436  69.513  1.00  0.00    -0.166 A  
HETATM   19  F   UNL     1     -12.442  11.138  71.377  1.00  0.00    -0.434 F  
ENDROOT
BRANCH  18  20
HETATM   20  N   UNL     1     -11.333  12.780  69.422  1.00  0.00    -0.234 NA 
HETATM   21  C   UNL     1     -12.096  13.471  70.469  1.00  0.00    -0.335 C  
HETATM   22  C   UNL     1     -11.607  14.934  70.605  1.00  0.00    -0.291 C  
HETATM   23  N   UNL     1     -11.558  15.717  69.351  1.00  0.00    -0.345 NA 
HETATM   24  C   UNL     1     -10.812  14.937  68.332  1.00  0.00    -0.251 C  
HETATM   25  C   UNL     1     -12.899  16.060  68.887  1.00  0.00     1.610 C  
HETATM   26  C   UNL     1     -11.302  13.483  68.127  1.00  0.00    -0.286 C  
ENDBRANCH  18  20
TORSDOF 1
ENDMDL
MODEL      118
REMARK 921   NORMALIZED FREE ENERGY PREDICTED BY IDOCK:   -2.13 KCAL/MOL
REMARK 922        TOTAL FREE ENERGY PREDICTED BY IDOCK:   -2.66 KCAL/MOL
REMARK 923 INTER-LIGAND FREE ENERGY PREDICTED BY IDOCK:   -2.25 KCAL/MOL
REMARK 924 INTRA-LIGAND FREE ENERGY PREDICTED BY IDOCK:   -0.40 KCAL/MOL
REMARK 927      BINDING AFFINITY PREDICTED BY RF-SCORE:    0.00 PKD
ROOT
HETATM    1  C   UNL     1     -10.899   5.669  66.324  1.00  0.00    -0.082 C  
HETATM    2  C   UNL     1      -9.794   6.546  66.938  1.00  0.00    -0.164 C  
HETATM    3  C   UNL     1     -10.364   7.955  67.136  1.00  0.00    -0.328 C  
HETATM    4  O   UNL     1      -9.619   9.082  66.723  1.00  0.00    -0.169 OA 
HETATM    5  C   UNL     1      -8.561   8.918  65.877  1.00  0.00    -0.158 A  
HETATM    6  C   UNL     1      -8.031   7.645  65.601  1.00  0.00    -0.116 A  
HETATM    7  N   UNL     1      -8.568   6.457  66.131  1.00  0.00    -0.139 NA 
HETATM    8  C   UNL     1      -7.902   5.256  65.922  1.00  0.00    -0.103 C  
HETATM    9  C   UNL     1      -6.805   5.071  65.172  1.00  0.00    -0.053 C  
HETATM   10  C   UNL     1      -6.243   6.268  64.523  1.00  0.00    -0.030 C  
HETATM   11  C   UNL     1      -6.232   3.716  65.035  1.00  0.00    -0.024 C  
HETATM   12  C   UNL     1      -6.889   7.575  64.777  1.00  0.00    -0.047 A  
HETATM   13  O   UNL     1      -6.710   2.731  65.578  1.00  0.00    -0.038 OA 
HETATM   14  O   UNL     1      -5.138   3.647  64.250  1.00  0.00    -0.008 OA 
HETATM   15  O   UNL     1      -5.250   6.164  63.804  1.00  0.00    -0.016 OA 
HETATM   16  C   UNL     1      -6.318   8.712  64.218  1.00  0.00    -0.071 A  
HETATM   17  C   UNL     1      -6.878   9.949  64.489  1.00  0.00    -0.124 A  
HETATM   18  C   UNL     1      -8.005  10.112  65.323  1.00  0.00    -0.145 A  
HETATM   19  F   UNL     1      -6.247  11.020  63.980  1.00  0.00     0.074 F  
ENDROOT
BRANCH  18  20
HETATM   20  N   UNL     1      -8.473  11.393  65.608  1.00  0.00     0.021 NA 
HETATM   21  C   UNL     1      -9.190  12.215  64.624  1.00  0.00     0.473 C  
HETATM   22  C   UNL     1     -10.295  13.041  65.326  1.00  0.00    -0.304 C  
HETATM   23  N   UNL     1      -9.861  13.836  66.496  1.00  0.00    -0.282 NA 
HETATM   24  C   UNL     1      -9.110  12.950  67.419  1.00  0.00    -0.197 C  
HETATM   25  C   UNL     1      -9.063  14.988  66.088  1.00  0.00    -0.202 C  
HETATM   26  C   UNL     1      -7.960  12.143  66.769  1.00  0.00    -0.023 C  
ENDBRANCH  18  20
TORSDOF 1
ENDMDL
MODEL      119
REMARK 921   NORMALIZED FREE ENERGY PREDICTED BY IDOCK:   -1.77 KCAL/MOL
REMARK 922        TOTAL FREE ENERGY PREDICTED BY IDOCK:   -2.27 KCAL/MOL
REMARK 923 INTER-LIGAND FREE ENERGY PREDICTED BY IDOCK:   -2.67 KCAL/MOL
REMARK 924 INTRA-LIGAND FREE ENERGY PREDICTED BY IDOCK:    0.41 KCAL/MOL
REMARK 927      BINDING AFFINITY PREDICTED BY RF-SCORE:    0.00 PKD
ROOT
HETATM    1  C   UNL     1      -9.838  10.180  68.784  1.00  0.00    -0.180 C  
HETATM    2  C   UNL     1      -8.492   9.444  68.677  1.00  0.00    -0.119 C  
HETATM    3  C   UNL     1      -8.228   9.154  67.195  1.00  0.00    -0.113 C  
HETATM    4  O   UNL     1      -7.805   7.867  66.793  1.00  0.00    -0.100 OA 
HETATM    5  C   UNL     1      -7.936   6.815  67.652  1.00  0.00    -0.113 A  
HETATM    6  C   UNL     1      -8.242   7.009  69.012  1.00  0.00    -0.125 A  
HETATM    7  N   UNL     1      -8.477   8.277  69.573  1.00  0.00    -0.124 NA 
HETATM    8  C   UNL     1      -8.635   8.395  70.948  1.00  0.00    -0.146 C  
HETATM    9  C   UNL     1      -8.675   7.390  71.836  1.00  0.00    -0.127 C  
HETATM   10  C   UNL     1      -8.518   6.029  71.296  1.00  0.00    -0.128 C  
HETATM   11  C   UNL     1      -8.874   7.688  73.270  1.00  0.00    -0.199 C  
HETATM   12  C   UNL     1      -8.281   5.872  69.844  1.00  0.00    -0.117 A  
HETATM   13  O   UNL     1      -9.006   8.822  73.704  1.00  0.00    -0.094 OA 
HETATM   14  O   UNL     1      -8.909   6.602  74.068  1.00  0.00    -0.136 OA 
HETATM   15  O   UNL     1      -8.566   5.062  72.054  1.00  0.00    -0.122 OA 
HETATM   16  C   UNL     1      -8.066   4.592  69.346  1.00  0.00    -0.064 A  
HETATM   17  C   UNL     1      -7.791   4.431  67.999  1.00  0.00    -0.080 A  
HETATM   18  C   UNL     1      -7.708   5.517  67.101  1.00  0.00    -0.100 A  
HETATM   19  F   UNL     1      -7.523   3.182  67.583  1.00  0.00    -0.059 F  
ENDROOT
BRANCH  18  20
HETATM   20  N   UNL     1      -7.358   5.288  65.771  1.00  0.00    -0.079 NA 
HETATM   21  C   UNL     1      -6.161   4.529  65.383  1.00  0.00    -0.023 C  
HETATM   22  C   UNL     1      -6.452   3.690  64.115  1.00  0.00    -0.034 C  
HETATM   23  N   UNL     1      -7.031   4.429  62.972  1.00  0.00    -0.038 NA 
HETATM   24  C   UNL     1      -8.203   5.202  63.450  1.00  0.00    -0.114 C  
HETATM   25  C   UNL     1      -6.038   5.294  62.342  1.00  0.00    -0.014 C  
HETATM   26  C   UNL     1      -7.944   6.096  64.686  1.00  0.00    -0.124 C  
ENDBRANCH  18  20
TORSDOF 1
ENDMDL
MODEL      120
REMARK 921   NORMALIZED FREE ENERGY PREDICTED BY IDOCK:   -1.62 KCAL/MOL
REMARK 922        TOTAL FREE ENERGY PREDICTED BY IDOCK:   -2.11 KCAL/MOL
REMARK 923 INTER-LIGAND FREE ENERGY PREDICTED BY IDOCK:   -2.10 KCAL/MOL
REMARK 924 INTRA-LIGAND FREE ENERGY PREDICTED BY IDOCK:   -0.01 KCAL/MOL
REMARK 927      BINDING AFFINITY PREDICTED BY RF-SCORE:    0.00 PKD
ROOT
HETATM    1  C   UNL     1     -12.783   7.807  71.097  1.00  0.00    -0.205 C  
HETATM    2  C   UNL     1     -11.624   8.738  71.493  1.00  0.00    -0.303 C  
HETATM    3  C   UNL     1     -12.051  10.179  71.193  1.00  0.00    -0.388 C  
HETATM    4  O   UNL     1     -11.170  11.047  70.510  1.00  0.00    -0.179 OA 
HETATM    5  C   UNL     1     -10.094  10.532  69.847  1.00  0.00     0.001 A  
HETATM    6  C   UNL     1      -9.688   9.198  70.029  1.00  0.00    -0.195 A  
HETATM    7  N   UNL     1     -10.375   8.292  70.858  1.00  0.00    -0.190 NA 
HETATM    8  C   UNL     1      -9.831   7.035  71.091  1.00  0.00    -0.176 C  
HETATM    9  C   UNL     1      -8.723   6.528  70.530  1.00  0.00    -0.144 C  
HETATM   10  C   UNL     1      -8.005   7.402  69.586  1.00  0.00    -0.126 C  
HETATM   11  C   UNL     1      -8.291   5.157  70.872  1.00  0.00    -0.114 C  
HETATM   12  C   UNL     1      -8.520   8.771  69.365  1.00  0.00    -0.125 A  
HETATM   13  O   UNL     1      -8.897   4.441  71.655  1.00  0.00    -0.114 OA 
HETATM   14  O   UNL     1      -7.171   4.748  70.240  1.00  0.00    -0.048 OA 
HETATM   15  O   UNL     1      -6.993   6.990  69.021  1.00  0.00    -0.072 OA 
HETATM   16  C   UNL     1      -7.804   9.618  68.525  1.00  0.00    -0.085 A  
HETATM   17  C   UNL     1      -8.243  10.918  68.348  1.00  0.00    -0.133 A  
HETATM   18  C   UNL     1      -9.387  11.434  68.994  1.00  0.00     0.053 A  
HETATM   19  F   UNL     1      -7.477  11.713  67.583  1.00  0.00    -0.094 F  
ENDROOT
BRANCH  18  20
HETATM   20  N   UNL     1      -9.730  12.774  68.824  1.00  0.00    -0.016 NA 
HETATM   21  C   UNL     1      -9.846  13.404  67.502  1.00  0.00    -0.227 C  
HETATM   22  C   UNL     1     -11.002  14.433  67.503  1.00  0.00    -0.293 C  
HETATM   23  N   UNL     1     -10.972  15.436  68.590  1.00  0.00    -0.259 NA 
HETATM   24  C   UNL     1     -10.810  14.730  69.884  1.00  0.00    -0.159 C  
HETATM   25  C   UNL     1      -9.912  16.417  68.377  1.00  0.00    -0.238 C  
HETATM   26  C   UNL     1      -9.632  13.727  69.945  1.00  0.00     1.732 C  
ENDBRANCH  18  20
TORSDOF 1
ENDMDL
MODEL      121
REMARK 921   NORMALIZED FREE ENERGY PREDICTED BY IDOCK:   -1.02 KCAL/MOL
REMARK 922        TOTAL FREE ENERGY PREDICTED BY IDOCK:   -1.48 KCAL/MOL
REMARK 923 INTER-LIGAND FREE ENERGY PREDICTED BY IDOCK:   -1.14 KCAL/MOL
REMARK 924 INTRA-LIGAND FREE ENERGY PREDICTED BY IDOCK:   -0.34 KCAL/MOL
REMARK 927      BINDING AFFINITY PREDICTED BY RF-SCORE:    0.00 PKD
ROOT
HETATM    1  C   UNL     1      -9.665  15.408  68.842  1.00  0.00    -0.220 C  
HETATM    2  C   UNL     1      -8.443  14.891  68.065  1.00  0.00    -0.151 C  
HETATM    3  C   UNL     1      -8.940  14.304  66.739  1.00  0.00    -0.227 C  
HETATM    4  O   UNL     1      -8.474  13.042  66.307  1.00  0.00     0.251 OA 
HETATM    5  C   UNL     1      -7.846  12.215  67.194  1.00  0.00    -0.160 A  
HETATM    6  C   UNL     1      -7.423  12.675  68.454  1.00  0.00    -0.127 A  
HETATM    7  N   UNL     1      -7.649  13.986  68.910  1.00  0.00    -0.111 NA 
HETATM    8  C   UNL     1      -7.077  14.399  70.107  1.00  0.00     0.182 C  
HETATM    9  C   UNL     1      -6.374  13.639  70.960  1.00  0.00     0.404 C  
HETATM   10  C   UNL     1      -6.175  12.232  70.575  1.00  0.00     0.240 C  
HETATM   11  C   UNL     1      -5.852  14.232  72.209  1.00  0.00     0.097 C  
HETATM   12  C   UNL     1      -6.713  11.775  69.275  1.00  0.00    -0.110 A  
HETATM   13  O   UNL     1      -6.027  15.402  72.517  1.00  0.00     0.915 OA 
HETATM   14  O   UNL     1      -5.170  13.374  72.994  1.00  0.00    -0.365 OA 
HETATM   15  O   UNL     1      -5.556  11.476  71.323  1.00  0.00    -0.359 OA 
HETATM   16  C   UNL     1      -6.466  10.464  68.883  1.00  0.00    -0.052 A  
HETATM   17  C   UNL     1      -6.917  10.035  67.647  1.00  0.00    -0.085 A  
HETATM   18  C   UNL     1      -7.613  10.877  66.752  1.00  0.00    -0.134 A  
HETATM   19  F   UNL     1      -6.592   8.782  67.289  1.00  0.00    -0.055 F  
ENDROOT
BRANCH  18  20
HETATM   20  N   UNL     1      -7.976  10.398  65.495  1.00  0.00    -0.151 NA 
HETATM   21  C   UNL     1      -9.305   9.839  65.210  1.00  0.00    -0.255 C  
HETATM   22  C   UNL     1      -9.749  10.226  63.779  1.00  0.00    -0.235 C  
HETATM   23  N   UNL     1      -8.781   9.926  62.700  1.00  0.00    -0.188 NA 
HETATM   24  C   UNL     1      -7.459  10.482  63.079  1.00  0.00    -0.041 C  
HETATM   25  C   UNL     1      -8.706   8.491  62.440  1.00  0.00    -0.070 C  
HETATM   26  C   UNL     1      -6.952  10.077  64.485  1.00  0.00    -0.136 C  
ENDBRANCH  18  20
TORSDOF 1
ENDMDL
MODEL      122
REMARK 921   NORMALIZED FREE ENERGY PREDICTED BY IDOCK:   -0.37 KCAL/MOL
REMARK 922        TOTAL FREE ENERGY PREDICTED BY IDOCK:   -0.79 KCAL/MOL
REMARK 923 INTER-LIGAND FREE ENERGY PREDICTED BY IDOCK:   -1.10 KCAL/MOL
REMARK 924 INTRA-LIGAND FREE ENERGY PREDICTED BY IDOCK:    0.31 KCAL/MOL
REMARK 927      BINDING AFFINITY PREDICTED BY RF-SCORE:    0.00 PKD
ROOT
HETATM    1  C   UNL     1     -11.518  17.814  67.673  1.00  0.00     0.797 C  
HETATM    2  C   UNL     1     -11.291  16.429  67.043  1.00  0.00     0.338 C  
HETATM    3  C   UNL     1     -12.265  15.445  67.701  1.00  0.00     0.575 C  
HETATM    4  O   UNL     1     -11.802  14.190  68.153  1.00  0.00    -0.331 OA 
HETATM    5  C   UNL     1     -10.461  13.978  68.298  1.00  0.00    -0.244 A  
HETATM    6  C   UNL     1      -9.514  14.876  67.774  1.00  0.00    -0.203 A  
HETATM    7  N   UNL     1      -9.867  16.066  67.112  1.00  0.00    -0.233 NA 
HETATM    8  C   UNL     1      -8.877  16.827  66.503  1.00  0.00    -0.277 C  
HETATM    9  C   UNL     1      -7.556  16.598  66.545  1.00  0.00    -0.327 C  
HETATM   10  C   UNL     1      -7.118  15.410  67.296  1.00  0.00    -0.171 C  
HETATM   11  C   UNL     1      -6.631  17.524  65.858  1.00  0.00    -0.135 C  
HETATM   12  C   UNL     1      -8.151  14.540  67.901  1.00  0.00    -0.151 A  
HETATM   13  O   UNL     1      -7.008  18.508  65.240  1.00  0.00    -0.527 OA 
HETATM   14  O   UNL     1      -5.327  17.202  65.976  1.00  0.00    -0.333 OA 
HETATM   15  O   UNL     1      -5.918  15.155  67.391  1.00  0.00    -0.334 OA 
HETATM   16  C   UNL     1      -7.740  13.383  68.553  1.00  0.00    -0.124 A  
HETATM   17  C   UNL     1      -8.695  12.530  69.079  1.00  0.00     0.495 A  
HETATM   18  C   UNL     1     -10.081  12.778  68.974  1.00  0.00     0.187 A  
HETATM   19  F   UNL     1      -8.247  11.394  69.637  1.00  0.00     0.126 F  
ENDROOT
BRANCH  18  20
HETATM   20  N   UNL     1     -10.989  11.841  69.466  1.00  0.00    -0.130 NA 
HETATM   21  C   UNL     1     -10.989  10.435  69.040  1.00  0.00    -0.238 C  
HETATM   22  C   UNL     1     -11.354   9.519  70.232  1.00  0.00    -0.236 C  
HETATM   23  N   UNL     1     -12.591   9.874  70.964  1.00  0.00    -0.331 NA 
HETATM   24  C   UNL     1     -12.536  11.313  71.320  1.00  0.00    -0.336 C  
HETATM   25  C   UNL     1     -13.780   9.561  70.178  1.00  0.00     1.272 C  
HETATM   26  C   UNL     1     -12.223  12.272  70.145  1.00  0.00    -0.226 C  
ENDBRANCH  18  20
TORSDOF 1
ENDMDL
MODEL      123
REMARK 921   NORMALIZED FREE ENERGY PREDICTED BY IDOCK:   -0.05 KCAL/MOL
REMARK 922        TOTAL FREE ENERGY PREDICTED BY IDOCK:   -0.45 KCAL/MOL
REMARK 923 INTER-LIGAND FREE ENERGY PREDICTED BY IDOCK:   -0.02 KCAL/MOL
REMARK 924 INTRA-LIGAND FREE ENERGY PREDICTED BY IDOCK:   -0.44 KCAL/MOL
REMARK 927      BINDING AFFINITY PREDICTED BY RF-SCORE:    0.00 PKD
ROOT
HETATM    1  C   UNL     1      -9.270  13.752  68.164  1.00  0.00    -0.199 C  
HETATM    2  C   UNL     1      -7.947  13.157  67.652  1.00  0.00    -0.174 C  
HETATM    3  C   UNL     1      -8.266  12.262  66.450  1.00  0.00     0.226 C  
HETATM    4  O   UNL     1      -7.702  10.969  66.364  1.00  0.00    -0.150 OA 
HETATM    5  C   UNL     1      -7.146  10.401  67.473  1.00  0.00    -0.086 A  
HETATM    6  C   UNL     1      -6.887  11.153  68.633  1.00  0.00    -0.070 A  
HETATM    7  N   UNL     1      -7.217  12.515  68.756  1.00  0.00    -0.106 NA 
HETATM    8  C   UNL     1      -6.802  13.218  69.880  1.00  0.00     0.317 C  
HETATM    9  C   UNL     1      -6.169  12.713  70.949  1.00  0.00     0.694 C  
HETATM   10  C   UNL     1      -5.870  11.271  70.915  1.00  0.00     0.028 C  
HETATM   11  C   UNL     1      -5.817  13.599  72.078  1.00  0.00     0.250 C  
HETATM   12  C   UNL     1      -6.238  10.505  69.704  1.00  0.00    -0.063 A  
HETATM   13  O   UNL     1      -6.074  14.794  72.094  1.00  0.00     0.357 OA 
HETATM   14  O   UNL     1      -5.194  12.982  73.102  1.00  0.00    -0.380 OA 
HETATM   15  O   UNL     1      -5.310  10.741  71.873  1.00  0.00    -0.305 OA 
HETATM   16  C   UNL     1      -5.895   9.159  69.646  1.00  0.00    -0.033 A  
HETATM   17  C   UNL     1      -6.185   8.439  68.499  1.00  0.00    -0.053 A  
HETATM   18  C   UNL     1      -6.809   9.016  67.372  1.00  0.00    -0.077 A  
HETATM   19  F   UNL     1      -5.770   7.162  68.469  1.00  0.00    -0.018 F  
ENDROOT
BRANCH  18  20
HETATM   20  N   UNL     1      -7.007   8.249  66.225  1.00  0.00    -0.065 NA 
HETATM   21  C   UNL     1      -8.107   7.284  66.095  1.00  0.00    -0.121 C  
HETATM   22  C   UNL     1      -8.640   7.279  64.642  1.00  0.00     0.274 C  
HETATM   23  N   UNL     1      -7.623   7.102  63.582  1.00  0.00    -0.104 NA 
HETATM   24  C   UNL     1      -6.528   8.079  63.806  1.00  0.00    -0.067 C  
HETATM   25  C   UNL     1      -7.121   5.732  63.551  1.00  0.00    -0.047 C  
HETATM   26  C   UNL     1      -5.930   8.082  65.233  1.00  0.00    -0.045 C  
ENDBRANCH  18  20
TORSDOF 1
ENDMDL
MODEL      124
REMARK 921   NORMALIZED FREE ENERGY PREDICTED BY IDOCK:    0.17 KCAL/MOL
REMARK 922        TOTAL FREE ENERGY PREDICTED BY IDOCK:   -0.22 KCAL/MOL
REMARK 923 INTER-LIGAND FREE ENERGY PREDICTED BY IDOCK:   -0.56 KCAL/MOL
REMARK 924 INTRA-LIGAND FREE ENERGY PREDICTED BY IDOCK:    0.34 KCAL/MOL
REMARK 927      BINDING AFFINITY PREDICTED BY RF-SCORE:    0.00 PKD
ROOT
HETATM    1  C   UNL     1      -7.083  13.981  66.586  1.00  0.00     1.753 C  
HETATM    2  C   UNL     1      -8.082  14.082  67.751  1.00  0.00    -0.167 C  
HETATM    3  C   UNL     1      -7.705  13.021  68.790  1.00  0.00     0.004 C  
HETATM    4  O   UNL     1      -8.705  12.189  69.343  1.00  0.00     0.676 OA 
HETATM    5  C   UNL     1      -9.925  12.108  68.738  1.00  0.00    -0.052 A  
HETATM    6  C   UNL     1     -10.308  13.012  67.731  1.00  0.00    -0.226 A  
HETATM    7  N   UNL     1      -9.462  14.024  67.244  1.00  0.00    -0.223 NA 
HETATM    8  C   UNL     1      -9.964  14.961  66.349  1.00  0.00    -0.275 C  
HETATM    9  C   UNL     1     -11.190  14.967  65.804  1.00  0.00    -0.334 C  
HETATM   10  C   UNL     1     -12.096  13.880  66.213  1.00  0.00    -0.451 C  
HETATM   11  C   UNL     1     -11.559  16.030  64.846  1.00  0.00    -0.009 C  
HETATM   12  C   UNL     1     -11.616  12.903  67.215  1.00  0.00    -0.416 A  
HETATM   13  O   UNL     1     -10.796  16.924  64.513  1.00  0.00    -0.849 OA 
HETATM   14  O   UNL     1     -12.811  15.929  64.354  1.00  0.00     0.015 OA 
HETATM   15  O   UNL     1     -13.227  13.816  65.734  1.00  0.00    -0.467 OA 
HETATM   16  C   UNL     1     -12.495  11.918  67.649  1.00  0.00     1.260 A  
HETATM   17  C   UNL     1     -12.081  11.028  68.625  1.00  0.00    -0.059 A  
HETATM   18  C   UNL     1     -10.798  11.082  69.213  1.00  0.00    -0.238 A  
HETATM   19  F   UNL     1     -12.992  10.141  69.058  1.00  0.00     0.662 F  
ENDROOT
BRANCH  18  20
HETATM   20  N   UNL     1     -10.472  10.197  70.240  1.00  0.00    -0.270 NA 
HETATM   21  C   UNL     1     -11.280  10.064  71.460  1.00  0.00     0.059 C  
HETATM   22  C   UNL     1     -11.300   8.588  71.925  1.00  0.00    -0.329 C  
HETATM   23  N   UNL     1      -9.978   7.937  72.065  1.00  0.00    -0.182 NA 
HETATM   24  C   UNL     1      -9.208   8.152  70.815  1.00  0.00    -0.150 C  
HETATM   25  C   UNL     1      -9.260   8.441  73.231  1.00  0.00    -0.100 C  
HETATM   26  C   UNL     1      -9.119   9.623  70.341  1.00  0.00    -0.191 C  
ENDBRANCH  18  20
TORSDOF 1
ENDMDL
MODEL      125
REMARK 921   NORMALIZED FREE ENERGY PREDICTED BY IDOCK:    0.30 KCAL/MOL
REMARK 922        TOTAL FREE ENERGY PREDICTED BY IDOCK:   -0.08 KCAL/MOL
REMARK 923 INTER-LIGAND FREE ENERGY PREDICTED BY IDOCK:   -0.98 KCAL/MOL
REMARK 924 INTRA-LIGAND FREE ENERGY PREDICTED BY IDOCK:    0.90 KCAL/MOL
REMARK 927      BINDING AFFINITY PREDICTED BY RF-SCORE:    0.00 PKD
ROOT
HETATM    1  C   UNL     1      -7.042  12.203  70.129  1.00  0.00     1.123 C  
HETATM    2  C   UNL     1      -8.150  11.487  69.337  1.00  0.00     0.410 C  
HETATM    3  C   UNL     1      -7.532  10.254  68.670  1.00  0.00    -0.086 C  
HETATM    4  O   UNL     1      -7.791   9.984  67.308  1.00  0.00    -0.101 OA 
HETATM    5  C   UNL     1      -8.315  10.964  66.514  1.00  0.00    -0.155 A  
HETATM    6  C   UNL     1      -8.839  12.150  67.060  1.00  0.00    -0.203 A  
HETATM    7  N   UNL     1      -8.825  12.435  68.437  1.00  0.00    -0.165 NA 
HETATM    8  C   UNL     1      -9.486  13.562  68.907  1.00  0.00     0.165 C  
HETATM    9  C   UNL     1     -10.094  14.499  68.163  1.00  0.00    -0.227 C  
HETATM   10  C   UNL     1     -10.069  14.298  66.704  1.00  0.00    -0.273 C  
HETATM   11  C   UNL     1     -10.735  15.655  68.823  1.00  0.00    -0.250 C  
HETATM   12  C   UNL     1      -9.430  13.074  66.174  1.00  0.00    -0.159 A  
HETATM   13  O   UNL     1     -10.746  15.811  70.035  1.00  0.00    -0.292 OA 
HETATM   14  O   UNL     1     -11.304  16.538  67.978  1.00  0.00    -0.269 OA 
HETATM   15  O   UNL     1     -10.590  15.132  65.964  1.00  0.00    -0.297 OA 
HETATM   16  C   UNL     1      -9.467  12.852  64.802  1.00  0.00     0.430 A  
HETATM   17  C   UNL     1      -8.921  11.686  64.293  1.00  0.00     0.417 A  
HETATM   18  C   UNL     1      -8.333  10.698  65.111  1.00  0.00    -0.117 A  
HETATM   19  F   UNL     1      -9.045  11.491  62.970  1.00  0.00    -0.274 F  
ENDROOT
BRANCH  18  20
HETATM   20  N   UNL     1      -7.865   9.516  64.538  1.00  0.00    -0.120 NA 
HETATM   21  C   UNL     1      -7.582   8.308  65.325  1.00  0.00    -0.094 C  
HETATM   22  C   UNL     1      -7.965   7.045  64.516  1.00  0.00    -0.104 C  
HETATM   23  N   UNL     1      -7.402   6.958  63.150  1.00  0.00    -0.069 NA 
HETATM   24  C   UNL     1      -7.689   8.226  62.436  1.00  0.00    -0.128 C  
HETATM   25  C   UNL     1      -5.971   6.674  63.184  1.00  0.00    -0.035 C  
HETATM   26  C   UNL     1      -7.274   9.515  63.187  1.00  0.00    -0.107 C  
ENDBRANCH  18  20
TORSDOF 1
ENDMDL
MODEL      126
REMARK 921   NORMALIZED FREE ENERGY PREDICTED BY IDOCK:    0.69 KCAL/MOL
REMARK 922        TOTAL FREE ENERGY PREDICTED BY IDOCK:    0.33 KCAL/MOL
REMARK 923 INTER-LIGAND FREE ENERGY PREDICTED BY IDOCK:   -0.07 KCAL/MOL
REMARK 924 INTRA-LIGAND FREE ENERGY PREDICTED BY IDOCK:    0.40 KCAL/MOL
REMARK 927      BINDING AFFINITY PREDICTED BY RF-SCORE:    0.00 PKD
ROOT
HETATM    1  C   UNL     1      -6.834  11.866  69.874  1.00  0.00     0.234 C  
HETATM    2  C   UNL     1      -6.817  11.977  68.340  1.00  0.00    -0.072 C  
HETATM    3  C   UNL     1      -7.614  13.225  67.947  1.00  0.00    -0.152 C  
HETATM    4  O   UNL     1      -8.576  13.152  66.915  1.00  0.00    -0.191 OA 
HETATM    5  C   UNL     1      -9.020  11.932  66.492  1.00  0.00    -0.199 A  
HETATM    6  C   UNL     1      -8.372  10.743  66.870  1.00  0.00    -0.132 A  
HETATM    7  N   UNL     1      -7.263  10.713  67.734  1.00  0.00    -0.087 NA 
HETATM    8  C   UNL     1      -6.596   9.513  67.946  1.00  0.00    -0.062 C  
HETATM    9  C   UNL     1      -6.949   8.308  67.471  1.00  0.00    -0.075 C  
HETATM   10  C   UNL     1      -8.154   8.263  66.625  1.00  0.00    -0.102 C  
HETATM   11  C   UNL     1      -6.138   7.121  67.812  1.00  0.00    -0.034 C  
HETATM   12  C   UNL     1      -8.850   9.534  66.325  1.00  0.00    -0.172 A  
HETATM   13  O   UNL     1      -5.142   7.172  68.517  1.00  0.00    -0.015 OA 
HETATM   14  O   UNL     1      -6.592   5.964  67.288  1.00  0.00    -0.052 OA 
HETATM   15  O   UNL     1      -8.544   7.187  66.175  1.00  0.00    -0.134 OA 
HETATM   16  C   UNL     1      -9.948   9.498  65.472  1.00  0.00    -0.209 A  
HETATM   17  C   UNL     1     -10.579  10.684  65.138  1.00  0.00    -0.120 A  
HETATM   18  C   UNL     1     -10.150  11.940  65.619  1.00  0.00    -0.243 A  
HETATM   19  F   UNL     1     -11.590  10.601  64.257  1.00  0.00     0.295 F  
ENDROOT
BRANCH  18  20
HETATM   20  N   UNL     1     -10.791  13.100  65.185  1.00  0.00    -0.295 NA 
HETATM   21  C   UNL     1     -12.235  13.159  64.921  1.00  0.00    -0.428 C  
HETATM   22  C   UNL     1     -12.796  14.539  65.343  1.00  0.00    -0.112 C  
HETATM   23  N   UNL     1     -12.086  15.718  64.799  1.00  0.00     0.124 NA 
HETATM   24  C   UNL     1     -10.635  15.564  65.065  1.00  0.00    -0.409 C  
HETATM   25  C   UNL     1     -12.355  15.888  63.374  1.00  0.00     2.338 C  
HETATM   26  C   UNL     1     -10.020  14.218  64.612  1.00  0.00     0.236 C  
ENDBRANCH  18  20
TORSDOF 1
ENDMDL
MODEL      127
REMARK 921   NORMALIZED FREE ENERGY PREDICTED BY IDOCK:    3.39 KCAL/MOL
REMARK 922        TOTAL FREE ENERGY PREDICTED BY IDOCK:    3.20 KCAL/MOL
REMARK 923 INTER-LIGAND FREE ENERGY PREDICTED BY IDOCK:    3.36 KCAL/MOL
REMARK 924 INTRA-LIGAND FREE ENERGY PREDICTED BY IDOCK:   -0.17 KCAL/MOL
REMARK 927      BINDING AFFINITY PREDICTED BY RF-SCORE:    0.00 PKD
ROOT
HETATM    1  C   UNL     1      -8.347  16.577  65.418  1.00  0.00     1.731 C  
HETATM    2  C   UNL     1      -7.966  15.662  66.594  1.00  0.00    -0.150 C  
HETATM    3  C   UNL     1      -7.951  14.217  66.084  1.00  0.00     1.915 C  
HETATM    4  O   UNL     1      -8.593  13.201  66.826  1.00  0.00    -0.155 OA 
HETATM    5  C   UNL     1      -9.480  13.539  67.807  1.00  0.00    -0.216 A  
HETATM    6  C   UNL     1      -9.589  14.861  68.275  1.00  0.00    -0.214 A  
HETATM    7  N   UNL     1      -8.839  15.928  67.748  1.00  0.00    -0.174 NA 
HETATM    8  C   UNL     1      -8.904  17.174  68.358  1.00  0.00    -0.255 C  
HETATM    9  C   UNL     1      -9.696  17.520  69.385  1.00  0.00     0.116 C  
HETATM   10  C   UNL     1     -10.567  16.463  69.927  1.00  0.00    -0.245 C  
HETATM   11  C   UNL     1      -9.658  18.902  69.905  1.00  0.00     0.791 C  
HETATM   12  C   UNL     1     -10.475  15.107  69.344  1.00  0.00    -0.259 A  
HETATM   13  O   UNL     1      -8.932  19.770  69.444  1.00  0.00    -0.073 OA 
HETATM   14  O   UNL     1     -10.503  19.139  70.929  1.00  0.00     1.401 OA 
HETATM   15  O   UNL     1     -11.333  16.720  70.856  1.00  0.00    -0.108 OA 
HETATM   16  C   UNL     1     -11.250  14.095  69.900  1.00  0.00    -0.163 A  
HETATM   17  C   UNL     1     -11.137  12.809  69.402  1.00  0.00    -0.065 A  
HETATM   18  C   UNL     1     -10.257  12.471  68.351  1.00  0.00    -0.228 A  
HETATM   19  F   UNL     1     -11.856  11.858  70.021  1.00  0.00    -0.345 F  
ENDROOT
BRANCH  18  20
HETATM   20  N   UNL     1     -10.144  11.142  67.946  1.00  0.00    -0.173 NA 
HETATM   21  C   UNL     1      -8.888  10.385  68.044  1.00  0.00    -0.130 C  
HETATM   22  C   UNL     1      -9.185   8.911  68.412  1.00  0.00    -0.140 C  
HETATM   23  N   UNL     1     -10.180   8.221  67.561  1.00  0.00    -0.223 NA 
HETATM   24  C   UNL     1     -11.398   9.064  67.474  1.00  0.00     0.968 C  
HETATM   25  C   UNL     1      -9.634   7.929  66.239  1.00  0.00    -0.130 C  
HETATM   26  C   UNL     1     -11.152  10.536  67.059  1.00  0.00    -0.110 C  
ENDBRANCH  18  20
TORSDOF 1
ENDMDL
MODEL      128
REMARK 921   NORMALIZED FREE ENERGY PREDICTED BY IDOCK:    3.50 KCAL/MOL
REMARK 922        TOTAL FREE ENERGY PREDICTED BY IDOCK:    3.31 KCAL/MOL
REMARK 923 INTER-LIGAND FREE ENERGY PREDICTED BY IDOCK:    3.62 KCAL/MOL
REMARK 924 INTRA-LIGAND FREE ENERGY PREDICTED BY IDOCK:   -0.31 KCAL/MOL
REMARK 927      BINDING AFFINITY PREDICTED BY RF-SCORE:    0.00 PKD
ROOT
HETATM    1  C   UNL     1      -7.015  10.677  70.089  1.00  0.00    -0.073 C  
HETATM    2  C   UNL     1      -7.833   9.392  70.303  1.00  0.00    -0.156 C  
HETATM    3  C   UNL     1      -6.925   8.197  69.994  1.00  0.00    -0.040 C  
HETATM    4  O   UNL     1      -7.396   7.146  69.175  1.00  0.00    -0.087 OA 
HETATM    5  C   UNL     1      -8.511   7.335  68.411  1.00  0.00    -0.125 A  
HETATM    6  C   UNL     1      -9.352   8.447  68.600  1.00  0.00    -0.143 A  
HETATM    7  N   UNL     1      -9.090   9.457  69.543  1.00  0.00    -0.154 NA 
HETATM    8  C   UNL     1     -10.040  10.446  69.763  1.00  0.00    -0.157 C  
HETATM    9  C   UNL     1     -11.193  10.610  69.096  1.00  0.00    -0.324 C  
HETATM   10  C   UNL     1     -11.483   9.628  68.037  1.00  0.00     0.521 C  
HETATM   11  C   UNL     1     -12.086  11.734  69.442  1.00  0.00    -0.238 C  
HETATM   12  C   UNL     1     -10.524   8.523  67.820  1.00  0.00    -0.287 A  
HETATM   13  O   UNL     1     -11.832  12.544  70.322  1.00  0.00    -0.317 OA 
HETATM   14  O   UNL     1     -13.210  11.807  68.700  1.00  0.00     2.023 OA 
HETATM   15  O   UNL     1     -12.514   9.733  67.373  1.00  0.00     4.107 OA 
HETATM   16  C   UNL     1     -10.833   7.559  66.866  1.00  0.00    -0.174 A  
HETATM   17  C   UNL     1      -9.973   6.490  66.687  1.00  0.00    -0.143 A  
HETATM   18  C   UNL     1      -8.792   6.324  67.442  1.00  0.00    -0.107 A  
HETATM   19  F   UNL     1     -10.353   5.553  65.802  1.00  0.00    -0.123 F  
ENDROOT
BRANCH  18  20
HETATM   20  N   UNL     1      -8.008   5.186  67.257  1.00  0.00    -0.100 NA 
HETATM   21  C   UNL     1      -7.307   4.900  65.998  1.00  0.00    -0.078 C  
HETATM   22  C   UNL     1      -5.942   4.230  66.291  1.00  0.00    -0.027 C  
HETATM   23  N   UNL     1      -5.981   3.049  67.181  1.00  0.00    -0.023 NA 
HETATM   24  C   UNL     1      -6.740   3.402  68.406  1.00  0.00    -0.045 C  
HETATM   25  C   UNL     1      -6.561   1.893  66.504  1.00  0.00    -0.031 C  
HETATM   26  C   UNL     1      -8.135   4.028  68.160  1.00  0.00    -0.084 C  
ENDBRANCH  18  20
TORSDOF 1
ENDMDL
MODEL      129
REMARK 921   NORMALIZED FREE ENERGY PREDICTED BY IDOCK:    3.61 KCAL/MOL
REMARK 922        TOTAL FREE ENERGY PREDICTED BY IDOCK:    3.42 KCAL/MOL
REMARK 923 INTER-LIGAND FREE ENERGY PREDICTED BY IDOCK:    3.17 KCAL/MOL
REMARK 924 INTRA-LIGAND FREE ENERGY PREDICTED BY IDOCK:    0.26 KCAL/MOL
REMARK 927      BINDING AFFINITY PREDICTED BY RF-SCORE:    0.00 PKD
ROOT
HETATM    1  C   UNL     1     -11.983  19.165  65.707  1.00  0.00     3.846 C  
HETATM    2  C   UNL     1     -11.622  18.349  66.959  1.00  0.00     1.549 C  
HETATM    3  C   UNL     1     -10.807  19.251  67.893  1.00  0.00    -0.211 C  
HETATM    4  O   UNL     1      -9.616  18.767  68.478  1.00  0.00    -0.332 OA 
HETATM    5  C   UNL     1      -9.027  17.641  67.979  1.00  0.00    -0.264 A  
HETATM    6  C   UNL     1      -9.696  16.804  67.068  1.00  0.00    -0.251 A  
HETATM    7  N   UNL     1     -10.984  17.080  66.573  1.00  0.00     0.073 NA 
HETATM    8  C   UNL     1     -11.629  16.135  65.786  1.00  0.00     0.660 C  
HETATM    9  C   UNL     1     -11.116  14.973  65.352  1.00  0.00    -0.377 C  
HETATM   10  C   UNL     1      -9.738  14.667  65.770  1.00  0.00    -0.297 C  
HETATM   11  C   UNL     1     -11.934  14.086  64.499  1.00  0.00    -0.448 C  
HETATM   12  C   UNL     1      -9.044  15.622  66.663  1.00  0.00    -0.313 A  
HETATM   13  O   UNL     1     -13.076  14.353  64.158  1.00  0.00    -0.153 OA 
HETATM   14  O   UNL     1     -11.313  12.952  64.114  1.00  0.00    -0.350 OA 
HETATM   15  O   UNL     1      -9.200  13.628  65.389  1.00  0.00     0.326 OA 
HETATM   16  C   UNL     1      -7.768  15.299  67.110  1.00  0.00    -0.238 A  
HETATM   17  C   UNL     1      -7.126  16.155  67.988  1.00  0.00    -0.131 A  
HETATM   18  C   UNL     1      -7.716  17.347  68.463  1.00  0.00    -0.267 A  
HETATM   19  F   UNL     1      -5.924  15.762  68.442  1.00  0.00    -0.095 F  
ENDROOT
BRANCH  18  20
HETATM   20  N   UNL     1      -7.039  18.126  69.400  1.00  0.00    -0.105 NA 
HETATM   21  C   UNL     1      -6.603  17.603  70.702  1.00  0.00     1.559 C  
HETATM   22  C   UNL     1      -5.242  18.229  71.096  1.00  0.00    -0.254 C  
HETATM   23  N   UNL     1      -5.172  19.706  71.042  1.00  0.00    -0.230 NA 
HETATM   24  C   UNL     1      -5.668  20.158  69.719  1.00  0.00    -0.301 C  
HETATM   25  C   UNL     1      -5.926  20.312  72.135  1.00  0.00     0.100 C  
HETATM   26  C   UNL     1      -7.051  19.597  69.307  1.00  0.00    -0.331 C  
ENDBRANCH  18  20
TORSDOF 1
ENDMDL
MODEL      130
REMARK 921   NORMALIZED FREE ENERGY PREDICTED BY IDOCK:    3.94 KCAL/MOL
REMARK 922        TOTAL FREE ENERGY PREDICTED BY IDOCK:    3.77 KCAL/MOL
REMARK 923 INTER-LIGAND FREE ENERGY PREDICTED BY IDOCK:    2.61 KCAL/MOL
REMARK 924 INTRA-LIGAND FREE ENERGY PREDICTED BY IDOCK:    1.16 KCAL/MOL
REMARK 927      BINDING AFFINITY PREDICTED BY RF-SCORE:    0.00 PKD
ROOT
HETATM    1  C   UNL     1      -5.547  12.255  68.669  1.00  0.00    -0.053 C  
HETATM    2  C   UNL     1      -6.590  13.239  68.111  1.00  0.00    -0.115 C  
HETATM    3  C   UNL     1      -7.342  13.853  69.296  1.00  0.00     0.054 C  
HETATM    4  O   UNL     1      -8.752  13.930  69.274  1.00  0.00     0.261 OA 
HETATM    5  C   UNL     1      -9.454  13.187  68.369  1.00  0.00    -0.166 A  
HETATM    6  C   UNL     1      -8.815  12.543  67.294  1.00  0.00    -0.195 A  
HETATM    7  N   UNL     1      -7.423  12.574  67.096  1.00  0.00    -0.118 NA 
HETATM    8  C   UNL     1      -6.887  12.031  65.936  1.00  0.00     1.588 C  
HETATM    9  C   UNL     1      -7.559  11.374  64.977  1.00  0.00     1.059 C  
HETATM   10  C   UNL     1      -9.012  11.236  65.171  1.00  0.00    -0.036 C  
HETATM   11  C   UNL     1      -6.829  10.835  63.811  1.00  0.00     0.378 C  
HETATM   12  C   UNL     1      -9.626  11.861  66.363  1.00  0.00    -0.239 A  
HETATM   13  O   UNL     1      -5.622  10.955  63.664  1.00  0.00    -0.078 OA 
HETATM   14  O   UNL     1      -7.603  10.186  62.918  1.00  0.00    -0.136 OA 
HETATM   15  O   UNL     1      -9.684  10.627  64.339  1.00  0.00    -0.255 OA 
HETATM   16  C   UNL     1     -11.006  11.787  66.510  1.00  0.00    -0.342 A  
HETATM   17  C   UNL     1     -11.603  12.411  67.592  1.00  0.00    -0.357 A  
HETATM   18  C   UNL     1     -10.869  13.136  68.556  1.00  0.00    -0.262 A  
HETATM   19  F   UNL     1     -12.944  12.368  67.648  1.00  0.00     1.141 F  
ENDROOT
BRANCH  18  20
HETATM   20  N   UNL     1     -11.543  13.798  69.581  1.00  0.00    -0.282 NA 
HETATM   21  C   UNL     1     -10.861  14.316  70.775  1.00  0.00     0.821 C  
HETATM   22  C   UNL     1     -11.509  15.649  71.221  1.00  0.00    -0.409 C  
HETATM   23  N   UNL     1     -12.979  15.627  71.391  1.00  0.00    -0.481 NA 
HETATM   24  C   UNL     1     -13.590  15.053  70.167  1.00  0.00     0.629 C  
HETATM   25  C   UNL     1     -13.363  14.879  72.584  1.00  0.00    -0.456 C  
HETATM   26  C   UNL     1     -13.007  13.693  69.713  1.00  0.00     0.660 C  
ENDBRANCH  18  20
TORSDOF 1
ENDMDL
MODEL      131
REMARK 921   NORMALIZED FREE ENERGY PREDICTED BY IDOCK:    8.21 KCAL/MOL
REMARK 922        TOTAL FREE ENERGY PREDICTED BY IDOCK:    8.30 KCAL/MOL
REMARK 923 INTER-LIGAND FREE ENERGY PREDICTED BY IDOCK:    7.52 KCAL/MOL
REMARK 924 INTRA-LIGAND FREE ENERGY PREDICTED BY IDOCK:    0.77 KCAL/MOL
REMARK 927      BINDING AFFINITY PREDICTED BY RF-SCORE:    0.00 PKD
ROOT
HETATM    1  C   UNL     1      -6.012  17.443  68.372  1.00  0.00    -0.159 C  
HETATM    2  C   UNL     1      -6.593  16.104  68.859  1.00  0.00    -0.138 C  
HETATM    3  C   UNL     1      -5.749  14.976  68.257  1.00  0.00    -0.121 C  
HETATM    4  O   UNL     1      -6.383  13.866  67.653  1.00  0.00    -0.195 OA 
HETATM    5  C   UNL     1      -7.705  13.942  67.323  1.00  0.00    -0.084 A  
HETATM    6  C   UNL     1      -8.521  14.988  67.790  1.00  0.00    -0.156 A  
HETATM    7  N   UNL     1      -8.037  16.045  68.582  1.00  0.00    -0.175 NA 
HETATM    8  C   UNL     1      -8.933  16.962  69.117  1.00  0.00    -0.080 C  
HETATM    9  C   UNL     1     -10.254  17.012  68.890  1.00  0.00    -0.322 C  
HETATM   10  C   UNL     1     -10.808  15.978  67.999  1.00  0.00    -0.335 C  
HETATM   11  C   UNL     1     -11.066  18.072  69.524  1.00  0.00     1.681 C  
HETATM   12  C   UNL     1      -9.892  14.946  67.465  1.00  0.00    -0.217 A  
HETATM   13  O   UNL     1     -10.593  18.926  70.259  1.00  0.00     1.083 OA 
HETATM   14  O   UNL     1     -12.378  18.032  69.217  1.00  0.00     5.126 OA 
HETATM   15  O   UNL     1     -12.009  15.980  67.734  1.00  0.00     0.138 OA 
HETATM   16  C   UNL     1     -10.427  13.932  66.679  1.00  0.00    -0.272 A  
HETATM   17  C   UNL     1      -9.594  12.929  66.215  1.00  0.00    -0.243 A  
HETATM   18  C   UNL     1      -8.215  12.881  66.513  1.00  0.00     0.371 A  
HETATM   19  F   UNL     1     -10.175  11.938  65.518  1.00  0.00    -0.247 F  
ENDROOT
BRANCH  18  20
HETATM   20  N   UNL     1      -7.450  11.804  66.070  1.00  0.00     0.420 NA 
HETATM   21  C   UNL     1      -6.065  11.952  65.603  1.00  0.00     1.930 C  
HETATM   22  C   UNL     1      -5.226  10.723  66.030  1.00  0.00    -0.107 C  
HETATM   23  N   UNL     1      -5.790   9.402  65.674  1.00  0.00    -0.053 NA 
HETATM   24  C   UNL     1      -7.199   9.346  66.138  1.00  0.00    -0.092 C  
HETATM   25  C   UNL     1      -5.687   9.150  64.240  1.00  0.00    -0.069 C  
HETATM   26  C   UNL     1      -8.088  10.531  65.690  1.00  0.00    -0.161 C  
ENDBRANCH  18  20
TORSDOF 1
ENDMDL
MODEL      132
REMARK 921   NORMALIZED FREE ENERGY PREDICTED BY IDOCK:   17.80 KCAL/MOL
REMARK 922        TOTAL FREE ENERGY PREDICTED BY IDOCK:   18.45 KCAL/MOL
REMARK 923 INTER-LIGAND FREE ENERGY PREDICTED BY IDOCK:   17.23 KCAL/MOL
REMARK 924 INTRA-LIGAND FREE ENERGY PREDICTED BY IDOCK:    1.22 KCAL/MOL
REMARK 927      BINDING AFFINITY PREDICTED BY RF-SCORE:    0.00 PKD
ROOT
HETATM    1  C   UNL     1      -6.428  10.537  65.338  1.00  0.00    -0.085 C  
HETATM    2  C   UNL     1      -7.499  10.640  66.438  1.00  0.00    -0.138 C  
HETATM    3  C   UNL     1      -6.826  11.181  67.704  1.00  0.00    -0.076 C  
HETATM    4  O   UNL     1      -7.062  10.557  68.950  1.00  0.00    -0.064 OA 
HETATM    5  C   UNL     1      -7.617   9.311  68.986  1.00  0.00    -0.074 A  
HETATM    6  C   UNL     1      -8.193   8.730  67.842  1.00  0.00    -0.111 A  
HETATM    7  N   UNL     1      -8.203   9.356  66.583  1.00  0.00    -0.111 NA 
HETATM    8  C   UNL     1      -8.914   8.778  65.539  1.00  0.00    -0.181 C  
HETATM    9  C   UNL     1      -9.552   7.597  65.565  1.00  0.00     0.672 C  
HETATM   10  C   UNL     1      -9.505   6.854  66.836  1.00  0.00    -0.158 C  
HETATM   11  C   UNL     1     -10.245   7.114  64.353  1.00  0.00     6.093 C  
HETATM   12  C   UNL     1      -8.813   7.472  67.988  1.00  0.00    -0.127 A  
HETATM   13  O   UNL     1     -10.273   7.740  63.305  1.00  0.00     6.132 OA 
HETATM   14  O   UNL     1     -10.841   5.912  64.492  1.00  0.00     3.344 OA 
HETATM   15  O   UNL     1     -10.052   5.755  66.920  1.00  0.00    -0.155 OA 
HETATM   16  C   UNL     1      -8.828   6.799  69.205  1.00  0.00    -0.134 A  
HETATM   17  C   UNL     1      -8.231   7.387  70.306  1.00  0.00    -0.132 A  
HETATM   18  C   UNL     1      -7.611   8.654  70.254  1.00  0.00    -0.074 A  
HETATM   19  F   UNL     1      -8.334   6.726  71.472  1.00  0.00    -0.112 F  
ENDROOT
BRANCH  18  20
HETATM   20  N   UNL     1      -7.091   9.216  71.419  1.00  0.00    -0.272 NA 
HETATM   21  C   UNL     1      -7.396   8.694  72.758  1.00  0.00     0.074 C  
HETATM   22  C   UNL     1      -6.151   8.813  73.671  1.00  0.00    -0.074 C  
HETATM   23  N   UNL     1      -5.519  10.149  73.730  1.00  0.00    -0.312 NA 
HETATM   24  C   UNL     1      -5.283  10.626  72.345  1.00  0.00     0.252 C  
HETATM   25  C   UNL     1      -6.339  11.089  74.489  1.00  0.00     2.161 C  
HETATM   26  C   UNL     1      -6.517  10.573  71.411  1.00  0.00     0.895 C  
ENDBRANCH  18  20
TORSDOF 1
ENDMDL
MODEL      133
REMARK 921   NORMALIZED FREE ENERGY PREDICTED BY IDOCK:   20.61 KCAL/MOL
REMARK 922        TOTAL FREE ENERGY PREDICTED BY IDOCK:   21.41 KCAL/MOL
REMARK 923 INTER-LIGAND FREE ENERGY PREDICTED BY IDOCK:   20.23 KCAL/MOL
REMARK 924 INTRA-LIGAND FREE ENERGY PREDICTED BY IDOCK:    1.18 KCAL/MOL
REMARK 927      BINDING AFFINITY PREDICTED BY RF-SCORE:    0.00 PKD
ROOT
HETATM    1  C   UNL     1     -11.273  12.094  65.400  1.00  0.00    -0.381 C  
HETATM    2  C   UNL     1     -11.017  11.919  66.907  1.00  0.00    -0.289 C  
HETATM    3  C   UNL     1     -11.661  13.103  67.636  1.00  0.00    -0.349 C  
HETATM    4  O   UNL     1     -10.935  13.799  68.629  1.00  0.00    -0.249 OA 
HETATM    5  C   UNL     1      -9.583  13.634  68.716  1.00  0.00    -0.011 A  
HETATM    6  C   UNL     1      -8.921  12.606  68.019  1.00  0.00    -0.200 A  
HETATM    7  N   UNL     1      -9.582  11.712  67.158  1.00  0.00    -0.174 NA 
HETATM    8  C   UNL     1      -8.881  10.641  66.618  1.00  0.00    -0.141 C  
HETATM    9  C   UNL     1      -7.570  10.394  66.758  1.00  0.00    -0.110 C  
HETATM   10  C   UNL     1      -6.806  11.345  67.583  1.00  0.00    -0.080 C  
HETATM   11  C   UNL     1      -6.972   9.216  66.095  1.00  0.00    -0.086 C  
HETATM   12  C   UNL     1      -7.534  12.460  68.228  1.00  0.00    -0.124 A  
HETATM   13  O   UNL     1      -7.617   8.436  65.411  1.00  0.00    -0.086 OA 
HETATM   14  O   UNL     1      -5.647   9.073  66.296  1.00  0.00    -0.046 OA 
HETATM   15  O   UNL     1      -5.595  11.187  67.735  1.00  0.00    -0.043 OA 
HETATM   16  C   UNL     1      -6.824  13.318  69.060  1.00  0.00    -0.096 A  
HETATM   17  C   UNL     1      -7.500  14.335  69.713  1.00  0.00     0.256 A  
HETATM   18  C   UNL     1      -8.891  14.537  69.580  1.00  0.00     0.464 A  
HETATM   19  F   UNL     1      -6.779  15.091  70.558  1.00  0.00    -0.134 F  
ENDROOT
BRANCH  18  20
HETATM   20  N   UNL     1      -9.517  15.537  70.322  1.00  0.00     0.246 NA 
HETATM   21  C   UNL     1     -10.908  15.948  70.087  1.00  0.00    -0.353 C  
HETATM   22  C   UNL     1     -11.592  16.300  71.430  1.00  0.00    -0.361 C  
HETATM   23  N   UNL     1     -10.869  17.264  72.289  1.00  0.00     2.149 NA 
HETATM   24  C   UNL     1      -9.466  16.806  72.443  1.00  0.00    10.753 C  
HETATM   25  C   UNL     1     -10.935  18.616  71.740  1.00  0.00     3.749 C  
HETATM   26  C   UNL     1      -8.727  16.491  71.120  1.00  0.00     5.927 C  
ENDBRANCH  18  20
TORSDOF 1
ENDMDL
MODEL      134
REMARK 921   NORMALIZED FREE ENERGY PREDICTED BY IDOCK:   22.24 KCAL/MOL
REMARK 922        TOTAL FREE ENERGY PREDICTED BY IDOCK:   23.14 KCAL/MOL
REMARK 923 INTER-LIGAND FREE ENERGY PREDICTED BY IDOCK:   23.47 KCAL/MOL
REMARK 924 INTRA-LIGAND FREE ENERGY PREDICTED BY IDOCK:   -0.33 KCAL/MOL
REMARK 927      BINDING AFFINITY PREDICTED BY RF-SCORE:    0.00 PKD
ROOT
HETATM    1  C   UNL     1     -12.194  17.999  67.306  1.00  0.00     3.801 C  
HETATM    2  C   UNL     1     -11.561  16.840  66.517  1.00  0.00     1.241 C  
HETATM    3  C   UNL     1     -11.731  15.559  67.340  1.00  0.00     0.053 C  
HETATM    4  O   UNL     1     -10.634  14.687  67.524  1.00  0.00    -0.253 OA 
HETATM    5  C   UNL     1      -9.371  15.126  67.251  1.00  0.00    -0.203 A  
HETATM    6  C   UNL     1      -9.144  16.328  66.556  1.00  0.00    -0.269 A  
HETATM    7  N   UNL     1     -10.181  17.179  66.134  1.00  0.00    -0.367 NA 
HETATM    8  C   UNL     1      -9.881  18.274  65.333  1.00  0.00     0.963 C  
HETATM    9  C   UNL     1      -8.657  18.683  64.967  1.00  0.00     2.937 C  
HETATM   10  C   UNL     1      -7.523  17.877  65.449  1.00  0.00     0.714 C  
HETATM   11  C   UNL     1      -8.510  19.889  64.125  1.00  0.00     5.052 C  
HETATM   12  C   UNL     1      -7.810  16.666  66.249  1.00  0.00    -0.309 A  
HETATM   13  O   UNL     1      -9.460  20.551  63.734  1.00  0.00     4.120 OA 
HETATM   14  O   UNL     1      -7.235  20.212  63.827  1.00  0.00     0.538 OA 
HETATM   15  O   UNL     1      -6.373  18.210  65.166  1.00  0.00    -0.298 OA 
HETATM   16  C   UNL     1      -6.743  15.869  66.647  1.00  0.00     0.463 A  
HETATM   17  C   UNL     1      -6.997  14.705  67.351  1.00  0.00    -0.093 A  
HETATM   18  C   UNL     1      -8.303  14.279  67.678  1.00  0.00    -0.181 A  
HETATM   19  F   UNL     1      -5.936  13.938  67.650  1.00  0.00    -0.134 F  
ENDROOT
BRANCH  18  20
HETATM   20  N   UNL     1      -8.489  13.060  68.328  1.00  0.00    -0.168 NA 
HETATM   21  C   UNL     1      -8.760  11.809  67.607  1.00  0.00    -0.159 C  
HETATM   22  C   UNL     1      -8.062  10.625  68.319  1.00  0.00    -0.118 C  
HETATM   23  N   UNL     1      -8.329  10.496  69.769  1.00  0.00    -0.010 NA 
HETATM   24  C   UNL     1      -8.076  11.806  70.417  1.00  0.00     3.894 C  
HETATM   25  C   UNL     1      -9.689  10.027  70.018  1.00  0.00    -0.175 C  
HETATM   26  C   UNL     1      -8.796  13.013  69.768  1.00  0.00     2.433 C  
ENDBRANCH  18  20
TORSDOF 1
ENDMDL
MODEL      135
REMARK 921   NORMALIZED FREE ENERGY PREDICTED BY IDOCK:   22.32 KCAL/MOL
REMARK 922        TOTAL FREE ENERGY PREDICTED BY IDOCK:   23.23 KCAL/MOL
REMARK 923 INTER-LIGAND FREE ENERGY PREDICTED BY IDOCK:   23.00 KCAL/MOL
REMARK 924 INTRA-LIGAND FREE ENERGY PREDICTED BY IDOCK:    0.23 KCAL/MOL
REMARK 927      BINDING AFFINITY PREDICTED BY RF-SCORE:    0.00 PKD
ROOT
HETATM    1  C   UNL     1      -7.703  13.453  71.436  1.00  0.00     6.906 C  
HETATM    2  C   UNL     1      -8.455  12.391  70.615  1.00  0.00     7.205 C  
HETATM    3  C   UNL     1      -7.989  11.010  71.090  1.00  0.00     5.131 C  
HETATM    4  O   UNL     1      -7.635  10.022  70.144  1.00  0.00    -0.162 OA 
HETATM    5  C   UNL     1      -7.401  10.382  68.848  1.00  0.00    -0.094 A  
HETATM    6  C   UNL     1      -7.745  11.657  68.366  1.00  0.00    -0.130 A  
HETATM    7  N   UNL     1      -8.305  12.661  69.177  1.00  0.00     0.459 NA 
HETATM    8  C   UNL     1      -8.745  13.843  68.594  1.00  0.00    -0.075 C  
HETATM    9  C   UNL     1      -8.617  14.193  67.305  1.00  0.00    -0.231 C  
HETATM   10  C   UNL     1      -7.961  13.215  66.421  1.00  0.00     0.984 C  
HETATM   11  C   UNL     1      -9.121  15.505  66.849  1.00  0.00    -0.241 C  
HETATM   12  C   UNL     1      -7.540  11.918  66.995  1.00  0.00    -0.134 A  
HETATM   13  O   UNL     1      -9.661  16.308  67.595  1.00  0.00    -0.230 OA 
HETATM   14  O   UNL     1      -8.929  15.754  65.538  1.00  0.00    -0.146 OA 
HETATM   15  O   UNL     1      -7.793  13.482  65.231  1.00  0.00     4.306 OA 
HETATM   16  C   UNL     1      -6.982  10.969  66.145  1.00  0.00    -0.057 A  
HETATM   17  C   UNL     1      -6.632   9.731  66.655  1.00  0.00    -0.071 A  
HETATM   18  C   UNL     1      -6.826   9.379  68.008  1.00  0.00    -0.074 A  
HETATM   19  F   UNL     1      -6.162   8.829  65.777  1.00  0.00    -0.052 F  
ENDROOT
BRANCH  18  20
HETATM   20  N   UNL     1      -6.514   8.090  68.438  1.00  0.00    -0.056 NA 
HETATM   21  C   UNL     1      -5.555   7.823  69.518  1.00  0.00    -0.023 C  
HETATM   22  C   UNL     1      -6.025   6.610  70.358  1.00  0.00    -0.024 C  
HETATM   23  N   UNL     1      -6.353   5.386  69.595  1.00  0.00    -0.028 NA 
HETATM   24  C   UNL     1      -7.288   5.743  68.500  1.00  0.00    -0.084 C  
HETATM   25  C   UNL     1      -5.147   4.741  69.083  1.00  0.00     0.000 C  
HETATM   26  C   UNL     1      -6.832   6.919  67.602  1.00  0.00    -0.077 C  
ENDBRANCH  18  20
TORSDOF 1
ENDMDL
MODEL      136
REMARK 921   NORMALIZED FREE ENERGY PREDICTED BY IDOCK:   28.07 KCAL/MOL
REMARK 922        TOTAL FREE ENERGY PREDICTED BY IDOCK:   29.31 KCAL/MOL
REMARK 923 INTER-LIGAND FREE ENERGY PREDICTED BY IDOCK:   28.56 KCAL/MOL
REMARK 924 INTRA-LIGAND FREE ENERGY PREDICTED BY IDOCK:    0.74 KCAL/MOL
REMARK 927      BINDING AFFINITY PREDICTED BY RF-SCORE:    0.00 PKD
ROOT
HETATM    1  C   UNL     1     -13.679   9.282  68.871  1.00  0.00     8.466 C  
HETATM    2  C   UNL     1     -12.822   8.118  68.345  1.00  0.00     8.962 C  
HETATM    3  C   UNL     1     -12.400   7.262  69.543  1.00  0.00     1.400 C  
HETATM    4  O   UNL     1     -11.054   6.852  69.678  1.00  0.00    -0.266 OA 
HETATM    5  C   UNL     1     -10.085   7.466  68.939  1.00  0.00    -0.186 A  
HETATM    6  C   UNL     1     -10.407   8.316  67.865  1.00  0.00    -0.219 A  
HETATM    7  N   UNL     1     -11.729   8.632  67.504  1.00  0.00     2.155 NA 
HETATM    8  C   UNL     1     -11.964   9.366  66.349  1.00  0.00     5.994 C  
HETATM    9  C   UNL     1     -11.036   9.906  65.544  1.00  0.00     1.159 C  
HETATM   10  C   UNL     1      -9.629   9.680  65.919  1.00  0.00    -0.257 C  
HETATM   11  C   UNL     1     -11.457  10.683  64.359  1.00  0.00     1.577 C  
HETATM   12  C   UNL     1      -9.343   8.846  67.107  1.00  0.00    -0.182 A  
HETATM   13  O   UNL     1     -12.628  10.865  64.062  1.00  0.00     1.514 OA 
HETATM   14  O   UNL     1     -10.440  11.188  63.631  1.00  0.00    -0.359 OA 
HETATM   15  O   UNL     1      -8.729  10.166  65.235  1.00  0.00    -0.149 OA 
HETATM   16  C   UNL     1      -8.015   8.578  67.420  1.00  0.00    -0.102 A  
HETATM   17  C   UNL     1      -7.730   7.756  68.497  1.00  0.00    -0.118 A  
HETATM   18  C   UNL     1      -8.735   7.164  69.293  1.00  0.00    -0.136 A  
HETATM   19  F   UNL     1      -6.435   7.474  68.713  1.00  0.00    -0.041 F  
ENDROOT
BRANCH  18  20
HETATM   20  N   UNL     1      -8.376   6.291  70.320  1.00  0.00    -0.124 NA 
HETATM   21  C   UNL     1      -7.298   5.302  70.182  1.00  0.00    -0.067 C  
HETATM   22  C   UNL     1      -6.539   5.155  71.523  1.00  0.00    -0.036 C  
HETATM   23  N   UNL     1      -7.377   4.895  72.714  1.00  0.00    -0.087 NA 
HETATM   24  C   UNL     1      -8.464   5.903  72.759  1.00  0.00    -0.122 C  
HETATM   25  C   UNL     1      -7.907   3.535  72.703  1.00  0.00    -0.068 C  
HETATM   26  C   UNL     1      -9.285   6.048  71.454  1.00  0.00    -0.143 C  
ENDBRANCH  18  20
TORSDOF 1
ENDMDL
MODEL      137
REMARK 921   NORMALIZED FREE ENERGY PREDICTED BY IDOCK:   31.12 KCAL/MOL
REMARK 922        TOTAL FREE ENERGY PREDICTED BY IDOCK:   32.54 KCAL/MOL
REMARK 923 INTER-LIGAND FREE ENERGY PREDICTED BY IDOCK:   32.48 KCAL/MOL
REMARK 924 INTRA-LIGAND FREE ENERGY PREDICTED BY IDOCK:    0.07 KCAL/MOL
REMARK 927      BINDING AFFINITY PREDICTED BY RF-SCORE:    0.00 PKD
ROOT
HETATM    1  C   UNL     1      -8.295  12.770  71.765  1.00  0.00    15.628 C  
HETATM    2  C   UNL     1      -9.429  11.836  71.307  1.00  0.00    10.638 C  
HETATM    3  C   UNL     1      -8.797  10.647  70.577  1.00  0.00     1.951 C  
HETATM    4  O   UNL     1      -9.320  10.222  69.336  1.00  0.00    -0.204 OA 
HETATM    5  C   UNL     1     -10.162  11.042  68.642  1.00  0.00    -0.199 A  
HETATM    6  C   UNL     1     -10.726  12.187  69.234  1.00  0.00     0.020 A  
HETATM    7  N   UNL     1     -10.436  12.594  70.549  1.00  0.00     2.907 NA 
HETATM    8  C   UNL     1     -11.140  13.655  71.104  1.00  0.00     2.146 C  
HETATM    9  C   UNL     1     -12.044  14.427  70.481  1.00  0.00    -0.404 C  
HETATM   10  C   UNL     1     -12.328  14.100  69.073  1.00  0.00    -0.110 C  
HETATM   11  C   UNL     1     -12.689  15.536  71.214  1.00  0.00    -0.462 C  
HETATM   12  C   UNL     1     -11.645  12.934  68.470  1.00  0.00    -0.358 A  
HETATM   13  O   UNL     1     -12.442  15.798  72.382  1.00  0.00    -0.379 OA 
HETATM   14  O   UNL     1     -13.571  16.251  70.486  1.00  0.00     0.951 OA 
HETATM   15  O   UNL     1     -13.132  14.782  68.438  1.00  0.00     1.343 OA 
HETATM   16  C   UNL     1     -11.964  12.587  67.162  1.00  0.00    -0.285 A  
HETATM   17  C   UNL     1     -11.375  11.468  66.600  1.00  0.00    -0.214 A  
HETATM   18  C   UNL     1     -10.463  10.650  67.302  1.00  0.00    -0.246 A  
HETATM   19  F   UNL     1     -11.770  11.138  65.359  1.00  0.00    -0.022 F  
ENDROOT
BRANCH  18  20
HETATM   20  N   UNL     1      -9.961   9.499  66.697  1.00  0.00    -0.229 NA 
HETATM   21  C   UNL     1      -9.421   9.490  65.331  1.00  0.00    -0.269 C  
HETATM   22  C   UNL     1      -8.220   8.518  65.241  1.00  0.00    -0.149 C  
HETATM   23  N   UNL     1      -8.459   7.149  65.748  1.00  0.00    -0.146 NA 
HETATM   24  C   UNL     1      -9.043   7.241  67.109  1.00  0.00    -0.130 C  
HETATM   25  C   UNL     1      -9.320   6.391  64.844  1.00  0.00     0.974 C  
HETATM   26  C   UNL     1     -10.280   8.164  67.234  1.00  0.00    -0.278 C  
ENDBRANCH  18  20
TORSDOF 1
ENDMDL
MODEL      138
REMARK 921   NORMALIZED FREE ENERGY PREDICTED BY IDOCK:   41.47 KCAL/MOL
REMARK 922        TOTAL FREE ENERGY PREDICTED BY IDOCK:   43.50 KCAL/MOL
REMARK 923 INTER-LIGAND FREE ENERGY PREDICTED BY IDOCK:   42.44 KCAL/MOL
REMARK 924 INTRA-LIGAND FREE ENERGY PREDICTED BY IDOCK:    1.06 KCAL/MOL
REMARK 927      BINDING AFFINITY PREDICTED BY RF-SCORE:    0.00 PKD
ROOT
HETATM    1  C   UNL     1      -5.453  17.905  70.264  1.00  0.00    -0.252 C  
HETATM    2  C   UNL     1      -6.135  16.577  70.635  1.00  0.00     0.450 C  
HETATM    3  C   UNL     1      -5.749  15.537  69.577  1.00  0.00    -0.117 C  
HETATM    4  O   UNL     1      -6.743  14.713  69.003  1.00  0.00    -0.091 OA 
HETATM    5  C   UNL     1      -8.059  15.047  69.142  1.00  0.00    -0.192 A  
HETATM    6  C   UNL     1      -8.474  16.039  70.049  1.00  0.00     0.829 A  
HETATM    7  N   UNL     1      -7.577  16.785  70.836  1.00  0.00     3.899 NA 
HETATM    8  C   UNL     1      -8.075  17.646  71.805  1.00  0.00    11.690 C  
HETATM    9  C   UNL     1      -9.366  17.929  72.035  1.00  0.00    11.202 C  
HETATM   10  C   UNL     1     -10.351  17.240  71.184  1.00  0.00     2.703 C  
HETATM   11  C   UNL     1      -9.726  18.892  73.097  1.00  0.00     5.893 C  
HETATM   12  C   UNL     1      -9.859  16.266  70.185  1.00  0.00     0.530 A  
HETATM   13  O   UNL     1      -8.899  19.459  73.794  1.00  0.00     3.471 OA 
HETATM   14  O   UNL     1     -11.051  19.107  73.231  1.00  0.00     2.111 OA 
HETATM   15  O   UNL     1     -11.551  17.471  71.329  1.00  0.00     1.508 OA 
HETATM   16  C   UNL     1     -10.793  15.567  69.429  1.00  0.00    -0.261 A  
HETATM   17  C   UNL     1     -10.352  14.613  68.528  1.00  0.00    -0.238 A  
HETATM   18  C   UNL     1      -8.986  14.306  68.347  1.00  0.00    -0.189 A  
HETATM   19  F   UNL     1     -11.299  13.920  67.874  1.00  0.00    -0.264 F  
ENDROOT
BRANCH  18  20
HETATM   20  N   UNL     1      -8.618  13.285  67.472  1.00  0.00    -0.188 NA 
HETATM   21  C   UNL     1      -7.240  12.789  67.365  1.00  0.00    -0.132 C  
HETATM   22  C   UNL     1      -7.243  11.261  67.116  1.00  0.00    -0.126 C  
HETATM   23  N   UNL     1      -8.087  10.792  65.995  1.00  0.00    -0.159 NA 
HETATM   24  C   UNL     1      -9.446  11.368  66.149  1.00  0.00    -0.216 C  
HETATM   25  C   UNL     1      -7.499  11.142  64.706  1.00  0.00     0.805 C  
HETATM   26  C   UNL     1      -9.492  12.903  66.349  1.00  0.00    -0.226 C  
ENDBRANCH  18  20
TORSDOF 1
ENDMDL
MODEL      139
REMARK 921   NORMALIZED FREE ENERGY PREDICTED BY IDOCK:   43.49 KCAL/MOL
REMARK 922        TOTAL FREE ENERGY PREDICTED BY IDOCK:   45.63 KCAL/MOL
REMARK 923 INTER-LIGAND FREE ENERGY PREDICTED BY IDOCK:   45.96 KCAL/MOL
REMARK 924 INTRA-LIGAND FREE ENERGY PREDICTED BY IDOCK:   -0.33 KCAL/MOL
REMARK 927      BINDING AFFINITY PREDICTED BY RF-SCORE:    0.00 PKD
ROOT
HETATM    1  C   UNL     1      -7.447  13.721  65.646  1.00  0.00     6.002 C  
HETATM    2  C   UNL     1      -8.420  14.319  66.677  1.00  0.00     0.102 C  
HETATM    3  C   UNL     1      -8.435  13.398  67.902  1.00  0.00    -0.173 C  
HETATM    4  O   UNL     1      -9.665  13.010  68.478  1.00  0.00    -0.208 OA 
HETATM    5  C   UNL     1     -10.823  13.183  67.776  1.00  0.00    -0.244 A  
HETATM    6  C   UNL     1     -10.864  13.963  66.606  1.00  0.00    -0.289 A  
HETATM    7  N   UNL     1      -9.726  14.578  66.052  1.00  0.00    -0.309 NA 
HETATM    8  C   UNL     1      -9.876  15.444  64.976  1.00  0.00     0.043 C  
HETATM    9  C   UNL     1     -11.015  15.711  64.319  1.00  0.00     0.157 C  
HETATM   10  C   UNL     1     -12.228  15.030  64.802  1.00  0.00    -0.218 C  
HETATM   11  C   UNL     1     -10.996  16.645  63.174  1.00  0.00     6.864 C  
HETATM   12  C   UNL     1     -12.117  14.152  65.988  1.00  0.00    -0.449 A  
HETATM   13  O   UNL     1      -9.982  17.202  62.782  1.00  0.00    11.341 OA 
HETATM   14  O   UNL     1     -12.194  16.830  62.583  1.00  0.00     6.316 OA 
HETATM   15  O   UNL     1     -13.301  15.216  64.230  1.00  0.00     0.243 OA 
HETATM   16  C   UNL     1     -13.274  13.563  66.483  1.00  0.00     1.716 A  
HETATM   17  C   UNL     1     -13.197  12.782  67.623  1.00  0.00     4.537 A  
HETATM   18  C   UNL     1     -11.989  12.561  68.318  1.00  0.00    -0.221 A  
HETATM   19  F   UNL     1     -14.355  12.293  68.098  1.00  0.00     9.619 F  
ENDROOT
BRANCH  18  20
HETATM   20  N   UNL     1     -11.997  11.819  69.499  1.00  0.00    -0.309 NA 
HETATM   21  C   UNL     1     -11.948  12.442  70.829  1.00  0.00     0.010 C  
HETATM   22  C   UNL     1     -12.821  11.639  71.823  1.00  0.00    -0.313 C  
HETATM   23  N   UNL     1     -12.557  10.185  71.885  1.00  0.00    -0.386 NA 
HETATM   24  C   UNL     1     -12.580   9.638  70.506  1.00  0.00     0.046 C  
HETATM   25  C   UNL     1     -11.290   9.904  72.553  1.00  0.00     2.273 C  
HETATM   26  C   UNL     1     -11.680  10.380  69.488  1.00  0.00    -0.188 C  
ENDBRANCH  18  20
TORSDOF 1
ENDMDL
MODEL      140
REMARK 921   NORMALIZED FREE ENERGY PREDICTED BY IDOCK:   51.66 KCAL/MOL
REMARK 922        TOTAL FREE ENERGY PREDICTED BY IDOCK:   54.29 KCAL/MOL
REMARK 923 INTER-LIGAND FREE ENERGY PREDICTED BY IDOCK:   53.22 KCAL/MOL
REMARK 924 INTRA-LIGAND FREE ENERGY PREDICTED BY IDOCK:    1.07 KCAL/MOL
REMARK 927      BINDING AFFINITY PREDICTED BY RF-SCORE:    0.00 PKD
ROOT
HETATM    1  C   UNL     1     -12.641   5.133  72.455  1.00  0.00     0.807 C  
HETATM    2  C   UNL     1     -12.463   5.876  71.120  1.00  0.00     1.165 C  
HETATM    3  C   UNL     1     -12.945   4.952  69.997  1.00  0.00    13.241 C  
HETATM    4  O   UNL     1     -12.156   4.779  68.838  1.00  0.00     6.914 OA 
HETATM    5  C   UNL     1     -10.847   5.167  68.849  1.00  0.00     0.392 A  
HETATM    6  C   UNL     1     -10.325   5.962  69.885  1.00  0.00    -0.242 A  
HETATM    7  N   UNL     1     -11.085   6.374  70.995  1.00  0.00    -0.279 NA 
HETATM    8  C   UNL     1     -10.534   7.271  71.902  1.00  0.00    -0.200 C  
HETATM    9  C   UNL     1      -9.280   7.748  71.893  1.00  0.00    -0.182 C  
HETATM   10  C   UNL     1      -8.410   7.285  70.799  1.00  0.00    -0.124 C  
HETATM   11  C   UNL     1      -8.845   8.683  72.951  1.00  0.00     0.065 C  
HETATM   12  C   UNL     1      -8.983   6.381  69.777  1.00  0.00    -0.141 A  
HETATM   13  O   UNL     1      -9.577   9.057  73.855  1.00  0.00     1.860 OA 
HETATM   14  O   UNL     1      -7.563   9.088  72.847  1.00  0.00    -0.297 OA 
HETATM   15  O   UNL     1      -7.242   7.668  70.744  1.00  0.00    -0.060 OA 
HETATM   16  C   UNL     1      -8.180   5.999  68.709  1.00  0.00    -0.104 A  
HETATM   17  C   UNL     1      -8.717   5.197  67.717  1.00  0.00    -0.103 A  
HETATM   18  C   UNL     1     -10.057   4.753  67.734  1.00  0.00    -0.069 A  
HETATM   19  F   UNL     1      -7.919   4.914  66.674  1.00  0.00    -0.099 F  
ENDROOT
BRANCH  18  20
HETATM   20  N   UNL     1     -10.550   4.004  66.666  1.00  0.00     0.728 NA 
HETATM   21  C   UNL     1      -9.989   4.088  65.311  1.00  0.00    -0.189 C  
HETATM   22  C   UNL     1     -10.018   2.695  64.637  1.00  0.00     0.103 C  
HETATM   23  N   UNL     1     -11.323   1.999  64.651  1.00  0.00     1.751 NA 
HETATM   24  C   UNL     1     -11.844   1.993  66.041  1.00  0.00    12.491 C  
HETATM   25  C   UNL     1     -12.266   2.621  63.727  1.00  0.00     4.528 C  
HETATM   26  C   UNL     1     -11.881   3.376  66.736  1.00  0.00    11.259 C  
ENDBRANCH  18  20
TORSDOF 1
ENDMDL
MODEL      141
REMARK 921   NORMALIZED FREE ENERGY PREDICTED BY IDOCK:   52.30 KCAL/MOL
REMARK 922        TOTAL FREE ENERGY PREDICTED BY IDOCK:   54.96 KCAL/MOL
REMARK 923 INTER-LIGAND FREE ENERGY PREDICTED BY IDOCK:   54.91 KCAL/MOL
REMARK 924 INTRA-LIGAND FREE ENERGY PREDICTED BY IDOCK:    0.05 KCAL/MOL
REMARK 927      BINDING AFFINITY PREDICTED BY RF-SCORE:    0.00 PKD
ROOT
HETATM    1  C   UNL     1     -10.940  13.054  67.163  1.00  0.00    -0.293 C  
HETATM    2  C   UNL     1     -12.175  13.270  68.054  1.00  0.00    -0.077 C  
HETATM    3  C   UNL     1     -12.198  14.741  68.481  1.00  0.00    -0.079 C  
HETATM    4  O   UNL     1     -12.425  15.080  69.834  1.00  0.00    -0.297 OA 
HETATM    5  C   UNL     1     -12.307  14.120  70.798  1.00  0.00    -0.369 A  
HETATM    6  C   UNL     1     -12.216  12.756  70.470  1.00  0.00    -0.307 A  
HETATM    7  N   UNL     1     -12.193  12.283  69.145  1.00  0.00    -0.128 NA 
HETATM    8  C   UNL     1     -12.242  10.915  68.908  1.00  0.00     0.030 C  
HETATM    9  C   UNL     1     -12.222   9.944  69.834  1.00  0.00     0.133 C  
HETATM   10  C   UNL     1     -12.161  10.377  71.240  1.00  0.00    -0.362 C  
HETATM   11  C   UNL     1     -12.257   8.529  69.409  1.00  0.00     2.104 C  
HETATM   12  C   UNL     1     -12.175  11.828  71.531  1.00  0.00     0.160 A  
HETATM   13  O   UNL     1     -12.305   8.183  68.238  1.00  0.00     3.828 OA 
HETATM   14  O   UNL     1     -12.221   7.639  70.423  1.00  0.00     0.028 OA 
HETATM   15  O   UNL     1     -12.119   9.536  72.137  1.00  0.00    -0.313 OA 
HETATM   16  C   UNL     1     -12.185  12.234  72.860  1.00  0.00     4.341 A  
HETATM   17  C   UNL     1     -12.252  13.585  73.151  1.00  0.00     1.688 A  
HETATM   18  C   UNL     1     -12.321  14.580  72.151  1.00  0.00    -0.260 A  
HETATM   19  F   UNL     1     -12.328  13.920  74.450  1.00  0.00     0.855 F  
ENDROOT
BRANCH  18  20
HETATM   20  N   UNL     1     -12.456  15.918  72.516  1.00  0.00    -0.442 NA 
HETATM   21  C   UNL     1     -11.609  16.553  73.534  1.00  0.00     0.344 C  
HETATM   22  C   UNL     1     -11.310  18.020  73.137  1.00  0.00     2.019 C  
HETATM   23  N   UNL     1     -12.488  18.850  72.803  1.00  0.00    10.504 NA 
HETATM   24  C   UNL     1     -13.314  18.125  71.807  1.00  0.00    17.384 C  
HETATM   25  C   UNL     1     -13.258  19.183  73.998  1.00  0.00    11.649 C  
HETATM   26  C   UNL     1     -13.680  16.670  72.188  1.00  0.00     2.773 C  
ENDBRANCH  18  20
TORSDOF 1
ENDMDL
MODEL      142
REMARK 921   NORMALIZED FREE ENERGY PREDICTED BY IDOCK:   73.67 KCAL/MOL
REMARK 922        TOTAL FREE ENERGY PREDICTED BY IDOCK:   77.58 KCAL/MOL
REMARK 923 INTER-LIGAND FREE ENERGY PREDICTED BY IDOCK:   77.91 KCAL/MOL
REMARK 924 INTRA-LIGAND FREE ENERGY PREDICTED BY IDOCK:   -0.33 KCAL/MOL
REMARK 927      BINDING AFFINITY PREDICTED BY RF-SCORE:    0.00 PKD
ROOT
HETATM    1  C   UNL     1     -12.400  11.594  69.663  1.00  0.00    -0.172 C  
HETATM    2  C   UNL     1     -10.979  11.393  69.108  1.00  0.00    -0.236 C  
HETATM    3  C   UNL     1     -10.939  10.040  68.389  1.00  0.00    -0.217 C  
HETATM    4  O   UNL     1      -9.874   9.144  68.631  1.00  0.00    -0.156 OA 
HETATM    5  C   UNL     1      -9.067   9.332  69.717  1.00  0.00    -0.177 A  
HETATM    6  C   UNL     1      -9.102  10.526  70.460  1.00  0.00     1.520 A  
HETATM    7  N   UNL     1      -9.985  11.583  70.176  1.00  0.00     1.585 NA 
HETATM    8  C   UNL     1      -9.860  12.780  70.869  1.00  0.00     7.864 C  
HETATM    9  C   UNL     1      -9.014  13.033  71.880  1.00  0.00    18.286 C  
HETATM   10  C   UNL     1      -8.119  11.934  72.278  1.00  0.00    17.053 C  
HETATM   11  C   UNL     1      -9.025  14.361  72.528  1.00  0.00     8.626 C  
HETATM   12  C   UNL     1      -8.180  10.666  71.518  1.00  0.00     5.484 A  
HETATM   13  O   UNL     1      -9.775  15.264  72.189  1.00  0.00     2.701 OA 
HETATM   14  O   UNL     1      -8.142  14.499  73.538  1.00  0.00     5.383 OA 
HETATM   15  O   UNL     1      -7.334  12.093  73.212  1.00  0.00    10.175 OA 
HETATM   16  C   UNL     1      -7.288   9.653  71.852  1.00  0.00     1.068 A  
HETATM   17  C   UNL     1      -7.296   8.481  71.116  1.00  0.00    -0.079 A  
HETATM   18  C   UNL     1      -8.167   8.267  70.026  1.00  0.00    -0.119 A  
HETATM   19  F   UNL     1      -6.368   7.563  71.436  1.00  0.00    -0.036 F  
ENDROOT
BRANCH  18  20
HETATM   20  N   UNL     1      -8.072   7.090  69.286  1.00  0.00    -0.119 NA 
HETATM   21  C   UNL     1      -7.360   7.013  68.003  1.00  0.00    -0.097 C  
HETATM   22  C   UNL     1      -6.649   5.644  67.872  1.00  0.00    -0.053 C  
HETATM   23  N   UNL     1      -7.494   4.452  68.106  1.00  0.00    -0.065 NA 
HETATM   24  C   UNL     1      -8.211   4.624  69.394  1.00  0.00    -0.072 C  
HETATM   25  C   UNL     1      -8.422   4.234  67.000  1.00  0.00    -0.104 C  
HETATM   26  C   UNL     1      -8.980   5.959  69.548  1.00  0.00    -0.129 C  
ENDBRANCH  18  20
TORSDOF 1
ENDMDL
MODEL      143
REMARK 921   NORMALIZED FREE ENERGY PREDICTED BY IDOCK:   74.73 KCAL/MOL
REMARK 922        TOTAL FREE ENERGY PREDICTED BY IDOCK:   78.70 KCAL/MOL
REMARK 923 INTER-LIGAND FREE ENERGY PREDICTED BY IDOCK:   77.68 KCAL/MOL
REMARK 924 INTRA-LIGAND FREE ENERGY PREDICTED BY IDOCK:    1.03 KCAL/MOL
REMARK 927      BINDING AFFINITY PREDICTED BY RF-SCORE:    0.00 PKD
ROOT
HETATM    1  C   UNL     1     -13.335  20.215  66.830  1.00  0.00     6.201 C  
HETATM    2  C   UNL     1     -13.038  19.109  67.857  1.00  0.00     7.715 C  
HETATM    3  C   UNL     1     -12.519  19.777  69.134  1.00  0.00     9.094 C  
HETATM    4  O   UNL     1     -11.365  19.272  69.775  1.00  0.00     2.998 OA 
HETATM    5  C   UNL     1     -10.542  18.414  69.105  1.00  0.00     0.437 A  
HETATM    6  C   UNL     1     -10.933  17.817  67.893  1.00  0.00    -0.088 A  
HETATM    7  N   UNL     1     -12.161  18.087  67.263  1.00  0.00     3.245 NA 
HETATM    8  C   UNL     1     -12.530  17.353  66.143  1.00  0.00     5.991 C  
HETATM    9  C   UNL     1     -11.785  16.433  65.511  1.00  0.00     0.964 C  
HETATM   10  C   UNL     1     -10.451  16.167  66.076  1.00  0.00    -0.338 C  
HETATM   11  C   UNL     1     -12.320  15.756  64.312  1.00  0.00     0.205 C  
HETATM   12  C   UNL     1     -10.053  16.883  67.308  1.00  0.00    -0.286 A  
HETATM   13  O   UNL     1     -13.428  15.989  63.852  1.00  0.00     0.487 OA 
HETATM   14  O   UNL     1     -11.482  14.860  63.753  1.00  0.00     0.202 OA 
HETATM   15  O   UNL     1      -9.709  15.350  65.532  1.00  0.00    -0.331 OA 
HETATM   16  C   UNL     1      -8.821  16.581  67.878  1.00  0.00    -0.193 A  
HETATM   17  C   UNL     1      -8.455  17.203  69.059  1.00  0.00    -0.107 A  
HETATM   18  C   UNL     1      -9.286  18.131  69.724  1.00  0.00     1.087 A  
HETATM   19  F   UNL     1      -7.286  16.824  69.602  1.00  0.00    -0.202 F  
ENDROOT
BRANCH  18  20
HETATM   20  N   UNL     1      -8.883  18.666  70.946  1.00  0.00     4.474 NA 
HETATM   21  C   UNL     1      -9.778  19.457  71.801  1.00  0.00     3.767 C  
HETATM   22  C   UNL     1      -9.492  19.156  73.292  1.00  0.00     5.552 C  
HETATM   23  N   UNL     1      -8.079  19.275  73.714  1.00  0.00     5.015 NA 
HETATM   24  C   UNL     1      -7.236  18.488  72.780  1.00  0.00     6.854 C  
HETATM   25  C   UNL     1      -7.658  20.671  73.771  1.00  0.00    10.550 C  
HETATM   26  C   UNL     1      -7.453  18.795  71.279  1.00  0.00     4.383 C  
ENDBRANCH  18  20
TORSDOF 1
ENDMDL
