MODEL        1
REMARK 921   NORMALIZED FREE ENERGY PREDICTED BY IDOCK:   -8.57 KCAL/MOL
REMARK 922        TOTAL FREE ENERGY PREDICTED BY IDOCK:  -14.84 KCAL/MOL
REMARK 923 INTER-LIGAND FREE ENERGY PREDICTED BY IDOCK:  -12.57 KCAL/MOL
REMARK 924 INTRA-LIGAND FREE ENERGY PREDICTED BY IDOCK:   -2.27 KCAL/MOL
REMARK 927      BINDING AFFINITY PREDICTED BY RF-SCORE:    0.00 PKD
ROOT
HETATM    1  O   UNL     1      -7.292  19.414  69.269  1.00  0.00    -0.343 OA 
HETATM    2  C   UNL     1      -6.210  18.717  68.855  1.00  0.00    -0.231 C  
HETATM    3  O   UNL     1      -5.164  18.688  69.486  1.00  0.00    -0.185 OA 
HETATM    4  C   UNL     1      -6.456  17.926  67.575  1.00  0.00    -0.168 C  
ENDROOT
BRANCH   4   5
HETATM    5  N   UNL     1      -7.423  18.593  66.614  1.00  0.00    -0.225 NA 
BRANCH   5   6
HETATM    6  C   UNL     1      -6.616  19.065  65.424  1.00  0.00    -0.257 C  
HETATM    7  O   UNL     1      -6.791  21.245  66.458  1.00  0.00    -0.251 OA 
HETATM    8  C   UNL     1      -6.482  20.584  65.321  1.00  0.00    -0.266 C  
HETATM    9  O   UNL     1      -6.070  21.154  64.321  1.00  0.00    -0.293 OA 
ENDBRANCH   5   6
BRANCH   5  10
HETATM   10  C   UNL     1      -8.360  17.493  66.147  1.00  0.00    -0.165 C  
BRANCH  10  11
HETATM   11  C   UNL     1      -9.247  16.937  67.251  1.00  0.00    -0.231 A  
HETATM   12  C   UNL     1      -9.375  15.555  67.394  1.00  0.00    -0.211 A  
HETATM   13  C   UNL     1     -10.267  14.979  68.324  1.00  0.00    -0.222 A  
HETATM   14  C   UNL     1     -10.937  15.796  69.230  1.00  0.00    -0.281 A  
HETATM   15  C   UNL     1     -10.786  17.186  69.135  1.00  0.00    -0.184 A  
HETATM   16  O   UNL     1     -11.749  15.307  70.234  1.00  0.00    -0.261 OA 
HETATM   17  C   UNL     1     -11.944  13.943  70.338  1.00  0.00    -0.323 A  
HETATM   18  C   UNL     1      -9.966  17.742  68.139  1.00  0.00    -0.342 A  
HETATM   19  O   UNL     1      -9.865  19.097  68.009  1.00  0.00    -0.319 OA 
HETATM   20  C   UNL     1     -12.684  13.472  71.432  1.00  0.00    -0.423 A  
HETATM   21  C   UNL     1     -12.932  12.095  71.587  1.00  0.00    -0.321 A  
HETATM   22  H   UNL     1     -10.354  19.645  68.613  1.00  0.00     0.000 HD 
HETATM   23  C   UNL     1     -12.487  11.172  70.638  1.00  0.00    -0.448 A  
HETATM   24  O   UNL     1     -13.603  11.632  72.686  1.00  0.00    -0.450 OA 
HETATM   25  C   UNL     1     -11.010  13.039  66.948  1.00  0.00    -0.289 A  
HETATM   26  H   UNL     1     -13.770  10.703  72.791  1.00  0.00     0.000 HD 
HETATM   27  C   UNL     1     -11.762  11.668  69.546  1.00  0.00    -0.410 A  
HETATM   28  C   UNL     1     -12.205  13.266  66.280  1.00  0.00    -0.440 A  
HETATM   29  C   UNL     1     -11.447  13.034  69.408  1.00  0.00    -0.323 A  
HETATM   30  C   UNL     1     -10.546  13.498  68.295  1.00  0.00    -0.250 C  
HETATM   31  C   UNL     1     -12.365  12.696  65.015  1.00  0.00    -0.561 A  
HETATM   32  C   UNL     1     -11.339  11.930  64.437  1.00  0.00    -0.395 A  
HETATM   33  O   UNL     1      -9.266  12.826  68.440  1.00  0.00    -0.198 OA 
HETATM   34  C   UNL     1     -10.136  11.722  65.113  1.00  0.00    -0.298 A  
HETATM   35  O   UNL     1      -7.795  11.723  67.052  1.00  0.00    -0.155 OA 
HETATM   36  C   UNL     1      -8.883  12.208  67.287  1.00  0.00    -0.186 C  
HETATM   37  C   UNL     1     -10.011  12.282  66.370  1.00  0.00    -0.243 A  
BRANCH  23  38
HETATM   38  C   UNL     1     -12.572   9.663  70.783  1.00  0.00    -0.143 C  
BRANCH  38  39
HETATM   39  N   UNL     1     -11.332   8.926  71.178  1.00  0.00    -0.272 NA 
BRANCH  39  40
HETATM   40  C   UNL     1     -11.518   8.417  72.579  1.00  0.00    -0.352 C  
HETATM   41  O   UNL     1     -10.225   6.730  73.768  1.00  0.00    -0.281 OA 
HETATM   42  C   UNL     1     -10.249   7.764  73.114  1.00  0.00    -0.335 C  
HETATM   43  O   UNL     1      -9.134   8.470  72.798  1.00  0.00    -0.267 OA 
ENDBRANCH  39  40
BRANCH  39  44
HETATM   44  C   UNL     1     -11.216   7.713  70.277  1.00  0.00    -0.216 C  
HETATM   45  C   UNL     1     -10.330   7.961  69.058  1.00  0.00    -0.214 C  
HETATM   46  O   UNL     1     -10.445   7.365  67.997  1.00  0.00    -0.198 OA 
HETATM   47  O   UNL     1      -9.355   8.881  69.282  1.00  0.00    -0.147 OA 
ENDBRANCH  39  44
ENDBRANCH  38  39
ENDBRANCH  23  38
ENDBRANCH  10  11
ENDBRANCH   5  10
ENDBRANCH   4   5
TORSDOF 8
ENDMDL
MODEL        2
REMARK 921   NORMALIZED FREE ENERGY PREDICTED BY IDOCK:   -8.03 KCAL/MOL
REMARK 922        TOTAL FREE ENERGY PREDICTED BY IDOCK:  -14.06 KCAL/MOL
REMARK 923 INTER-LIGAND FREE ENERGY PREDICTED BY IDOCK:  -11.80 KCAL/MOL
REMARK 924 INTRA-LIGAND FREE ENERGY PREDICTED BY IDOCK:   -2.26 KCAL/MOL
REMARK 927      BINDING AFFINITY PREDICTED BY RF-SCORE:    0.00 PKD
ROOT
HETATM    1  O   UNL     1     -10.652   3.569  73.849  1.00  0.00    -0.167 OA 
HETATM    2  C   UNL     1      -9.860   2.738  73.133  1.00  0.00    -0.109 C  
HETATM    3  O   UNL     1      -9.515   1.641  73.544  1.00  0.00    -0.071 OA 
HETATM    4  C   UNL     1      -9.512   3.280  71.751  1.00  0.00    -0.145 C  
ENDROOT
BRANCH   4   5
HETATM    5  N   UNL     1      -9.385   4.791  71.695  1.00  0.00    -0.141 NA 
BRANCH   5   6
HETATM    6  C   UNL     1      -7.995   5.103  71.182  1.00  0.00    -0.103 C  
HETATM    7  O   UNL     1      -7.911   6.666  73.027  1.00  0.00    -0.102 OA 
HETATM    8  C   UNL     1      -7.329   6.296  71.865  1.00  0.00    -0.093 C  
HETATM    9  O   UNL     1      -6.318   6.835  71.437  1.00  0.00    -0.041 OA 
ENDBRANCH   5   6
BRANCH   5  10
HETATM   10  C   UNL     1     -10.390   5.249  70.653  1.00  0.00    -0.254 C  
BRANCH  10  11
HETATM   11  C   UNL     1     -10.929   6.650  70.898  1.00  0.00    -0.315 A  
HETATM   12  C   UNL     1     -10.726   7.639  69.935  1.00  0.00    -0.253 A  
HETATM   13  C   UNL     1     -11.103   8.982  70.152  1.00  0.00    -0.228 A  
HETATM   14  C   UNL     1     -11.828   9.317  71.292  1.00  0.00    -0.343 A  
HETATM   15  C   UNL     1     -12.085   8.328  72.250  1.00  0.00    -0.439 A  
HETATM   16  O   UNL     1     -12.319  10.585  71.531  1.00  0.00    -0.371 OA 
HETATM   17  C   UNL     1     -12.059  11.591  70.620  1.00  0.00    -0.353 A  
HETATM   18  C   UNL     1     -11.616   7.018  72.058  1.00  0.00    -0.285 A  
HETATM   19  O   UNL     1     -11.816   6.068  73.019  1.00  0.00    -0.490 OA 
HETATM   20  C   UNL     1     -12.663  12.838  70.836  1.00  0.00    -0.277 A  
HETATM   21  C   UNL     1     -12.426  13.909  69.954  1.00  0.00    -0.229 A  
HETATM   22  H   UNL     1     -12.283   6.318  73.808  1.00  0.00     0.000 HD 
HETATM   23  C   UNL     1     -11.554  13.772  68.872  1.00  0.00    -0.358 A  
HETATM   24  O   UNL     1     -13.063  15.107  70.133  1.00  0.00    -0.631 OA 
HETATM   25  C   UNL     1      -9.182  10.078  69.004  1.00  0.00    -0.180 A  
HETATM   26  H   UNL     1     -12.903  15.830  69.538  1.00  0.00     0.000 HD 
HETATM   27  C   UNL     1     -10.951  12.520  68.684  1.00  0.00    -0.291 A  
HETATM   28  C   UNL     1      -8.168  10.457  69.871  1.00  0.00     0.051 A  
HETATM   29  C   UNL     1     -11.228  11.418  69.517  1.00  0.00    -0.322 A  
HETATM   30  C   UNL     1     -10.667  10.059  69.191  1.00  0.00    -0.220 C  
HETATM   31  C   UNL     1      -6.851  10.375  69.414  1.00  0.00    -0.083 A  
HETATM   32  C   UNL     1      -6.568   9.908  68.118  1.00  0.00    -0.056 A  
HETATM   33  O   UNL     1     -11.152   9.673  67.877  1.00  0.00    -0.205 OA 
HETATM   34  C   UNL     1      -7.597   9.517  67.261  1.00  0.00    -0.091 A  
HETATM   35  O   UNL     1     -10.243   8.771  65.963  1.00  0.00    -0.157 OA 
HETATM   36  C   UNL     1     -10.135   9.304  67.048  1.00  0.00    -0.247 C  
HETATM   37  C   UNL     1      -8.891   9.626  67.732  1.00  0.00    -0.125 A  
BRANCH  23  38
HETATM   38  C   UNL     1     -11.343  14.809  67.784  1.00  0.00    -0.330 C  
BRANCH  38  39
HETATM   39  N   UNL     1     -11.084  14.324  66.393  1.00  0.00    -0.319 NA 
BRANCH  39  40
HETATM   40  C   UNL     1     -12.391  13.885  65.800  1.00  0.00    -0.486 C  
HETATM   41  O   UNL     1     -12.795  12.759  63.678  1.00  0.00    -0.701 OA 
HETATM   42  C   UNL     1     -12.195  12.804  64.743  1.00  0.00    -0.459 C  
HETATM   43  O   UNL     1     -11.283  11.873  65.122  1.00  0.00    -0.311 OA 
ENDBRANCH  39  40
BRANCH  39  44
HETATM   44  C   UNL     1     -10.602  15.508  65.579  1.00  0.00    -0.396 C  
HETATM   45  C   UNL     1      -9.211  15.986  65.992  1.00  0.00    -0.340 C  
HETATM   46  O   UNL     1      -8.813  17.133  65.850  1.00  0.00    -0.520 OA 
HETATM   47  O   UNL     1      -8.428  14.992  66.489  1.00  0.00    -0.217 OA 
ENDBRANCH  39  44
ENDBRANCH  38  39
ENDBRANCH  23  38
ENDBRANCH  10  11
ENDBRANCH   5  10
ENDBRANCH   4   5
TORSDOF 8
ENDMDL
MODEL        3
REMARK 921   NORMALIZED FREE ENERGY PREDICTED BY IDOCK:   -7.95 KCAL/MOL
REMARK 922        TOTAL FREE ENERGY PREDICTED BY IDOCK:  -13.93 KCAL/MOL
REMARK 923 INTER-LIGAND FREE ENERGY PREDICTED BY IDOCK:  -11.94 KCAL/MOL
REMARK 924 INTRA-LIGAND FREE ENERGY PREDICTED BY IDOCK:   -1.99 KCAL/MOL
REMARK 927      BINDING AFFINITY PREDICTED BY RF-SCORE:    0.00 PKD
ROOT
HETATM    1  O   UNL     1      -6.903   6.824  70.024  1.00  0.00    -0.054 OA 
HETATM    2  C   UNL     1      -6.783   5.620  70.631  1.00  0.00    -0.048 C  
HETATM    3  O   UNL     1      -5.707   5.171  70.995  1.00  0.00    -0.011 OA 
HETATM    4  C   UNL     1      -8.121   4.931  70.873  1.00  0.00    -0.095 C  
ENDROOT
BRANCH   4   5
HETATM    5  N   UNL     1      -9.163   5.216  69.807  1.00  0.00    -0.114 NA 
BRANCH   5   6
HETATM    6  C   UNL     1      -9.169   4.033  68.862  1.00  0.00    -0.148 C  
HETATM    7  O   UNL     1      -9.153   5.713  67.121  1.00  0.00    -0.113 OA 
HETATM    8  C   UNL     1      -9.363   4.406  67.393  1.00  0.00    -0.155 C  
HETATM    9  O   UNL     1      -9.622   3.587  66.523  1.00  0.00    -0.181 OA 
ENDBRANCH   5   6
BRANCH   5  10
HETATM   10  C   UNL     1     -10.495   5.250  70.534  1.00  0.00    -0.242 C  
BRANCH  10  11
HETATM   11  C   UNL     1     -11.014   6.657  70.792  1.00  0.00    -0.318 A  
HETATM   12  C   UNL     1     -10.768   7.659  69.853  1.00  0.00    -0.253 A  
HETATM   13  C   UNL     1     -11.125   9.005  70.086  1.00  0.00    -0.228 A  
HETATM   14  C   UNL     1     -11.873   9.332  71.213  1.00  0.00    -0.343 A  
HETATM   15  C   UNL     1     -12.174   8.331  72.145  1.00  0.00    -0.418 A  
HETATM   16  O   UNL     1     -12.348  10.605  71.464  1.00  0.00    -0.360 OA 
HETATM   17  C   UNL     1     -12.045  11.622  70.579  1.00  0.00    -0.366 A  
HETATM   18  C   UNL     1     -11.725   7.015  71.941  1.00  0.00    -0.296 A  
HETATM   19  O   UNL     1     -11.968   6.052  72.878  1.00  0.00    -0.510 OA 
HETATM   20  C   UNL     1     -12.631  12.877  70.804  1.00  0.00    -0.314 A  
HETATM   21  C   UNL     1     -12.351  13.960  69.949  1.00  0.00    -0.300 A  
HETATM   22  H   UNL     1     -12.451   6.296  73.659  1.00  0.00     0.000 HD 
HETATM   23  C   UNL     1     -11.453  13.826  68.888  1.00  0.00    -0.344 A  
HETATM   24  O   UNL     1     -12.970  15.165  70.134  1.00  0.00    -0.618 OA 
HETATM   25  C   UNL     1      -9.155  10.085  69.011  1.00  0.00    -0.172 A  
HETATM   26  H   UNL     1     -12.781  15.897  69.558  1.00  0.00     0.000 HD 
HETATM   27  C   UNL     1     -10.869  12.566  68.692  1.00  0.00    -0.280 A  
HETATM   28  C   UNL     1      -8.157  10.428  69.912  1.00  0.00     0.024 A  
HETATM   29  C   UNL     1     -11.188  11.454  69.495  1.00  0.00    -0.322 A  
HETATM   30  C   UNL     1     -10.644  10.092  69.158  1.00  0.00    -0.218 C  
HETATM   31  C   UNL     1      -6.830  10.330  69.487  1.00  0.00    -0.084 A  
HETATM   32  C   UNL     1      -6.521   9.883  68.191  1.00  0.00    -0.055 A  
HETATM   33  O   UNL     1     -11.100   9.739  67.825  1.00  0.00    -0.245 OA 
HETATM   34  C   UNL     1      -7.534   9.527  67.299  1.00  0.00    -0.091 A  
HETATM   35  O   UNL     1     -10.158   8.857  65.918  1.00  0.00    -0.194 OA 
HETATM   36  C   UNL     1     -10.069   9.367  67.016  1.00  0.00    -0.240 C  
HETATM   37  C   UNL     1      -8.838   9.652  67.739  1.00  0.00    -0.125 A  
BRANCH  23  38
HETATM   38  C   UNL     1     -11.194  14.879  67.826  1.00  0.00    -0.321 C  
BRANCH  38  39
HETATM   39  N   UNL     1     -11.071  14.428  66.405  1.00  0.00    -0.320 NA 
BRANCH  39  40
HETATM   40  C   UNL     1     -12.428  13.990  65.935  1.00  0.00    -0.481 C  
HETATM   41  O   UNL     1     -13.018  12.798  63.894  1.00  0.00    -0.679 OA 
HETATM   42  C   UNL     1     -12.333  12.870  64.906  1.00  0.00    -0.475 C  
HETATM   43  O   UNL     1     -11.406  11.938  65.242  1.00  0.00    -0.322 OA 
ENDBRANCH  39  40
BRANCH  39  44
HETATM   44  C   UNL     1     -10.681  15.634  65.575  1.00  0.00    -0.389 C  
HETATM   45  C   UNL     1      -9.319  16.207  65.963  1.00  0.00    -0.333 C  
HETATM   46  O   UNL     1      -9.000  17.377  65.806  1.00  0.00    -0.521 OA 
HETATM   47  O   UNL     1      -8.465  15.272  66.455  1.00  0.00    -0.265 OA 
ENDBRANCH  39  44
ENDBRANCH  38  39
ENDBRANCH  23  38
ENDBRANCH  10  11
ENDBRANCH   5  10
ENDBRANCH   4   5
TORSDOF 8
ENDMDL
MODEL        4
REMARK 921   NORMALIZED FREE ENERGY PREDICTED BY IDOCK:   -7.92 KCAL/MOL
REMARK 922        TOTAL FREE ENERGY PREDICTED BY IDOCK:  -13.89 KCAL/MOL
REMARK 923 INTER-LIGAND FREE ENERGY PREDICTED BY IDOCK:  -11.40 KCAL/MOL
REMARK 924 INTRA-LIGAND FREE ENERGY PREDICTED BY IDOCK:   -2.49 KCAL/MOL
REMARK 927      BINDING AFFINITY PREDICTED BY RF-SCORE:    0.00 PKD
ROOT
HETATM    1  O   UNL     1     -11.200   4.453  74.074  1.00  0.00    -0.205 OA 
HETATM    2  C   UNL     1     -10.387   3.421  73.751  1.00  0.00    -0.156 C  
HETATM    3  O   UNL     1     -10.199   2.472  74.498  1.00  0.00    -0.121 OA 
HETATM    4  C   UNL     1      -9.800   3.531  72.348  1.00  0.00    -0.161 C  
ENDROOT
BRANCH   4   5
HETATM    5  N   UNL     1      -9.538   4.958  71.901  1.00  0.00    -0.148 NA 
BRANCH   5   6
HETATM    6  C   UNL     1      -8.131   4.998  71.342  1.00  0.00    -0.112 C  
HETATM    7  O   UNL     1      -8.000   7.149  72.442  1.00  0.00    -0.096 OA 
HETATM    8  C   UNL     1      -7.422   6.339  71.528  1.00  0.00    -0.090 C  
HETATM    9  O   UNL     1      -6.386   6.634  70.950  1.00  0.00    -0.045 OA 
ENDBRANCH   5   6
BRANCH   5  10
HETATM   10  C   UNL     1     -10.509   5.215  70.762  1.00  0.00    -0.193 C  
BRANCH  10  11
HETATM   11  C   UNL     1     -10.979   6.659  70.675  1.00  0.00    -0.329 A  
HETATM   12  C   UNL     1     -10.471   7.484  69.671  1.00  0.00    -0.235 A  
HETATM   13  C   UNL     1     -10.782   8.860  69.605  1.00  0.00    -0.222 A  
HETATM   14  C   UNL     1     -11.733   9.391  70.471  1.00  0.00    -0.198 A  
HETATM   15  C   UNL     1     -12.293   8.568  71.457  1.00  0.00    -0.354 A  
HETATM   16  O   UNL     1     -12.167  10.700  70.408  1.00  0.00    -0.294 OA 
HETATM   17  C   UNL     1     -11.615  11.548  69.466  1.00  0.00    -0.333 A  
HETATM   18  C   UNL     1     -11.897   7.224  71.565  1.00  0.00    -0.304 A  
HETATM   19  O   UNL     1     -12.398   6.438  72.562  1.00  0.00    -0.528 OA 
HETATM   20  C   UNL     1     -12.153  12.839  69.355  1.00  0.00    -0.248 A  
HETATM   21  C   UNL     1     -11.625  13.756  68.427  1.00  0.00    -0.334 A  
HETATM   22  H   UNL     1     -13.022   6.822  73.168  1.00  0.00     0.000 HD 
HETATM   23  C   UNL     1     -10.530  13.421  67.628  1.00  0.00    -0.242 A  
HETATM   24  O   UNL     1     -12.190  14.993  68.279  1.00  0.00    -0.568 OA 
HETATM   25  C   UNL     1      -8.560   9.689  68.843  1.00  0.00    -0.127 A  
HETATM   26  H   UNL     1     -11.833  15.612  67.652  1.00  0.00     0.000 HD 
HETATM   27  C   UNL     1     -10.000  12.130  67.767  1.00  0.00    -0.198 A  
HETATM   28  C   UNL     1      -7.760  10.148  69.880  1.00  0.00    -0.171 A  
HETATM   29  C   UNL     1     -10.556  11.177  68.641  1.00  0.00    -0.222 A  
HETATM   30  C   UNL     1     -10.042   9.762  68.651  1.00  0.00    -0.169 C  
HETATM   31  C   UNL     1      -6.382   9.943  69.784  1.00  0.00    -0.054 A  
HETATM   32  C   UNL     1      -5.830   9.277  68.676  1.00  0.00    -0.041 A  
HETATM   33  O   UNL     1     -10.222   9.206  67.321  1.00  0.00    -0.216 OA 
HETATM   34  C   UNL     1      -6.647   8.808  67.647  1.00  0.00    -0.062 A  
HETATM   35  O   UNL     1      -8.949   7.992  65.835  1.00  0.00    -0.170 OA 
HETATM   36  C   UNL     1      -9.066   8.675  66.832  1.00  0.00    -0.144 C  
HETATM   37  C   UNL     1      -8.004   9.041  67.758  1.00  0.00    -0.101 A  
BRANCH  23  38
HETATM   38  C   UNL     1      -9.979  14.276  66.500  1.00  0.00    -0.281 C  
BRANCH  38  39
HETATM   39  N   UNL     1     -10.722  15.522  66.137  1.00  0.00    -0.314 NA 
BRANCH  39  40
HETATM   40  C   UNL     1      -9.768  16.678  66.227  1.00  0.00    -0.304 C  
HETATM   41  O   UNL     1     -10.194  18.943  67.013  1.00  0.00    -0.334 OA 
HETATM   42  C   UNL     1     -10.256  17.737  67.208  1.00  0.00    -0.350 C  
HETATM   43  O   UNL     1     -10.761  17.193  68.344  1.00  0.00    -0.361 OA 
ENDBRANCH  39  40
BRANCH  39  44
HETATM   44  C   UNL     1     -11.137  15.400  64.685  1.00  0.00    -0.347 C  
HETATM   45  C   UNL     1     -12.269  14.396  64.473  1.00  0.00    -0.463 C  
HETATM   46  O   UNL     1     -12.453  13.785  63.430  1.00  0.00    -0.817 OA 
HETATM   47  O   UNL     1     -13.094  14.284  65.547  1.00  0.00    -0.639 OA 
ENDBRANCH  39  44
ENDBRANCH  38  39
ENDBRANCH  23  38
ENDBRANCH  10  11
ENDBRANCH   5  10
ENDBRANCH   4   5
TORSDOF 8
ENDMDL
MODEL        5
REMARK 921   NORMALIZED FREE ENERGY PREDICTED BY IDOCK:   -7.69 KCAL/MOL
REMARK 922        TOTAL FREE ENERGY PREDICTED BY IDOCK:  -13.56 KCAL/MOL
REMARK 923 INTER-LIGAND FREE ENERGY PREDICTED BY IDOCK:  -12.38 KCAL/MOL
REMARK 924 INTRA-LIGAND FREE ENERGY PREDICTED BY IDOCK:   -1.18 KCAL/MOL
REMARK 927      BINDING AFFINITY PREDICTED BY RF-SCORE:    0.00 PKD
ROOT
HETATM    1  O   UNL     1      -6.229  19.004  64.455  1.00  0.00    -0.459 OA 
HETATM    2  C   UNL     1      -6.179  19.747  65.585  1.00  0.00    -0.208 C  
HETATM    3  O   UNL     1      -5.486  20.748  65.685  1.00  0.00    -0.189 OA 
HETATM    4  C   UNL     1      -7.122  19.249  66.675  1.00  0.00    -0.208 C  
ENDROOT
BRANCH   4   5
HETATM    5  N   UNL     1      -7.311  17.743  66.686  1.00  0.00    -0.208 NA 
BRANCH   5   6
HETATM    6  C   UNL     1      -7.144  17.283  68.119  1.00  0.00    -0.190 C  
HETATM    7  O   UNL     1      -5.368  15.902  67.230  1.00  0.00    -0.312 OA 
HETATM    8  C   UNL     1      -6.174  16.115  68.293  1.00  0.00    -0.118 C  
HETATM    9  O   UNL     1      -6.086  15.466  69.325  1.00  0.00    -0.105 OA 
ENDBRANCH   5   6
BRANCH   5  10
HETATM   10  C   UNL     1      -8.754  17.508  66.276  1.00  0.00    -0.192 C  
BRANCH  10  11
HETATM   11  C   UNL     1      -9.587  16.816  67.344  1.00  0.00    -0.236 A  
HETATM   12  C   UNL     1      -9.609  15.422  67.397  1.00  0.00    -0.210 A  
HETATM   13  C   UNL     1     -10.448  14.721  68.291  1.00  0.00    -0.241 A  
HETATM   14  C   UNL     1     -11.170  15.425  69.250  1.00  0.00    -0.296 A  
HETATM   15  C   UNL     1     -11.124  16.825  69.246  1.00  0.00    -0.113 A  
HETATM   16  O   UNL     1     -11.934  14.812  70.223  1.00  0.00    -0.273 OA 
HETATM   17  C   UNL     1     -12.025  13.433  70.239  1.00  0.00    -0.308 A  
HETATM   18  C   UNL     1     -10.357  17.505  68.285  1.00  0.00    -0.379 A  
HETATM   19  O   UNL     1     -10.358  18.870  68.244  1.00  0.00    -0.369 OA 
HETATM   20  C   UNL     1     -12.719  12.837  71.303  1.00  0.00    -0.364 A  
HETATM   21  C   UNL     1     -12.861  11.439  71.368  1.00  0.00    -0.397 A  
HETATM   22  H   UNL     1     -10.882  19.339  68.884  1.00  0.00     0.000 HD 
HETATM   23  C   UNL     1     -12.356  10.615  70.359  1.00  0.00    -0.428 A  
HETATM   24  O   UNL     1     -13.486  10.856  72.437  1.00  0.00    -0.587 OA 
HETATM   25  C   UNL     1     -11.055  12.825  66.794  1.00  0.00    -0.314 A  
HETATM   26  H   UNL     1     -13.582   9.912  72.481  1.00  0.00     0.000 HD 
HETATM   27  C   UNL     1     -11.679  11.235  69.299  1.00  0.00    -0.403 A  
HETATM   28  C   UNL     1     -12.269  13.003  66.147  1.00  0.00    -0.428 A  
HETATM   29  C   UNL     1     -11.469  12.626  69.250  1.00  0.00    -0.354 A  
HETATM   30  C   UNL     1     -10.615  13.228  68.166  1.00  0.00    -0.249 C  
HETATM   31  C   UNL     1     -12.397  12.506  64.848  1.00  0.00    -0.539 A  
HETATM   32  C   UNL     1     -11.321  11.859  64.217  1.00  0.00    -0.425 A  
HETATM   33  O   UNL     1      -9.287  12.647  68.262  1.00  0.00    -0.209 OA 
HETATM   34  C   UNL     1     -10.100  11.699  64.874  1.00  0.00    -0.303 A  
HETATM   35  O   UNL     1      -7.749  11.751  66.800  1.00  0.00    -0.149 OA 
HETATM   36  C   UNL     1      -8.868  12.135  67.070  1.00  0.00    -0.203 C  
HETATM   37  C   UNL     1     -10.007  12.183  66.164  1.00  0.00    -0.253 A  
BRANCH  23  38
HETATM   38  C   UNL     1     -12.326   9.098  70.405  1.00  0.00     0.288 C  
BRANCH  38  39
HETATM   39  N   UNL     1     -11.069   8.435  70.872  1.00  0.00    -0.249 NA 
BRANCH  39  40
HETATM   40  C   UNL     1     -11.085   8.409  72.373  1.00  0.00    -0.361 C  
HETATM   41  O   UNL     1      -9.483   7.380  73.892  1.00  0.00    -0.255 OA 
HETATM   42  C   UNL     1      -9.702   8.124  72.946  1.00  0.00    -0.270 C  
HETATM   43  O   UNL     1      -8.725   8.807  72.296  1.00  0.00    -0.375 OA 
ENDBRANCH  39  40
BRANCH  39  44
HETATM   44  C   UNL     1     -11.111   6.995  70.402  1.00  0.00    -0.287 C  
HETATM   45  C   UNL     1     -10.550   6.814  68.993  1.00  0.00    -0.230 C  
HETATM   46  O   UNL     1     -10.883   5.914  68.235  1.00  0.00    -0.270 OA 
HETATM   47  O   UNL     1      -9.594   7.726  68.675  1.00  0.00    -0.151 OA 
ENDBRANCH  39  44
ENDBRANCH  38  39
ENDBRANCH  23  38
ENDBRANCH  10  11
ENDBRANCH   5  10
ENDBRANCH   4   5
TORSDOF 8
ENDMDL
MODEL        6
REMARK 921   NORMALIZED FREE ENERGY PREDICTED BY IDOCK:   -7.69 KCAL/MOL
REMARK 922        TOTAL FREE ENERGY PREDICTED BY IDOCK:  -13.55 KCAL/MOL
REMARK 923 INTER-LIGAND FREE ENERGY PREDICTED BY IDOCK:  -10.80 KCAL/MOL
REMARK 924 INTRA-LIGAND FREE ENERGY PREDICTED BY IDOCK:   -2.75 KCAL/MOL
REMARK 927      BINDING AFFINITY PREDICTED BY RF-SCORE:    0.00 PKD
ROOT
HETATM    1  O   UNL     1      -7.426   6.555  71.705  1.00  0.00    -0.090 OA 
HETATM    2  C   UNL     1      -7.168   5.285  72.092  1.00  0.00    -0.087 C  
HETATM    3  O   UNL     1      -6.138   4.968  72.668  1.00  0.00    -0.027 OA 
HETATM    4  C   UNL     1      -8.314   4.321  71.801  1.00  0.00    -0.101 C  
ENDROOT
BRANCH   4   5
HETATM    5  N   UNL     1      -9.098   4.658  70.546  1.00  0.00    -0.114 NA 
BRANCH   5   6
HETATM    6  C   UNL     1      -9.060   3.434  69.656  1.00  0.00    -0.134 C  
HETATM    7  O   UNL     1      -7.830   4.859  68.136  1.00  0.00    -0.082 OA 
HETATM    8  C   UNL     1      -8.508   3.696  68.255  1.00  0.00    -0.092 C  
HETATM    9  O   UNL     1      -8.612   2.898  67.334  1.00  0.00    -0.089 OA 
ENDBRANCH   5   6
BRANCH   5  10
HETATM   10  C   UNL     1     -10.531   4.869  71.003  1.00  0.00    -0.094 C  
BRANCH  10  11
HETATM   11  C   UNL     1     -11.000   6.311  70.893  1.00  0.00    -0.344 A  
HETATM   12  C   UNL     1     -10.439   7.141  69.922  1.00  0.00    -0.237 A  
HETATM   13  C   UNL     1     -10.751   8.516  69.842  1.00  0.00    -0.224 A  
HETATM   14  C   UNL     1     -11.752   9.041  70.653  1.00  0.00    -0.198 A  
HETATM   15  C   UNL     1     -12.364   8.213  71.603  1.00  0.00    -0.347 A  
HETATM   16  O   UNL     1     -12.187  10.349  70.569  1.00  0.00    -0.285 OA 
HETATM   17  C   UNL     1     -11.585  11.201  69.662  1.00  0.00    -0.326 A  
HETATM   18  C   UNL     1     -11.970   6.871  71.731  1.00  0.00    -0.333 A  
HETATM   19  O   UNL     1     -12.525   6.079  72.695  1.00  0.00    -0.543 OA 
HETATM   20  C   UNL     1     -12.121  12.490  69.524  1.00  0.00    -0.248 A  
HETATM   21  C   UNL     1     -11.544  13.412  68.630  1.00  0.00    -0.327 A  
HETATM   22  H   UNL     1     -13.184   6.460  73.265  1.00  0.00     0.000 HD 
HETATM   23  C   UNL     1     -10.403  13.083  67.894  1.00  0.00    -0.233 A  
HETATM   24  O   UNL     1     -12.104  14.647  68.453  1.00  0.00    -0.536 OA 
HETATM   25  C   UNL     1      -8.492   9.355  69.211  1.00  0.00    -0.141 A  
HETATM   26  H   UNL     1     -11.714  15.269  67.850  1.00  0.00     0.000 HD 
HETATM   27  C   UNL     1      -9.877  11.794  68.060  1.00  0.00    -0.184 A  
HETATM   28  C   UNL     1      -7.755   9.814  70.293  1.00  0.00    -0.187 A  
HETATM   29  C   UNL     1     -10.479  10.837  68.899  1.00  0.00    -0.228 A  
HETATM   30  C   UNL     1      -9.961   9.424  68.934  1.00  0.00    -0.179 C  
HETATM   31  C   UNL     1      -6.373   9.614  70.275  1.00  0.00    -0.076 A  
HETATM   32  C   UNL     1      -5.756   8.954  69.198  1.00  0.00    -0.036 A  
HETATM   33  O   UNL     1     -10.062   8.871  67.595  1.00  0.00    -0.189 OA 
HETATM   34  C   UNL     1      -6.511   8.484  68.123  1.00  0.00    -0.057 A  
HETATM   35  O   UNL     1      -8.702   7.666  66.180  1.00  0.00    -0.143 OA 
HETATM   36  C   UNL     1      -8.878   8.345  67.170  1.00  0.00    -0.130 C  
HETATM   37  C   UNL     1      -7.873   8.712  68.157  1.00  0.00    -0.103 A  
BRANCH  23  38
HETATM   38  C   UNL     1      -9.792  13.943  66.802  1.00  0.00    -0.274 C  
BRANCH  38  39
HETATM   39  N   UNL     1     -10.710  14.799  65.988  1.00  0.00    -0.302 NA 
BRANCH  39  40
HETATM   40  C   UNL     1      -9.948  16.018  65.553  1.00  0.00    -0.247 C  
HETATM   41  O   UNL     1     -10.621  18.356  65.680  1.00  0.00    -0.622 OA 
HETATM   42  C   UNL     1     -10.464  17.278  66.238  1.00  0.00    -0.268 C  
HETATM   43  O   UNL     1     -10.719  17.080  67.556  1.00  0.00    -0.330 OA 
ENDBRANCH  39  40
BRANCH  39  44
HETATM   44  C   UNL     1     -11.063  14.025  64.734  1.00  0.00    -0.387 C  
HETATM   45  C   UNL     1     -12.409  13.311  64.835  1.00  0.00    -0.425 C  
HETATM   46  O   UNL     1     -12.694  12.298  64.212  1.00  0.00    -0.584 OA 
HETATM   47  O   UNL     1     -13.291  13.944  65.653  1.00  0.00    -0.620 OA 
ENDBRANCH  39  44
ENDBRANCH  38  39
ENDBRANCH  23  38
ENDBRANCH  10  11
ENDBRANCH   5  10
ENDBRANCH   4   5
TORSDOF 8
ENDMDL
MODEL        7
REMARK 921   NORMALIZED FREE ENERGY PREDICTED BY IDOCK:   -7.61 KCAL/MOL
REMARK 922        TOTAL FREE ENERGY PREDICTED BY IDOCK:  -13.44 KCAL/MOL
REMARK 923 INTER-LIGAND FREE ENERGY PREDICTED BY IDOCK:  -10.85 KCAL/MOL
REMARK 924 INTRA-LIGAND FREE ENERGY PREDICTED BY IDOCK:   -2.59 KCAL/MOL
REMARK 927      BINDING AFFINITY PREDICTED BY RF-SCORE:    0.00 PKD
ROOT
HETATM    1  O   UNL     1     -11.025  17.768  67.754  1.00  0.00    -0.308 OA 
HETATM    2  C   UNL     1     -10.644  18.093  66.498  1.00  0.00    -0.272 C  
HETATM    3  O   UNL     1     -10.724  19.230  66.058  1.00  0.00    -0.442 OA 
HETATM    4  C   UNL     1     -10.046  16.921  65.727  1.00  0.00    -0.229 C  
ENDROOT
BRANCH   4   5
HETATM    5  N   UNL     1     -10.652  15.575  66.083  1.00  0.00    -0.307 NA 
BRANCH   5   6
HETATM    6  C   UNL     1     -10.610  14.723  64.833  1.00  0.00    -0.406 C  
HETATM    7  O   UNL     1     -12.931  14.266  65.341  1.00  0.00    -0.654 OA 
HETATM    8  C   UNL     1     -11.863  13.878  64.609  1.00  0.00    -0.407 C  
HETATM    9  O   UNL     1     -11.922  12.969  63.794  1.00  0.00    -0.448 OA 
ENDBRANCH   5   6
BRANCH   5  10
HETATM   10  C   UNL     1      -9.715  14.962  67.108  1.00  0.00    -0.228 C  
BRANCH  10  11
HETATM   11  C   UNL     1     -10.372  13.901  67.978  1.00  0.00    -0.245 A  
HETATM   12  C   UNL     1      -9.691  12.712  68.239  1.00  0.00    -0.216 A  
HETATM   13  C   UNL     1     -10.290  11.646  68.945  1.00  0.00    -0.175 A  
HETATM   14  C   UNL     1     -11.541  11.826  69.528  1.00  0.00    -0.332 A  
HETATM   15  C   UNL     1     -12.223  13.031  69.320  1.00  0.00    -0.138 A  
HETATM   16  O   UNL     1     -12.152  10.871  70.316  1.00  0.00    -0.294 OA 
HETATM   17  C   UNL     1     -11.520   9.659  70.518  1.00  0.00    -0.285 A  
HETATM   18  C   UNL     1     -11.647  14.043  68.533  1.00  0.00    -0.322 A  
HETATM   19  O   UNL     1     -12.337  15.195  68.282  1.00  0.00    -0.538 OA 
HETATM   20  C   UNL     1     -12.115   8.754  71.410  1.00  0.00    -0.361 A  
HETATM   21  C   UNL     1     -11.530   7.496  71.648  1.00  0.00    -0.261 A  
HETATM   22  H   UNL     1     -13.204  15.291  68.659  1.00  0.00     0.000 HD 
HETATM   23  C   UNL     1     -10.373   7.101  70.973  1.00  0.00    -0.208 A  
HETATM   24  O   UNL     1     -12.078   6.640  72.563  1.00  0.00    -0.496 OA 
HETATM   25  C   UNL     1      -9.299   9.763  67.649  1.00  0.00    -0.157 A  
HETATM   26  H   UNL     1     -11.684   5.790  72.723  1.00  0.00     0.000 HD 
HETATM   27  C   UNL     1      -9.805   8.016  70.075  1.00  0.00    -0.185 A  
HETATM   28  C   UNL     1     -10.136   9.280  66.654  1.00  0.00    -0.341 A  
HETATM   29  C   UNL     1     -10.338   9.304  69.874  1.00  0.00    -0.241 A  
HETATM   30  C   UNL     1      -9.613  10.301  69.010  1.00  0.00    -0.203 C  
HETATM   31  C   UNL     1      -9.552   8.829  65.469  1.00  0.00    -0.007 A  
HETATM   32  C   UNL     1      -8.159   8.878  65.290  1.00  0.00    -0.126 A  
HETATM   33  O   UNL     1      -8.295  10.521  69.580  1.00  0.00    -0.119 OA 
HETATM   34  C   UNL     1      -7.329   9.380  66.293  1.00  0.00    -0.096 A  
HETATM   35  O   UNL     1      -6.133  10.631  68.793  1.00  0.00    -0.041 OA 
HETATM   36  C   UNL     1      -7.306  10.347  68.658  1.00  0.00    -0.085 C  
HETATM   37  C   UNL     1      -7.931   9.802  67.462  1.00  0.00    -0.106 A  
BRANCH  23  38
HETATM   38  C   UNL     1      -9.584   5.836  71.260  1.00  0.00    -0.166 C  
BRANCH  38  39
HETATM   39  N   UNL     1      -9.302   5.495  72.689  1.00  0.00    -0.141 NA 
BRANCH  39  40
HETATM   40  C   UNL     1      -9.011   4.024  72.770  1.00  0.00    -0.105 C  
HETATM   41  O   UNL     1      -9.567   2.461  74.553  1.00  0.00    -0.084 OA 
HETATM   42  C   UNL     1      -9.930   3.323  73.763  1.00  0.00    -0.114 C  
HETATM   43  O   UNL     1     -11.214   3.749  73.667  1.00  0.00    -0.241 OA 
ENDBRANCH  39  40
BRANCH  39  44
HETATM   44  C   UNL     1      -8.034   6.221  73.089  1.00  0.00    -0.106 C  
HETATM   45  C   UNL     1      -8.295   7.636  73.601  1.00  0.00    -0.183 C  
HETATM   46  O   UNL     1      -7.483   8.548  73.535  1.00  0.00    -0.313 OA 
HETATM   47  O   UNL     1      -9.511   7.776  74.192  1.00  0.00    -0.123 OA 
ENDBRANCH  39  44
ENDBRANCH  38  39
ENDBRANCH  23  38
ENDBRANCH  10  11
ENDBRANCH   5  10
ENDBRANCH   4   5
TORSDOF 8
ENDMDL
MODEL        8
REMARK 921   NORMALIZED FREE ENERGY PREDICTED BY IDOCK:   -7.44 KCAL/MOL
REMARK 922        TOTAL FREE ENERGY PREDICTED BY IDOCK:  -13.19 KCAL/MOL
REMARK 923 INTER-LIGAND FREE ENERGY PREDICTED BY IDOCK:  -11.63 KCAL/MOL
REMARK 924 INTRA-LIGAND FREE ENERGY PREDICTED BY IDOCK:   -1.56 KCAL/MOL
REMARK 927      BINDING AFFINITY PREDICTED BY RF-SCORE:    0.00 PKD
ROOT
HETATM    1  O   UNL     1     -10.989  17.102  68.338  1.00  0.00    -0.337 OA 
HETATM    2  C   UNL     1     -10.661  17.791  67.220  1.00  0.00    -0.316 C  
HETATM    3  O   UNL     1     -10.704  19.010  67.162  1.00  0.00    -0.447 OA 
HETATM    4  C   UNL     1     -10.170  16.899  66.085  1.00  0.00    -0.341 C  
ENDROOT
BRANCH   4   5
HETATM    5  N   UNL     1     -10.827  15.531  66.047  1.00  0.00    -0.319 NA 
BRANCH   5   6
HETATM    6  C   UNL     1     -11.053  15.186  64.591  1.00  0.00    -0.324 C  
HETATM    7  O   UNL     1     -13.123  14.211  65.378  1.00  0.00    -0.743 OA 
HETATM    8  C   UNL     1     -12.259  14.280  64.342  1.00  0.00    -0.447 C  
HETATM    9  O   UNL     1     -12.463  13.715  63.278  1.00  0.00    -0.801 OA 
ENDBRANCH   5   6
BRANCH   5  10
HETATM   10  C   UNL     1      -9.799  14.567  66.611  1.00  0.00    -0.273 C  
BRANCH  10  11
HETATM   11  C   UNL     1     -10.362  13.615  67.655  1.00  0.00    -0.239 A  
HETATM   12  C   UNL     1      -9.606  12.512  68.054  1.00  0.00    -0.212 A  
HETATM   13  C   UNL     1     -10.118  11.533  68.933  1.00  0.00    -0.144 A  
HETATM   14  C   UNL     1     -11.353  11.735  69.541  1.00  0.00    -0.248 A  
HETATM   15  C   UNL     1     -12.109  12.861  69.191  1.00  0.00    -0.216 A  
HETATM   16  O   UNL     1     -11.881  10.878  70.487  1.00  0.00    -0.313 OA 
HETATM   17  C   UNL     1     -11.175   9.742  70.833  1.00  0.00    -0.359 A  
HETATM   18  C   UNL     1     -11.621  13.774  68.241  1.00  0.00    -0.338 A  
HETATM   19  O   UNL     1     -12.383  14.840  67.857  1.00  0.00    -0.582 OA 
HETATM   20  C   UNL     1     -11.684   8.950  71.874  1.00  0.00    -0.439 A  
HETATM   21  C   UNL     1     -11.022   7.771  72.264  1.00  0.00    -0.290 A  
HETATM   22  H   UNL     1     -13.239  14.948  68.255  1.00  0.00     0.000 HD 
HETATM   23  C   UNL     1      -9.871   7.338  71.601  1.00  0.00    -0.176 A  
HETATM   24  O   UNL     1     -11.486   7.033  73.318  1.00  0.00    -0.526 OA 
HETATM   25  C   UNL     1      -9.074   9.531  67.881  1.00  0.00    -0.131 A  
HETATM   26  H   UNL     1     -11.039   6.237  73.581  1.00  0.00     0.000 HD 
HETATM   27  C   UNL     1      -9.389   8.138  70.555  1.00  0.00    -0.159 A  
HETATM   28  C   UNL     1      -9.921   8.866  67.006  1.00  0.00    -0.300 A  
HETATM   29  C   UNL     1     -10.000   9.355  70.194  1.00  0.00    -0.269 A  
HETATM   30  C   UNL     1      -9.365  10.248  69.162  1.00  0.00    -0.204 C  
HETATM   31  C   UNL     1      -9.358   8.274  65.873  1.00  0.00    -0.165 A  
HETATM   32  C   UNL     1      -7.978   8.366  65.625  1.00  0.00    -0.115 A  
HETATM   33  O   UNL     1      -8.041  10.614  69.633  1.00  0.00    -0.106 OA 
HETATM   34  C   UNL     1      -7.139   9.050  66.506  1.00  0.00    -0.081 A  
HETATM   35  O   UNL     1      -5.920  10.713  68.740  1.00  0.00    -0.041 OA 
HETATM   36  C   UNL     1      -7.079  10.355  68.702  1.00  0.00    -0.076 C  
HETATM   37  C   UNL     1      -7.719   9.610  67.628  1.00  0.00    -0.095 A  
BRANCH  23  38
HETATM   38  C   UNL     1      -9.002   6.170  72.033  1.00  0.00    -0.139 C  
BRANCH  38  39
HETATM   39  N   UNL     1      -9.255   4.838  71.402  1.00  0.00    -0.138 NA 
BRANCH  39  40
HETATM   40  C   UNL     1      -9.865   3.938  72.437  1.00  0.00    -0.157 C  
HETATM   41  O   UNL     1     -10.566   1.616  72.211  1.00  0.00    -0.164 OA 
HETATM   42  C   UNL     1      -9.697   2.467  72.076  1.00  0.00    -0.142 C  
HETATM   43  O   UNL     1      -8.457   2.194  71.595  1.00  0.00    -0.057 OA 
ENDBRANCH  39  40
BRANCH  39  44
HETATM   44  C   UNL     1     -10.294   5.036  70.317  1.00  0.00    -0.229 C  
HETATM   45  C   UNL     1      -9.725   4.861  68.910  1.00  0.00    -0.173 C  
HETATM   46  O   UNL     1     -10.186   5.401  67.915  1.00  0.00    -0.170 OA 
HETATM   47  O   UNL     1      -8.679   3.995  68.859  1.00  0.00    -0.085 OA 
ENDBRANCH  39  44
ENDBRANCH  38  39
ENDBRANCH  23  38
ENDBRANCH  10  11
ENDBRANCH   5  10
ENDBRANCH   4   5
TORSDOF 8
ENDMDL
MODEL        9
REMARK 921   NORMALIZED FREE ENERGY PREDICTED BY IDOCK:   -7.39 KCAL/MOL
REMARK 922        TOTAL FREE ENERGY PREDICTED BY IDOCK:  -13.12 KCAL/MOL
REMARK 923 INTER-LIGAND FREE ENERGY PREDICTED BY IDOCK:  -10.99 KCAL/MOL
REMARK 924 INTRA-LIGAND FREE ENERGY PREDICTED BY IDOCK:   -2.13 KCAL/MOL
REMARK 927      BINDING AFFINITY PREDICTED BY RF-SCORE:    0.00 PKD
ROOT
HETATM    1  O   UNL     1     -10.674   5.125  68.653  1.00  0.00    -0.041 OA 
HETATM    2  C   UNL     1      -9.744   4.142  68.657  1.00  0.00    -0.087 C  
HETATM    3  O   UNL     1      -9.486   3.475  67.666  1.00  0.00    -0.197 OA 
HETATM    4  C   UNL     1      -9.015   4.007  69.989  1.00  0.00    -0.097 C  
ENDROOT
BRANCH   4   5
HETATM    5  N   UNL     1      -9.872   4.335  71.197  1.00  0.00    -0.185 NA 
BRANCH   5   6
HETATM    6  C   UNL     1      -9.821   3.135  72.119  1.00  0.00    -0.168 C  
HETATM    7  O   UNL     1     -11.758   4.140  73.163  1.00  0.00    -0.091 OA 
HETATM    8  C   UNL     1     -10.786   3.212  73.301  1.00  0.00    -0.189 C  
HETATM    9  O   UNL     1     -10.728   2.460  74.263  1.00  0.00    -0.151 OA 
ENDBRANCH   5   6
BRANCH   5  10
HETATM   10  C   UNL     1      -9.179   5.495  71.889  1.00  0.00    -0.141 C  
BRANCH  10  11
HETATM   11  C   UNL     1      -9.840   6.841  71.634  1.00  0.00    -0.173 A  
HETATM   12  C   UNL     1      -9.517   7.555  70.480  1.00  0.00    -0.164 A  
HETATM   13  C   UNL     1     -10.010   8.856  70.242  1.00  0.00    -0.214 A  
HETATM   14  C   UNL     1     -10.961   9.398  71.102  1.00  0.00    -0.360 A  
HETATM   15  C   UNL     1     -11.337   8.677  72.243  1.00  0.00    -0.411 A  
HETATM   16  O   UNL     1     -11.567  10.620  70.887  1.00  0.00    -0.320 OA 
HETATM   17  C   UNL     1     -11.198  11.370  69.787  1.00  0.00    -0.192 A  
HETATM   18  C   UNL     1     -10.761   7.424  72.510  1.00  0.00    -0.272 A  
HETATM   19  O   UNL     1     -11.083   6.748  73.652  1.00  0.00    -0.499 OA 
HETATM   20  C   UNL     1     -11.908  12.554  69.537  1.00  0.00    -0.375 A  
HETATM   21  C   UNL     1     -11.572  13.372  68.442  1.00  0.00    -0.332 A  
HETATM   22  H   UNL     1     -11.709   7.145  74.248  1.00  0.00     0.000 HD 
HETATM   23  C   UNL     1     -10.500  13.050  67.606  1.00  0.00    -0.228 A  
HETATM   24  O   UNL     1     -12.304  14.494  68.166  1.00  0.00    -0.596 OA 
HETATM   25  C   UNL     1      -7.975   9.817  69.173  1.00  0.00    -0.104 A  
HETATM   26  H   UNL     1     -12.076  15.046  67.427  1.00  0.00     0.000 HD 
HETATM   27  C   UNL     1      -9.796  11.870  67.884  1.00  0.00    -0.190 A  
HETATM   28  C   UNL     1      -7.173  10.524  70.057  1.00  0.00    -0.105 A  
HETATM   29  C   UNL     1     -10.160  11.005  68.934  1.00  0.00    -0.212 A  
HETATM   30  C   UNL     1      -9.464   9.681  69.105  1.00  0.00    -0.171 C  
HETATM   31  C   UNL     1      -5.790  10.473  69.870  1.00  0.00    -0.059 A  
HETATM   32  C   UNL     1      -5.234   9.714  68.826  1.00  0.00    -0.037 A  
HETATM   33  O   UNL     1      -9.661   8.907  67.891  1.00  0.00    -0.144 OA 
HETATM   34  C   UNL     1      -6.051   8.995  67.953  1.00  0.00    -0.051 A  
HETATM   35  O   UNL     1      -8.345   7.638  66.491  1.00  0.00    -0.119 OA 
HETATM   36  C   UNL     1      -8.482   8.448  67.384  1.00  0.00    -0.124 C  
HETATM   37  C   UNL     1      -7.416   9.078  68.149  1.00  0.00    -0.084 A  
BRANCH  23  38
HETATM   38  C   UNL     1     -10.147  13.778  66.321  1.00  0.00    -0.300 C  
BRANCH  38  39
HETATM   39  N   UNL     1     -10.833  15.077  66.040  1.00  0.00    -0.327 NA 
BRANCH  39  40
HETATM   40  C   UNL     1      -9.822  16.179  66.175  1.00  0.00    -0.333 C  
HETATM   41  O   UNL     1     -10.185  18.505  66.799  1.00  0.00    -0.349 OA 
HETATM   42  C   UNL     1     -10.343  17.317  67.045  1.00  0.00    -0.318 C  
HETATM   43  O   UNL     1     -10.996  16.866  68.145  1.00  0.00    -0.365 OA 
ENDBRANCH  39  40
BRANCH  39  44
HETATM   44  C   UNL     1     -11.275  15.054  64.590  1.00  0.00    -0.332 C  
HETATM   45  C   UNL     1     -12.457  14.118  64.344  1.00  0.00    -0.293 C  
HETATM   46  O   UNL     1     -12.687  13.575  63.273  1.00  0.00    -0.726 OA 
HETATM   47  O   UNL     1     -13.271  13.988  65.425  1.00  0.00    -0.761 OA 
ENDBRANCH  39  44
ENDBRANCH  38  39
ENDBRANCH  23  38
ENDBRANCH  10  11
ENDBRANCH   5  10
ENDBRANCH   4   5
TORSDOF 8
ENDMDL
MODEL       10
REMARK 921   NORMALIZED FREE ENERGY PREDICTED BY IDOCK:   -7.32 KCAL/MOL
REMARK 922        TOTAL FREE ENERGY PREDICTED BY IDOCK:  -13.01 KCAL/MOL
REMARK 923 INTER-LIGAND FREE ENERGY PREDICTED BY IDOCK:  -10.73 KCAL/MOL
REMARK 924 INTRA-LIGAND FREE ENERGY PREDICTED BY IDOCK:   -2.28 KCAL/MOL
REMARK 927      BINDING AFFINITY PREDICTED BY RF-SCORE:    0.00 PKD
ROOT
HETATM    1  O   UNL     1     -10.764  17.065  67.326  1.00  0.00    -0.299 OA 
HETATM    2  C   UNL     1     -10.620  17.277  65.998  1.00  0.00    -0.217 C  
HETATM    3  O   UNL     1     -10.734  18.383  65.491  1.00  0.00    -0.588 OA 
HETATM    4  C   UNL     1     -10.232  16.021  65.226  1.00  0.00    -0.211 C  
ENDROOT
BRANCH   4   5
HETATM    5  N   UNL     1     -10.815  14.741  65.798  1.00  0.00    -0.318 NA 
BRANCH   5   6
HETATM    6  C   UNL     1     -11.024  13.790  64.639  1.00  0.00    -0.400 C  
HETATM    7  O   UNL     1     -13.343  13.818  65.330  1.00  0.00    -0.710 OA 
HETATM    8  C   UNL     1     -12.422  13.176  64.578  1.00  0.00    -0.342 C  
HETATM    9  O   UNL     1     -12.705  12.226  63.863  1.00  0.00    -0.668 OA 
ENDBRANCH   5   6
BRANCH   5  10
HETATM   10  C   UNL     1      -9.736  14.166  66.698  1.00  0.00    -0.288 C  
BRANCH  10  11
HETATM   11  C   UNL     1     -10.269  13.221  67.764  1.00  0.00    -0.228 A  
HETATM   12  C   UNL     1      -9.494  12.131  68.161  1.00  0.00    -0.205 A  
HETATM   13  C   UNL     1      -9.979  11.158  69.062  1.00  0.00    -0.155 A  
HETATM   14  C   UNL     1     -11.204  11.354  69.691  1.00  0.00    -0.230 A  
HETATM   15  C   UNL     1     -11.978  12.469  69.343  1.00  0.00    -0.315 A  
HETATM   16  O   UNL     1     -11.705  10.504  70.657  1.00  0.00    -0.310 OA 
HETATM   17  C   UNL     1     -10.980   9.379  71.004  1.00  0.00    -0.338 A  
HETATM   18  C   UNL     1     -11.518  13.374  68.372  1.00  0.00    -0.316 A  
HETATM   19  O   UNL     1     -12.298  14.428  67.990  1.00  0.00    -0.604 OA 
HETATM   20  C   UNL     1     -11.461   8.595  72.064  1.00  0.00    -0.437 A  
HETATM   21  C   UNL     1     -10.779   7.428  72.455  1.00  0.00    -0.272 A  
HETATM   22  H   UNL     1     -13.147  14.532  68.404  1.00  0.00     0.000 HD 
HETATM   23  C   UNL     1      -9.637   6.998  71.775  1.00  0.00    -0.161 A  
HETATM   24  O   UNL     1     -11.216   6.698  73.527  1.00  0.00    -0.477 OA 
HETATM   25  C   UNL     1      -8.934   9.154  68.014  1.00  0.00    -0.129 A  
HETATM   26  H   UNL     1     -10.756   5.910  73.791  1.00  0.00     0.000 HD 
HETATM   27  C   UNL     1      -9.184   7.790  70.711  1.00  0.00    -0.157 A  
HETATM   28  C   UNL     1      -9.791   8.469  67.164  1.00  0.00    -0.269 A  
HETATM   29  C   UNL     1      -9.814   8.996  70.347  1.00  0.00    -0.242 A  
HETATM   30  C   UNL     1      -9.208   9.883  69.292  1.00  0.00    -0.200 C  
HETATM   31  C   UNL     1      -9.244   7.869  66.027  1.00  0.00    -0.162 A  
HETATM   32  C   UNL     1      -7.870   7.972  65.752  1.00  0.00    -0.097 A  
HETATM   33  O   UNL     1      -7.879  10.268  69.733  1.00  0.00    -0.162 OA 
HETATM   34  C   UNL     1      -7.021   8.675  66.608  1.00  0.00    -0.079 A  
HETATM   35  O   UNL     1      -5.777  10.378  68.798  1.00  0.00    -0.042 OA 
HETATM   36  C   UNL     1      -6.933  10.008  68.787  1.00  0.00    -0.062 C  
HETATM   37  C   UNL     1      -7.585   9.243  67.734  1.00  0.00    -0.084 A  
BRANCH  23  38
HETATM   38  C   UNL     1      -8.748   5.844  72.204  1.00  0.00    -0.136 C  
BRANCH  38  39
HETATM   39  N   UNL     1      -8.322   4.862  71.160  1.00  0.00    -0.111 NA 
BRANCH  39  40
HETATM   40  C   UNL     1      -6.862   5.078  70.884  1.00  0.00    -0.044 C  
HETATM   41  O   UNL     1      -5.598   4.534  68.874  1.00  0.00    -0.011 OA 
HETATM   42  C   UNL     1      -6.566   5.079  69.389  1.00  0.00    -0.043 C  
HETATM   43  O   UNL     1      -7.493   5.772  68.681  1.00  0.00    -0.081 OA 
ENDBRANCH  39  40
BRANCH  39  44
HETATM   44  C   UNL     1      -8.461   3.476  71.755  1.00  0.00    -0.084 C  
HETATM   45  C   UNL     1      -9.432   2.590  70.976  1.00  0.00    -0.152 C  
HETATM   46  O   UNL     1     -10.058   1.664  71.470  1.00  0.00    -0.144 OA 
HETATM   47  O   UNL     1      -9.495   2.897  69.654  1.00  0.00    -0.149 OA 
ENDBRANCH  39  44
ENDBRANCH  38  39
ENDBRANCH  23  38
ENDBRANCH  10  11
ENDBRANCH   5  10
ENDBRANCH   4   5
TORSDOF 8
ENDMDL
MODEL       11
REMARK 921   NORMALIZED FREE ENERGY PREDICTED BY IDOCK:   -7.04 KCAL/MOL
REMARK 922        TOTAL FREE ENERGY PREDICTED BY IDOCK:  -12.59 KCAL/MOL
REMARK 923 INTER-LIGAND FREE ENERGY PREDICTED BY IDOCK:  -10.60 KCAL/MOL
REMARK 924 INTRA-LIGAND FREE ENERGY PREDICTED BY IDOCK:   -2.00 KCAL/MOL
REMARK 927      BINDING AFFINITY PREDICTED BY RF-SCORE:    0.00 PKD
ROOT
HETATM    1  O   UNL     1     -10.051   3.941  73.885  1.00  0.00    -0.119 OA 
HETATM    2  C   UNL     1      -9.305   3.602  72.809  1.00  0.00    -0.108 C  
HETATM    3  O   UNL     1      -8.483   2.699  72.835  1.00  0.00    -0.069 OA 
HETATM    4  C   UNL     1      -9.648   4.406  71.560  1.00  0.00    -0.162 C  
ENDROOT
BRANCH   4   5
HETATM    5  N   UNL     1     -10.083   5.833  71.846  1.00  0.00    -0.181 NA 
BRANCH   5   6
HETATM    6  C   UNL     1      -8.827   6.674  71.921  1.00  0.00    -0.132 C  
HETATM    7  O   UNL     1      -9.644   7.291  74.113  1.00  0.00    -0.265 OA 
HETATM    8  C   UNL     1      -8.767   7.602  73.134  1.00  0.00    -0.172 C  
HETATM    9  O   UNL     1      -7.955   8.509  73.244  1.00  0.00    -0.363 OA 
ENDBRANCH   5   6
BRANCH   5  10
HETATM   10  C   UNL     1     -10.877   6.271  70.628  1.00  0.00    -0.280 C  
BRANCH  10  11
HETATM   11  C   UNL     1     -11.249   7.745  70.640  1.00  0.00    -0.278 A  
HETATM   12  C   UNL     1     -10.841   8.562  69.584  1.00  0.00    -0.157 A  
HETATM   13  C   UNL     1     -11.058   9.957  69.592  1.00  0.00    -0.279 A  
HETATM   14  C   UNL     1     -11.826  10.527  70.603  1.00  0.00    -0.360 A  
HETATM   15  C   UNL     1     -12.287   9.717  71.648  1.00  0.00    -0.489 A  
HETATM   16  O   UNL     1     -12.168  11.865  70.630  1.00  0.00    -0.371 OA 
HETATM   17  C   UNL     1     -11.706  12.699  69.630  1.00  0.00    -0.303 A  
HETATM   18  C   UNL     1     -11.978   8.347  71.670  1.00  0.00    -0.307 A  
HETATM   19  O   UNL     1     -12.377   7.568  72.718  1.00  0.00    -0.534 OA 
HETATM   20  C   UNL     1     -12.160  14.026  69.626  1.00  0.00    -0.408 A  
HETATM   21  C   UNL     1     -11.714  14.931  68.644  1.00  0.00    -0.330 A  
HETATM   22  H   UNL     1     -12.872   7.977  73.419  1.00  0.00     0.000 HD 
HETATM   23  C   UNL     1     -10.780  14.545  67.680  1.00  0.00    -0.254 A  
HETATM   24  O   UNL     1     -12.204  16.208  68.607  1.00  0.00    -0.297 OA 
HETATM   25  C   UNL     1      -8.924  10.653  68.512  1.00  0.00    -0.156 A  
HETATM   26  H   UNL     1     -11.903  16.819  67.944  1.00  0.00     0.000 HD 
HETATM   27  C   UNL     1     -10.330  13.217  67.713  1.00  0.00    -0.233 A  
HETATM   28  C   UNL     1      -7.944  11.026  69.422  1.00  0.00     0.036 A  
HETATM   29  C   UNL     1     -10.815  12.280  68.646  1.00  0.00    -0.268 A  
HETATM   30  C   UNL     1     -10.409  10.834  68.551  1.00  0.00    -0.185 C  
HETATM   31  C   UNL     1      -6.615  10.729  69.111  1.00  0.00    -0.065 A  
HETATM   32  C   UNL     1      -6.288  10.059  67.920  1.00  0.00    -0.058 A  
HETATM   33  O   UNL     1     -10.828  10.330  67.255  1.00  0.00    -0.277 OA 
HETATM   34  C   UNL     1      -7.284   9.677  67.020  1.00  0.00    -0.087 A  
HETATM   35  O   UNL     1      -9.887   9.074  65.569  1.00  0.00    -0.159 OA 
HETATM   36  C   UNL     1      -9.802   9.734  66.584  1.00  0.00    -0.215 C  
HETATM   37  C   UNL     1      -8.588   9.999  67.343  1.00  0.00    -0.125 A  
BRANCH  23  38
HETATM   38  C   UNL     1     -10.347  15.392  66.497  1.00  0.00    -0.289 C  
BRANCH  38  39
HETATM   39  N   UNL     1      -9.229  16.363  66.701  1.00  0.00    -0.236 NA 
BRANCH  39  40
HETATM   40  C   UNL     1      -9.806  17.750  66.684  1.00  0.00    -0.322 C  
HETATM   41  O   UNL     1      -8.684  19.868  67.117  1.00  0.00    -0.304 OA 
HETATM   42  C   UNL     1      -8.723  18.808  66.507  1.00  0.00    -0.312 C  
HETATM   43  O   UNL     1      -7.802  18.452  65.576  1.00  0.00    -0.446 OA 
ENDBRANCH  39  40
BRANCH  39  44
HETATM   44  C   UNL     1      -8.672  16.131  68.091  1.00  0.00    -0.175 C  
HETATM   45  C   UNL     1      -7.299  15.462  68.077  1.00  0.00    -0.121 C  
HETATM   46  O   UNL     1      -6.867  14.769  68.986  1.00  0.00    -0.099 OA 
HETATM   47  O   UNL     1      -6.570  15.757  66.968  1.00  0.00    -0.284 OA 
ENDBRANCH  39  44
ENDBRANCH  38  39
ENDBRANCH  23  38
ENDBRANCH  10  11
ENDBRANCH   5  10
ENDBRANCH   4   5
TORSDOF 8
ENDMDL
MODEL       12
REMARK 921   NORMALIZED FREE ENERGY PREDICTED BY IDOCK:   -7.03 KCAL/MOL
REMARK 922        TOTAL FREE ENERGY PREDICTED BY IDOCK:  -12.59 KCAL/MOL
REMARK 923 INTER-LIGAND FREE ENERGY PREDICTED BY IDOCK:  -11.02 KCAL/MOL
REMARK 924 INTRA-LIGAND FREE ENERGY PREDICTED BY IDOCK:   -1.57 KCAL/MOL
REMARK 927      BINDING AFFINITY PREDICTED BY RF-SCORE:    0.00 PKD
ROOT
HETATM    1  O   UNL     1     -12.182   8.344  73.150  1.00  0.00    -0.111 OA 
HETATM    2  C   UNL     1     -13.104   8.851  72.300  1.00  0.00    -0.436 C  
HETATM    3  O   UNL     1     -14.290   8.925  72.582  1.00  0.00    -0.613 OA 
HETATM    4  C   UNL     1     -12.501   9.380  71.003  1.00  0.00    -0.239 C  
ENDROOT
BRANCH   4   5
HETATM    5  N   UNL     1     -11.280   8.611  70.532  1.00  0.00    -0.253 NA 
BRANCH   5   6
HETATM    6  C   UNL     1     -11.638   7.140  70.571  1.00  0.00    -0.290 C  
HETATM    7  O   UNL     1      -9.456   6.868  71.580  1.00  0.00    -0.158 OA 
HETATM    8  C   UNL     1     -10.487   6.226  70.987  1.00  0.00    -0.225 C  
HETATM    9  O   UNL     1     -10.515   5.011  70.856  1.00  0.00    -0.216 OA 
ENDBRANCH   5   6
BRANCH   5  10
HETATM   10  C   UNL     1     -11.077   9.013  69.082  1.00  0.00     0.098 C  
BRANCH  10  11
HETATM   11  C   UNL     1      -9.931   9.991  68.875  1.00  0.00    -0.198 A  
HETATM   12  C   UNL     1     -10.210  11.294  68.463  1.00  0.00    -0.214 A  
HETATM   13  C   UNL     1      -9.187  12.214  68.147  1.00  0.00    -0.197 A  
HETATM   14  C   UNL     1      -7.859  11.874  68.387  1.00  0.00    -0.141 A  
HETATM   15  C   UNL     1      -7.558  10.585  68.848  1.00  0.00    -0.108 A  
HETATM   16  O   UNL     1      -6.807  12.749  68.200  1.00  0.00    -0.074 OA 
HETATM   17  C   UNL     1      -7.065  14.018  67.718  1.00  0.00    -0.173 A  
HETATM   18  C   UNL     1      -8.587   9.653  69.065  1.00  0.00    -0.133 A  
HETATM   19  O   UNL     1      -8.290   8.380  69.457  1.00  0.00    -0.116 OA 
HETATM   20  C   UNL     1      -5.991  14.918  67.643  1.00  0.00    -0.075 A  
HETATM   21  C   UNL     1      -6.184  16.220  67.146  1.00  0.00    -0.141 A  
HETATM   22  H   UNL     1      -7.377   8.150  69.586  1.00  0.00     0.000 HD 
HETATM   23  C   UNL     1      -7.432  16.635  66.678  1.00  0.00    -0.311 A  
HETATM   24  O   UNL     1      -5.149  17.114  67.129  1.00  0.00    -0.124 OA 
HETATM   25  C   UNL     1     -10.307  13.345  66.231  1.00  0.00    -0.291 A  
HETATM   26  H   UNL     1      -5.278  17.994  66.794  1.00  0.00     0.000 HD 
HETATM   27  C   UNL     1      -8.487  15.714  66.750  1.00  0.00    -0.307 A  
HETATM   28  C   UNL     1      -9.927  12.840  64.996  1.00  0.00    -0.171 A  
HETATM   29  C   UNL     1      -8.329  14.429  67.305  1.00  0.00    -0.228 A  
HETATM   30  C   UNL     1      -9.522  13.530  67.491  1.00  0.00    -0.222 C  
HETATM   31  C   UNL     1     -10.888  12.794  63.983  1.00  0.00    -0.458 A  
HETATM   32  C   UNL     1     -12.201  13.234  64.219  1.00  0.00    -0.454 A  
HETATM   33  O   UNL     1     -10.467  14.205  68.363  1.00  0.00    -0.240 OA 
HETATM   34  C   UNL     1     -12.575  13.727  65.470  1.00  0.00    -0.551 A  
HETATM   35  O   UNL     1     -12.737  14.596  68.379  1.00  0.00     0.296 OA 
HETATM   36  C   UNL     1     -11.715  14.257  67.818  1.00  0.00    -0.374 C  
HETATM   37  C   UNL     1     -11.600  13.779  66.448  1.00  0.00    -0.380 A  
BRANCH  23  38
HETATM   38  C   UNL     1      -7.782  18.053  66.263  1.00  0.00    -0.258 C  
BRANCH  38  39
HETATM   39  N   UNL     1      -8.246  19.000  67.323  1.00  0.00    -0.272 NA 
BRANCH  39  40
HETATM   40  C   UNL     1      -7.061  19.795  67.791  1.00  0.00    -0.269 C  
HETATM   41  O   UNL     1      -6.409  20.348  70.072  1.00  0.00    -0.330 OA 
HETATM   42  C   UNL     1      -6.727  19.500  69.249  1.00  0.00    -0.341 C  
HETATM   43  O   UNL     1      -6.805  18.177  69.538  1.00  0.00    -0.180 OA 
ENDBRANCH  39  40
BRANCH  39  44
HETATM   44  C   UNL     1      -9.207  19.976  66.674  1.00  0.00    -0.376 C  
HETATM   45  C   UNL     1     -10.479  19.304  66.159  1.00  0.00    -0.488 C  
HETATM   46  O   UNL     1     -11.151  19.732  65.233  1.00  0.00    -0.395 OA 
HETATM   47  O   UNL     1     -10.828  18.200  66.872  1.00  0.00    -0.277 OA 
ENDBRANCH  39  44
ENDBRANCH  38  39
ENDBRANCH  23  38
ENDBRANCH  10  11
ENDBRANCH   5  10
ENDBRANCH   4   5
TORSDOF 8
ENDMDL
MODEL       13
REMARK 921   NORMALIZED FREE ENERGY PREDICTED BY IDOCK:   -7.00 KCAL/MOL
REMARK 922        TOTAL FREE ENERGY PREDICTED BY IDOCK:  -12.54 KCAL/MOL
REMARK 923 INTER-LIGAND FREE ENERGY PREDICTED BY IDOCK:  -10.99 KCAL/MOL
REMARK 924 INTRA-LIGAND FREE ENERGY PREDICTED BY IDOCK:   -1.55 KCAL/MOL
REMARK 927      BINDING AFFINITY PREDICTED BY RF-SCORE:    0.00 PKD
ROOT
HETATM    1  O   UNL     1     -10.428  14.981  64.862  1.00  0.00    -0.405 OA 
HETATM    2  C   UNL     1     -10.817  16.276  64.822  1.00  0.00    -0.224 C  
HETATM    3  O   UNL     1     -11.584  16.707  63.974  1.00  0.00    -1.197 OA 
HETATM    4  C   UNL     1     -10.263  17.108  65.973  1.00  0.00    -0.321 C  
ENDROOT
BRANCH   4   5
HETATM    5  N   UNL     1      -8.884  16.676  66.438  1.00  0.00    -0.277 NA 
BRANCH   5   6
HETATM    6  C   UNL     1      -7.878  17.550  65.719  1.00  0.00     0.137 C  
HETATM    7  O   UNL     1      -6.230  16.261  66.935  1.00  0.00    -0.299 OA 
HETATM    8  C   UNL     1      -6.440  17.380  66.207  1.00  0.00    -0.235 C  
HETATM    9  O   UNL     1      -5.538  18.152  65.915  1.00  0.00    -0.161 OA 
ENDBRANCH   5   6
BRANCH   5  10
HETATM   10  C   UNL     1      -8.829  17.006  67.919  1.00  0.00    -0.224 C  
BRANCH  10  11
HETATM   11  C   UNL     1      -9.742  16.138  68.772  1.00  0.00    -0.233 A  
HETATM   12  C   UNL     1      -9.646  14.749  68.681  1.00  0.00    -0.218 A  
HETATM   13  C   UNL     1     -10.539  13.892  69.361  1.00  0.00     0.019 A  
HETATM   14  C   UNL     1     -11.452  14.429  70.264  1.00  0.00    -0.196 A  
HETATM   15  C   UNL     1     -11.532  15.820  70.407  1.00  0.00    -0.380 A  
HETATM   16  O   UNL     1     -12.291  13.655  71.042  1.00  0.00    -0.356 OA 
HETATM   17  C   UNL     1     -12.258  12.280  70.905  1.00  0.00    -0.197 A  
HETATM   18  C   UNL     1     -10.698  16.658  69.648  1.00  0.00    -0.286 A  
HETATM   19  O   UNL     1     -10.817  18.015  69.744  1.00  0.00     0.090 OA 
HETATM   20  C   UNL     1     -13.042  11.519  71.785  1.00  0.00    -0.503 A  
HETATM   21  C   UNL     1     -13.066  10.115  71.688  1.00  0.00    -0.447 A  
HETATM   22  H   UNL     1     -11.468  18.369  70.340  1.00  0.00     0.000 HD 
HETATM   23  C   UNL     1     -12.348   9.450  70.691  1.00  0.00    -0.094 A  
HETATM   24  O   UNL     1     -13.783   9.372  72.585  1.00  0.00    -0.697 OA 
HETATM   25  C   UNL     1     -10.749  12.136  67.607  1.00  0.00    -0.252 A  
HETATM   26  H   UNL     1     -13.800   8.424  72.519  1.00  0.00     0.000 HD 
HETATM   27  C   UNL     1     -11.584  10.233  69.815  1.00  0.00    -0.294 A  
HETATM   28  C   UNL     1     -11.868  12.296  66.802  1.00  0.00    -0.349 A  
HETATM   29  C   UNL     1     -11.495  11.633  69.938  1.00  0.00    -0.308 A  
HETATM   30  C   UNL     1     -10.550  12.415  69.064  1.00  0.00    -0.049 C  
HETATM   31  C   UNL     1     -11.762  11.939  65.456  1.00  0.00    -0.224 A  
HETATM   32  C   UNL     1     -10.552  11.449  64.935  1.00  0.00    -0.368 A  
HETATM   33  O   UNL     1      -9.203  11.927  69.303  1.00  0.00     0.341 OA 
HETATM   34  C   UNL     1      -9.430  11.307  65.753  1.00  0.00    -0.252 A  
HETATM   35  O   UNL     1      -7.396  11.316  68.012  1.00  0.00    -0.086 OA 
HETATM   36  C   UNL     1      -8.573  11.584  68.144  1.00  0.00    -0.156 C  
HETATM   37  C   UNL     1      -9.568  11.649  67.084  1.00  0.00    -0.185 A  
BRANCH  23  38
HETATM   38  C   UNL     1     -12.189   7.944  70.589  1.00  0.00     0.071 C  
BRANCH  38  39
HETATM   39  N   UNL     1     -10.948   7.330  71.156  1.00  0.00    -0.243 NA 
BRANCH  39  40
HETATM   40  C   UNL     1     -11.026   7.415  72.653  1.00  0.00    -0.317 C  
HETATM   41  O   UNL     1      -9.205   7.466  74.269  1.00  0.00    -0.232 OA 
HETATM   42  C   UNL     1      -9.721   7.920  73.257  1.00  0.00    -0.285 C  
HETATM   43  O   UNL     1      -9.192   8.952  72.552  1.00  0.00    -0.334 OA 
ENDBRANCH  39  40
BRANCH  39  44
HETATM   44  C   UNL     1     -10.960   5.859  70.793  1.00  0.00    -0.273 C  
HETATM   45  C   UNL     1      -9.665   5.400  70.126  1.00  0.00    -0.188 C  
HETATM   46  O   UNL     1      -9.593   4.459  69.349  1.00  0.00    -0.168 OA 
HETATM   47  O   UNL     1      -8.577   6.111  70.522  1.00  0.00    -0.134 OA 
ENDBRANCH  39  44
ENDBRANCH  38  39
ENDBRANCH  23  38
ENDBRANCH  10  11
ENDBRANCH   5  10
ENDBRANCH   4   5
TORSDOF 8
ENDMDL
MODEL       14
REMARK 921   NORMALIZED FREE ENERGY PREDICTED BY IDOCK:   -7.00 KCAL/MOL
REMARK 922        TOTAL FREE ENERGY PREDICTED BY IDOCK:  -12.54 KCAL/MOL
REMARK 923 INTER-LIGAND FREE ENERGY PREDICTED BY IDOCK:  -10.64 KCAL/MOL
REMARK 924 INTRA-LIGAND FREE ENERGY PREDICTED BY IDOCK:   -1.90 KCAL/MOL
REMARK 927      BINDING AFFINITY PREDICTED BY RF-SCORE:    0.00 PKD
ROOT
HETATM    1  O   UNL     1     -11.159   5.898  67.427  1.00  0.00    -0.247 OA 
HETATM    2  C   UNL     1     -10.281   5.106  66.770  1.00  0.00    -0.253 C  
HETATM    3  O   UNL     1     -10.446   4.760  65.610  1.00  0.00    -0.243 OA 
HETATM    4  C   UNL     1      -9.049   4.758  67.597  1.00  0.00    -0.115 C  
ENDROOT
BRANCH   4   5
HETATM    5  N   UNL     1      -9.320   4.631  69.085  1.00  0.00    -0.129 NA 
BRANCH   5   6
HETATM    6  C   UNL     1      -8.778   3.288  69.524  1.00  0.00    -0.078 C  
HETATM    7  O   UNL     1     -10.176   3.614  71.471  1.00  0.00    -0.093 OA 
HETATM    8  C   UNL     1      -9.157   2.896  70.952  1.00  0.00    -0.114 C  
HETATM    9  O   UNL     1      -8.631   1.971  71.555  1.00  0.00    -0.060 OA 
ENDBRANCH   5   6
BRANCH   5  10
HETATM   10  C   UNL     1      -8.492   5.718  69.747  1.00  0.00    -0.123 C  
BRANCH  10  11
HETATM   11  C   UNL     1      -9.292   6.959  70.112  1.00  0.00    -0.159 A  
HETATM   12  C   UNL     1      -9.398   8.000  69.189  1.00  0.00    -0.151 A  
HETATM   13  C   UNL     1     -10.031   9.221  69.509  1.00  0.00    -0.194 A  
HETATM   14  C   UNL     1     -10.699   9.351  70.722  1.00  0.00    -0.305 A  
HETATM   15  C   UNL     1     -10.647   8.298  71.645  1.00  0.00    -0.306 A  
HETATM   16  O   UNL     1     -11.426  10.472  71.070  1.00  0.00    -0.300 OA 
HETATM   17  C   UNL     1     -11.475  11.541  70.195  1.00  0.00    -0.170 A  
HETATM   18  C   UNL     1      -9.930   7.128  71.344  1.00  0.00    -0.187 A  
HETATM   19  O   UNL     1      -9.830   6.126  72.266  1.00  0.00    -0.160 OA 
HETATM   20  C   UNL     1     -12.308  12.619  70.529  1.00  0.00    -0.350 A  
HETATM   21  C   UNL     1     -12.390  13.745  69.689  1.00  0.00    -0.232 A  
HETATM   22  H   UNL     1     -10.263   6.242  73.104  1.00  0.00     0.000 HD 
HETATM   23  C   UNL     1     -11.615  13.838  68.530  1.00  0.00    -0.373 A  
HETATM   24  O   UNL     1     -13.249  14.768  69.985  1.00  0.00    -0.555 OA 
HETATM   25  C   UNL     1      -8.506  10.747  68.262  1.00  0.00    -0.130 A  
HETATM   26  H   UNL     1     -13.304  15.529  69.418  1.00  0.00     0.000 HD 
HETATM   27  C   UNL     1     -10.779  12.754  68.226  1.00  0.00    -0.257 A  
HETATM   28  C   UNL     1      -7.519  11.308  69.060  1.00  0.00    -0.116 A  
HETATM   29  C   UNL     1     -10.733  11.591  69.018  1.00  0.00    -0.233 A  
HETATM   30  C   UNL     1      -9.928  10.399  68.574  1.00  0.00    -0.167 C  
HETATM   31  C   UNL     1      -6.264  11.531  68.488  1.00  0.00    -0.050 A  
HETATM   32  C   UNL     1      -6.012  11.182  67.150  1.00  0.00    -0.073 A  
HETATM   33  O   UNL     1     -10.441   9.961  67.287  1.00  0.00    -0.231 OA 
HETATM   34  C   UNL     1      -7.010  10.605  66.364  1.00  0.00    -0.129 A  
HETATM   35  O   UNL     1      -9.546   9.345  65.257  1.00  0.00    -0.269 OA 
HETATM   36  C   UNL     1      -9.452   9.851  66.356  1.00  0.00    -0.183 C  
HETATM   37  C   UNL     1      -8.247  10.413  66.948  1.00  0.00    -0.124 A  
BRANCH  23  38
HETATM   38  C   UNL     1     -11.735  14.933  67.485  1.00  0.00    -0.308 C  
BRANCH  38  39
HETATM   39  N   UNL     1     -11.327  14.611  66.083  1.00  0.00    -0.349 NA 
BRANCH  39  40
HETATM   40  C   UNL     1     -12.561  14.245  65.310  1.00  0.00    -0.394 C  
HETATM   41  O   UNL     1     -12.729  13.339  63.055  1.00  0.00    -0.556 OA 
HETATM   42  C   UNL     1     -12.249  13.272  64.179  1.00  0.00    -0.401 C  
HETATM   43  O   UNL     1     -11.382  12.300  64.560  1.00  0.00    -0.307 OA 
ENDBRANCH  39  40
BRANCH  39  44
HETATM   44  C   UNL     1     -10.776  15.880  65.466  1.00  0.00    -0.372 C  
HETATM   45  C   UNL     1      -9.400  16.258  66.011  1.00  0.00    -0.326 C  
HETATM   46  O   UNL     1      -8.970  17.401  66.049  1.00  0.00    -0.493 OA 
HETATM   47  O   UNL     1      -8.667  15.183  66.406  1.00  0.00    -0.277 OA 
ENDBRANCH  39  44
ENDBRANCH  38  39
ENDBRANCH  23  38
ENDBRANCH  10  11
ENDBRANCH   5  10
ENDBRANCH   4   5
TORSDOF 8
ENDMDL
MODEL       15
REMARK 921   NORMALIZED FREE ENERGY PREDICTED BY IDOCK:   -6.90 KCAL/MOL
REMARK 922        TOTAL FREE ENERGY PREDICTED BY IDOCK:  -12.39 KCAL/MOL
REMARK 923 INTER-LIGAND FREE ENERGY PREDICTED BY IDOCK:  -10.28 KCAL/MOL
REMARK 924 INTRA-LIGAND FREE ENERGY PREDICTED BY IDOCK:   -2.11 KCAL/MOL
REMARK 927      BINDING AFFINITY PREDICTED BY RF-SCORE:    0.00 PKD
ROOT
HETATM    1  O   UNL     1     -11.064   7.206  66.851  1.00  0.00    -0.327 OA 
HETATM    2  C   UNL     1     -10.483   6.001  67.050  1.00  0.00    -0.270 C  
HETATM    3  O   UNL     1     -10.680   5.045  66.315  1.00  0.00    -0.312 OA 
HETATM    4  C   UNL     1      -9.515   5.987  68.228  1.00  0.00    -0.115 C  
ENDROOT
BRANCH   4   5
HETATM    5  N   UNL     1      -9.916   6.907  69.367  1.00  0.00    -0.158 NA 
BRANCH   5   6
HETATM    6  C   UNL     1     -10.984   6.190  70.164  1.00  0.00    -0.358 C  
HETATM    7  O   UNL     1     -11.746   8.419  70.718  1.00  0.00    -0.276 OA 
HETATM    8  C   UNL     1     -11.835   7.110  71.040  1.00  0.00    -0.333 C  
HETATM    9  O   UNL     1     -12.582   6.698  71.915  1.00  0.00    -0.350 OA 
ENDBRANCH   5   6
BRANCH   5  10
HETATM   10  C   UNL     1      -8.681   7.041  70.239  1.00  0.00    -0.144 C  
BRANCH  10  11
HETATM   11  C   UNL     1      -8.040   8.420  70.183  1.00  0.00    -0.108 A  
HETATM   12  C   UNL     1      -8.587   9.394  69.347  1.00  0.00    -0.148 A  
HETATM   13  C   UNL     1      -7.974  10.654  69.167  1.00  0.00    -0.139 A  
HETATM   14  C   UNL     1      -6.874  11.000  69.946  1.00  0.00    -0.095 A  
HETATM   15  C   UNL     1      -6.338  10.053  70.828  1.00  0.00    -0.074 A  
HETATM   16  O   UNL     1      -6.279  12.245  69.904  1.00  0.00    -0.140 OA 
HETATM   17  C   UNL     1      -6.764  13.194  69.024  1.00  0.00    -0.103 A  
HETATM   18  C   UNL     1      -6.907   8.772  70.922  1.00  0.00    -0.068 A  
HETATM   19  O   UNL     1      -6.348   7.830  71.737  1.00  0.00    -0.038 OA 
HETATM   20  C   UNL     1      -6.209  14.481  69.081  1.00  0.00    -0.096 A  
HETATM   21  C   UNL     1      -6.648  15.489  68.202  1.00  0.00    -0.130 A  
HETATM   22  H   UNL     1      -5.578   8.069  72.239  1.00  0.00     0.000 HD 
HETATM   23  C   UNL     1      -7.611  15.223  67.226  1.00  0.00    -0.244 A  
HETATM   24  O   UNL     1      -6.149  16.758  68.300  1.00  0.00    -0.127 OA 
HETATM   25  C   UNL     1      -8.468  10.943  66.742  1.00  0.00    -0.139 A  
HETATM   26  H   UNL     1      -6.445  17.439  67.706  1.00  0.00     0.000 HD 
HETATM   27  C   UNL     1      -8.141  13.926  67.178  1.00  0.00    -0.103 A  
HETATM   28  C   UNL     1      -7.418  10.564  65.919  1.00  0.00    -0.147 A  
HETATM   29  C   UNL     1      -7.763  12.923  68.092  1.00  0.00    -0.138 A  
HETATM   30  C   UNL     1      -8.462  11.590  68.092  1.00  0.00    -0.154 C  
HETATM   31  C   UNL     1      -7.729   9.978  64.689  1.00  0.00    -0.146 A  
HETATM   32  C   UNL     1      -9.066   9.770  64.311  1.00  0.00    -0.293 A  
HETATM   33  O   UNL     1      -9.874  11.820  68.344  1.00  0.00    -0.193 OA 
HETATM   34  C   UNL     1     -10.112  10.143  65.155  1.00  0.00    -0.329 A  
HETATM   35  O   UNL     1     -11.868  11.098  67.445  1.00  0.00    -0.570 OA 
HETATM   36  C   UNL     1     -10.662  11.228  67.402  1.00  0.00    -0.242 C  
HETATM   37  C   UNL     1      -9.777  10.736  66.356  1.00  0.00    -0.241 A  
BRANCH  23  38
HETATM   38  C   UNL     1      -8.257  16.265  66.331  1.00  0.00    -0.319 C  
BRANCH  38  39
HETATM   39  N   UNL     1      -9.693  16.606  66.574  1.00  0.00    -0.260 NA 
BRANCH  39  40
HETATM   40  C   UNL     1      -9.850  18.093  66.437  1.00  0.00    -0.353 C  
HETATM   41  O   UNL     1     -10.534  19.711  68.124  1.00  0.00    -0.432 OA 
HETATM   42  C   UNL     1      -9.798  18.792  67.790  1.00  0.00    -0.333 C  
HETATM   43  O   UNL     1      -8.824  18.290  68.591  1.00  0.00    -0.313 OA 
ENDBRANCH  39  40
BRANCH  39  44
HETATM   44  C   UNL     1     -10.507  15.969  65.466  1.00  0.00    -0.405 C  
HETATM   45  C   UNL     1     -11.307  14.756  65.938  1.00  0.00    -0.331 C  
HETATM   46  O   UNL     1     -11.640  13.832  65.211  1.00  0.00    -0.308 OA 
HETATM   47  O   UNL     1     -11.667  14.829  67.247  1.00  0.00    -0.379 OA 
ENDBRANCH  39  44
ENDBRANCH  38  39
ENDBRANCH  23  38
ENDBRANCH  10  11
ENDBRANCH   5  10
ENDBRANCH   4   5
TORSDOF 8
ENDMDL
MODEL       16
REMARK 921   NORMALIZED FREE ENERGY PREDICTED BY IDOCK:   -6.89 KCAL/MOL
REMARK 922        TOTAL FREE ENERGY PREDICTED BY IDOCK:  -12.39 KCAL/MOL
REMARK 923 INTER-LIGAND FREE ENERGY PREDICTED BY IDOCK:  -10.39 KCAL/MOL
REMARK 924 INTRA-LIGAND FREE ENERGY PREDICTED BY IDOCK:   -2.00 KCAL/MOL
REMARK 927      BINDING AFFINITY PREDICTED BY RF-SCORE:    0.00 PKD
ROOT
HETATM    1  O   UNL     1      -8.976   5.331  69.655  1.00  0.00    -0.105 OA 
HETATM    2  C   UNL     1     -10.143   5.928  69.990  1.00  0.00    -0.198 C  
HETATM    3  O   UNL     1     -10.814   5.572  70.947  1.00  0.00    -0.246 OA 
HETATM    4  C   UNL     1     -10.486   7.119  69.103  1.00  0.00    -0.211 C  
ENDROOT
BRANCH   4   5
HETATM    5  N   UNL     1     -10.017   6.974  67.666  1.00  0.00    -0.145 NA 
BRANCH   5   6
HETATM    6  C   UNL     1     -10.825   5.855  67.045  1.00  0.00    -0.295 C  
HETATM    7  O   UNL     1      -8.739   5.247  65.980  1.00  0.00    -0.128 OA 
HETATM    8  C   UNL     1     -10.078   5.066  65.970  1.00  0.00    -0.209 C  
HETATM    9  O   UNL     1     -10.629   4.288  65.205  1.00  0.00    -0.248 OA 
ENDBRANCH   5   6
BRANCH   5  10
HETATM   10  C   UNL     1     -10.397   8.273  66.978  1.00  0.00    -0.323 C  
BRANCH  10  11
HETATM   11  C   UNL     1      -9.345   9.364  67.109  1.00  0.00    -0.172 A  
HETATM   12  C   UNL     1      -9.746  10.671  67.386  1.00  0.00    -0.192 A  
HETATM   13  C   UNL     1      -8.829  11.745  67.409  1.00  0.00    -0.164 A  
HETATM   14  C   UNL     1      -7.466  11.488  67.299  1.00  0.00    -0.139 A  
HETATM   15  C   UNL     1      -7.038  10.174  67.068  1.00  0.00    -0.090 A  
HETATM   16  O   UNL     1      -6.499  12.467  67.411  1.00  0.00    -0.132 OA 
HETATM   17  C   UNL     1      -6.889  13.778  67.609  1.00  0.00    -0.175 A  
HETATM   18  C   UNL     1      -7.975   9.134  66.953  1.00  0.00    -0.105 A  
HETATM   19  O   UNL     1      -7.561   7.864  66.671  1.00  0.00    -0.090 OA 
HETATM   20  C   UNL     1      -5.882  14.731  67.827  1.00  0.00    -0.105 A  
HETATM   21  C   UNL     1      -6.211  16.086  68.020  1.00  0.00    -0.126 A  
HETATM   22  H   UNL     1      -6.630   7.707  66.564  1.00  0.00     0.000 HD 
HETATM   23  C   UNL     1      -7.537  16.521  67.955  1.00  0.00    -0.162 A  
HETATM   24  O   UNL     1      -5.234  17.003  68.292  1.00  0.00    -0.116 OA 
HETATM   25  C   UNL     1     -10.295  13.483  66.391  1.00  0.00    -0.289 A  
HETATM   26  H   UNL     1      -5.456  17.918  68.422  1.00  0.00     0.000 HD 
HETATM   27  C   UNL     1      -8.523  15.553  67.721  1.00  0.00    -0.159 A  
HETATM   28  C   UNL     1     -10.098  13.637  65.026  1.00  0.00    -0.293 A  
HETATM   29  C   UNL     1      -8.220  14.184  67.593  1.00  0.00    -0.193 A  
HETATM   30  C   UNL     1      -9.325  13.167  67.486  1.00  0.00    -0.207 C  
HETATM   31  C   UNL     1     -11.207  13.944  64.235  1.00  0.00    -0.278 A  
HETATM   32  C   UNL     1     -12.484  14.077  64.808  1.00  0.00    -0.392 A  
HETATM   33  O   UNL     1     -10.146  13.263  68.680  1.00  0.00    -0.221 OA 
HETATM   34  C   UNL     1     -12.671  13.905  66.180  1.00  0.00    -0.336 A  
HETATM   35  O   UNL     1     -12.398  13.341  69.155  1.00  0.00    -0.197 OA 
HETATM   36  C   UNL     1     -11.467  13.411  68.379  1.00  0.00    -0.316 C  
HETATM   37  C   UNL     1     -11.554  13.621  66.942  1.00  0.00    -0.397 A  
BRANCH  23  38
HETATM   38  C   UNL     1      -8.012  17.924  68.291  1.00  0.00    -0.291 C  
BRANCH  38  39
HETATM   39  N   UNL     1      -8.186  18.894  67.166  1.00  0.00    -0.265 NA 
BRANCH  39  40
HETATM   40  C   UNL     1      -9.584  19.438  67.231  1.00  0.00    -0.328 C  
HETATM   41  O   UNL     1     -11.150  19.830  65.407  1.00  0.00    -0.389 OA 
HETATM   42  C   UNL     1     -10.391  19.069  65.992  1.00  0.00    -0.446 C  
HETATM   43  O   UNL     1     -10.189  17.783  65.611  1.00  0.00    -0.590 OA 
ENDBRANCH  39  40
BRANCH  39  44
HETATM   44  C   UNL     1      -7.245  20.054  67.414  1.00  0.00    -0.260 C  
HETATM   45  C   UNL     1      -6.300  20.315  66.243  1.00  0.00    -0.203 C  
HETATM   46  O   UNL     1      -5.198  20.831  66.356  1.00  0.00    -0.163 OA 
HETATM   47  O   UNL     1      -6.828  19.963  65.041  1.00  0.00    -0.306 OA 
ENDBRANCH  39  44
ENDBRANCH  38  39
ENDBRANCH  23  38
ENDBRANCH  10  11
ENDBRANCH   5  10
ENDBRANCH   4   5
TORSDOF 8
ENDMDL
MODEL       17
REMARK 921   NORMALIZED FREE ENERGY PREDICTED BY IDOCK:   -6.88 KCAL/MOL
REMARK 922        TOTAL FREE ENERGY PREDICTED BY IDOCK:  -12.37 KCAL/MOL
REMARK 923 INTER-LIGAND FREE ENERGY PREDICTED BY IDOCK:  -11.32 KCAL/MOL
REMARK 924 INTRA-LIGAND FREE ENERGY PREDICTED BY IDOCK:   -1.05 KCAL/MOL
REMARK 927      BINDING AFFINITY PREDICTED BY RF-SCORE:    0.00 PKD
ROOT
HETATM    1  O   UNL     1     -12.162   6.970  71.883  1.00  0.00    -0.314 OA 
HETATM    2  C   UNL     1     -11.255   7.753  72.511  1.00  0.00    -0.363 C  
HETATM    3  O   UNL     1     -10.928   7.579  73.675  1.00  0.00    -0.322 OA 
HETATM    4  C   UNL     1     -10.640   8.812  71.602  1.00  0.00    -0.331 C  
ENDROOT
BRANCH   4   5
HETATM    5  N   UNL     1     -11.589   9.338  70.540  1.00  0.00    -0.250 NA 
BRANCH   5   6
HETATM    6  C   UNL     1     -11.732  10.828  70.770  1.00  0.00    -0.298 C  
HETATM    7  O   UNL     1     -13.532  10.195  72.258  1.00  0.00    -0.398 OA 
HETATM    8  C   UNL     1     -12.964  11.220  71.585  1.00  0.00    -0.432 C  
HETATM    9  O   UNL     1     -13.369  12.370  71.676  1.00  0.00    -0.351 OA 
ENDBRANCH   5   6
BRANCH   5  10
HETATM   10  C   UNL     1     -10.879   9.128  69.215  1.00  0.00    -0.132 C  
BRANCH  10  11
HETATM   11  C   UNL     1      -9.755  10.121  68.960  1.00  0.00    -0.212 A  
HETATM   12  C   UNL     1     -10.070  11.436  68.617  1.00  0.00    -0.217 A  
HETATM   13  C   UNL     1      -9.076  12.374  68.260  1.00  0.00    -0.183 A  
HETATM   14  C   UNL     1      -7.733  12.034  68.389  1.00  0.00    -0.138 A  
HETATM   15  C   UNL     1      -7.394  10.732  68.779  1.00  0.00    -0.104 A  
HETATM   16  O   UNL     1      -6.702  12.922  68.157  1.00  0.00    -0.075 OA 
HETATM   17  C   UNL     1      -7.000  14.206  67.743  1.00  0.00    -0.177 A  
HETATM   18  C   UNL     1      -8.400   9.786  69.037  1.00  0.00    -0.127 A  
HETATM   19  O   UNL     1      -8.070   8.501  69.360  1.00  0.00    -0.108 OA 
HETATM   20  C   UNL     1      -5.938  15.115  67.621  1.00  0.00    -0.104 A  
HETATM   21  C   UNL     1      -6.172  16.433  67.188  1.00  0.00    -0.168 A  
HETATM   22  H   UNL     1      -7.149   8.273  69.412  1.00  0.00     0.000 HD 
HETATM   23  C   UNL     1      -7.453  16.856  66.829  1.00  0.00    -0.276 A  
HETATM   24  O   UNL     1      -5.144  17.334  67.127  1.00  0.00    -0.119 OA 
HETATM   25  C   UNL     1     -10.340  13.566  66.475  1.00  0.00    -0.282 A  
HETATM   26  H   UNL     1      -5.302  18.225  66.835  1.00  0.00     0.000 HD 
HETATM   27  C   UNL     1      -8.496  15.927  66.945  1.00  0.00    -0.275 A  
HETATM   28  C   UNL     1     -10.050  13.108  65.198  1.00  0.00    -0.239 A  
HETATM   29  C   UNL     1      -8.292  14.624  67.439  1.00  0.00    -0.223 A  
HETATM   30  C   UNL     1      -9.464  13.710  67.680  1.00  0.00    -0.221 C  
HETATM   31  C   UNL     1     -11.083  13.092  64.258  1.00  0.00    -0.426 A  
HETATM   32  C   UNL     1     -12.377  13.515  64.606  1.00  0.00    -0.419 A  
HETATM   33  O   UNL     1     -10.345  14.347  68.643  1.00  0.00    -0.234 OA 
HETATM   34  C   UNL     1     -12.659  13.960  65.898  1.00  0.00    -0.498 A  
HETATM   35  O   UNL     1     -12.609  14.722  68.841  1.00  0.00     0.041 OA 
HETATM   36  C   UNL     1     -11.631  14.410  68.194  1.00  0.00    -0.329 C  
HETATM   37  C   UNL     1     -11.615  13.983  66.802  1.00  0.00    -0.406 A  
BRANCH  23  38
HETATM   38  C   UNL     1      -7.838  18.286  66.492  1.00  0.00    -0.252 C  
BRANCH  38  39
HETATM   39  N   UNL     1      -8.025  19.247  67.623  1.00  0.00    -0.273 NA 
BRANCH  39  40
HETATM   40  C   UNL     1      -6.841  20.170  67.652  1.00  0.00    -0.255 C  
HETATM   41  O   UNL     1      -5.677  21.089  69.586  1.00  0.00    -0.410 OA 
HETATM   42  C   UNL     1      -6.115  20.112  68.991  1.00  0.00    -0.317 C  
HETATM   43  O   UNL     1      -5.989  18.843  69.454  1.00  0.00    -0.232 OA 
ENDBRANCH  39  40
BRANCH  39  44
HETATM   44  C   UNL     1      -9.241  20.094  67.306  1.00  0.00    -0.382 C  
HETATM   45  C   UNL     1     -10.548  19.452  67.766  1.00  0.00    -0.422 C  
HETATM   46  O   UNL     1     -11.634  19.665  67.247  1.00  0.00     0.231 OA 
HETATM   47  O   UNL     1     -10.398  18.653  68.856  1.00  0.00    -0.299 OA 
ENDBRANCH  39  44
ENDBRANCH  38  39
ENDBRANCH  23  38
ENDBRANCH  10  11
ENDBRANCH   5  10
ENDBRANCH   4   5
TORSDOF 8
ENDMDL
MODEL       18
REMARK 921   NORMALIZED FREE ENERGY PREDICTED BY IDOCK:   -6.86 KCAL/MOL
REMARK 922        TOTAL FREE ENERGY PREDICTED BY IDOCK:  -12.34 KCAL/MOL
REMARK 923 INTER-LIGAND FREE ENERGY PREDICTED BY IDOCK:  -10.03 KCAL/MOL
REMARK 924 INTRA-LIGAND FREE ENERGY PREDICTED BY IDOCK:   -2.31 KCAL/MOL
REMARK 927      BINDING AFFINITY PREDICTED BY RF-SCORE:    0.00 PKD
ROOT
HETATM    1  O   UNL     1     -12.096   8.674  72.063  1.00  0.00    -0.325 OA 
HETATM    2  C   UNL     1     -12.743   7.668  71.432  1.00  0.00    -0.327 C  
HETATM    3  O   UNL     1     -13.951   7.503  71.521  1.00  0.00    -0.408 OA 
HETATM    4  C   UNL     1     -11.829   6.821  70.554  1.00  0.00    -0.362 C  
ENDROOT
BRANCH   4   5
HETATM    5  N   UNL     1     -10.415   6.684  71.087  1.00  0.00    -0.214 NA 
BRANCH   5   6
HETATM    6  C   UNL     1     -10.261   5.263  71.585  1.00  0.00    -0.212 C  
HETATM    7  O   UNL     1      -9.221   6.291  73.512  1.00  0.00    -0.131 OA 
HETATM    8  C   UNL     1      -9.411   5.130  72.847  1.00  0.00    -0.134 C  
HETATM    9  O   UNL     1      -8.989   4.060  73.261  1.00  0.00    -0.103 OA 
ENDBRANCH   5   6
BRANCH   5  10
HETATM   10  C   UNL     1      -9.504   6.869  69.886  1.00  0.00    -0.156 C  
BRANCH  10  11
HETATM   11  C   UNL     1      -8.678   8.145  69.936  1.00  0.00    -0.138 A  
HETATM   12  C   UNL     1      -9.070   9.244  69.172  1.00  0.00    -0.145 A  
HETATM   13  C   UNL     1      -8.286  10.416  69.089  1.00  0.00    -0.160 A  
HETATM   14  C   UNL     1      -7.163  10.549  69.900  1.00  0.00    -0.130 A  
HETATM   15  C   UNL     1      -6.778   9.475  70.713  1.00  0.00    -0.105 A  
HETATM   16  O   UNL     1      -6.400  11.698  69.954  1.00  0.00    -0.136 OA 
HETATM   17  C   UNL     1      -6.735  12.767  69.144  1.00  0.00    -0.080 A  
HETATM   18  C   UNL     1      -7.520   8.282  70.707  1.00  0.00    -0.065 A  
HETATM   19  O   UNL     1      -7.112   7.214  71.455  1.00  0.00    -0.064 OA 
HETATM   20  C   UNL     1      -6.008  13.957  69.301  1.00  0.00    -0.090 A  
HETATM   21  C   UNL     1      -6.288  15.076  68.495  1.00  0.00    -0.092 A  
HETATM   22  H   UNL     1      -6.324   7.307  71.979  1.00  0.00     0.000 HD 
HETATM   23  C   UNL     1      -7.262  15.019  67.495  1.00  0.00    -0.228 A  
HETATM   24  O   UNL     1      -5.620  16.254  68.691  1.00  0.00    -0.103 OA 
HETATM   25  C   UNL     1      -8.694  10.946  66.689  1.00  0.00    -0.156 A  
HETATM   26  H   UNL     1      -5.809  17.010  68.147  1.00  0.00     0.000 HD 
HETATM   27  C   UNL     1      -7.965  13.815  67.348  1.00  0.00    -0.175 A  
HETATM   28  C   UNL     1      -7.692  10.485  65.848  1.00  0.00    -0.148 A  
HETATM   29  C   UNL     1      -7.745  12.706  68.188  1.00  0.00    -0.142 A  
HETATM   30  C   UNL     1      -8.622  11.487  68.083  1.00  0.00    -0.156 C  
HETATM   31  C   UNL     1      -8.059  10.039  64.576  1.00  0.00    -0.156 A  
HETATM   32  C   UNL     1      -9.406  10.046  64.173  1.00  0.00    -0.335 A  
HETATM   33  O   UNL     1      -9.993  11.892  68.341  1.00  0.00    -0.197 OA 
HETATM   34  C   UNL     1     -10.405  10.499  65.035  1.00  0.00    -0.310 A  
HETATM   35  O   UNL     1     -12.052  11.522  67.378  1.00  0.00    -0.593 OA 
HETATM   36  C   UNL     1     -10.839  11.485  67.353  1.00  0.00    -0.246 C  
HETATM   37  C   UNL     1     -10.012  10.952  66.280  1.00  0.00    -0.274 A  
BRANCH  23  38
HETATM   38  C   UNL     1      -7.742  16.203  66.675  1.00  0.00    -0.230 C  
BRANCH  38  39
HETATM   39  N   UNL     1      -9.164  16.637  66.836  1.00  0.00    -0.219 NA 
BRANCH  39  40
HETATM   40  C   UNL     1      -9.202  18.138  66.800  1.00  0.00    -0.279 C  
HETATM   41  O   UNL     1     -11.031  19.627  67.407  1.00  0.00    -0.448 OA 
HETATM   42  C   UNL     1     -10.295  18.695  67.703  1.00  0.00    -0.412 C  
HETATM   43  O   UNL     1     -10.356  18.051  68.896  1.00  0.00    -0.363 OA 
ENDBRANCH  39  40
BRANCH  39  44
HETATM   44  C   UNL     1      -9.931  16.143  65.626  1.00  0.00    -0.297 C  
HETATM   45  C   UNL     1     -10.911  15.020  65.960  1.00  0.00    -0.334 C  
HETATM   46  O   UNL     1     -11.274  14.170  65.161  1.00  0.00    -0.311 OA 
HETATM   47  O   UNL     1     -11.389  15.087  67.231  1.00  0.00    -0.339 OA 
ENDBRANCH  39  44
ENDBRANCH  38  39
ENDBRANCH  23  38
ENDBRANCH  10  11
ENDBRANCH   5  10
ENDBRANCH   4   5
TORSDOF 8
ENDMDL
MODEL       19
REMARK 921   NORMALIZED FREE ENERGY PREDICTED BY IDOCK:   -6.83 KCAL/MOL
REMARK 922        TOTAL FREE ENERGY PREDICTED BY IDOCK:  -12.30 KCAL/MOL
REMARK 923 INTER-LIGAND FREE ENERGY PREDICTED BY IDOCK:  -10.01 KCAL/MOL
REMARK 924 INTRA-LIGAND FREE ENERGY PREDICTED BY IDOCK:   -2.29 KCAL/MOL
REMARK 927      BINDING AFFINITY PREDICTED BY RF-SCORE:    0.00 PKD
ROOT
HETATM    1  O   UNL     1     -11.123  15.344  65.899  1.00  0.00    -0.321 OA 
HETATM    2  C   UNL     1     -10.944  16.643  65.566  1.00  0.00    -0.059 C  
HETATM    3  O   UNL     1     -11.065  17.053  64.421  1.00  0.00    -1.144 OA 
HETATM    4  C   UNL     1     -10.653  17.538  66.766  1.00  0.00    -0.201 C  
ENDROOT
BRANCH   4   5
HETATM    5  N   UNL     1      -9.866  16.854  67.869  1.00  0.00    -0.256 NA 
BRANCH   5   6
HETATM    6  C   UNL     1      -8.662  17.723  68.163  1.00  0.00    -0.266 C  
HETATM    7  O   UNL     1      -7.541  15.626  68.609  1.00  0.00    -0.130 OA 
HETATM    8  C   UNL     1      -7.475  16.968  68.757  1.00  0.00    -0.242 C  
HETATM    9  O   UNL     1      -6.513  17.525  69.266  1.00  0.00    -0.229 OA 
ENDBRANCH   5   6
BRANCH   5  10
HETATM   10  C   UNL     1     -10.772  16.867  69.087  1.00  0.00    -0.298 C  
BRANCH  10  11
HETATM   11  C   UNL     1     -11.131  15.480  69.597  1.00  0.00    -0.280 A  
HETATM   12  C   UNL     1     -10.544  14.361  69.006  1.00  0.00    -0.245 A  
HETATM   13  C   UNL     1     -10.918  13.046  69.358  1.00  0.00    -0.048 A  
HETATM   14  C   UNL     1     -11.789  12.843  70.424  1.00  0.00    -0.157 A  
HETATM   15  C   UNL     1     -12.353  13.953  71.065  1.00  0.00    -0.453 A  
HETATM   16  O   UNL     1     -12.128  11.590  70.896  1.00  0.00    -0.349 OA 
HETATM   17  C   UNL     1     -11.612  10.472  70.269  1.00  0.00    -0.332 A  
HETATM   18  C   UNL     1     -12.040  15.253  70.634  1.00  0.00    -0.354 A  
HETATM   19  O   UNL     1     -12.635  16.334  71.220  1.00  0.00    -0.483 OA 
HETATM   20  C   UNL     1     -11.888   9.219  70.838  1.00  0.00    -0.346 A  
HETATM   21  C   UNL     1     -11.406   8.041  70.239  1.00  0.00    -0.141 A  
HETATM   22  H   UNL     1     -13.253  16.179  71.925  1.00  0.00     0.000 HD 
HETATM   23  C   UNL     1     -10.682   8.084  69.045  1.00  0.00    -0.107 A  
HETATM   24  O   UNL     1     -11.624   6.826  70.828  1.00  0.00    -0.323 OA 
HETATM   25  C   UNL     1     -10.770  12.017  67.094  1.00  0.00    -0.277 A  
HETATM   26  H   UNL     1     -11.299   6.030  70.423  1.00  0.00     0.000 HD 
HETATM   27  C   UNL     1     -10.432   9.345  68.487  1.00  0.00    -0.239 A  
HETATM   28  C   UNL     1     -11.992  11.951  66.440  1.00  0.00     0.043 A  
HETATM   29  C   UNL     1     -10.848  10.540  69.107  1.00  0.00    -0.277 A  
HETATM   30  C   UNL     1     -10.433  11.873  68.545  1.00  0.00    -0.224 C  
HETATM   31  C   UNL     1     -12.002  12.118  65.054  1.00  0.00    -0.343 A  
HETATM   32  C   UNL     1     -10.810  12.361  64.350  1.00  0.00    -0.375 A  
HETATM   33  O   UNL     1      -8.982  11.932  68.545  1.00  0.00    -0.176 OA 
HETATM   34  C   UNL     1      -9.590  12.440  65.022  1.00  0.00     0.061 A  
HETATM   35  O   UNL     1      -7.338  12.563  67.061  1.00  0.00    -0.099 OA 
HETATM   36  C   UNL     1      -8.486  12.267  67.320  1.00  0.00    -0.181 C  
HETATM   37  C   UNL     1      -9.605  12.252  66.391  1.00  0.00    -0.242 A  
BRANCH  23  38
HETATM   38  C   UNL     1      -9.995   6.894  68.397  1.00  0.00    -0.147 C  
BRANCH  38  39
HETATM   39  N   UNL     1      -8.933   6.188  69.178  1.00  0.00    -0.126 NA 
BRANCH  39  40
HETATM   40  C   UNL     1      -9.295   4.732  69.248  1.00  0.00    -0.135 C  
HETATM   41  O   UNL     1      -8.362   3.001  70.686  1.00  0.00    -0.054 OA 
HETATM   42  C   UNL     1      -8.870   4.109  70.572  1.00  0.00    -0.082 C  
HETATM   43  O   UNL     1      -9.133   4.918  71.629  1.00  0.00    -0.135 OA 
ENDBRANCH  39  40
BRANCH  39  44
HETATM   44  C   UNL     1      -7.644   6.288  68.387  1.00  0.00    -0.096 C  
HETATM   45  C   UNL     1      -6.682   7.333  68.949  1.00  0.00    -0.060 C  
HETATM   46  O   UNL     1      -5.847   7.923  68.279  1.00  0.00    -0.034 OA 
HETATM   47  O   UNL     1      -6.807   7.510  70.291  1.00  0.00    -0.046 OA 
ENDBRANCH  39  44
ENDBRANCH  38  39
ENDBRANCH  23  38
ENDBRANCH  10  11
ENDBRANCH   5  10
ENDBRANCH   4   5
TORSDOF 8
ENDMDL
MODEL       20
REMARK 921   NORMALIZED FREE ENERGY PREDICTED BY IDOCK:   -6.83 KCAL/MOL
REMARK 922        TOTAL FREE ENERGY PREDICTED BY IDOCK:  -12.30 KCAL/MOL
REMARK 923 INTER-LIGAND FREE ENERGY PREDICTED BY IDOCK:  -10.35 KCAL/MOL
REMARK 924 INTRA-LIGAND FREE ENERGY PREDICTED BY IDOCK:   -1.95 KCAL/MOL
REMARK 927      BINDING AFFINITY PREDICTED BY RF-SCORE:    0.00 PKD
ROOT
HETATM    1  O   UNL     1      -9.441   2.815  69.705  1.00  0.00    -0.144 OA 
HETATM    2  C   UNL     1      -8.367   3.039  68.914  1.00  0.00    -0.060 C  
HETATM    3  O   UNL     1      -7.561   2.164  68.635  1.00  0.00    -0.046 OA 
HETATM    4  C   UNL     1      -8.313   4.458  68.358  1.00  0.00    -0.089 C  
ENDROOT
BRANCH   4   5
HETATM    5  N   UNL     1      -8.880   5.509  69.295  1.00  0.00    -0.106 NA 
BRANCH   5   6
HETATM    6  C   UNL     1      -7.855   6.618  69.393  1.00  0.00    -0.113 C  
HETATM    7  O   UNL     1      -8.238   6.454  71.776  1.00  0.00    -0.112 OA 
HETATM    8  C   UNL     1      -7.709   7.214  70.792  1.00  0.00    -0.094 C  
HETATM    9  O   UNL     1      -7.110   8.256  71.017  1.00  0.00    -0.048 OA 
ENDBRANCH   5   6
BRANCH   5  10
HETATM   10  C   UNL     1     -10.111   6.058  68.598  1.00  0.00    -0.168 C  
BRANCH  10  11
HETATM   11  C   UNL     1     -10.676   7.310  69.251  1.00  0.00    -0.212 A  
HETATM   12  C   UNL     1     -10.626   8.523  68.563  1.00  0.00    -0.154 A  
HETATM   13  C   UNL     1     -11.030   9.738  69.158  1.00  0.00    -0.205 A  
HETATM   14  C   UNL     1     -11.633   9.721  70.412  1.00  0.00    -0.258 A  
HETATM   15  C   UNL     1     -11.738   8.506  71.102  1.00  0.00    -0.322 A  
HETATM   16  O   UNL     1     -12.146  10.849  71.021  1.00  0.00    -0.338 OA 
HETATM   17  C   UNL     1     -12.033  12.069  70.381  1.00  0.00    -0.291 A  
HETATM   18  C   UNL     1     -11.241   7.323  70.530  1.00  0.00    -0.279 A  
HETATM   19  O   UNL     1     -11.290   6.149  71.226  1.00  0.00    -0.292 OA 
HETATM   20  C   UNL     1     -12.659  13.176  70.974  1.00  0.00    -0.397 A  
HETATM   21  C   UNL     1     -12.568  14.450  70.382  1.00  0.00    -0.345 A  
HETATM   22  H   UNL     1     -11.674   6.157  72.095  1.00  0.00     0.000 HD 
HETATM   23  C   UNL     1     -11.821  14.652  69.220  1.00  0.00    -0.357 A  
HETATM   24  O   UNL     1     -13.229  15.515  70.928  1.00  0.00    -0.552 OA 
HETATM   25  C   UNL     1      -9.299  11.219  68.149  1.00  0.00    -0.181 A  
HETATM   26  H   UNL     1     -13.168  16.375  70.529  1.00  0.00     0.000 HD 
HETATM   27  C   UNL     1     -11.192  13.534  68.654  1.00  0.00    -0.311 A  
HETATM   28  C   UNL     1      -8.209  11.434  68.980  1.00  0.00     0.015 A  
HETATM   29  C   UNL     1     -11.326  12.240  69.194  1.00  0.00    -0.330 A  
HETATM   30  C   UNL     1     -10.751  11.051  68.472  1.00  0.00    -0.202 C  
HETATM   31  C   UNL     1      -6.951  11.563  68.388  1.00  0.00    -0.077 A  
HETATM   32  C   UNL     1      -6.799  11.462  66.994  1.00  0.00    -0.137 A  
HETATM   33  O   UNL     1     -11.366  10.978  67.158  1.00  0.00    -0.399 OA 
HETATM   34  C   UNL     1      -7.902  11.231  66.172  1.00  0.00    -0.016 A  
HETATM   35  O   UNL     1     -10.646  10.658  64.994  1.00  0.00    -0.255 OA 
HETATM   36  C   UNL     1     -10.436  10.904  66.164  1.00  0.00    -0.229 C  
HETATM   37  C   UNL     1      -9.137  11.126  66.781  1.00  0.00    -0.174 A  
BRANCH  23  38
HETATM   38  C   UNL     1     -11.778  15.944  68.423  1.00  0.00    -0.241 C  
BRANCH  38  39
HETATM   39  N   UNL     1     -10.448  16.423  67.935  1.00  0.00    -0.297 NA 
BRANCH  39  40
HETATM   40  C   UNL     1     -10.593  17.859  67.518  1.00  0.00    -0.376 C  
HETATM   41  O   UNL     1      -9.439  19.046  65.732  1.00  0.00    -0.399 OA 
HETATM   42  C   UNL     1     -10.102  18.083  66.093  1.00  0.00    -0.334 C  
HETATM   43  O   UNL     1     -10.498  17.096  65.250  1.00  0.00    -0.655 OA 
ENDBRANCH  39  40
BRANCH  39  44
HETATM   44  C   UNL     1      -9.494  16.396  69.111  1.00  0.00    -0.236 C  
HETATM   45  C   UNL     1      -8.252  15.546  68.850  1.00  0.00    -0.201 C  
HETATM   46  O   UNL     1      -7.605  14.994  69.727  1.00  0.00    -0.194 OA 
HETATM   47  O   UNL     1      -7.898  15.504  67.538  1.00  0.00    -0.139 OA 
ENDBRANCH  39  44
ENDBRANCH  38  39
ENDBRANCH  23  38
ENDBRANCH  10  11
ENDBRANCH   5  10
ENDBRANCH   4   5
TORSDOF 8
ENDMDL
MODEL       21
REMARK 921   NORMALIZED FREE ENERGY PREDICTED BY IDOCK:   -6.82 KCAL/MOL
REMARK 922        TOTAL FREE ENERGY PREDICTED BY IDOCK:  -12.28 KCAL/MOL
REMARK 923 INTER-LIGAND FREE ENERGY PREDICTED BY IDOCK:   -9.96 KCAL/MOL
REMARK 924 INTRA-LIGAND FREE ENERGY PREDICTED BY IDOCK:   -2.32 KCAL/MOL
REMARK 927      BINDING AFFINITY PREDICTED BY RF-SCORE:    0.00 PKD
ROOT
HETATM    1  O   UNL     1     -13.110  14.418  65.191  1.00  0.00    -0.633 OA 
HETATM    2  C   UNL     1     -12.149  15.129  64.559  1.00  0.00    -0.301 C  
HETATM    3  O   UNL     1     -12.404  15.980  63.719  1.00  0.00    -0.858 OA 
HETATM    4  C   UNL     1     -10.742  14.813  65.052  1.00  0.00    -0.433 C  
ENDROOT
BRANCH   4   5
HETATM    5  N   UNL     1     -10.550  13.370  65.483  1.00  0.00    -0.283 NA 
BRANCH   5   6
HETATM    6  C   UNL     1      -9.752  12.682  64.396  1.00  0.00     0.092 C  
HETATM    7  O   UNL     1     -11.879  11.725  63.755  1.00  0.00    -0.422 OA 
HETATM    8  C   UNL     1     -10.539  11.636  63.608  1.00  0.00    -0.433 C  
HETATM    9  O   UNL     1     -10.013  10.827  62.858  1.00  0.00    -0.307 OA 
ENDBRANCH   5   6
BRANCH   5  10
HETATM   10  C   UNL     1      -9.695  13.427  66.736  1.00  0.00    -0.262 C  
BRANCH  10  11
HETATM   11  C   UNL     1     -10.211  12.552  67.868  1.00  0.00    -0.219 A  
HETATM   12  C   UNL     1      -9.360  11.612  68.449  1.00  0.00    -0.191 A  
HETATM   13  C   UNL     1      -9.812  10.696  69.424  1.00  0.00    -0.164 A  
HETATM   14  C   UNL     1     -11.100  10.818  69.936  1.00  0.00    -0.271 A  
HETATM   15  C   UNL     1     -11.957  11.788  69.402  1.00  0.00    -0.361 A  
HETATM   16  O   UNL     1     -11.585  10.029  70.960  1.00  0.00    -0.343 OA 
HETATM   17  C   UNL     1     -10.776   9.042  71.491  1.00  0.00    -0.351 A  
HETATM   18  C   UNL     1     -11.517  12.626  68.363  1.00  0.00    -0.310 A  
HETATM   19  O   UNL     1     -12.370  13.532  67.802  1.00  0.00    -0.299 OA 
HETATM   20  C   UNL     1     -11.257   8.331  72.601  1.00  0.00    -0.410 A  
HETATM   21  C   UNL     1     -10.490   7.303  73.179  1.00  0.00    -0.339 A  
HETATM   22  H   UNL     1     -13.258  13.583  68.139  1.00  0.00     0.000 HD 
HETATM   23  C   UNL     1      -9.255   6.936  72.638  1.00  0.00    -0.151 A  
HETATM   24  O   UNL     1     -10.934   6.652  74.296  1.00  0.00    -0.283 OA 
HETATM   25  C   UNL     1      -8.474   8.722  68.703  1.00  0.00    -0.129 A  
HETATM   26  H   UNL     1     -10.416   5.957  74.686  1.00  0.00     0.000 HD 
HETATM   27  C   UNL     1      -8.801   7.651  71.521  1.00  0.00    -0.138 A  
HETATM   28  C   UNL     1      -9.177   7.852  67.883  1.00  0.00    -0.139 A  
HETATM   29  C   UNL     1      -9.525   8.726  70.970  1.00  0.00    -0.287 A  
HETATM   30  C   UNL     1      -8.931   9.553  69.861  1.00  0.00    -0.212 C  
HETATM   31  C   UNL     1      -8.475   7.196  66.870  1.00  0.00    -0.123 A  
HETATM   32  C   UNL     1      -7.101   7.426  66.682  1.00  0.00    -0.075 A  
HETATM   33  O   UNL     1      -7.693  10.138  70.345  1.00  0.00    -0.230 OA 
HETATM   34  C   UNL     1      -6.409   8.315  67.505  1.00  0.00    -0.057 A  
HETATM   35  O   UNL     1      -5.543  10.386  69.556  1.00  0.00    -0.038 OA 
HETATM   36  C   UNL     1      -6.648   9.885  69.507  1.00  0.00    -0.051 C  
HETATM   37  C   UNL     1      -7.123   8.936  68.511  1.00  0.00    -0.072 A  
BRANCH  23  38
HETATM   38  C   UNL     1      -8.287   5.949  73.266  1.00  0.00    -0.116 C  
BRANCH  38  39
HETATM   39  N   UNL     1      -8.140   4.606  72.624  1.00  0.00    -0.098 NA 
BRANCH  39  40
HETATM   40  C   UNL     1      -6.699   4.196  72.723  1.00  0.00    -0.046 C  
HETATM   41  O   UNL     1      -5.627   2.187  71.857  1.00  0.00    -0.007 OA 
HETATM   42  C   UNL     1      -6.332   3.168  71.659  1.00  0.00    -0.015 C  
HETATM   43  O   UNL     1      -6.862   3.469  70.447  1.00  0.00    -0.033 OA 
ENDBRANCH  39  40
BRANCH  39  44
HETATM   44  C   UNL     1      -8.941   3.617  73.447  1.00  0.00    -0.094 C  
HETATM   45  C   UNL     1     -10.161   3.077  72.704  1.00  0.00    -0.156 C  
HETATM   46  O   UNL     1     -11.174   2.673  73.256  1.00  0.00    -0.168 OA 
HETATM   47  O   UNL     1      -9.993   3.037  71.356  1.00  0.00    -0.144 OA 
ENDBRANCH  39  44
ENDBRANCH  38  39
ENDBRANCH  23  38
ENDBRANCH  10  11
ENDBRANCH   5  10
ENDBRANCH   4   5
TORSDOF 8
ENDMDL
MODEL       22
REMARK 921   NORMALIZED FREE ENERGY PREDICTED BY IDOCK:   -6.81 KCAL/MOL
REMARK 922        TOTAL FREE ENERGY PREDICTED BY IDOCK:  -12.26 KCAL/MOL
REMARK 923 INTER-LIGAND FREE ENERGY PREDICTED BY IDOCK:   -9.88 KCAL/MOL
REMARK 924 INTRA-LIGAND FREE ENERGY PREDICTED BY IDOCK:   -2.39 KCAL/MOL
REMARK 927      BINDING AFFINITY PREDICTED BY RF-SCORE:    0.00 PKD
ROOT
HETATM    1  O   UNL     1     -10.575   4.601  65.755  1.00  0.00    -0.301 OA 
HETATM    2  C   UNL     1      -9.448   3.905  65.481  1.00  0.00    -0.171 C  
HETATM    3  O   UNL     1      -9.415   2.684  65.467  1.00  0.00    -0.086 OA 
HETATM    4  C   UNL     1      -8.262   4.794  65.125  1.00  0.00    -0.121 C  
ENDROOT
BRANCH   4   5
HETATM    5  N   UNL     1      -8.251   6.127  65.851  1.00  0.00    -0.124 NA 
BRANCH   5   6
HETATM    6  C   UNL     1      -7.559   5.906  67.179  1.00  0.00    -0.096 C  
HETATM    7  O   UNL     1      -9.360   7.245  68.083  1.00  0.00    -0.132 OA 
HETATM    8  C   UNL     1      -8.137   6.728  68.331  1.00  0.00    -0.119 C  
HETATM    9  O   UNL     1      -7.575   6.857  69.409  1.00  0.00    -0.095 OA 
ENDBRANCH   5   6
BRANCH   5  10
HETATM   10  C   UNL     1      -7.383   7.045  65.009  1.00  0.00    -0.083 C  
BRANCH  10  11
HETATM   11  C   UNL     1      -8.073   8.341  64.610  1.00  0.00    -0.150 A  
HETATM   12  C   UNL     1      -8.168   9.379  65.537  1.00  0.00    -0.127 A  
HETATM   13  C   UNL     1      -8.892  10.561  65.265  1.00  0.00    -0.205 A  
HETATM   14  C   UNL     1      -9.407  10.772  63.990  1.00  0.00    -0.252 A  
HETATM   15  C   UNL     1      -9.281   9.762  63.028  1.00  0.00    -0.226 A  
HETATM   16  O   UNL     1     -10.040  11.940  63.613  1.00  0.00    -0.365 OA 
HETATM   17  C   UNL     1     -10.207  12.946  64.545  1.00  0.00    -0.310 A  
HETATM   18  C   UNL     1      -8.640   8.554  63.350  1.00  0.00     0.055 A  
HETATM   19  O   UNL     1      -8.568   7.547  62.431  1.00  0.00    -0.376 OA 
HETATM   20  C   UNL     1     -10.754  14.160  64.104  1.00  0.00     0.260 A  
HETATM   21  C   UNL     1     -10.966  15.219  65.007  1.00  0.00    -0.437 A  
HETATM   22  H   UNL     1      -8.954   7.691  61.574  1.00  0.00     0.000 HD 
HETATM   23  C   UNL     1     -10.679  15.074  66.366  1.00  0.00    -0.322 A  
HETATM   24  O   UNL     1     -11.443  16.422  64.563  1.00  0.00    -0.610 OA 
HETATM   25  C   UNL     1      -9.841  10.926  67.539  1.00  0.00    -0.192 A  
HETATM   26  H   UNL     1     -11.586  17.136  65.173  1.00  0.00     0.000 HD 
HETATM   27  C   UNL     1     -10.146  13.847  66.786  1.00  0.00    -0.265 A  
HETATM   28  C   UNL     1     -11.131  10.435  67.681  1.00  0.00    -0.361 A  
HETATM   29  C   UNL     1      -9.865  12.800  65.887  1.00  0.00    -0.243 A  
HETATM   30  C   UNL     1      -9.163  11.557  66.363  1.00  0.00    -0.208 C  
HETATM   31  C   UNL     1     -11.495   9.900  68.918  1.00  0.00     0.022 A  
HETATM   32  C   UNL     1     -10.574   9.850  69.979  1.00  0.00    -0.335 A  
HETATM   33  O   UNL     1      -7.873  11.946  66.907  1.00  0.00    -0.160 OA 
HETATM   34  C   UNL     1      -9.275  10.335  69.818  1.00  0.00    -0.101 A  
HETATM   35  O   UNL     1      -6.646  11.467  68.796  1.00  0.00    -0.055 OA 
HETATM   36  C   UNL     1      -7.683  11.457  68.165  1.00  0.00    -0.118 C  
HETATM   37  C   UNL     1      -8.947  10.875  68.590  1.00  0.00    -0.162 A  
BRANCH  23  38
HETATM   38  C   UNL     1     -10.731  16.192  67.392  1.00  0.00    -0.291 C  
BRANCH  38  39
HETATM   39  N   UNL     1      -9.914  17.418  67.136  1.00  0.00    -0.281 NA 
BRANCH  39  40
HETATM   40  C   UNL     1     -10.609  18.585  67.775  1.00  0.00    -0.385 C  
HETATM   41  O   UNL     1     -10.134  20.961  67.524  1.00  0.00    -0.297 OA 
HETATM   42  C   UNL     1     -10.365  19.877  67.004  1.00  0.00    -0.461 C  
HETATM   43  O   UNL     1     -10.448  19.699  65.662  1.00  0.00    -0.464 OA 
ENDBRANCH  39  40
BRANCH  39  44
HETATM   44  C   UNL     1      -8.590  17.242  67.852  1.00  0.00    -0.223 C  
HETATM   45  C   UNL     1      -7.410  17.094  66.893  1.00  0.00    -0.207 C  
HETATM   46  O   UNL     1      -6.379  16.497  67.166  1.00  0.00    -0.159 OA 
HETATM   47  O   UNL     1      -7.595  17.741  65.713  1.00  0.00    -0.536 OA 
ENDBRANCH  39  44
ENDBRANCH  38  39
ENDBRANCH  23  38
ENDBRANCH  10  11
ENDBRANCH   5  10
ENDBRANCH   4   5
TORSDOF 8
ENDMDL
MODEL       23
REMARK 921   NORMALIZED FREE ENERGY PREDICTED BY IDOCK:   -6.72 KCAL/MOL
REMARK 922        TOTAL FREE ENERGY PREDICTED BY IDOCK:  -12.14 KCAL/MOL
REMARK 923 INTER-LIGAND FREE ENERGY PREDICTED BY IDOCK:  -10.72 KCAL/MOL
REMARK 924 INTRA-LIGAND FREE ENERGY PREDICTED BY IDOCK:   -1.41 KCAL/MOL
REMARK 927      BINDING AFFINITY PREDICTED BY RF-SCORE:    0.00 PKD
ROOT
HETATM    1  O   UNL     1      -6.683  17.112  66.317  1.00  0.00    -0.234 OA 
HETATM    2  C   UNL     1      -6.507  16.820  67.626  1.00  0.00    -0.149 C  
HETATM    3  O   UNL     1      -5.578  16.137  68.029  1.00  0.00    -0.099 OA 
HETATM    4  C   UNL     1      -7.536  17.483  68.535  1.00  0.00    -0.264 C  
ENDROOT
BRANCH   4   5
HETATM    5  N   UNL     1      -8.906  17.643  67.902  1.00  0.00    -0.241 NA 
BRANCH   5   6
HETATM    6  C   UNL     1      -8.799  18.757  66.883  1.00  0.00    -0.294 C  
HETATM    7  O   UNL     1     -11.007  19.371  67.659  1.00  0.00    -0.429 OA 
HETATM    8  C   UNL     1     -10.092  19.546  66.680  1.00  0.00    -0.420 C  
HETATM    9  O   UNL     1     -10.266  20.319  65.749  1.00  0.00    -0.399 OA 
ENDBRANCH   5   6
BRANCH   5  10
HETATM   10  C   UNL     1      -9.169  16.344  67.162  1.00  0.00    -0.213 C  
BRANCH  10  11
HETATM   11  C   UNL     1      -9.935  15.317  67.983  1.00  0.00    -0.224 A  
HETATM   12  C   UNL     1      -9.495  13.993  68.004  1.00  0.00    -0.206 A  
HETATM   13  C   UNL     1     -10.224  12.974  68.655  1.00  0.00    -0.173 A  
HETATM   14  C   UNL     1     -11.336  13.308  69.422  1.00  0.00    -0.219 A  
HETATM   15  C   UNL     1     -11.767  14.640  69.455  1.00  0.00    -0.355 A  
HETATM   16  O   UNL     1     -12.044  12.387  70.169  1.00  0.00    -0.335 OA 
HETATM   17  C   UNL     1     -11.664  11.059  70.137  1.00  0.00    -0.356 A  
HETATM   18  C   UNL     1     -11.082  15.623  68.721  1.00  0.00    -0.307 A  
HETATM   19  O   UNL     1     -11.536  16.911  68.706  1.00  0.00    -0.137 OA 
HETATM   20  C   UNL     1     -12.334  10.168  70.990  1.00  0.00    -0.474 A  
HETATM   21  C   UNL     1     -12.005   8.799  70.993  1.00  0.00    -0.251 A  
HETATM   22  H   UNL     1     -12.316  17.119  69.208  1.00  0.00     0.000 HD 
HETATM   23  C   UNL     1     -11.040   8.288  70.123  1.00  0.00    -0.189 A  
HETATM   24  O   UNL     1     -12.617   7.944  71.868  1.00  0.00    -0.309 OA 
HETATM   25  C   UNL     1      -9.804  11.140  67.021  1.00  0.00    -0.212 A  
HETATM   26  H   UNL     1     -12.396   7.020  71.870  1.00  0.00     0.000 HD 
HETATM   27  C   UNL     1     -10.395   9.195  69.270  1.00  0.00    -0.223 A  
HETATM   28  C   UNL     1     -10.830  10.978  66.101  1.00  0.00    -0.212 A  
HETATM   29  C   UNL     1     -10.662  10.577  69.299  1.00  0.00    -0.269 A  
HETATM   30  C   UNL     1      -9.844  11.527  68.466  1.00  0.00    -0.195 C  
HETATM   31  C   UNL     1     -10.490  10.597  64.801  1.00  0.00    -0.280 A  
HETATM   32  C   UNL     1      -9.146  10.400  64.439  1.00  0.00    -0.267 A  
HETATM   33  O   UNL     1      -8.454  11.402  68.871  1.00  0.00    -0.123 OA 
HETATM   34  C   UNL     1      -8.123  10.580  65.370  1.00  0.00    -0.141 A  
HETATM   35  O   UNL     1      -6.419  11.201  67.811  1.00  0.00    -0.060 OA 
HETATM   36  C   UNL     1      -7.633  11.174  67.807  1.00  0.00    -0.100 C  
HETATM   37  C   UNL     1      -8.488  10.939  66.653  1.00  0.00    -0.151 A  
BRANCH  23  38
HETATM   38  C   UNL     1     -10.509   6.866  70.147  1.00  0.00    -0.209 C  
BRANCH  38  39
HETATM   39  N   UNL     1     -10.288   6.222  71.479  1.00  0.00    -0.201 NA 
BRANCH  39  40
HETATM   40  C   UNL     1     -10.046   4.757  71.255  1.00  0.00    -0.188 C  
HETATM   41  O   UNL     1      -9.521   3.036  72.897  1.00  0.00    -0.090 OA 
HETATM   42  C   UNL     1     -10.246   3.952  72.534  1.00  0.00    -0.164 C  
HETATM   43  O   UNL     1     -11.341   4.354  73.229  1.00  0.00    -0.279 OA 
ENDBRANCH  39  40
BRANCH  39  44
HETATM   44  C   UNL     1      -9.013   6.800  72.058  1.00  0.00    -0.138 C  
HETATM   45  C   UNL     1      -9.269   7.757  73.221  1.00  0.00    -0.258 C  
HETATM   46  O   UNL     1      -8.518   8.670  73.532  1.00  0.00    -0.370 OA 
HETATM   47  O   UNL     1     -10.396   7.461  73.920  1.00  0.00    -0.317 OA 
ENDBRANCH  39  44
ENDBRANCH  38  39
ENDBRANCH  23  38
ENDBRANCH  10  11
ENDBRANCH   5  10
ENDBRANCH   4   5
TORSDOF 8
ENDMDL
MODEL       24
REMARK 921   NORMALIZED FREE ENERGY PREDICTED BY IDOCK:   -6.64 KCAL/MOL
REMARK 922        TOTAL FREE ENERGY PREDICTED BY IDOCK:  -12.01 KCAL/MOL
REMARK 923 INTER-LIGAND FREE ENERGY PREDICTED BY IDOCK:   -9.85 KCAL/MOL
REMARK 924 INTRA-LIGAND FREE ENERGY PREDICTED BY IDOCK:   -2.16 KCAL/MOL
REMARK 927      BINDING AFFINITY PREDICTED BY RF-SCORE:    0.00 PKD
ROOT
HETATM    1  O   UNL     1      -7.414  16.089  69.515  1.00  0.00    -0.222 OA 
HETATM    2  C   UNL     1      -6.543  16.689  68.673  1.00  0.00    -0.159 C  
HETATM    3  O   UNL     1      -5.441  17.078  69.032  1.00  0.00    -0.139 OA 
HETATM    4  C   UNL     1      -7.046  16.761  67.236  1.00  0.00    -0.173 C  
ENDROOT
BRANCH   4   5
HETATM    5  N   UNL     1      -8.551  16.921  67.117  1.00  0.00    -0.192 NA 
BRANCH   5   6
HETATM    6  C   UNL     1      -8.803  18.079  66.174  1.00  0.00    -0.085 C  
HETATM    7  O   UNL     1     -10.186  18.939  67.963  1.00  0.00    -0.354 OA 
HETATM    8  C   UNL     1      -9.879  19.053  66.652  1.00  0.00    -0.355 C  
HETATM    9  O   UNL     1     -10.376  19.907  65.933  1.00  0.00    -0.495 OA 
ENDBRANCH   5   6
BRANCH   5  10
HETATM   10  C   UNL     1      -9.047  15.650  66.451  1.00  0.00    -0.320 C  
BRANCH  10  11
HETATM   11  C   UNL     1      -9.840  14.744  67.381  1.00  0.00    -0.222 A  
HETATM   12  C   UNL     1      -9.323  13.494  67.723  1.00  0.00    -0.213 A  
HETATM   13  C   UNL     1     -10.060  12.565  68.490  1.00  0.00    -0.186 A  
HETATM   14  C   UNL     1     -11.276  12.946  69.048  1.00  0.00    -0.267 A  
HETATM   15  C   UNL     1     -11.792  14.215  68.757  1.00  0.00    -0.384 A  
HETATM   16  O   UNL     1     -12.010  12.134  69.890  1.00  0.00    -0.319 OA 
HETATM   17  C   UNL     1     -11.545  10.864  70.175  1.00  0.00    -0.338 A  
HETATM   18  C   UNL     1     -11.086  15.089  67.913  1.00  0.00    -0.307 A  
HETATM   19  O   UNL     1     -11.616  16.303  67.582  1.00  0.00    -0.016 OA 
HETATM   20  C   UNL     1     -12.256  10.105  71.117  1.00  0.00    -0.490 A  
HETATM   21  C   UNL     1     -11.844   8.799  71.440  1.00  0.00    -0.308 A  
HETATM   22  H   UNL     1     -12.463  16.538  67.943  1.00  0.00     0.000 HD 
HETATM   23  C   UNL     1     -10.749   8.211  70.803  1.00  0.00    -0.242 A  
HETATM   24  O   UNL     1     -12.502   8.084  72.403  1.00  0.00    -0.483 OA 
HETATM   25  C   UNL     1      -9.326  10.487  67.327  1.00  0.00    -0.164 A  
HETATM   26  H   UNL     1     -12.224   7.202  72.621  1.00  0.00     0.000 HD 
HETATM   27  C   UNL     1     -10.063   8.983  69.855  1.00  0.00    -0.213 A  
HETATM   28  C   UNL     1     -10.219  10.056  66.357  1.00  0.00    -0.290 A  
HETATM   29  C   UNL     1     -10.419  10.315  69.567  1.00  0.00    -0.268 A  
HETATM   30  C   UNL     1      -9.567  11.149  68.648  1.00  0.00    -0.196 C  
HETATM   31  C   UNL     1      -9.698   9.456  65.208  1.00  0.00    -0.184 A  
HETATM   32  C   UNL     1      -8.311   9.309  65.041  1.00  0.00    -0.160 A  
HETATM   33  O   UNL     1      -8.233  11.228  69.216  1.00  0.00    -0.016 OA 
HETATM   34  C   UNL     1      -7.423   9.759  66.018  1.00  0.00    -0.102 A  
HETATM   35  O   UNL     1      -6.075  11.000  68.444  1.00  0.00    -0.043 OA 
HETATM   36  C   UNL     1      -7.274  10.866  68.317  1.00  0.00    -0.084 C  
HETATM   37  C   UNL     1      -7.965  10.332  67.152  1.00  0.00    -0.114 A  
BRANCH  23  38
HETATM   38  C   UNL     1     -10.135   6.874  71.179  1.00  0.00    -0.191 C  
BRANCH  38  39
HETATM   39  N   UNL     1      -9.834   5.907  70.078  1.00  0.00    -0.168 NA 
BRANCH  39  40
HETATM   40  C   UNL     1      -9.737   4.533  70.677  1.00  0.00    -0.212 C  
HETATM   41  O   UNL     1      -8.306   2.680  70.006  1.00  0.00    -0.041 OA 
HETATM   42  C   UNL     1      -8.418   3.857  70.324  1.00  0.00    -0.060 C  
HETATM   43  O   UNL     1      -7.363   4.706  70.415  1.00  0.00    -0.048 OA 
ENDBRANCH  39  40
BRANCH  39  44
HETATM   44  C   UNL     1     -11.024   5.899  69.140  1.00  0.00    -0.312 C  
HETATM   45  C   UNL     1     -10.638   6.180  67.689  1.00  0.00    -0.270 C  
HETATM   46  O   UNL     1     -11.391   6.678  66.866  1.00  0.00    -0.333 OA 
HETATM   47  O   UNL     1      -9.379   5.769  67.380  1.00  0.00    -0.112 OA 
ENDBRANCH  39  44
ENDBRANCH  38  39
ENDBRANCH  23  38
ENDBRANCH  10  11
ENDBRANCH   5  10
ENDBRANCH   4   5
TORSDOF 8
ENDMDL
MODEL       25
REMARK 921   NORMALIZED FREE ENERGY PREDICTED BY IDOCK:   -6.61 KCAL/MOL
REMARK 922        TOTAL FREE ENERGY PREDICTED BY IDOCK:  -11.97 KCAL/MOL
REMARK 923 INTER-LIGAND FREE ENERGY PREDICTED BY IDOCK:  -10.05 KCAL/MOL
REMARK 924 INTRA-LIGAND FREE ENERGY PREDICTED BY IDOCK:   -1.92 KCAL/MOL
REMARK 927      BINDING AFFINITY PREDICTED BY RF-SCORE:    0.00 PKD
ROOT
HETATM    1  O   UNL     1      -9.902   2.882  70.496  1.00  0.00    -0.081 OA 
HETATM    2  C   UNL     1      -8.824   2.983  69.685  1.00  0.00    -0.087 C  
HETATM    3  O   UNL     1      -8.035   2.065  69.520  1.00  0.00    -0.042 OA 
HETATM    4  C   UNL     1      -8.742   4.320  68.956  1.00  0.00    -0.086 C  
ENDROOT
BRANCH   4   5
HETATM    5  N   UNL     1      -9.288   5.491  69.753  1.00  0.00    -0.138 NA 
BRANCH   5   6
HETATM    6  C   UNL     1      -8.145   6.462  69.958  1.00  0.00    -0.121 C  
HETATM    7  O   UNL     1      -8.560   6.101  72.314  1.00  0.00    -0.120 OA 
HETATM    8  C   UNL     1      -7.942   6.893  71.410  1.00  0.00    -0.108 C  
HETATM    9  O   UNL     1      -7.231   7.832  71.737  1.00  0.00    -0.061 OA 
ENDBRANCH   5   6
BRANCH   5  10
HETATM   10  C   UNL     1     -10.319   6.152  68.855  1.00  0.00    -0.208 C  
BRANCH  10  11
HETATM   11  C   UNL     1     -10.820   7.488  69.382  1.00  0.00    -0.161 A  
HETATM   12  C   UNL     1     -10.653   8.636  68.606  1.00  0.00    -0.165 A  
HETATM   13  C   UNL     1     -10.996   9.919  69.086  1.00  0.00    -0.233 A  
HETATM   14  C   UNL     1     -11.653  10.043  70.306  1.00  0.00    -0.280 A  
HETATM   15  C   UNL     1     -11.875   8.897  71.081  1.00  0.00    -0.353 A  
HETATM   16  O   UNL     1     -12.110  11.248  70.801  1.00  0.00    -0.356 OA 
HETATM   17  C   UNL     1     -11.883  12.403  70.076  1.00  0.00    -0.288 A  
HETATM   18  C   UNL     1     -11.439   7.641  70.626  1.00  0.00    -0.258 A  
HETATM   19  O   UNL     1     -11.603   6.532  71.407  1.00  0.00    -0.292 OA 
HETATM   20  C   UNL     1     -12.454  13.593  70.550  1.00  0.00    -0.394 A  
HETATM   21  C   UNL     1     -12.246  14.807  69.868  1.00  0.00    -0.311 A  
HETATM   22  H   UNL     1     -12.023   6.636  72.253  1.00  0.00     0.000 HD 
HETATM   23  C   UNL     1     -11.436  14.864  68.732  1.00  0.00    -0.328 A  
HETATM   24  O   UNL     1     -12.853  15.955  70.298  1.00  0.00    -0.612 OA 
HETATM   25  C   UNL     1      -9.121  11.194  68.054  1.00  0.00    -0.153 A  
HETATM   26  H   UNL     1     -12.713  16.774  69.837  1.00  0.00     0.000 HD 
HETATM   27  C   UNL     1     -10.864  13.664  68.285  1.00  0.00    -0.268 A  
HETATM   28  C   UNL     1      -8.056  11.401  68.919  1.00  0.00    -0.067 A  
HETATM   29  C   UNL     1     -11.114  12.430  68.916  1.00  0.00    -0.307 A  
HETATM   30  C   UNL     1     -10.594  11.151  68.316  1.00  0.00    -0.190 C  
HETATM   31  C   UNL     1      -6.766  11.396  68.381  1.00  0.00    -0.065 A  
HETATM   32  C   UNL     1      -6.561  11.174  67.009  1.00  0.00    -0.108 A  
HETATM   33  O   UNL     1     -11.154  11.015  66.983  1.00  0.00    -0.288 OA 
HETATM   34  C   UNL     1      -7.640  10.953  66.153  1.00  0.00    -0.119 A  
HETATM   35  O   UNL     1     -10.363  10.475  64.888  1.00  0.00    -0.328 OA 
HETATM   36  C   UNL     1     -10.189  10.799  66.045  1.00  0.00    -0.251 C  
HETATM   37  C   UNL     1      -8.905  10.981  66.707  1.00  0.00    -0.158 A  
BRANCH  23  38
HETATM   38  C   UNL     1     -11.266  16.083  67.842  1.00  0.00    -0.276 C  
BRANCH  38  39
HETATM   39  N   UNL     1      -9.927  16.750  67.814  1.00  0.00    -0.261 NA 
BRANCH  39  40
HETATM   40  C   UNL     1      -9.056  16.007  66.842  1.00  0.00    -0.228 C  
HETATM   41  O   UNL     1      -6.642  15.687  66.904  1.00  0.00    -0.258 OA 
HETATM   42  C   UNL     1      -7.724  15.610  67.469  1.00  0.00    -0.168 C  
HETATM   43  O   UNL     1      -7.870  15.141  68.734  1.00  0.00    -0.128 OA 
ENDBRANCH  39  40
BRANCH  39  44
HETATM   44  C   UNL     1     -10.124  18.145  67.258  1.00  0.00    -0.347 C  
HETATM   45  C   UNL     1      -9.498  19.228  68.135  1.00  0.00    -0.346 C  
HETATM   46  O   UNL     1      -9.893  20.384  68.181  1.00  0.00    -0.315 OA 
HETATM   47  O   UNL     1      -8.411  18.795  68.827  1.00  0.00    -0.335 OA 
ENDBRANCH  39  44
ENDBRANCH  38  39
ENDBRANCH  23  38
ENDBRANCH  10  11
ENDBRANCH   5  10
ENDBRANCH   4   5
TORSDOF 8
ENDMDL
MODEL       26
REMARK 921   NORMALIZED FREE ENERGY PREDICTED BY IDOCK:   -6.58 KCAL/MOL
REMARK 922        TOTAL FREE ENERGY PREDICTED BY IDOCK:  -11.92 KCAL/MOL
REMARK 923 INTER-LIGAND FREE ENERGY PREDICTED BY IDOCK:   -9.36 KCAL/MOL
REMARK 924 INTRA-LIGAND FREE ENERGY PREDICTED BY IDOCK:   -2.56 KCAL/MOL
REMARK 927      BINDING AFFINITY PREDICTED BY RF-SCORE:    0.00 PKD
ROOT
HETATM    1  O   UNL     1      -8.311   4.121  64.444  1.00  0.00    -0.097 OA 
HETATM    2  C   UNL     1      -7.327   3.361  64.977  1.00  0.00    -0.072 C  
HETATM    3  O   UNL     1      -7.325   2.141  64.903  1.00  0.00    -0.059 OA 
HETATM    4  C   UNL     1      -6.205   4.180  65.603  1.00  0.00    -0.031 C  
ENDROOT
BRANCH   4   5
HETATM    5  N   UNL     1      -6.667   5.484  66.227  1.00  0.00    -0.056 NA 
BRANCH   5   6
HETATM    6  C   UNL     1      -6.079   5.545  67.620  1.00  0.00    -0.026 C  
HETATM    7  O   UNL     1      -8.195   6.552  68.223  1.00  0.00    -0.112 OA 
HETATM    8  C   UNL     1      -6.922   6.333  68.622  1.00  0.00    -0.080 C  
HETATM    9  O   UNL     1      -6.508   6.683  69.717  1.00  0.00    -0.041 OA 
ENDBRANCH   5   6
BRANCH   5  10
HETATM   10  C   UNL     1      -6.032   6.584  65.394  1.00  0.00    -0.033 C  
BRANCH  10  11
HETATM   11  C   UNL     1      -7.034   7.581  64.833  1.00  0.00    -0.055 A  
HETATM   12  C   UNL     1      -7.405   8.684  65.603  1.00  0.00    -0.084 A  
HETATM   13  C   UNL     1      -8.411   9.583  65.185  1.00  0.00    -0.148 A  
HETATM   14  C   UNL     1      -8.954   9.461  63.910  1.00  0.00    -0.126 A  
HETATM   15  C   UNL     1      -8.560   8.388  63.101  1.00  0.00     0.073 A  
HETATM   16  O   UNL     1      -9.868  10.355  63.388  1.00  0.00    -0.307 OA 
HETATM   17  C   UNL     1     -10.300  11.409  64.170  1.00  0.00    -0.344 A  
HETATM   18  C   UNL     1      -7.627   7.450  63.574  1.00  0.00    -0.121 A  
HETATM   19  O   UNL     1      -7.287   6.371  62.809  1.00  0.00    -0.051 OA 
HETATM   20  C   UNL     1     -11.144  12.360  63.575  1.00  0.00    -0.521 A  
HETATM   21  C   UNL     1     -11.632  13.449  64.321  1.00  0.00    -0.402 A  
HETATM   22  H   UNL     1      -7.691   6.282  61.953  1.00  0.00     0.000 HD 
HETATM   23  C   UNL     1     -11.328  13.587  65.677  1.00  0.00    -0.312 A  
HETATM   24  O   UNL     1     -12.405  14.406  63.723  1.00  0.00    -0.990 OA 
HETATM   25  C   UNL     1      -9.440  10.021  67.411  1.00  0.00    -0.176 A  
HETATM   26  H   UNL     1     -12.735  15.141  64.227  1.00  0.00     0.000 HD 
HETATM   27  C   UNL     1     -10.495  12.617  66.253  1.00  0.00    -0.270 A  
HETATM   28  C   UNL     1     -10.557   9.238  67.664  1.00  0.00    -0.324 A  
HETATM   29  C   UNL     1      -9.943  11.558  65.507  1.00  0.00    -0.282 A  
HETATM   30  C   UNL     1      -8.942  10.625  66.136  1.00  0.00    -0.168 C  
HETATM   31  C   UNL     1     -10.777   8.816  68.977  1.00  0.00    -0.134 A  
HETATM   32  C   UNL     1      -9.884   9.165  70.003  1.00  0.00    -0.217 A  
HETATM   33  O   UNL     1      -7.804  11.413  66.576  1.00  0.00    -0.153 OA 
HETATM   34  C   UNL     1      -8.756   9.942  69.733  1.00  0.00    -0.229 A  
HETATM   35  O   UNL     1      -6.508  11.555  68.474  1.00  0.00    -0.050 OA 
HETATM   36  C   UNL     1      -7.501  11.182  67.885  1.00  0.00    -0.094 C  
HETATM   37  C   UNL     1      -8.572  10.361  68.430  1.00  0.00    -0.128 A  
BRANCH  23  38
HETATM   38  C   UNL     1     -11.678  14.792  66.531  1.00  0.00    -0.271 C  
BRANCH  38  39
HETATM   39  N   UNL     1     -10.555  15.598  67.100  1.00  0.00    -0.305 NA 
BRANCH  39  40
HETATM   40  C   UNL     1     -10.001  16.465  66.006  1.00  0.00    -0.345 C  
HETATM   41  O   UNL     1      -8.011  17.870  66.040  1.00  0.00    -0.477 OA 
HETATM   42  C   UNL     1      -8.525  16.775  66.226  1.00  0.00    -0.307 C  
HETATM   43  O   UNL     1      -7.826  15.688  66.641  1.00  0.00    -0.221 OA 
ENDBRANCH  39  40
BRANCH  39  44
HETATM   44  C   UNL     1     -11.142  16.524  68.146  1.00  0.00    -0.303 C  
HETATM   45  C   UNL     1     -10.582  16.273  69.545  1.00  0.00    -0.314 C  
HETATM   46  O   UNL     1     -11.186  16.522  70.578  1.00  0.00    -0.330 OA 
HETATM   47  O   UNL     1      -9.311  15.791  69.534  1.00  0.00    -0.265 OA 
ENDBRANCH  39  44
ENDBRANCH  38  39
ENDBRANCH  23  38
ENDBRANCH  10  11
ENDBRANCH   5  10
ENDBRANCH   4   5
TORSDOF 8
ENDMDL
MODEL       27
REMARK 921   NORMALIZED FREE ENERGY PREDICTED BY IDOCK:   -6.57 KCAL/MOL
REMARK 922        TOTAL FREE ENERGY PREDICTED BY IDOCK:  -11.91 KCAL/MOL
REMARK 923 INTER-LIGAND FREE ENERGY PREDICTED BY IDOCK:   -9.72 KCAL/MOL
REMARK 924 INTRA-LIGAND FREE ENERGY PREDICTED BY IDOCK:   -2.18 KCAL/MOL
REMARK 927      BINDING AFFINITY PREDICTED BY RF-SCORE:    0.00 PKD
ROOT
HETATM    1  O   UNL     1     -10.006   7.583  70.104  1.00  0.00    -0.190 OA 
HETATM    2  C   UNL     1     -11.105   6.848  69.818  1.00  0.00    -0.271 C  
HETATM    3  O   UNL     1     -11.998   6.656  70.630  1.00  0.00    -0.395 OA 
HETATM    4  C   UNL     1     -11.143   6.356  68.376  1.00  0.00    -0.285 C  
ENDROOT
BRANCH   4   5
HETATM    5  N   UNL     1      -9.775   6.055  67.791  1.00  0.00    -0.112 NA 
BRANCH   5   6
HETATM    6  C   UNL     1      -9.803   4.620  67.308  1.00  0.00    -0.180 C  
HETATM    7  O   UNL     1      -7.512   4.554  68.082  1.00  0.00    -0.065 OA 
HETATM    8  C   UNL     1      -8.443   3.926  67.330  1.00  0.00    -0.100 C  
HETATM    9  O   UNL     1      -8.225   2.860  66.771  1.00  0.00    -0.083 OA 
ENDBRANCH   5   6
BRANCH   5  10
HETATM   10  C   UNL     1      -9.638   6.961  66.581  1.00  0.00    -0.168 C  
BRANCH  10  11
HETATM   11  C   UNL     1      -8.742   8.167  66.819  1.00  0.00    -0.145 A  
HETATM   12  C   UNL     1      -9.316   9.435  66.924  1.00  0.00    -0.188 A  
HETATM   13  C   UNL     1      -8.531  10.604  67.034  1.00  0.00    -0.129 A  
HETATM   14  C   UNL     1      -7.153  10.493  67.189  1.00  0.00    -0.091 A  
HETATM   15  C   UNL     1      -6.560   9.225  67.135  1.00  0.00    -0.068 A  
HETATM   16  O   UNL     1      -6.325  11.578  67.402  1.00  0.00    -0.070 OA 
HETATM   17  C   UNL     1      -6.873  12.847  67.431  1.00  0.00    -0.128 A  
HETATM   18  C   UNL     1      -7.351   8.083  66.929  1.00  0.00    -0.090 A  
HETATM   19  O   UNL     1      -6.768   6.853  66.818  1.00  0.00    -0.043 OA 
HETATM   20  C   UNL     1      -6.025  13.916  67.757  1.00  0.00    -0.117 A  
HETATM   21  C   UNL     1      -6.517  15.234  67.789  1.00  0.00    -0.158 A  
HETATM   22  H   UNL     1      -5.822   6.795  66.893  1.00  0.00     0.000 HD 
HETATM   23  C   UNL     1      -7.843  15.516  67.456  1.00  0.00    -0.191 A  
HETATM   24  O   UNL     1      -5.703  16.267  68.165  1.00  0.00    -0.095 OA 
HETATM   25  C   UNL     1      -9.947  12.112  65.645  1.00  0.00    -0.271 A  
HETATM   26  H   UNL     1      -6.035  17.157  68.186  1.00  0.00     0.000 HD 
HETATM   27  C   UNL     1      -8.668  14.433  67.119  1.00  0.00    -0.243 A  
HETATM   28  C   UNL     1      -9.515  12.214  64.331  1.00  0.00     0.177 A  
HETATM   29  C   UNL     1      -8.212  13.101  67.147  1.00  0.00    -0.127 A  
HETATM   30  C   UNL     1      -9.171  11.964  66.917  1.00  0.00    -0.193 C  
HETATM   31  C   UNL     1     -10.482  12.354  63.333  1.00  0.00    -0.353 A  
HETATM   32  C   UNL     1     -11.849  12.374  63.656  1.00  0.00    -0.610 A  
HETATM   33  O   UNL     1     -10.205  12.031  67.934  1.00  0.00    -0.187 OA 
HETATM   34  C   UNL     1     -12.271  12.256  64.981  1.00  0.00    -0.374 A  
HETATM   35  O   UNL     1     -12.503  11.884  67.989  1.00  0.00    -0.148 OA 
HETATM   36  C   UNL     1     -11.455  12.016  67.391  1.00  0.00    -0.336 C  
HETATM   37  C   UNL     1     -11.293  12.138  65.949  1.00  0.00    -0.407 A  
BRANCH  23  38
HETATM   38  C   UNL     1      -8.510  16.873  67.598  1.00  0.00    -0.200 C  
BRANCH  38  39
HETATM   39  N   UNL     1      -9.941  16.909  68.031  1.00  0.00    -0.269 NA 
BRANCH  39  40
HETATM   40  C   UNL     1      -9.973  16.996  69.530  1.00  0.00     0.019 C  
HETATM   41  O   UNL     1     -11.759  16.341  71.052  1.00  0.00    -0.403 OA 
HETATM   42  C   UNL     1     -11.012  16.053  70.126  1.00  0.00    -0.367 C  
HETATM   43  O   UNL     1     -11.009  14.837  69.524  1.00  0.00    -0.257 OA 
ENDBRANCH  39  40
BRANCH  39  44
HETATM   44  C   UNL     1     -10.546  18.192  67.498  1.00  0.00    -0.401 C  
HETATM   45  C   UNL     1     -10.534  18.266  65.973  1.00  0.00    -0.361 C  
HETATM   46  O   UNL     1     -10.513  19.311  65.339  1.00  0.00    -0.451 OA 
HETATM   47  O   UNL     1     -10.605  17.046  65.377  1.00  0.00    -0.601 OA 
ENDBRANCH  39  44
ENDBRANCH  38  39
ENDBRANCH  23  38
ENDBRANCH  10  11
ENDBRANCH   5  10
ENDBRANCH   4   5
TORSDOF 8
ENDMDL
MODEL       28
REMARK 921   NORMALIZED FREE ENERGY PREDICTED BY IDOCK:   -6.56 KCAL/MOL
REMARK 922        TOTAL FREE ENERGY PREDICTED BY IDOCK:  -11.90 KCAL/MOL
REMARK 923 INTER-LIGAND FREE ENERGY PREDICTED BY IDOCK:  -10.20 KCAL/MOL
REMARK 924 INTRA-LIGAND FREE ENERGY PREDICTED BY IDOCK:   -1.70 KCAL/MOL
REMARK 927      BINDING AFFINITY PREDICTED BY RF-SCORE:    0.00 PKD
ROOT
HETATM    1  O   UNL     1      -7.279   7.324  70.147  1.00  0.00    -0.071 OA 
HETATM    2  C   UNL     1      -7.421   6.627  71.298  1.00  0.00    -0.084 C  
HETATM    3  O   UNL     1      -6.560   6.602  72.164  1.00  0.00    -0.057 OA 
HETATM    4  C   UNL     1      -8.780   5.947  71.426  1.00  0.00    -0.133 C  
ENDROOT
BRANCH   4   5
HETATM    5  N   UNL     1      -9.365   5.484  70.104  1.00  0.00    -0.143 NA 
BRANCH   5   6
HETATM    6  C   UNL     1      -9.095   3.999  69.992  1.00  0.00    -0.119 C  
HETATM    7  O   UNL     1      -9.524   4.329  67.634  1.00  0.00    -0.154 OA 
HETATM    8  C   UNL     1      -9.400   3.409  68.616  1.00  0.00    -0.167 C  
HETATM    9  O   UNL     1      -9.463   2.207  68.401  1.00  0.00    -0.193 OA 
ENDBRANCH   5   6
BRANCH   5  10
HETATM   10  C   UNL     1     -10.865   5.687  70.226  1.00  0.00    -0.266 C  
BRANCH  10  11
HETATM   11  C   UNL     1     -11.270   7.138  70.437  1.00  0.00    -0.320 A  
HETATM   12  C   UNL     1     -10.893   8.097  69.497  1.00  0.00    -0.128 A  
HETATM   13  C   UNL     1     -11.141   9.473  69.692  1.00  0.00    -0.196 A  
HETATM   14  C   UNL     1     -11.910   9.885  70.776  1.00  0.00    -0.330 A  
HETATM   15  C   UNL     1     -12.341   8.932  71.708  1.00  0.00    -0.424 A  
HETATM   16  O   UNL     1     -12.282  11.199  70.984  1.00  0.00    -0.356 OA 
HETATM   17  C   UNL     1     -11.850  12.169  70.100  1.00  0.00    -0.287 A  
HETATM   18  C   UNL     1     -12.000   7.579  71.545  1.00  0.00    -0.307 A  
HETATM   19  O   UNL     1     -12.370   6.659  72.483  1.00  0.00    -0.507 OA 
HETATM   20  C   UNL     1     -12.334  13.474  70.277  1.00  0.00    -0.370 A  
HETATM   21  C   UNL     1     -11.920  14.512  69.421  1.00  0.00    -0.322 A  
HETATM   22  H   UNL     1     -12.867   6.959  73.236  1.00  0.00     0.000 HD 
HETATM   23  C   UNL     1     -10.989  14.280  68.406  1.00  0.00    -0.267 A  
HETATM   24  O   UNL     1     -12.439  15.770  69.558  1.00  0.00    -0.531 OA 
HETATM   25  C   UNL     1      -9.035  10.357  68.697  1.00  0.00    -0.146 A  
HETATM   26  H   UNL     1     -12.159  16.471  68.980  1.00  0.00     0.000 HD 
HETATM   27  C   UNL     1     -10.508  12.971  68.258  1.00  0.00    -0.258 A  
HETATM   28  C   UNL     1      -8.055  10.629  69.640  1.00  0.00     0.015 A  
HETATM   29  C   UNL     1     -10.961  11.906  69.062  1.00  0.00    -0.267 A  
HETATM   30  C   UNL     1     -10.524  10.495  68.772  1.00  0.00    -0.196 C  
HETATM   31  C   UNL     1      -6.723  10.408  69.282  1.00  0.00    -0.067 A  
HETATM   32  C   UNL     1      -6.394   9.911  68.009  1.00  0.00    -0.055 A  
HETATM   33  O   UNL     1     -10.946  10.158  67.424  1.00  0.00    -0.292 OA 
HETATM   34  C   UNL     1      -7.391   9.628  67.075  1.00  0.00    -0.087 A  
HETATM   35  O   UNL     1      -9.996   9.161  65.578  1.00  0.00    -0.159 OA 
HETATM   36  C   UNL     1      -9.914   9.682  66.671  1.00  0.00    -0.236 C  
HETATM   37  C   UNL     1      -8.698   9.873  67.449  1.00  0.00    -0.129 A  
BRANCH  23  38
HETATM   38  C   UNL     1     -10.588  15.286  67.343  1.00  0.00    -0.282 C  
BRANCH  38  39
HETATM   39  N   UNL     1      -9.625  16.365  67.725  1.00  0.00    -0.230 NA 
BRANCH  39  40
HETATM   40  C   UNL     1      -8.235  15.870  67.448  1.00  0.00    -0.168 C  
HETATM   41  O   UNL     1      -6.142  17.116  67.487  1.00  0.00    -0.124 OA 
HETATM   42  C   UNL     1      -7.180  16.790  68.049  1.00  0.00    -0.157 C  
HETATM   43  O   UNL     1      -7.509  17.204  69.299  1.00  0.00    -0.193 OA 
ENDBRANCH  39  40
BRANCH  39  44
HETATM   44  C   UNL     1      -9.870  17.542  66.803  1.00  0.00    -0.306 C  
HETATM   45  C   UNL     1     -10.506  18.734  67.516  1.00  0.00    -0.435 C  
HETATM   46  O   UNL     1     -11.206  19.568  66.961  1.00  0.00    -0.338 OA 
HETATM   47  O   UNL     1     -10.173  18.811  68.832  1.00  0.00    -0.360 OA 
ENDBRANCH  39  44
ENDBRANCH  38  39
ENDBRANCH  23  38
ENDBRANCH  10  11
ENDBRANCH   5  10
ENDBRANCH   4   5
TORSDOF 8
ENDMDL
MODEL       29
REMARK 921   NORMALIZED FREE ENERGY PREDICTED BY IDOCK:   -6.52 KCAL/MOL
REMARK 922        TOTAL FREE ENERGY PREDICTED BY IDOCK:  -11.84 KCAL/MOL
REMARK 923 INTER-LIGAND FREE ENERGY PREDICTED BY IDOCK:   -9.00 KCAL/MOL
REMARK 924 INTRA-LIGAND FREE ENERGY PREDICTED BY IDOCK:   -2.84 KCAL/MOL
REMARK 927      BINDING AFFINITY PREDICTED BY RF-SCORE:    0.00 PKD
ROOT
HETATM    1  O   UNL     1     -10.252  18.270  65.728  1.00  0.00    -0.576 OA 
HETATM    2  C   UNL     1     -10.421  18.828  66.949  1.00  0.00    -0.414 C  
HETATM    3  O   UNL     1     -10.447  20.038  67.122  1.00  0.00    -0.427 OA 
HETATM    4  C   UNL     1     -10.644  17.803  68.055  1.00  0.00    -0.365 C  
ENDROOT
BRANCH   4   5
HETATM    5  N   UNL     1      -9.904  16.495  67.841  1.00  0.00    -0.236 NA 
BRANCH   5   6
HETATM    6  C   UNL     1      -9.114  16.218  69.103  1.00  0.00    -0.230 C  
HETATM    7  O   UNL     1      -7.386  15.468  67.586  1.00  0.00    -0.140 OA 
HETATM    8  C   UNL     1      -7.806  15.465  68.870  1.00  0.00    -0.177 C  
HETATM    9  O   UNL     1      -7.156  14.957  69.772  1.00  0.00    -0.176 OA 
ENDBRANCH   5   6
BRANCH   5  10
HETATM   10  C   UNL     1     -10.980  15.432  67.710  1.00  0.00    -0.311 C  
BRANCH  10  11
HETATM   11  C   UNL     1     -10.669  14.375  66.662  1.00  0.00    -0.292 A  
HETATM   12  C   UNL     1     -10.181  13.132  67.067  1.00  0.00    -0.250 A  
HETATM   13  C   UNL     1      -9.769  12.151  66.138  1.00  0.00    -0.254 A  
HETATM   14  C   UNL     1      -9.987  12.358  64.780  1.00  0.00    -0.172 A  
HETATM   15  C   UNL     1     -10.522  13.580  64.353  1.00  0.00    -0.366 A  
HETATM   16  O   UNL     1      -9.706  11.410  63.815  1.00  0.00    -0.257 OA 
HETATM   17  C   UNL     1      -9.150  10.204  64.198  1.00  0.00    -0.251 A  
HETATM   18  C   UNL     1     -10.835  14.581  65.289  1.00  0.00    -0.367 A  
HETATM   19  O   UNL     1     -11.302  15.793  64.869  1.00  0.00    -0.350 OA 
HETATM   20  C   UNL     1      -8.979   9.223  63.211  1.00  0.00    -0.081 A  
HETATM   21  C   UNL     1      -8.403   7.979  63.532  1.00  0.00     0.049 A  
HETATM   22  H   UNL     1     -11.414  15.933  63.936  1.00  0.00     0.000 HD 
HETATM   23  C   UNL     1      -7.950   7.708  64.825  1.00  0.00    -0.137 A  
HETATM   24  O   UNL     1      -8.292   7.002  62.581  1.00  0.00    -0.318 OA 
HETATM   25  C   UNL     1      -7.821  11.257  67.408  1.00  0.00    -0.128 A  
HETATM   26  H   UNL     1      -7.903   6.163  62.798  1.00  0.00     0.000 HD 
HETATM   27  C   UNL     1      -8.120   8.709  65.792  1.00  0.00    -0.114 A  
HETATM   28  C   UNL     1      -6.610  11.812  67.018  1.00  0.00    -0.140 A  
HETATM   29  C   UNL     1      -8.754   9.934  65.505  1.00  0.00    -0.170 A  
HETATM   30  C   UNL     1      -9.039  10.919  66.607  1.00  0.00    -0.162 C  
HETATM   31  C   UNL     1      -5.636  12.012  67.999  1.00  0.00    -0.052 A  
HETATM   32  C   UNL     1      -5.886  11.672  69.340  1.00  0.00    -0.071 A  
HETATM   33  O   UNL     1      -9.895  10.269  67.584  1.00  0.00    -0.164 OA 
HETATM   34  C   UNL     1      -7.113  11.127  69.720  1.00  0.00    -0.008 A  
HETATM   35  O   UNL     1      -9.961  10.076  69.878  1.00  0.00    -0.237 OA 
HETATM   36  C   UNL     1      -9.390  10.364  68.847  1.00  0.00    -0.186 C  
HETATM   37  C   UNL     1      -8.052  10.924  68.728  1.00  0.00    -0.145 A  
BRANCH  23  38
HETATM   38  C   UNL     1      -7.453   6.358  65.310  1.00  0.00    -0.081 C  
BRANCH  38  39
HETATM   39  N   UNL     1      -8.416   5.213  65.306  1.00  0.00    -0.138 NA 
BRANCH  39  40
HETATM   40  C   UNL     1      -7.770   4.062  64.589  1.00  0.00    -0.081 C  
HETATM   41  O   UNL     1      -8.834   2.161  63.499  1.00  0.00    -0.088 OA 
HETATM   42  C   UNL     1      -8.743   3.374  63.639  1.00  0.00    -0.093 C  
HETATM   43  O   UNL     1      -9.497   4.261  62.942  1.00  0.00    -0.142 OA 
ENDBRANCH  39  40
BRANCH  39  44
HETATM   44  C   UNL     1      -8.619   4.783  66.745  1.00  0.00    -0.108 C  
HETATM   45  C   UNL     1      -9.961   5.236  67.316  1.00  0.00    -0.177 C  
HETATM   46  O   UNL     1     -10.165   5.436  68.505  1.00  0.00    -0.175 OA 
HETATM   47  O   UNL     1     -10.935   5.346  66.375  1.00  0.00    -0.243 OA 
ENDBRANCH  39  44
ENDBRANCH  38  39
ENDBRANCH  23  38
ENDBRANCH  10  11
ENDBRANCH   5  10
ENDBRANCH   4   5
TORSDOF 8
ENDMDL
MODEL       30
REMARK 921   NORMALIZED FREE ENERGY PREDICTED BY IDOCK:   -6.52 KCAL/MOL
REMARK 922        TOTAL FREE ENERGY PREDICTED BY IDOCK:  -11.84 KCAL/MOL
REMARK 923 INTER-LIGAND FREE ENERGY PREDICTED BY IDOCK:  -10.95 KCAL/MOL
REMARK 924 INTRA-LIGAND FREE ENERGY PREDICTED BY IDOCK:   -0.89 KCAL/MOL
REMARK 927      BINDING AFFINITY PREDICTED BY RF-SCORE:    0.00 PKD
ROOT
HETATM    1  O   UNL     1      -8.176  19.418  68.740  1.00  0.00    -0.360 OA 
HETATM    2  C   UNL     1      -7.005  18.744  68.794  1.00  0.00    -0.304 C  
HETATM    3  O   UNL     1      -6.189  18.913  69.688  1.00  0.00    -0.266 OA 
HETATM    4  C   UNL     1      -6.849  17.715  67.680  1.00  0.00    -0.174 C  
ENDROOT
BRANCH   4   5
HETATM    5  N   UNL     1      -7.508  18.117  66.373  1.00  0.00    -0.235 NA 
BRANCH   5   6
HETATM    6  C   UNL     1      -6.402  18.524  65.423  1.00  0.00    -0.271 C  
HETATM    7  O   UNL     1      -7.140  20.780  65.890  1.00  0.00    -0.125 OA 
HETATM    8  C   UNL     1      -6.401  20.009  65.063  1.00  0.00    -0.280 C  
HETATM    9  O   UNL     1      -5.740  20.475  64.146  1.00  0.00    -0.214 OA 
ENDBRANCH   5   6
BRANCH   5  10
HETATM   10  C   UNL     1      -8.157  16.854  65.836  1.00  0.00     0.078 C  
BRANCH  10  11
HETATM   11  C   UNL     1      -9.139  16.212  66.804  1.00  0.00    -0.257 A  
HETATM   12  C   UNL     1      -8.937  14.893  67.210  1.00  0.00    -0.212 A  
HETATM   13  C   UNL     1      -9.871  14.207  68.016  1.00  0.00    -0.223 A  
HETATM   14  C   UNL     1     -10.956  14.897  68.548  1.00  0.00    -0.255 A  
HETATM   15  C   UNL     1     -11.152  16.238  68.193  1.00  0.00    -0.329 A  
HETATM   16  O   UNL     1     -11.859  14.329  69.424  1.00  0.00    -0.286 OA 
HETATM   17  C   UNL     1     -11.712  13.000  69.774  1.00  0.00    -0.276 A  
HETATM   18  C   UNL     1     -10.261  16.874  67.311  1.00  0.00    -0.297 A  
HETATM   19  O   UNL     1     -10.485  18.162  66.918  1.00  0.00    -0.368 OA 
HETATM   20  C   UNL     1     -12.579  12.482  70.748  1.00  0.00    -0.299 A  
HETATM   21  C   UNL     1     -12.493  11.132  71.137  1.00  0.00    -0.393 A  
HETATM   22  H   UNL     1     -11.248  18.611  67.263  1.00  0.00     0.000 HD 
HETATM   23  C   UNL     1     -11.576  10.267  70.535  1.00  0.00    -0.424 A  
HETATM   24  O   UNL     1     -13.298  10.645  72.129  1.00  0.00    -0.574 OA 
HETATM   25  C   UNL     1      -9.668  11.960  66.960  1.00  0.00    -0.204 A  
HETATM   26  H   UNL     1     -13.240   9.733  72.391  1.00  0.00     0.000 HD 
HETATM   27  C   UNL     1     -10.730  10.803  69.554  1.00  0.00    -0.268 A  
HETATM   28  C   UNL     1     -10.645  11.711  66.007  1.00  0.00    -0.303 A  
HETATM   29  C   UNL     1     -10.756  12.166  69.200  1.00  0.00    -0.107 A  
HETATM   30  C   UNL     1      -9.734  12.724  68.246  1.00  0.00    -0.216 C  
HETATM   31  C   UNL     1     -10.291  10.947  64.892  1.00  0.00    -0.371 A  
HETATM   32  C   UNL     1      -8.982  10.462  64.740  1.00  0.00    -0.228 A  
HETATM   33  O   UNL     1      -8.416  12.506  68.817  1.00  0.00    -0.009 OA 
HETATM   34  C   UNL     1      -8.005  10.731  65.699  1.00  0.00    -0.095 A  
HETATM   35  O   UNL     1      -6.382  11.727  68.070  1.00  0.00    -0.049 OA 
HETATM   36  C   UNL     1      -7.579  11.880  67.942  1.00  0.00    -0.128 C  
HETATM   37  C   UNL     1      -8.386  11.473  66.801  1.00  0.00    -0.165 A  
BRANCH  23  38
HETATM   38  C   UNL     1     -11.300   8.841  70.979  1.00  0.00    -0.278 C  
BRANCH  38  39
HETATM   39  N   UNL     1     -11.035   7.817  69.922  1.00  0.00    -0.228 NA 
BRANCH  39  40
HETATM   40  C   UNL     1      -9.655   8.053  69.379  1.00  0.00    -0.160 C  
HETATM   41  O   UNL     1      -8.660   7.186  67.331  1.00  0.00    -0.121 OA 
HETATM   42  C   UNL     1      -9.584   7.770  67.883  1.00  0.00    -0.146 C  
HETATM   43  O   UNL     1     -10.661   8.254  67.215  1.00  0.00    -0.301 OA 
ENDBRANCH  39  40
BRANCH  39  44
HETATM   44  C   UNL     1     -11.021   6.459  70.596  1.00  0.00    -0.298 C  
HETATM   45  C   UNL     1     -12.044   6.346  71.724  1.00  0.00    -0.296 C  
HETATM   46  O   UNL     1     -11.925   5.595  72.682  1.00  0.00    -0.252 OA 
HETATM   47  O   UNL     1     -13.140   7.128  71.535  1.00  0.00    -0.381 OA 
ENDBRANCH  39  44
ENDBRANCH  38  39
ENDBRANCH  23  38
ENDBRANCH  10  11
ENDBRANCH   5  10
ENDBRANCH   4   5
TORSDOF 8
ENDMDL
MODEL       31
REMARK 921   NORMALIZED FREE ENERGY PREDICTED BY IDOCK:   -6.50 KCAL/MOL
REMARK 922        TOTAL FREE ENERGY PREDICTED BY IDOCK:  -11.80 KCAL/MOL
REMARK 923 INTER-LIGAND FREE ENERGY PREDICTED BY IDOCK:  -10.35 KCAL/MOL
REMARK 924 INTRA-LIGAND FREE ENERGY PREDICTED BY IDOCK:   -1.45 KCAL/MOL
REMARK 927      BINDING AFFINITY PREDICTED BY RF-SCORE:    0.00 PKD
ROOT
HETATM    1  O   UNL     1      -9.280   8.718  69.338  1.00  0.00    -0.144 OA 
HETATM    2  C   UNL     1      -9.178   9.140  70.620  1.00  0.00    -0.258 C  
HETATM    3  O   UNL     1      -8.113   9.461  71.125  1.00  0.00    -0.322 OA 
HETATM    4  C   UNL     1     -10.524   9.240  71.330  1.00  0.00    -0.338 C  
ENDROOT
BRANCH   4   5
HETATM    5  N   UNL     1     -11.536   8.202  70.881  1.00  0.00    -0.281 NA 
BRANCH   5   6
HETATM    6  C   UNL     1     -11.980   7.450  72.118  1.00  0.00    -0.270 C  
HETATM    7  O   UNL     1     -10.017   6.093  71.720  1.00  0.00    -0.171 OA 
HETATM    8  C   UNL     1     -11.185   6.174  72.393  1.00  0.00    -0.287 C  
HETATM    9  O   UNL     1     -11.539   5.325  73.200  1.00  0.00    -0.297 OA 
ENDBRANCH   5   6
BRANCH   5  10
HETATM   10  C   UNL     1     -12.722   8.987  70.351  1.00  0.00     0.615 C  
BRANCH  10  11
HETATM   11  C   UNL     1     -12.534  10.496  70.418  1.00  0.00    -0.392 A  
HETATM   12  C   UNL     1     -11.876  11.149  69.376  1.00  0.00    -0.415 A  
HETATM   13  C   UNL     1     -11.573  12.527  69.431  1.00  0.00    -0.368 A  
HETATM   14  C   UNL     1     -12.065  13.297  70.481  1.00  0.00    -0.314 A  
HETATM   15  C   UNL     1     -12.771  12.669  71.514  1.00  0.00    -0.326 A  
HETATM   16  O   UNL     1     -11.899  14.666  70.558  1.00  0.00    -0.273 OA 
HETATM   17  C   UNL     1     -11.183  15.314  69.570  1.00  0.00    -0.281 A  
HETATM   18  C   UNL     1     -12.979  11.279  71.487  1.00  0.00    -0.415 A  
HETATM   19  O   UNL     1     -13.615  10.658  72.523  1.00  0.00    -0.518 OA 
HETATM   20  C   UNL     1     -11.125  16.715  69.619  1.00  0.00    -0.146 A  
HETATM   21  C   UNL     1     -10.398  17.435  68.652  1.00  0.00    -0.364 A  
HETATM   22  H   UNL     1     -13.917  11.191  73.250  1.00  0.00     0.000 HD 
HETATM   23  C   UNL     1      -9.684  16.774  67.650  1.00  0.00    -0.251 A  
HETATM   24  O   UNL     1     -10.393  18.802  68.667  1.00  0.00    -0.414 OA 
HETATM   25  C   UNL     1      -9.350  12.446  68.311  1.00  0.00    -0.199 A  
HETATM   26  H   UNL     1      -9.902  19.288  68.014  1.00  0.00     0.000 HD 
HETATM   27  C   UNL     1      -9.745  15.374  67.630  1.00  0.00    -0.211 A  
HETATM   28  C   UNL     1      -8.287  12.405  69.202  1.00  0.00     0.556 A  
HETATM   29  C   UNL     1     -10.520  14.640  68.548  1.00  0.00    -0.247 A  
HETATM   30  C   UNL     1     -10.668  13.149  68.399  1.00  0.00    -0.253 C  
HETATM   31  C   UNL     1      -7.161  11.659  68.844  1.00  0.00    -0.113 A  
HETATM   32  C   UNL     1      -7.119  10.963  67.624  1.00  0.00    -0.087 A  
HETATM   33  O   UNL     1     -11.262  12.881  67.101  1.00  0.00    -0.265 OA 
HETATM   34  C   UNL     1      -8.200  11.001  66.743  1.00  0.00    -0.149 A  
HETATM   35  O   UNL     1     -10.868  11.436  65.352  1.00  0.00    -0.281 OA 
HETATM   36  C   UNL     1     -10.533  11.981  66.383  1.00  0.00    -0.233 C  
HETATM   37  C   UNL     1      -9.293  11.760  67.113  1.00  0.00    -0.178 A  
BRANCH  23  38
HETATM   38  C   UNL     1      -8.993  17.452  66.480  1.00  0.00    -0.260 C  
BRANCH  38  39
HETATM   39  N   UNL     1      -7.738  18.218  66.754  1.00  0.00    -0.217 NA 
BRANCH  39  40
HETATM   40  C   UNL     1      -7.081  17.619  67.965  1.00  0.00    -0.200 C  
HETATM   41  O   UNL     1      -5.576  18.682  69.558  1.00  0.00    -0.209 OA 
HETATM   42  C   UNL     1      -6.640  18.692  68.954  1.00  0.00    -0.265 C  
HETATM   43  O   UNL     1      -7.574  19.665  69.108  1.00  0.00    -0.350 OA 
ENDBRANCH  39  40
BRANCH  39  44
HETATM   44  C   UNL     1      -6.802  17.993  65.584  1.00  0.00    -0.166 C  
HETATM   45  C   UNL     1      -6.252  19.295  65.005  1.00  0.00    -0.282 C  
HETATM   46  O   UNL     1      -5.891  19.428  63.844  1.00  0.00    -0.323 OA 
HETATM   47  O   UNL     1      -6.148  20.289  65.926  1.00  0.00    -0.185 OA 
ENDBRANCH  39  44
ENDBRANCH  38  39
ENDBRANCH  23  38
ENDBRANCH  10  11
ENDBRANCH   5  10
ENDBRANCH   4   5
TORSDOF 8
ENDMDL
MODEL       32
REMARK 921   NORMALIZED FREE ENERGY PREDICTED BY IDOCK:   -6.46 KCAL/MOL
REMARK 922        TOTAL FREE ENERGY PREDICTED BY IDOCK:  -11.75 KCAL/MOL
REMARK 923 INTER-LIGAND FREE ENERGY PREDICTED BY IDOCK:   -9.48 KCAL/MOL
REMARK 924 INTRA-LIGAND FREE ENERGY PREDICTED BY IDOCK:   -2.27 KCAL/MOL
REMARK 927      BINDING AFFINITY PREDICTED BY RF-SCORE:    0.00 PKD
ROOT
HETATM    1  O   UNL     1      -6.825   5.765  68.629  1.00  0.00    -0.058 OA 
HETATM    2  C   UNL     1      -6.846   4.424  68.454  1.00  0.00    -0.051 C  
HETATM    3  O   UNL     1      -6.123   3.667  69.085  1.00  0.00    -0.026 OA 
HETATM    4  C   UNL     1      -7.901   3.963  67.456  1.00  0.00    -0.086 C  
ENDROOT
BRANCH   4   5
HETATM    5  N   UNL     1      -8.153   4.945  66.326  1.00  0.00    -0.107 NA 
BRANCH   5   6
HETATM    6  C   UNL     1      -7.884   4.212  65.030  1.00  0.00    -0.089 C  
HETATM    7  O   UNL     1      -7.117   6.364  64.235  1.00  0.00    -0.051 OA 
HETATM    8  C   UNL     1      -7.496   5.121  63.865  1.00  0.00    -0.061 C  
HETATM    9  O   UNL     1      -7.466   4.745  62.702  1.00  0.00    -0.042 OA 
ENDBRANCH   5   6
BRANCH   5  10
HETATM   10  C   UNL     1      -9.634   5.272  66.390  1.00  0.00    -0.160 C  
BRANCH  10  11
HETATM   11  C   UNL     1      -9.936   6.619  67.029  1.00  0.00    -0.223 A  
HETATM   12  C   UNL     1      -9.730   7.786  66.293  1.00  0.00    -0.149 A  
HETATM   13  C   UNL     1      -9.884   9.068  66.866  1.00  0.00    -0.288 A  
HETATM   14  C   UNL     1     -10.395   9.187  68.154  1.00  0.00    -0.216 A  
HETATM   15  C   UNL     1     -10.656   8.027  68.894  1.00  0.00    -0.160 A  
HETATM   16  O   UNL     1     -10.670  10.402  68.750  1.00  0.00    -0.199 OA 
HETATM   17  C   UNL     1     -10.398  11.568  68.059  1.00  0.00    -0.190 A  
HETATM   18  C   UNL     1     -10.404   6.761  68.339  1.00  0.00    -0.191 A  
HETATM   19  O   UNL     1     -10.602   5.632  69.080  1.00  0.00    -0.253 OA 
HETATM   20  C   UNL     1     -10.789  12.780  68.646  1.00  0.00    -0.284 A  
HETATM   21  C   UNL     1     -10.526  14.004  68.002  1.00  0.00    -0.241 A  
HETATM   22  H   UNL     1     -10.920   5.729  69.971  1.00  0.00     0.000 HD 
HETATM   23  C   UNL     1      -9.835  14.045  66.789  1.00  0.00    -0.275 A  
HETATM   24  O   UNL     1     -10.961  15.180  68.547  1.00  0.00    -0.243 OA 
HETATM   25  C   UNL     1      -8.002  10.206  65.697  1.00  0.00    -0.147 A  
HETATM   26  H   UNL     1     -10.784  16.006  68.112  1.00  0.00     0.000 HD 
HETATM   27  C   UNL     1      -9.442  12.821  66.228  1.00  0.00    -0.198 A  
HETATM   28  C   UNL     1      -6.837  10.256  66.450  1.00  0.00    -0.106 A  
HETATM   29  C   UNL     1      -9.754  11.584  66.825  1.00  0.00    -0.220 A  
HETATM   30  C   UNL     1      -9.436  10.295  66.115  1.00  0.00    -0.181 C  
HETATM   31  C   UNL     1      -5.618  10.153  65.777  1.00  0.00    -0.069 A  
HETATM   32  C   UNL     1      -5.579   9.990  64.382  1.00  0.00    -0.107 A  
HETATM   33  O   UNL     1     -10.141  10.292  64.845  1.00  0.00    -0.334 OA 
HETATM   34  C   UNL     1      -6.757   9.927  63.638  1.00  0.00    -0.125 A  
HETATM   35  O   UNL     1      -9.631   9.796  62.654  1.00  0.00    -0.153 OA 
HETATM   36  C   UNL     1      -9.306  10.034  63.799  1.00  0.00    -0.257 C  
HETATM   37  C   UNL     1      -7.949  10.050  64.326  1.00  0.00    -0.152 A  
BRANCH  23  38
HETATM   38  C   UNL     1      -9.630  15.289  65.943  1.00  0.00    -0.342 C  
BRANCH  38  39
HETATM   39  N   UNL     1     -10.776  16.240  65.806  1.00  0.00    -0.294 NA 
BRANCH  39  40
HETATM   40  C   UNL     1     -10.222  17.636  65.774  1.00  0.00    -0.150 C  
HETATM   41  O   UNL     1     -11.002  19.607  66.975  1.00  0.00    -0.462 OA 
HETATM   42  C   UNL     1     -10.645  18.437  67.001  1.00  0.00    -0.366 C  
HETATM   43  O   UNL     1     -10.566  17.709  68.143  1.00  0.00    -0.376 OA 
ENDBRANCH  39  40
BRANCH  39  44
HETATM   44  C   UNL     1     -11.420  15.987  64.458  1.00  0.00    -0.271 C  
HETATM   45  C   UNL     1     -12.373  14.793  64.470  1.00  0.00    -0.366 C  
HETATM   46  O   UNL     1     -12.633  14.117  63.486  1.00  0.00    -0.834 OA 
HETATM   47  O   UNL     1     -12.954  14.584  65.681  1.00  0.00    -0.330 OA 
ENDBRANCH  39  44
ENDBRANCH  38  39
ENDBRANCH  23  38
ENDBRANCH  10  11
ENDBRANCH   5  10
ENDBRANCH   4   5
TORSDOF 8
ENDMDL
MODEL       33
REMARK 921   NORMALIZED FREE ENERGY PREDICTED BY IDOCK:   -6.45 KCAL/MOL
REMARK 922        TOTAL FREE ENERGY PREDICTED BY IDOCK:  -11.74 KCAL/MOL
REMARK 923 INTER-LIGAND FREE ENERGY PREDICTED BY IDOCK:   -9.84 KCAL/MOL
REMARK 924 INTRA-LIGAND FREE ENERGY PREDICTED BY IDOCK:   -1.90 KCAL/MOL
REMARK 927      BINDING AFFINITY PREDICTED BY RF-SCORE:    0.00 PKD
ROOT
HETATM    1  O   UNL     1     -14.405  15.650  71.556  1.00  0.00    -0.507 OA 
HETATM    2  C   UNL     1     -13.426  15.697  72.489  1.00  0.00    -0.538 C  
HETATM    3  O   UNL     1     -13.530  16.344  73.520  1.00  0.00    -0.608 OA 
HETATM    4  C   UNL     1     -12.230  14.813  72.154  1.00  0.00    -0.316 C  
ENDROOT
BRANCH   4   5
HETATM    5  N   UNL     1     -11.947  14.696  70.667  1.00  0.00    -0.296 NA 
BRANCH   5   6
HETATM    6  C   UNL     1     -10.443  14.728  70.496  1.00  0.00     0.321 C  
HETATM    7  O   UNL     1     -10.852  16.780  69.282  1.00  0.00    -0.325 OA 
HETATM    8  C   UNL     1      -9.944  15.815  69.546  1.00  0.00    -0.283 C  
HETATM    9  O   UNL     1      -8.803  15.850  69.108  1.00  0.00    -0.227 OA 
ENDBRANCH   5   6
BRANCH   5  10
HETATM   10  C   UNL     1     -12.443  13.320  70.262  1.00  0.00    -0.185 C  
BRANCH  10  11
HETATM   11  C   UNL     1     -11.908  12.849  68.917  1.00  0.00    -0.352 A  
HETATM   12  C   UNL     1     -11.314  11.591  68.821  1.00  0.00    -0.327 A  
HETATM   13  C   UNL     1     -10.700  11.144  67.630  1.00  0.00    -0.273 A  
HETATM   14  C   UNL     1     -10.811  11.907  66.472  1.00  0.00    -0.278 A  
HETATM   15  C   UNL     1     -11.447  13.153  66.535  1.00  0.00    -0.378 A  
HETATM   16  O   UNL     1     -10.327  11.497  65.245  1.00  0.00    -0.250 OA 
HETATM   17  C   UNL     1      -9.668  10.285  65.153  1.00  0.00    -0.300 A  
HETATM   18  C   UNL     1     -11.967  13.622  67.754  1.00  0.00    -0.352 A  
HETATM   19  O   UNL     1     -12.535  14.861  67.829  1.00  0.00    -0.470 OA 
HETATM   20  C   UNL     1      -9.285   9.847  63.876  1.00  0.00    -0.295 A  
HETATM   21  C   UNL     1      -8.597   8.630  63.715  1.00  0.00     0.008 A  
HETATM   22  H   UNL     1     -12.574  15.386  67.037  1.00  0.00     0.000 HD 
HETATM   23  C   UNL     1      -8.240   7.853  64.820  1.00  0.00    -0.112 A  
HETATM   24  O   UNL     1      -8.278   8.176  62.465  1.00  0.00    -0.172 OA 
HETATM   25  C   UNL     1      -8.787   9.921  68.656  1.00  0.00    -0.128 A  
HETATM   26  H   UNL     1      -7.813   7.355  62.356  1.00  0.00     0.000 HD 
HETATM   27  C   UNL     1      -8.620   8.319  66.086  1.00  0.00    -0.156 A  
HETATM   28  C   UNL     1      -7.622  10.671  68.710  1.00  0.00    -0.109 A  
HETATM   29  C   UNL     1      -9.367   9.500  66.262  1.00  0.00    -0.242 A  
HETATM   30  C   UNL     1      -9.874   9.883  67.627  1.00  0.00    -0.163 C  
HETATM   31  C   UNL     1      -6.776  10.488  69.807  1.00  0.00    -0.126 A  
HETATM   32  C   UNL     1      -7.110   9.581  70.827  1.00  0.00    -0.106 A  
HETATM   33  O   UNL     1     -10.734   8.815  68.107  1.00  0.00    -0.177 OA 
HETATM   34  C   UNL     1      -8.292   8.843  70.767  1.00  0.00    -0.205 A  
HETATM   35  O   UNL     1     -10.994   7.637  70.069  1.00  0.00    -0.255 OA 
HETATM   36  C   UNL     1     -10.366   8.384  69.347  1.00  0.00    -0.215 C  
HETATM   37  C   UNL     1      -9.101   9.030  69.663  1.00  0.00    -0.155 A  
BRANCH  23  38
HETATM   38  C   UNL     1      -7.631   6.464  64.749  1.00  0.00    -0.098 C  
BRANCH  38  39
HETATM   39  N   UNL     1      -8.512   5.296  65.058  1.00  0.00    -0.146 NA 
BRANCH  39  40
HETATM   40  C   UNL     1      -8.431   4.333  63.909  1.00  0.00    -0.108 C  
HETATM   41  O   UNL     1      -9.469   2.140  63.687  1.00  0.00    -0.098 OA 
HETATM   42  C   UNL     1      -9.583   3.335  63.928  1.00  0.00    -0.136 C  
HETATM   43  O   UNL     1     -10.768   3.923  64.229  1.00  0.00    -0.277 OA 
ENDBRANCH  39  40
BRANCH  39  44
HETATM   44  C   UNL     1      -7.932   4.594  66.269  1.00  0.00    -0.103 C  
HETATM   45  C   UNL     1      -8.596   5.018  67.577  1.00  0.00    -0.104 C  
HETATM   46  O   UNL     1      -8.043   4.982  68.667  1.00  0.00    -0.085 OA 
HETATM   47  O   UNL     1      -9.893   5.393  67.422  1.00  0.00    -0.135 OA 
ENDBRANCH  39  44
ENDBRANCH  38  39
ENDBRANCH  23  38
ENDBRANCH  10  11
ENDBRANCH   5  10
ENDBRANCH   4   5
TORSDOF 8
ENDMDL
MODEL       34
REMARK 921   NORMALIZED FREE ENERGY PREDICTED BY IDOCK:   -6.43 KCAL/MOL
REMARK 922        TOTAL FREE ENERGY PREDICTED BY IDOCK:  -11.70 KCAL/MOL
REMARK 923 INTER-LIGAND FREE ENERGY PREDICTED BY IDOCK:  -10.47 KCAL/MOL
REMARK 924 INTRA-LIGAND FREE ENERGY PREDICTED BY IDOCK:   -1.24 KCAL/MOL
REMARK 927      BINDING AFFINITY PREDICTED BY RF-SCORE:    0.00 PKD
ROOT
HETATM    1  O   UNL     1     -10.362   2.911  72.173  1.00  0.00    -0.124 OA 
HETATM    2  C   UNL     1      -9.399   2.713  71.244  1.00  0.00    -0.137 C  
HETATM    3  O   UNL     1      -8.722   1.697  71.204  1.00  0.00    -0.050 OA 
HETATM    4  C   UNL     1      -9.301   3.845  70.227  1.00  0.00    -0.168 C  
ENDROOT
BRANCH   4   5
HETATM    5  N   UNL     1      -9.631   5.214  70.794  1.00  0.00    -0.169 NA 
BRANCH   5   6
HETATM    6  C   UNL     1      -8.386   6.064  70.661  1.00  0.00    -0.125 C  
HETATM    7  O   UNL     1      -7.941   5.366  72.935  1.00  0.00    -0.101 OA 
HETATM    8  C   UNL     1      -7.610   6.247  71.965  1.00  0.00    -0.096 C  
HETATM    9  O   UNL     1      -6.721   7.074  72.105  1.00  0.00    -0.056 OA 
ENDBRANCH   5   6
BRANCH   5  10
HETATM   10  C   UNL     1     -10.699   5.788  69.881  1.00  0.00    -0.342 C  
BRANCH  10  11
HETATM   11  C   UNL     1     -11.161   7.181  70.282  1.00  0.00    -0.309 A  
HETATM   12  C   UNL     1     -10.970   8.245  69.400  1.00  0.00    -0.013 A  
HETATM   13  C   UNL     1     -11.274   9.577  69.759  1.00  0.00    -0.173 A  
HETATM   14  C   UNL     1     -11.918   9.833  70.966  1.00  0.00    -0.352 A  
HETATM   15  C   UNL     1     -12.163   8.772  71.846  1.00  0.00    -0.429 A  
HETATM   16  O   UNL     1     -12.339  11.092  71.347  1.00  0.00    -0.314 OA 
HETATM   17  C   UNL     1     -12.087  12.167  70.515  1.00  0.00    -0.293 A  
HETATM   18  C   UNL     1     -11.765   7.467  71.510  1.00  0.00    -0.280 A  
HETATM   19  O   UNL     1     -11.951   6.442  72.393  1.00  0.00    -0.456 OA 
HETATM   20  C   UNL     1     -12.622  13.412  70.877  1.00  0.00    -0.406 A  
HETATM   21  C   UNL     1     -12.388  14.549  70.082  1.00  0.00    -0.342 A  
HETATM   22  H   UNL     1     -12.362   6.637  73.228  1.00  0.00     0.000 HD 
HETATM   23  C   UNL     1     -11.586  14.477  68.941  1.00  0.00    -0.341 A  
HETATM   24  O   UNL     1     -12.960  15.749  70.405  1.00  0.00    -0.637 OA 
HETATM   25  C   UNL     1      -9.375  10.698  68.600  1.00  0.00    -0.177 A  
HETATM   26  H   UNL     1     -12.802  16.517  69.868  1.00  0.00     0.000 HD 
HETATM   27  C   UNL     1     -11.050  13.225  68.607  1.00  0.00    -0.301 A  
HETATM   28  C   UNL     1      -8.298  10.956  69.435  1.00  0.00     0.051 A  
HETATM   29  C   UNL     1     -11.327  12.063  69.352  1.00  0.00    -0.317 A  
HETATM   30  C   UNL     1     -10.846  10.720  68.874  1.00  0.00    -0.227 C  
HETATM   31  C   UNL     1      -7.013  10.865  68.893  1.00  0.00    -0.084 A  
HETATM   32  C   UNL     1      -6.825  10.509  67.546  1.00  0.00    -0.075 A  
HETATM   33  O   UNL     1     -11.421  10.474  67.562  1.00  0.00    -0.431 OA 
HETATM   34  C   UNL     1      -7.917  10.238  66.721  1.00  0.00    -0.114 A  
HETATM   35  O   UNL     1     -10.663   9.718  65.523  1.00  0.00     0.248 OA 
HETATM   36  C   UNL     1     -10.470  10.144  66.643  1.00  0.00    -0.185 C  
HETATM   37  C   UNL     1      -9.177  10.353  67.277  1.00  0.00    -0.157 A  
BRANCH  23  38
HETATM   38  C   UNL     1     -11.391  15.601  67.939  1.00  0.00    -0.302 C  
BRANCH  38  39
HETATM   39  N   UNL     1      -9.992  16.033  67.633  1.00  0.00    -0.236 NA 
BRANCH  39  40
HETATM   40  C   UNL     1      -9.192  15.961  68.902  1.00  0.00    -0.232 C  
HETATM   41  O   UNL     1      -6.962  16.834  69.345  1.00  0.00    -0.234 OA 
HETATM   42  C   UNL     1      -8.102  17.024  68.942  1.00  0.00    -0.210 C  
HETATM   43  O   UNL     1      -8.539  18.228  68.492  1.00  0.00    -0.306 OA 
ENDBRANCH  39  40
BRANCH  39  44
HETATM   44  C   UNL     1      -9.400  15.019  66.676  1.00  0.00    -0.266 C  
HETATM   45  C   UNL     1     -10.027  15.078  65.284  1.00  0.00    -0.290 C  
HETATM   46  O   UNL     1     -10.082  14.127  64.519  1.00  0.00    -0.287 OA 
HETATM   47  O   UNL     1     -10.475  16.318  64.951  1.00  0.00    -0.624 OA 
ENDBRANCH  39  44
ENDBRANCH  38  39
ENDBRANCH  23  38
ENDBRANCH  10  11
ENDBRANCH   5  10
ENDBRANCH   4   5
TORSDOF 8
ENDMDL
MODEL       35
REMARK 921   NORMALIZED FREE ENERGY PREDICTED BY IDOCK:   -6.34 KCAL/MOL
REMARK 922        TOTAL FREE ENERGY PREDICTED BY IDOCK:  -11.57 KCAL/MOL
REMARK 923 INTER-LIGAND FREE ENERGY PREDICTED BY IDOCK:  -10.28 KCAL/MOL
REMARK 924 INTRA-LIGAND FREE ENERGY PREDICTED BY IDOCK:   -1.29 KCAL/MOL
REMARK 927      BINDING AFFINITY PREDICTED BY RF-SCORE:    0.00 PKD
ROOT
HETATM    1  O   UNL     1      -8.887   5.850  69.189  1.00  0.00    -0.117 OA 
HETATM    2  C   UNL     1      -9.538   4.729  69.575  1.00  0.00    -0.179 C  
HETATM    3  O   UNL     1      -9.623   3.739  68.864  1.00  0.00    -0.171 OA 
HETATM    4  C   UNL     1     -10.084   4.807  70.996  1.00  0.00    -0.199 C  
ENDROOT
BRANCH   4   5
HETATM    5  N   UNL     1     -10.522   6.200  71.413  1.00  0.00    -0.218 NA 
BRANCH   5   6
HETATM    6  C   UNL     1      -9.265   7.008  71.654  1.00  0.00    -0.142 C  
HETATM    7  O   UNL     1     -10.077   7.168  73.928  1.00  0.00    -0.322 OA 
HETATM    8  C   UNL     1      -9.201   7.671  73.030  1.00  0.00    -0.201 C  
HETATM    9  O   UNL     1      -8.388   8.537  73.319  1.00  0.00    -0.372 OA 
ENDBRANCH   5   6
BRANCH   5  10
HETATM   10  C   UNL     1     -11.238   6.782  70.207  1.00  0.00    -0.334 C  
BRANCH  10  11
HETATM   11  C   UNL     1     -11.473   8.282  70.302  1.00  0.00    -0.065 A  
HETATM   12  C   UNL     1     -11.013   9.112  69.279  1.00  0.00    -0.081 A  
HETATM   13  C   UNL     1     -11.102  10.519  69.362  1.00  0.00    -0.310 A  
HETATM   14  C   UNL     1     -11.793  11.103  70.419  1.00  0.00    -0.369 A  
HETATM   15  C   UNL     1     -12.306  10.284  71.433  1.00  0.00    -0.502 A  
HETATM   16  O   UNL     1     -12.011  12.462  70.522  1.00  0.00    -0.330 OA 
HETATM   17  C   UNL     1     -11.494  13.302  69.553  1.00  0.00    -0.234 A  
HETATM   18  C   UNL     1     -12.122   8.892  71.379  1.00  0.00    -0.322 A  
HETATM   19  O   UNL     1     -12.570   8.099  72.396  1.00  0.00    -0.488 OA 
HETATM   20  C   UNL     1     -11.825  14.664  69.627  1.00  0.00    -0.367 A  
HETATM   21  C   UNL     1     -11.318  15.574  68.682  1.00  0.00    -0.344 A  
HETATM   22  H   UNL     1     -13.012   8.514  73.129  1.00  0.00     0.000 HD 
HETATM   23  C   UNL     1     -10.443  15.156  67.677  1.00  0.00    -0.253 A  
HETATM   24  O   UNL     1     -11.690  16.890  68.720  1.00  0.00     0.003 OA 
HETATM   25  C   UNL     1      -8.934  11.074  68.266  1.00  0.00    -0.155 A  
HETATM   26  H   UNL     1     -11.347  17.505  68.082  1.00  0.00     0.000 HD 
HETATM   27  C   UNL     1     -10.116  13.794  67.632  1.00  0.00    -0.242 A  
HETATM   28  C   UNL     1      -7.907  11.309  69.169  1.00  0.00    -0.020 A  
HETATM   29  C   UNL     1     -10.665  12.857  68.528  1.00  0.00    -0.275 A  
HETATM   30  C   UNL     1     -10.395  11.386  68.351  1.00  0.00    -0.195 C  
HETATM   31  C   UNL     1      -6.617  10.910  68.811  1.00  0.00    -0.059 A  
HETATM   32  C   UNL     1      -6.377  10.277  67.580  1.00  0.00    -0.058 A  
HETATM   33  O   UNL     1     -10.885  10.991  67.042  1.00  0.00    -0.260 OA 
HETATM   34  C   UNL     1      -7.421  10.033  66.687  1.00  0.00    -0.104 A  
HETATM   35  O   UNL     1     -10.097   9.745  65.272  1.00  0.00    -0.286 OA 
HETATM   36  C   UNL     1      -9.931  10.341  66.317  1.00  0.00    -0.235 C  
HETATM   37  C   UNL     1      -8.683  10.455  67.058  1.00  0.00    -0.132 A  
BRANCH  23  38
HETATM   38  C   UNL     1      -9.958  16.021  66.527  1.00  0.00    -0.279 C  
BRANCH  38  39
HETATM   39  N   UNL     1      -8.961  17.094  66.828  1.00  0.00    -0.231 NA 
BRANCH  39  40
HETATM   40  C   UNL     1      -7.589  16.546  66.561  1.00  0.00    -0.269 C  
HETATM   41  O   UNL     1      -5.474  17.174  67.595  1.00  0.00    -0.109 OA 
HETATM   42  C   UNL     1      -6.639  16.819  67.721  1.00  0.00    -0.144 C  
HETATM   43  O   UNL     1      -7.224  16.608  68.927  1.00  0.00    -0.194 OA 
ENDBRANCH  39  40
BRANCH  39  44
HETATM   44  C   UNL     1      -9.190  18.220  65.839  1.00  0.00     0.203 C  
HETATM   45  C   UNL     1     -10.351  19.131  66.234  1.00  0.00    -0.474 C  
HETATM   46  O   UNL     1     -11.016  19.774  65.435  1.00  0.00    -0.414 OA 
HETATM   47  O   UNL     1     -10.543  19.202  67.577  1.00  0.00    -0.434 OA 
ENDBRANCH  39  44
ENDBRANCH  38  39
ENDBRANCH  23  38
ENDBRANCH  10  11
ENDBRANCH   5  10
ENDBRANCH   4   5
TORSDOF 8
ENDMDL
MODEL       36
REMARK 921   NORMALIZED FREE ENERGY PREDICTED BY IDOCK:   -6.29 KCAL/MOL
REMARK 922        TOTAL FREE ENERGY PREDICTED BY IDOCK:  -11.50 KCAL/MOL
REMARK 923 INTER-LIGAND FREE ENERGY PREDICTED BY IDOCK:   -9.66 KCAL/MOL
REMARK 924 INTRA-LIGAND FREE ENERGY PREDICTED BY IDOCK:   -1.84 KCAL/MOL
REMARK 927      BINDING AFFINITY PREDICTED BY RF-SCORE:    0.00 PKD
ROOT
HETATM    1  O   UNL     1      -8.265  15.860  69.551  1.00  0.00    -0.219 OA 
HETATM    2  C   UNL     1      -7.477  16.381  68.583  1.00  0.00    -0.194 C  
HETATM    3  O   UNL     1      -6.423  16.950  68.826  1.00  0.00    -0.161 OA 
HETATM    4  C   UNL     1      -7.999  16.119  67.174  1.00  0.00    -0.199 C  
ENDROOT
BRANCH   4   5
HETATM    5  N   UNL     1      -9.513  16.086  67.075  1.00  0.00    -0.215 NA 
BRANCH   5   6
HETATM    6  C   UNL     1      -9.914  17.108  66.031  1.00  0.00    -0.253 C  
HETATM    7  O   UNL     1     -10.142  18.608  67.916  1.00  0.00    -0.334 OA 
HETATM    8  C   UNL     1     -10.436  18.422  66.610  1.00  0.00    -0.385 C  
HETATM    9  O   UNL     1     -11.013  19.266  65.940  1.00  0.00    -0.315 OA 
ENDBRANCH   5   6
BRANCH   5  10
HETATM   10  C   UNL     1      -9.859  14.706  66.546  1.00  0.00    -0.275 C  
BRANCH  10  11
HETATM   11  C   UNL     1     -10.419  13.769  67.606  1.00  0.00    -0.242 A  
HETATM   12  C   UNL     1      -9.661  12.672  68.018  1.00  0.00    -0.215 A  
HETATM   13  C   UNL     1     -10.170  11.706  68.913  1.00  0.00    -0.143 A  
HETATM   14  C   UNL     1     -11.403  11.917  69.523  1.00  0.00    -0.236 A  
HETATM   15  C   UNL     1     -12.160  13.038  69.160  1.00  0.00    -0.234 A  
HETATM   16  O   UNL     1     -11.927  11.073  70.483  1.00  0.00    -0.326 OA 
HETATM   17  C   UNL     1     -11.220   9.942  70.843  1.00  0.00    -0.360 A  
HETATM   18  C   UNL     1     -11.676  13.936  68.194  1.00  0.00    -0.353 A  
HETATM   19  O   UNL     1     -12.439  14.997  67.798  1.00  0.00    -0.377 OA 
HETATM   20  C   UNL     1     -11.725   9.165  71.897  1.00  0.00    -0.436 A  
HETATM   21  C   UNL     1     -11.061   7.992  72.302  1.00  0.00    -0.331 A  
HETATM   22  H   UNL     1     -13.293  15.111  68.198  1.00  0.00     0.000 HD 
HETATM   23  C   UNL     1      -9.913   7.550  71.641  1.00  0.00    -0.200 A  
HETATM   24  O   UNL     1     -11.522   7.270  73.368  1.00  0.00    -0.549 OA 
HETATM   25  C   UNL     1      -9.130   9.689  67.886  1.00  0.00    -0.130 A  
HETATM   26  H   UNL     1     -11.074   6.478  73.641  1.00  0.00     0.000 HD 
HETATM   27  C   UNL     1      -9.435   8.335  70.582  1.00  0.00    -0.181 A  
HETATM   28  C   UNL     1      -9.980   9.011  67.024  1.00  0.00    -0.295 A  
HETATM   29  C   UNL     1     -10.047   9.546  70.206  1.00  0.00    -0.314 A  
HETATM   30  C   UNL     1      -9.416  10.424  69.158  1.00  0.00    -0.208 C  
HETATM   31  C   UNL     1      -9.421   8.403  65.898  1.00  0.00    -0.169 A  
HETATM   32  C   UNL     1      -8.042   8.491  65.644  1.00  0.00    -0.119 A  
HETATM   33  O   UNL     1      -8.090  10.797  69.619  1.00  0.00    -0.058 OA 
HETATM   34  C   UNL     1      -7.200   9.188  66.511  1.00  0.00    -0.085 A  
HETATM   35  O   UNL     1      -5.973  10.883  68.717  1.00  0.00    -0.040 OA 
HETATM   36  C   UNL     1      -7.132  10.525  68.688  1.00  0.00    -0.077 C  
HETATM   37  C   UNL     1      -7.776   9.764  67.627  1.00  0.00    -0.094 A  
BRANCH  23  38
HETATM   38  C   UNL     1      -9.043   6.388  72.086  1.00  0.00    -0.140 C  
BRANCH  38  39
HETATM   39  N   UNL     1      -9.338   5.035  71.523  1.00  0.00    -0.145 NA 
BRANCH  39  40
HETATM   40  C   UNL     1      -8.672   4.932  70.181  1.00  0.00    -0.094 C  
HETATM   41  O   UNL     1      -9.474   3.818  68.168  1.00  0.00    -0.170 OA 
HETATM   42  C   UNL     1      -9.675   4.612  69.078  1.00  0.00    -0.172 C  
HETATM   43  O   UNL     1     -10.824   5.322  69.205  1.00  0.00    -0.151 OA 
ENDBRANCH  39  40
BRANCH  39  44
HETATM   44  C   UNL     1      -8.679   4.011  72.426  1.00  0.00    -0.106 C  
HETATM   45  C   UNL     1      -9.629   3.453  73.484  1.00  0.00    -0.106 C  
HETATM   46  O   UNL     1      -9.265   3.014  74.565  1.00  0.00    -0.080 OA 
HETATM   47  O   UNL     1     -10.928   3.442  73.085  1.00  0.00    -0.169 OA 
ENDBRANCH  39  44
ENDBRANCH  38  39
ENDBRANCH  23  38
ENDBRANCH  10  11
ENDBRANCH   5  10
ENDBRANCH   4   5
TORSDOF 8
ENDMDL
MODEL       37
REMARK 921   NORMALIZED FREE ENERGY PREDICTED BY IDOCK:   -6.18 KCAL/MOL
REMARK 922        TOTAL FREE ENERGY PREDICTED BY IDOCK:  -11.34 KCAL/MOL
REMARK 923 INTER-LIGAND FREE ENERGY PREDICTED BY IDOCK:   -9.31 KCAL/MOL
REMARK 924 INTRA-LIGAND FREE ENERGY PREDICTED BY IDOCK:   -2.04 KCAL/MOL
REMARK 927      BINDING AFFINITY PREDICTED BY RF-SCORE:    0.00 PKD
ROOT
HETATM    1  O   UNL     1     -10.894   6.040  69.616  1.00  0.00    -0.298 OA 
HETATM    2  C   UNL     1     -10.637   5.954  70.942  1.00  0.00    -0.256 C  
HETATM    3  O   UNL     1     -10.637   4.892  71.546  1.00  0.00    -0.157 OA 
HETATM    4  C   UNL     1     -10.280   7.295  71.574  1.00  0.00    -0.193 C  
ENDROOT
BRANCH   4   5
HETATM    5  N   UNL     1     -10.990   8.481  70.947  1.00  0.00    -0.243 NA 
BRANCH   5   6
HETATM    6  C   UNL     1     -11.753   9.179  72.053  1.00  0.00    -0.314 C  
HETATM    7  O   UNL     1     -13.658   7.955  71.201  1.00  0.00    -0.190 OA 
HETATM    8  C   UNL     1     -13.266   8.977  71.993  1.00  0.00    -0.429 C  
HETATM    9  O   UNL     1     -14.057   9.638  72.651  1.00  0.00    -0.247 OA 
ENDBRANCH   5   6
BRANCH   5  10
HETATM   10  C   UNL     1      -9.890   9.411  70.468  1.00  0.00    -0.270 C  
BRANCH  10  11
HETATM   11  C   UNL     1     -10.259  10.204  69.223  1.00  0.00    -0.238 A  
HETATM   12  C   UNL     1     -10.049  11.583  69.204  1.00  0.00     0.006 A  
HETATM   13  C   UNL     1     -10.473  12.388  68.124  1.00  0.00    -0.228 A  
HETATM   14  C   UNL     1     -10.984  11.786  66.978  1.00  0.00    -0.285 A  
HETATM   15  C   UNL     1     -11.158  10.397  66.957  1.00  0.00    -0.141 A  
HETATM   16  O   UNL     1     -11.328  12.492  65.842  1.00  0.00    -0.308 OA 
HETATM   17  C   UNL     1     -11.197  13.868  65.838  1.00  0.00    -0.297 A  
HETATM   18  C   UNL     1     -10.818   9.624  68.081  1.00  0.00    -0.190 A  
HETATM   19  O   UNL     1     -11.042   8.277  68.083  1.00  0.00    -0.439 OA 
HETATM   20  C   UNL     1     -11.450  14.544  64.635  1.00  0.00    -0.389 A  
HETATM   21  C   UNL     1     -11.350  15.946  64.569  1.00  0.00    -0.309 A  
HETATM   22  H   UNL     1     -11.423   7.884  67.306  1.00  0.00     0.000 HD 
HETATM   23  C   UNL     1     -11.040  16.700  65.702  1.00  0.00     0.117 A  
HETATM   24  O   UNL     1     -11.539  16.597  63.381  1.00  0.00    -0.515 OA 
HETATM   25  C   UNL     1     -11.189  14.384  69.431  1.00  0.00    -0.317 A  
HETATM   26  H   UNL     1     -11.471  17.544  63.336  1.00  0.00     0.000 HD 
HETATM   27  C   UNL     1     -10.805  16.004  66.896  1.00  0.00    -0.203 A  
HETATM   28  C   UNL     1     -12.552  14.410  69.693  1.00  0.00    -0.102 A  
HETATM   29  C   UNL     1     -10.835  14.597  66.967  1.00  0.00    -0.304 A  
HETATM   30  C   UNL     1     -10.437  13.891  68.235  1.00  0.00    -0.250 C  
HETATM   31  C   UNL     1     -12.974  14.946  70.912  1.00  0.00    -0.436 A  
HETATM   32  C   UNL     1     -12.042  15.429  71.845  1.00  0.00    -0.463 A  
HETATM   33  O   UNL     1      -9.066  14.257  68.545  1.00  0.00    -0.194 OA 
HETATM   34  C   UNL     1     -10.673  15.385  71.575  1.00  0.00     0.215 A  
HETATM   35  O   UNL     1      -7.900  14.931  70.414  1.00  0.00     0.413 OA 
HETATM   36  C   UNL     1      -8.938  14.720  69.821  1.00  0.00     0.345 C  
HETATM   37  C   UNL     1     -10.284  14.867  70.355  1.00  0.00     0.262 A  
BRANCH  23  38
HETATM   38  C   UNL     1     -10.764  18.193  65.709  1.00  0.00    -0.087 C  
BRANCH  38  39
HETATM   39  N   UNL     1      -9.711  18.708  66.638  1.00  0.00    -0.326 NA 
BRANCH  39  40
HETATM   40  C   UNL     1      -8.739  19.524  65.836  1.00  0.00    -0.063 C  
HETATM   41  O   UNL     1      -6.304  19.500  65.917  1.00  0.00    -0.189 OA 
HETATM   42  C   UNL     1      -7.356  18.884  65.806  1.00  0.00    -0.182 C  
HETATM   43  O   UNL     1      -7.415  17.540  65.625  1.00  0.00    -0.462 OA 
ENDBRANCH  39  40
BRANCH  39  44
HETATM   44  C   UNL     1     -10.386  19.651  67.613  1.00  0.00    -0.451 C  
HETATM   45  C   UNL     1      -9.782  19.589  69.015  1.00  0.00    -0.387 C  
HETATM   46  O   UNL     1     -10.396  19.859  70.036  1.00  0.00     0.023 OA 
HETATM   47  O   UNL     1      -8.464  19.253  69.016  1.00  0.00    -0.334 OA 
ENDBRANCH  39  44
ENDBRANCH  38  39
ENDBRANCH  23  38
ENDBRANCH  10  11
ENDBRANCH   5  10
ENDBRANCH   4   5
TORSDOF 8
ENDMDL
MODEL       38
REMARK 921   NORMALIZED FREE ENERGY PREDICTED BY IDOCK:   -6.12 KCAL/MOL
REMARK 922        TOTAL FREE ENERGY PREDICTED BY IDOCK:  -11.25 KCAL/MOL
REMARK 923 INTER-LIGAND FREE ENERGY PREDICTED BY IDOCK:   -9.24 KCAL/MOL
REMARK 924 INTRA-LIGAND FREE ENERGY PREDICTED BY IDOCK:   -2.01 KCAL/MOL
REMARK 927      BINDING AFFINITY PREDICTED BY RF-SCORE:    0.00 PKD
ROOT
HETATM    1  O   UNL     1     -11.190   6.240  67.190  1.00  0.00    -0.334 OA 
HETATM    2  C   UNL     1     -10.456   5.347  66.487  1.00  0.00    -0.294 C  
HETATM    3  O   UNL     1     -10.825   4.890  65.415  1.00  0.00    -0.112 OA 
HETATM    4  C   UNL     1      -9.109   5.036  67.129  1.00  0.00    -0.114 C  
ENDROOT
BRANCH   4   5
HETATM    5  N   UNL     1      -9.126   5.076  68.647  1.00  0.00    -0.106 NA 
BRANCH   5   6
HETATM    6  C   UNL     1      -8.437   3.819  69.134  1.00  0.00    -0.073 C  
HETATM    7  O   UNL     1     -10.134   3.830  70.858  1.00  0.00    -0.105 OA 
HETATM    8  C   UNL     1      -8.946   3.308  70.481  1.00  0.00    -0.096 C  
HETATM    9  O   UNL     1      -8.366   2.454  71.136  1.00  0.00    -0.055 OA 
ENDBRANCH   5   6
BRANCH   5  10
HETATM   10  C   UNL     1      -8.270   6.269  69.034  1.00  0.00    -0.114 C  
BRANCH  10  11
HETATM   11  C   UNL     1      -9.075   7.512  69.380  1.00  0.00    -0.142 A  
HETATM   12  C   UNL     1      -8.985   8.635  68.557  1.00  0.00    -0.139 A  
HETATM   13  C   UNL     1      -9.619   9.854  68.885  1.00  0.00    -0.172 A  
HETATM   14  C   UNL     1     -10.477   9.910  69.978  1.00  0.00    -0.284 A  
HETATM   15  C   UNL     1     -10.620   8.778  70.791  1.00  0.00    -0.269 A  
HETATM   16  O   UNL     1     -11.211  11.032  70.308  1.00  0.00    -0.256 OA 
HETATM   17  C   UNL     1     -11.073  12.175  69.545  1.00  0.00    -0.050 A  
HETATM   18  C   UNL     1      -9.905   7.604  70.501  1.00  0.00    -0.183 A  
HETATM   19  O   UNL     1      -9.998   6.520  71.326  1.00  0.00    -0.181 OA 
HETATM   20  C   UNL     1     -11.911  13.261  69.839  1.00  0.00    -0.400 A  
HETATM   21  C   UNL     1     -11.809  14.460  69.109  1.00  0.00    -0.323 A  
HETATM   22  H   UNL     1     -10.562   6.582  72.089  1.00  0.00     0.000 HD 
HETATM   23  C   UNL     1     -10.847  14.615  68.109  1.00  0.00    -0.256 A  
HETATM   24  O   UNL     1     -12.668  15.496  69.357  1.00  0.00    -0.586 OA 
HETATM   25  C   UNL     1      -7.852  11.404  68.060  1.00  0.00    -0.121 A  
HETATM   26  H   UNL     1     -12.599  16.306  68.865  1.00  0.00     0.000 HD 
HETATM   27  C   UNL     1     -10.011  13.521  67.843  1.00  0.00    -0.245 A  
HETATM   28  C   UNL     1      -6.993  11.840  69.059  1.00  0.00    -0.107 A  
HETATM   29  C   UNL     1     -10.142  12.291  68.516  1.00  0.00    -0.192 A  
HETATM   30  C   UNL     1      -9.317  11.104  68.097  1.00  0.00    -0.176 C  
HETATM   31  C   UNL     1      -5.653  12.048  68.726  1.00  0.00    -0.049 A  
HETATM   32  C   UNL     1      -5.191  11.806  67.421  1.00  0.00    -0.081 A  
HETATM   33  O   UNL     1      -9.621  10.809  66.708  1.00  0.00    -0.167 OA 
HETATM   34  C   UNL     1      -6.062  11.354  66.429  1.00  0.00    -0.085 A  
HETATM   35  O   UNL     1      -8.418  10.331  64.803  1.00  0.00    -0.163 OA 
HETATM   36  C   UNL     1      -8.493  10.732  65.946  1.00  0.00    -0.166 C  
HETATM   37  C   UNL     1      -7.386  11.175  66.780  1.00  0.00    -0.146 A  
BRANCH  23  38
HETATM   38  C   UNL     1     -10.749  15.804  67.169  1.00  0.00    -0.312 C  
BRANCH  38  39
HETATM   39  N   UNL     1      -9.617  16.761  67.365  1.00  0.00    -0.234 NA 
BRANCH  39  40
HETATM   40  C   UNL     1      -8.581  16.482  66.314  1.00  0.00    -0.332 C  
HETATM   41  O   UNL     1      -6.156  16.473  66.534  1.00  0.00    -0.297 OA 
HETATM   42  C   UNL     1      -7.246  16.084  66.931  1.00  0.00    -0.177 C  
HETATM   43  O   UNL     1      -7.395  15.225  67.971  1.00  0.00    -0.108 OA 
ENDBRANCH  39  40
BRANCH  39  44
HETATM   44  C   UNL     1     -10.149  18.156  67.106  1.00  0.00    -0.351 C  
HETATM   45  C   UNL     1      -9.772  19.149  68.204  1.00  0.00    -0.361 C  
HETATM   46  O   UNL     1     -10.426  20.145  68.478  1.00  0.00    -0.385 OA 
HETATM   47  O   UNL     1      -8.598  18.848  68.818  1.00  0.00    -0.345 OA 
ENDBRANCH  39  44
ENDBRANCH  38  39
ENDBRANCH  23  38
ENDBRANCH  10  11
ENDBRANCH   5  10
ENDBRANCH   4   5
TORSDOF 8
ENDMDL
MODEL       39
REMARK 921   NORMALIZED FREE ENERGY PREDICTED BY IDOCK:   -6.06 KCAL/MOL
REMARK 922        TOTAL FREE ENERGY PREDICTED BY IDOCK:  -11.16 KCAL/MOL
REMARK 923 INTER-LIGAND FREE ENERGY PREDICTED BY IDOCK:   -9.84 KCAL/MOL
REMARK 924 INTRA-LIGAND FREE ENERGY PREDICTED BY IDOCK:   -1.32 KCAL/MOL
REMARK 927      BINDING AFFINITY PREDICTED BY RF-SCORE:    0.00 PKD
ROOT
HETATM    1  O   UNL     1     -10.888   4.740  72.223  1.00  0.00    -0.165 OA 
HETATM    2  C   UNL     1     -10.168   5.434  73.134  1.00  0.00    -0.190 C  
HETATM    3  O   UNL     1     -10.141   5.134  74.318  1.00  0.00    -0.192 OA 
HETATM    4  C   UNL     1      -9.350   6.566  72.522  1.00  0.00    -0.141 C  
ENDROOT
BRANCH   4   5
HETATM    5  N   UNL     1     -10.006   7.219  71.319  1.00  0.00    -0.188 NA 
BRANCH   5   6
HETATM    6  C   UNL     1     -10.332   8.645  71.709  1.00  0.00    -0.316 C  
HETATM    7  O   UNL     1     -12.635   7.917  71.566  1.00  0.00    -0.311 OA 
HETATM    8  C   UNL     1     -11.818   8.991  71.629  1.00  0.00    -0.360 C  
HETATM    9  O   UNL     1     -12.243  10.137  71.681  1.00  0.00    -0.382 OA 
ENDBRANCH   5   6
BRANCH   5  10
HETATM   10  C   UNL     1      -8.940   7.254  70.239  1.00  0.00    -0.151 C  
BRANCH  10  11
HETATM   11  C   UNL     1      -8.214   8.587  70.140  1.00  0.00    -0.121 A  
HETATM   12  C   UNL     1      -8.753   9.601  69.347  1.00  0.00    -0.173 A  
HETATM   13  C   UNL     1      -8.072  10.819  69.126  1.00  0.00    -0.133 A  
HETATM   14  C   UNL     1      -6.900  11.087  69.826  1.00  0.00    -0.116 A  
HETATM   15  C   UNL     1      -6.367  10.101  70.666  1.00  0.00    -0.093 A  
HETATM   16  O   UNL     1      -6.227  12.290  69.744  1.00  0.00    -0.129 OA 
HETATM   17  C   UNL     1      -6.710  13.275  68.903  1.00  0.00    -0.110 A  
HETATM   18  C   UNL     1      -7.011   8.859  70.797  1.00  0.00    -0.074 A  
HETATM   19  O   UNL     1      -6.460   7.876  71.569  1.00  0.00    -0.038 OA 
HETATM   20  C   UNL     1      -6.068  14.522  68.923  1.00  0.00    -0.086 A  
HETATM   21  C   UNL     1      -6.501  15.562  68.079  1.00  0.00    -0.135 A  
HETATM   22  H   UNL     1      -5.642   8.061  72.015  1.00  0.00     0.000 HD 
HETATM   23  C   UNL     1      -7.546  15.367  67.173  1.00  0.00    -0.238 A  
HETATM   24  O   UNL     1      -5.912  16.795  68.144  1.00  0.00    -0.119 OA 
HETATM   25  C   UNL     1      -8.717  11.156  66.743  1.00  0.00    -0.157 A  
HETATM   26  H   UNL     1      -6.204  17.497  67.574  1.00  0.00     0.000 HD 
HETATM   27  C   UNL     1      -8.162  14.108  67.161  1.00  0.00    -0.166 A  
HETATM   28  C   UNL     1      -7.755  10.714  65.846  1.00  0.00    -0.146 A  
HETATM   29  C   UNL     1      -7.788  13.077  68.044  1.00  0.00    -0.146 A  
HETATM   30  C   UNL     1      -8.573  11.793  68.090  1.00  0.00    -0.160 C  
HETATM   31  C   UNL     1      -8.190  10.159  64.641  1.00  0.00    -0.165 A  
HETATM   32  C   UNL     1      -9.562  10.041  64.358  1.00  0.00    -0.325 A  
HETATM   33  O   UNL     1      -9.945  12.113  68.442  1.00  0.00    -0.208 OA 
HETATM   34  C   UNL     1     -10.519  10.477  65.275  1.00  0.00    -0.232 A  
HETATM   35  O   UNL     1     -12.041  11.531  67.686  1.00  0.00    -0.623 OA 
HETATM   36  C   UNL     1     -10.835  11.581  67.558  1.00  0.00    -0.237 C  
HETATM   37  C   UNL     1     -10.061  11.039  66.451  1.00  0.00    -0.275 A  
BRANCH  23  38
HETATM   38  C   UNL     1      -8.183  16.456  66.328  1.00  0.00    -0.308 C  
BRANCH  38  39
HETATM   39  N   UNL     1      -9.102  17.422  67.006  1.00  0.00    -0.236 NA 
BRANCH  39  40
HETATM   40  C   UNL     1      -8.985  18.746  66.308  1.00  0.00    -0.236 C  
HETATM   41  O   UNL     1      -9.680  20.945  67.092  1.00  0.00    -0.431 OA 
HETATM   42  C   UNL     1      -9.059  19.909  67.290  1.00  0.00    -0.339 C  
HETATM   43  O   UNL     1      -8.339  19.678  68.417  1.00  0.00    -0.335 OA 
ENDBRANCH  39  40
BRANCH  39  44
HETATM   44  C   UNL     1     -10.519  16.930  66.793  1.00  0.00    -0.260 C  
HETATM   45  C   UNL     1     -11.039  16.092  67.959  1.00  0.00    -0.334 C  
HETATM   46  O   UNL     1     -11.899  15.230  67.850  1.00  0.00    -0.303 OA 
HETATM   47  O   UNL     1     -10.489  16.436  69.153  1.00  0.00    -0.260 OA 
ENDBRANCH  39  44
ENDBRANCH  38  39
ENDBRANCH  23  38
ENDBRANCH  10  11
ENDBRANCH   5  10
ENDBRANCH   4   5
TORSDOF 8
ENDMDL
MODEL       40
REMARK 921   NORMALIZED FREE ENERGY PREDICTED BY IDOCK:   -5.95 KCAL/MOL
REMARK 922        TOTAL FREE ENERGY PREDICTED BY IDOCK:  -11.00 KCAL/MOL
REMARK 923 INTER-LIGAND FREE ENERGY PREDICTED BY IDOCK:  -10.69 KCAL/MOL
REMARK 924 INTRA-LIGAND FREE ENERGY PREDICTED BY IDOCK:   -0.31 KCAL/MOL
REMARK 927      BINDING AFFINITY PREDICTED BY RF-SCORE:    0.00 PKD
ROOT
HETATM    1  O   UNL     1     -10.663  17.659  65.103  1.00  0.00    -0.658 OA 
HETATM    2  C   UNL     1     -11.048  16.426  64.701  1.00  0.00    -0.189 C  
HETATM    3  O   UNL     1     -12.080  16.229  64.077  1.00  0.00    -0.928 OA 
HETATM    4  C   UNL     1     -10.036  15.338  65.042  1.00  0.00    -0.215 C  
ENDROOT
BRANCH   4   5
HETATM    5  N   UNL     1      -9.276  15.585  66.333  1.00  0.00    -0.279 NA 
BRANCH   5   6
HETATM    6  C   UNL     1      -8.351  16.758  66.087  1.00  0.00    -0.266 C  
HETATM    7  O   UNL     1      -6.689  15.383  67.184  1.00  0.00    -0.271 OA 
HETATM    8  C   UNL     1      -6.989  16.634  66.770  1.00  0.00    -0.229 C  
HETATM    9  O   UNL     1      -6.207  17.567  66.878  1.00  0.00    -0.141 OA 
ENDBRANCH   5   6
BRANCH   5  10
HETATM   10  C   UNL     1     -10.322  16.009  67.349  1.00  0.00    -0.294 C  
BRANCH  10  11
HETATM   11  C   UNL     1     -10.788  14.878  68.253  1.00  0.00    -0.257 A  
HETATM   12  C   UNL     1     -10.038  13.703  68.321  1.00  0.00    -0.240 A  
HETATM   13  C   UNL     1     -10.476  12.578  69.053  1.00  0.00    -0.024 A  
HETATM   14  C   UNL     1     -11.611  12.678  69.852  1.00  0.00    -0.177 A  
HETATM   15  C   UNL     1     -12.353  13.866  69.837  1.00  0.00    -0.358 A  
HETATM   16  O   UNL     1     -12.050  11.660  70.675  1.00  0.00    -0.368 OA 
HETATM   17  C   UNL     1     -11.358  10.463  70.692  1.00  0.00    -0.325 A  
HETATM   18  C   UNL     1     -11.951  14.941  69.026  1.00  0.00    -0.272 A  
HETATM   19  O   UNL     1     -12.706  16.077  68.966  1.00  0.00    -0.239 OA 
HETATM   20  C   UNL     1     -11.763   9.489  71.617  1.00  0.00    -0.460 A  
HETATM   21  C   UNL     1     -11.111   8.243  71.675  1.00  0.00    -0.265 A  
HETATM   22  H   UNL     1     -13.497  16.120  69.491  1.00  0.00     0.000 HD 
HETATM   23  C   UNL     1     -10.078   7.930  70.789  1.00  0.00    -0.201 A  
HETATM   24  O   UNL     1     -11.468   7.319  72.617  1.00  0.00    -0.373 OA 
HETATM   25  C   UNL     1      -9.672  10.808  67.496  1.00  0.00    -0.188 A  
HETATM   26  H   UNL     1     -11.028   6.477  72.656  1.00  0.00     0.000 HD 
HETATM   27  C   UNL     1      -9.700   8.914  69.864  1.00  0.00    -0.185 A  
HETATM   28  C   UNL     1     -10.656  10.348  66.632  1.00  0.00    -0.245 A  
HETATM   29  C   UNL     1     -10.296  10.190  69.835  1.00  0.00    -0.308 A  
HETATM   30  C   UNL     1      -9.760  11.258  68.921  1.00  0.00    -0.127 C  
HETATM   31  C   UNL     1     -10.273   9.984  65.339  1.00  0.00    -0.226 A  
HETATM   32  C   UNL     1      -8.934  10.097  64.928  1.00  0.00    -0.230 A  
HETATM   33  O   UNL     1      -8.370  11.497  69.269  1.00  0.00     0.110 OA 
HETATM   34  C   UNL     1      -7.957  10.574  65.802  1.00  0.00    -0.158 A  
HETATM   35  O   UNL     1      -6.382  11.732  68.130  1.00  0.00    -0.049 OA 
HETATM   36  C   UNL     1      -7.551  11.411  68.182  1.00  0.00    -0.114 C  
HETATM   37  C   UNL     1      -8.359  10.909  67.080  1.00  0.00    -0.125 A  
BRANCH  23  38
HETATM   38  C   UNL     1      -9.216   6.682  70.860  1.00  0.00    -0.157 C  
BRANCH  38  39
HETATM   39  N   UNL     1      -9.554   5.543  69.952  1.00  0.00    -0.155 NA 
BRANCH  39  40
HETATM   40  C   UNL     1     -10.015   4.391  70.799  1.00  0.00    -0.177 C  
HETATM   41  O   UNL     1      -9.581   2.013  70.496  1.00  0.00    -0.119 OA 
HETATM   42  C   UNL     1      -9.149   3.155  70.587  1.00  0.00    -0.121 C  
HETATM   43  O   UNL     1      -7.827   3.456  70.523  1.00  0.00    -0.043 OA 
ENDBRANCH  39  40
BRANCH  39  44
HETATM   44  C   UNL     1     -10.735   5.971  69.104  1.00  0.00    -0.331 C  
HETATM   45  C   UNL     1     -10.443   5.913  67.606  1.00  0.00    -0.238 C  
HETATM   46  O   UNL     1     -11.002   6.611  66.774  1.00  0.00    -0.347 OA 
HETATM   47  O   UNL     1      -9.529   4.962  67.275  1.00  0.00    -0.128 OA 
ENDBRANCH  39  44
ENDBRANCH  38  39
ENDBRANCH  23  38
ENDBRANCH  10  11
ENDBRANCH   5  10
ENDBRANCH   4   5
TORSDOF 8
ENDMDL
MODEL       41
REMARK 921   NORMALIZED FREE ENERGY PREDICTED BY IDOCK:   -5.93 KCAL/MOL
REMARK 922        TOTAL FREE ENERGY PREDICTED BY IDOCK:  -10.98 KCAL/MOL
REMARK 923 INTER-LIGAND FREE ENERGY PREDICTED BY IDOCK:   -9.78 KCAL/MOL
REMARK 924 INTRA-LIGAND FREE ENERGY PREDICTED BY IDOCK:   -1.20 KCAL/MOL
REMARK 927      BINDING AFFINITY PREDICTED BY RF-SCORE:    0.00 PKD
ROOT
HETATM    1  O   UNL     1      -7.065   3.659  63.797  1.00  0.00    -0.048 OA 
HETATM    2  C   UNL     1      -6.078   3.100  64.533  1.00  0.00    -0.022 C  
HETATM    3  O   UNL     1      -5.465   2.108  64.169  1.00  0.00    -0.008 OA 
HETATM    4  C   UNL     1      -5.767   3.873  65.811  1.00  0.00    -0.018 C  
ENDROOT
BRANCH   4   5
HETATM    5  N   UNL     1      -6.976   4.549  66.431  1.00  0.00    -0.058 NA 
BRANCH   5   6
HETATM    6  C   UNL     1      -7.432   3.678  67.582  1.00  0.00    -0.066 C  
HETATM    7  O   UNL     1      -9.557   3.656  66.426  1.00  0.00    -0.189 OA 
HETATM    8  C   UNL     1      -8.933   3.394  67.596  1.00  0.00    -0.146 C  
HETATM    9  O   UNL     1      -9.515   2.910  68.556  1.00  0.00    -0.189 OA 
ENDBRANCH   5   6
BRANCH   5  10
HETATM   10  C   UNL     1      -6.464   5.861  67.000  1.00  0.00    -0.050 C  
BRANCH  10  11
HETATM   11  C   UNL     1      -7.372   7.047  66.712  1.00  0.00    -0.077 A  
HETATM   12  C   UNL     1      -7.836   7.826  67.773  1.00  0.00    -0.123 A  
HETATM   13  C   UNL     1      -8.768   8.869  67.581  1.00  0.00    -0.124 A  
HETATM   14  C   UNL     1      -9.132   9.237  66.290  1.00  0.00    -0.171 A  
HETATM   15  C   UNL     1      -8.639   8.499  65.206  1.00  0.00    -0.192 A  
HETATM   16  O   UNL     1      -9.958  10.308  66.012  1.00  0.00    -0.220 OA 
HETATM   17  C   UNL     1     -10.485  11.041  67.058  1.00  0.00    -0.240 A  
HETATM   18  C   UNL     1      -7.787   7.403  65.426  1.00  0.00    -0.118 A  
HETATM   19  O   UNL     1      -7.354   6.647  64.375  1.00  0.00    -0.074 OA 
HETATM   20  C   UNL     1     -11.231  12.186  66.742  1.00  0.00    -0.375 A  
HETATM   21  C   UNL     1     -11.809  12.967  67.760  1.00  0.00    -0.339 A  
HETATM   22  H   UNL     1      -7.636   6.889  63.500  1.00  0.00     0.000 HD 
HETATM   23  C   UNL     1     -11.693  12.599  69.103  1.00  0.00    -0.375 A  
HETATM   24  O   UNL     1     -12.485  14.115  67.452  1.00  0.00    -0.554 OA 
HETATM   25  C   UNL     1     -10.090   8.550  69.669  1.00  0.00    -0.202 A  
HETATM   26  H   UNL     1     -12.875  14.642  68.140  1.00  0.00     0.000 HD 
HETATM   27  C   UNL     1     -10.955  11.443  69.393  1.00  0.00    -0.260 A  
HETATM   28  C   UNL     1     -11.237   7.792  69.481  1.00  0.00     0.097 A  
HETATM   29  C   UNL     1     -10.314  10.686  68.393  1.00  0.00    -0.197 A  
HETATM   30  C   UNL     1      -9.417   9.537  68.767  1.00  0.00    -0.147 C  
HETATM   31  C   UNL     1     -11.640   6.947  70.518  1.00  0.00    -0.396 A  
HETATM   32  C   UNL     1     -10.893   6.859  71.705  1.00  0.00    -0.252 A  
HETATM   33  O   UNL     1      -8.344  10.052  69.599  1.00  0.00    -0.156 OA 
HETATM   34  C   UNL     1      -9.733   7.616  71.875  1.00  0.00    -0.203 A  
HETATM   35  O   UNL     1      -7.320   9.441  71.570  1.00  0.00    -0.334 OA 
HETATM   36  C   UNL     1      -8.226   9.357  70.766  1.00  0.00    -0.127 C  
HETATM   37  C   UNL     1      -9.368   8.458  70.842  1.00  0.00    -0.201 A  
BRANCH  23  38
HETATM   38  C   UNL     1     -12.148  13.442  70.281  1.00  0.00    -0.349 C  
BRANCH  38  39
HETATM   39  N   UNL     1     -12.233  14.923  70.092  1.00  0.00    -0.321 NA 
BRANCH  39  40
HETATM   40  C   UNL     1     -13.167  15.474  71.131  1.00  0.00    -0.507 C  
HETATM   41  O   UNL     1     -13.536  14.694  73.409  1.00  0.00    -0.513 OA 
HETATM   42  C   UNL     1     -12.755  15.053  72.537  1.00  0.00    -0.353 C  
HETATM   43  O   UNL     1     -11.415  15.136  72.728  1.00  0.00    -0.392 OA 
ENDBRANCH  39  40
BRANCH  39  44
HETATM   44  C   UNL     1     -10.860  15.498  70.379  1.00  0.00    -0.335 C  
HETATM   45  C   UNL     1     -10.275  16.259  69.191  1.00  0.00    -0.266 C  
HETATM   46  O   UNL     1      -9.077  16.396  68.991  1.00  0.00    -0.257 OA 
HETATM   47  O   UNL     1     -11.222  16.823  68.396  1.00  0.00    -0.332 OA 
ENDBRANCH  39  44
ENDBRANCH  38  39
ENDBRANCH  23  38
ENDBRANCH  10  11
ENDBRANCH   5  10
ENDBRANCH   4   5
TORSDOF 8
ENDMDL
MODEL       42
REMARK 921   NORMALIZED FREE ENERGY PREDICTED BY IDOCK:   -5.92 KCAL/MOL
REMARK 922        TOTAL FREE ENERGY PREDICTED BY IDOCK:  -10.96 KCAL/MOL
REMARK 923 INTER-LIGAND FREE ENERGY PREDICTED BY IDOCK:   -9.47 KCAL/MOL
REMARK 924 INTRA-LIGAND FREE ENERGY PREDICTED BY IDOCK:   -1.49 KCAL/MOL
REMARK 927      BINDING AFFINITY PREDICTED BY RF-SCORE:    0.00 PKD
ROOT
HETATM    1  O   UNL     1      -6.817   2.728  67.773  1.00  0.00    -0.046 OA 
HETATM    2  C   UNL     1      -7.200   3.764  68.554  1.00  0.00    -0.054 C  
HETATM    3  O   UNL     1      -7.493   3.628  69.733  1.00  0.00    -0.045 OA 
HETATM    4  C   UNL     1      -7.159   5.108  67.836  1.00  0.00    -0.066 C  
ENDROOT
BRANCH   4   5
HETATM    5  N   UNL     1      -7.485   5.026  66.356  1.00  0.00    -0.086 NA 
BRANCH   5   6
HETATM    6  C   UNL     1      -8.935   5.431  66.196  1.00  0.00    -0.142 C  
HETATM    7  O   UNL     1      -9.335   3.057  65.957  1.00  0.00    -0.146 OA 
HETATM    8  C   UNL     1      -9.862   4.289  65.782  1.00  0.00    -0.223 C  
HETATM    9  O   UNL     1     -11.005   4.464  65.386  1.00  0.00    -0.230 OA 
ENDBRANCH   5   6
BRANCH   5  10
HETATM   10  C   UNL     1      -6.621   6.080  65.687  1.00  0.00    -0.047 C  
BRANCH  10  11
HETATM   11  C   UNL     1      -7.407   7.271  65.161  1.00  0.00    -0.081 A  
HETATM   12  C   UNL     1      -7.532   8.412  65.955  1.00  0.00    -0.081 A  
HETATM   13  C   UNL     1      -8.341   9.505  65.571  1.00  0.00    -0.137 A  
HETATM   14  C   UNL     1      -8.918   9.521  64.305  1.00  0.00    -0.205 A  
HETATM   15  C   UNL     1      -8.764   8.405  63.472  1.00  0.00     0.248 A  
HETATM   16  O   UNL     1      -9.638  10.592  63.815  1.00  0.00    -0.264 OA 
HETATM   17  C   UNL     1      -9.834  11.697  64.621  1.00  0.00    -0.227 A  
HETATM   18  C   UNL     1      -8.035   7.288  63.912  1.00  0.00    -0.078 A  
HETATM   19  O   UNL     1      -7.934   6.178  63.124  1.00  0.00    -0.106 OA 
HETATM   20  C   UNL     1     -10.474  12.811  64.058  1.00  0.00    -0.433 A  
HETATM   21  C   UNL     1     -10.719  13.961  64.830  1.00  0.00    -0.410 A  
HETATM   22  H   UNL     1      -8.361   6.189  62.275  1.00  0.00     0.000 HD 
HETATM   23  C   UNL     1     -10.370  14.008  66.182  1.00  0.00    -0.301 A  
HETATM   24  O   UNL     1     -11.289  15.067  64.262  1.00  0.00    -0.638 OA 
HETATM   25  C   UNL     1      -9.223  10.100  67.824  1.00  0.00    -0.146 A  
HETATM   26  H   UNL     1     -11.454  15.844  64.784  1.00  0.00     0.000 HD 
HETATM   27  C   UNL     1      -9.744  12.878  66.727  1.00  0.00    -0.246 A  
HETATM   28  C   UNL     1     -10.472   9.556  68.085  1.00  0.00    -0.268 A  
HETATM   29  C   UNL     1      -9.432  11.744  65.953  1.00  0.00    -0.239 A  
HETATM   30  C   UNL     1      -8.633  10.615  66.548  1.00  0.00    -0.142 C  
HETATM   31  C   UNL     1     -10.753   9.163  69.396  1.00  0.00    -0.210 A  
HETATM   32  C   UNL     1      -9.790   9.303  70.410  1.00  0.00    -0.290 A  
HETATM   33  O   UNL     1      -7.351  11.145  66.978  1.00  0.00    -0.113 OA 
HETATM   34  C   UNL     1      -8.532   9.839  70.130  1.00  0.00    -0.204 A  
HETATM   35  O   UNL     1      -6.022  10.984  68.853  1.00  0.00    -0.040 OA 
HETATM   36  C   UNL     1      -7.080  10.833  68.277  1.00  0.00    -0.078 C  
HETATM   37  C   UNL     1      -8.287  10.236  68.830  1.00  0.00    -0.136 A  
BRANCH  23  38
HETATM   38  C   UNL     1     -10.454  15.243  67.062  1.00  0.00    -0.292 C  
BRANCH  38  39
HETATM   39  N   UNL     1      -9.642  16.438  66.673  1.00  0.00    -0.242 NA 
BRANCH  39  40
HETATM   40  C   UNL     1     -10.398  17.669  67.083  1.00  0.00    -0.343 C  
HETATM   41  O   UNL     1     -10.620  19.782  65.892  1.00  0.00    -0.510 OA 
HETATM   42  C   UNL     1     -10.710  18.561  65.888  1.00  0.00    -0.198 C  
HETATM   43  O   UNL     1     -11.121  17.850  64.807  1.00  0.00    -0.785 OA 
ENDBRANCH  39  40
BRANCH  39  44
HETATM   44  C   UNL     1      -8.366  16.407  67.489  1.00  0.00    -0.161 C  
HETATM   45  C   UNL     1      -7.129  16.777  66.672  1.00  0.00    -0.240 C  
HETATM   46  O   UNL     1      -5.999  16.390  66.930  1.00  0.00    -0.304 OA 
HETATM   47  O   UNL     1      -7.399  17.632  65.650  1.00  0.00    -0.487 OA 
ENDBRANCH  39  44
ENDBRANCH  38  39
ENDBRANCH  23  38
ENDBRANCH  10  11
ENDBRANCH   5  10
ENDBRANCH   4   5
TORSDOF 8
ENDMDL
MODEL       43
REMARK 921   NORMALIZED FREE ENERGY PREDICTED BY IDOCK:   -5.92 KCAL/MOL
REMARK 922        TOTAL FREE ENERGY PREDICTED BY IDOCK:  -10.96 KCAL/MOL
REMARK 923 INTER-LIGAND FREE ENERGY PREDICTED BY IDOCK:  -10.39 KCAL/MOL
REMARK 924 INTRA-LIGAND FREE ENERGY PREDICTED BY IDOCK:   -0.57 KCAL/MOL
REMARK 927      BINDING AFFINITY PREDICTED BY RF-SCORE:    0.00 PKD
ROOT
HETATM    1  O   UNL     1     -11.030  17.582  64.798  1.00  0.00    -0.950 OA 
HETATM    2  C   UNL     1     -11.270  16.272  64.565  1.00  0.00    -0.207 C  
HETATM    3  O   UNL     1     -12.243  15.882  63.938  1.00  0.00    -0.785 OA 
HETATM    4  C   UNL     1     -10.175  15.354  65.098  1.00  0.00    -0.325 C  
ENDROOT
BRANCH   4   5
HETATM    5  N   UNL     1      -9.512  15.858  66.367  1.00  0.00    -0.270 NA 
BRANCH   5   6
HETATM    6  C   UNL     1      -8.862  17.184  66.033  1.00  0.00    -0.107 C  
HETATM    7  O   UNL     1      -6.803  16.071  66.648  1.00  0.00    -0.224 OA 
HETATM    8  C   UNL     1      -7.383  17.268  66.409  1.00  0.00    -0.301 C  
HETATM    9  O   UNL     1      -6.756  18.317  66.429  1.00  0.00    -0.190 OA 
ENDBRANCH   5   6
BRANCH   5  10
HETATM   10  C   UNL     1     -10.643  16.116  67.346  1.00  0.00    -0.311 C  
BRANCH  10  11
HETATM   11  C   UNL     1     -10.983  14.915  68.216  1.00  0.00    -0.268 A  
HETATM   12  C   UNL     1     -10.167  13.784  68.170  1.00  0.00    -0.253 A  
HETATM   13  C   UNL     1     -10.491  12.600  68.867  1.00  0.00    -0.109 A  
HETATM   14  C   UNL     1     -11.572  12.592  69.743  1.00  0.00    -0.214 A  
HETATM   15  C   UNL     1     -12.377  13.734  69.842  1.00  0.00    -0.334 A  
HETATM   16  O   UNL     1     -11.897  11.509  70.536  1.00  0.00    -0.346 OA 
HETATM   17  C   UNL     1     -11.141  10.356  70.443  1.00  0.00    -0.296 A  
HETATM   18  C   UNL     1     -12.092  14.870  69.066  1.00  0.00    -0.212 A  
HETATM   19  O   UNL     1     -12.911  15.962  69.118  1.00  0.00    -0.224 OA 
HETATM   20  C   UNL     1     -11.427   9.314  71.338  1.00  0.00    -0.439 A  
HETATM   21  C   UNL     1     -10.705   8.108  71.284  1.00  0.00    -0.227 A  
HETATM   22  H   UNL     1     -13.665  15.932  69.695  1.00  0.00     0.000 HD 
HETATM   23  C   UNL     1      -9.720   7.900  70.316  1.00  0.00    -0.183 A  
HETATM   24  O   UNL     1     -10.946   7.117  72.196  1.00  0.00    -0.228 OA 
HETATM   25  C   UNL     1      -9.700  10.960  67.166  1.00  0.00    -0.199 A  
HETATM   26  H   UNL     1     -10.458   6.302  72.160  1.00  0.00     0.000 HD 
HETATM   27  C   UNL     1      -9.461   8.950  69.423  1.00  0.00    -0.161 A  
HETATM   28  C   UNL     1     -10.714  10.489  66.345  1.00  0.00    -0.166 A  
HETATM   29  C   UNL     1     -10.127  10.189  69.504  1.00  0.00    -0.258 A  
HETATM   30  C   UNL     1      -9.714  11.332  68.616  1.00  0.00    -0.195 C  
HETATM   31  C   UNL     1     -10.402  10.214  65.012  1.00  0.00    -0.059 A  
HETATM   32  C   UNL     1      -9.103  10.425  64.520  1.00  0.00    -0.263 A  
HETATM   33  O   UNL     1      -8.319  11.634  68.884  1.00  0.00    -0.087 OA 
HETATM   34  C   UNL     1      -8.095  10.914  65.352  1.00  0.00     0.015 A  
HETATM   35  O   UNL     1      -6.430  12.042  67.632  1.00  0.00    -0.082 OA 
HETATM   36  C   UNL     1      -7.574  11.652  67.743  1.00  0.00    -0.121 C  
HETATM   37  C   UNL     1      -8.426  11.159  66.671  1.00  0.00    -0.164 A  
BRANCH  23  38
HETATM   38  C   UNL     1      -8.788   6.703  70.262  1.00  0.00    -0.152 C  
BRANCH  38  39
HETATM   39  N   UNL     1      -9.321   5.423  69.702  1.00  0.00    -0.130 NA 
BRANCH  39  40
HETATM   40  C   UNL     1      -9.017   5.394  68.232  1.00  0.00    -0.108 C  
HETATM   41  O   UNL     1     -10.468   4.724  66.393  1.00  0.00    -0.282 OA 
HETATM   42  C   UNL     1     -10.290   5.407  67.394  1.00  0.00    -0.204 C  
HETATM   43  O   UNL     1     -11.213   6.279  67.872  1.00  0.00    -0.323 OA 
ENDBRANCH  39  40
BRANCH  39  44
HETATM   44  C   UNL     1      -8.545   4.288  70.339  1.00  0.00    -0.073 C  
HETATM   45  C   UNL     1      -8.994   3.990  71.768  1.00  0.00    -0.118 C  
HETATM   46  O   UNL     1      -8.273   3.494  72.621  1.00  0.00    -0.078 OA 
HETATM   47  O   UNL     1     -10.303   4.280  71.990  1.00  0.00    -0.174 OA 
ENDBRANCH  39  44
ENDBRANCH  38  39
ENDBRANCH  23  38
ENDBRANCH  10  11
ENDBRANCH   5  10
ENDBRANCH   4   5
TORSDOF 8
ENDMDL
MODEL       44
REMARK 921   NORMALIZED FREE ENERGY PREDICTED BY IDOCK:   -5.91 KCAL/MOL
REMARK 922        TOTAL FREE ENERGY PREDICTED BY IDOCK:  -10.94 KCAL/MOL
REMARK 923 INTER-LIGAND FREE ENERGY PREDICTED BY IDOCK:   -8.54 KCAL/MOL
REMARK 924 INTRA-LIGAND FREE ENERGY PREDICTED BY IDOCK:   -2.40 KCAL/MOL
REMARK 927      BINDING AFFINITY PREDICTED BY RF-SCORE:    0.00 PKD
ROOT
HETATM    1  O   UNL     1     -10.198   4.442  66.186  1.00  0.00    -0.243 OA 
HETATM    2  C   UNL     1      -9.211   3.808  65.514  1.00  0.00    -0.153 C  
HETATM    3  O   UNL     1      -9.144   2.590  65.435  1.00  0.00    -0.136 OA 
HETATM    4  C   UNL     1      -8.248   4.762  64.816  1.00  0.00    -0.122 C  
ENDROOT
BRANCH   4   5
HETATM    5  N   UNL     1      -8.034   6.071  65.553  1.00  0.00    -0.109 NA 
BRANCH   5   6
HETATM    6  C   UNL     1      -7.094   5.785  66.705  1.00  0.00    -0.070 C  
HETATM    7  O   UNL     1      -8.775   6.887  68.052  1.00  0.00    -0.126 OA 
HETATM    8  C   UNL     1      -7.497   6.449  68.021  1.00  0.00    -0.094 C  
HETATM    9  O   UNL     1      -6.753   6.523  68.989  1.00  0.00    -0.049 OA 
ENDBRANCH   5   6
BRANCH   5  10
HETATM   10  C   UNL     1      -7.319   6.982  64.572  1.00  0.00    -0.084 C  
BRANCH  10  11
HETATM   11  C   UNL     1      -7.968   8.350  64.424  1.00  0.00    -0.148 A  
HETATM   12  C   UNL     1      -7.773   9.310  65.418  1.00  0.00    -0.099 A  
HETATM   13  C   UNL     1      -8.437  10.556  65.394  1.00  0.00    -0.173 A  
HETATM   14  C   UNL     1      -9.197  10.908  64.283  1.00  0.00    -0.197 A  
HETATM   15  C   UNL     1      -9.366   9.977  63.250  1.00  0.00    -0.296 A  
HETATM   16  O   UNL     1      -9.796  12.143  64.136  1.00  0.00    -0.245 OA 
HETATM   17  C   UNL     1      -9.673  13.076  65.149  1.00  0.00     0.055 A  
HETATM   18  C   UNL     1      -8.774   8.706  63.339  1.00  0.00     0.114 A  
HETATM   19  O   UNL     1      -8.987   7.778  62.361  1.00  0.00    -0.365 OA 
HETATM   20  C   UNL     1     -10.200  14.357  64.923  1.00  0.00    -0.357 A  
HETATM   21  C   UNL     1     -10.122  15.347  65.920  1.00  0.00    -0.345 A  
HETATM   22  H   UNL     1      -9.536   8.020  61.623  1.00  0.00     0.000 HD 
HETATM   23  C   UNL     1      -9.561  15.069  67.169  1.00  0.00    -0.222 A  
HETATM   24  O   UNL     1     -10.582  16.612  65.677  1.00  0.00    -0.381 OA 
HETATM   25  C   UNL     1      -8.838  10.789  67.842  1.00  0.00    -0.132 A  
HETATM   26  H   UNL     1     -10.529  17.280  66.350  1.00  0.00     0.000 HD 
HETATM   27  C   UNL     1      -9.054  13.778  67.376  1.00  0.00    -0.221 A  
HETATM   28  C   UNL     1     -10.104  10.375  68.233  1.00  0.00    -0.174 A  
HETATM   29  C   UNL     1      -9.063  12.794  66.368  1.00  0.00    -0.096 A  
HETATM   30  C   UNL     1      -8.380  11.471  66.590  1.00  0.00    -0.167 C  
HETATM   31  C   UNL     1     -10.235   9.763  69.481  1.00  0.00    -0.238 A  
HETATM   32  C   UNL     1      -9.114   9.562  70.304  1.00  0.00    -0.296 A  
HETATM   33  O   UNL     1      -6.976  11.726  66.859  1.00  0.00    -0.142 OA 
HETATM   34  C   UNL     1      -7.845   9.971  69.893  1.00  0.00    -0.185 A  
HETATM   35  O   UNL     1      -5.413  11.008  68.391  1.00  0.00    -0.044 OA 
HETATM   36  C   UNL     1      -6.559  11.120  68.007  1.00  0.00    -0.058 C  
HETATM   37  C   UNL     1      -7.746  10.590  68.662  1.00  0.00    -0.106 A  
BRANCH  23  38
HETATM   38  C   UNL     1      -9.296  16.096  68.255  1.00  0.00    -0.205 C  
BRANCH  38  39
HETATM   39  N   UNL     1     -10.473  16.767  68.888  1.00  0.00    -0.311 NA 
BRANCH  39  40
HETATM   40  C   UNL     1     -10.793  16.043  70.164  1.00  0.00    -0.346 C  
HETATM   41  O   UNL     1     -12.974  15.599  71.153  1.00  0.00    -0.480 OA 
HETATM   42  C   UNL     1     -12.233  15.543  70.181  1.00  0.00    -0.376 C  
HETATM   43  O   UNL     1     -12.606  15.006  68.992  1.00  0.00     0.035 OA 
ENDBRANCH  39  40
BRANCH  39  44
HETATM   44  C   UNL     1     -10.047  18.171  69.268  1.00  0.00    -0.066 C  
HETATM   45  C   UNL     1      -9.972  19.115  68.070  1.00  0.00    -0.376 C  
HETATM   46  O   UNL     1      -9.243  20.095  68.017  1.00  0.00    -0.307 OA 
HETATM   47  O   UNL     1     -10.840  18.789  67.076  1.00  0.00    -0.405 OA 
ENDBRANCH  39  44
ENDBRANCH  38  39
ENDBRANCH  23  38
ENDBRANCH  10  11
ENDBRANCH   5  10
ENDBRANCH   4   5
TORSDOF 8
ENDMDL
MODEL       45
REMARK 921   NORMALIZED FREE ENERGY PREDICTED BY IDOCK:   -5.89 KCAL/MOL
REMARK 922        TOTAL FREE ENERGY PREDICTED BY IDOCK:  -10.92 KCAL/MOL
REMARK 923 INTER-LIGAND FREE ENERGY PREDICTED BY IDOCK:   -8.76 KCAL/MOL
REMARK 924 INTRA-LIGAND FREE ENERGY PREDICTED BY IDOCK:   -2.16 KCAL/MOL
REMARK 927      BINDING AFFINITY PREDICTED BY RF-SCORE:    0.00 PKD
ROOT
HETATM    1  O   UNL     1      -9.685   5.233  66.698  1.00  0.00    -0.139 OA 
HETATM    2  C   UNL     1      -8.821   4.226  66.438  1.00  0.00    -0.116 C  
HETATM    3  O   UNL     1      -9.114   3.050  66.591  1.00  0.00    -0.149 OA 
HETATM    4  C   UNL     1      -7.488   4.706  65.873  1.00  0.00    -0.082 C  
ENDROOT
BRANCH   4   5
HETATM    5  N   UNL     1      -7.044   6.057  66.403  1.00  0.00    -0.067 NA 
BRANCH   5   6
HETATM    6  C   UNL     1      -5.920   5.803  67.384  1.00  0.00    -0.018 C  
HETATM    7  O   UNL     1      -7.390   6.854  68.993  1.00  0.00    -0.088 OA 
HETATM    8  C   UNL     1      -6.122   6.456  68.751  1.00  0.00    -0.029 C  
HETATM    9  O   UNL     1      -5.232   6.556  69.584  1.00  0.00    -0.013 OA 
ENDBRANCH   5   6
BRANCH   5  10
HETATM   10  C   UNL     1      -6.474   6.799  65.208  1.00  0.00    -0.043 C  
BRANCH  10  11
HETATM   11  C   UNL     1      -7.359   7.934  64.715  1.00  0.00    -0.082 A  
HETATM   12  C   UNL     1      -7.633   9.006  65.564  1.00  0.00    -0.090 A  
HETATM   13  C   UNL     1      -8.535  10.032  65.206  1.00  0.00    -0.161 A  
HETATM   14  C   UNL     1      -9.061  10.065  63.918  1.00  0.00    -0.259 A  
HETATM   15  C   UNL     1      -8.759   9.023  63.031  1.00  0.00    -0.126 A  
HETATM   16  O   UNL     1      -9.869  11.085  63.456  1.00  0.00    -0.290 OA 
HETATM   17  C   UNL     1     -10.210  12.114  64.313  1.00  0.00    -0.324 A  
HETATM   18  C   UNL     1      -7.935   7.962  63.441  1.00  0.00    -0.125 A  
HETATM   19  O   UNL     1      -7.689   6.917  62.598  1.00  0.00    -0.092 OA 
HETATM   20  C   UNL     1     -10.941  13.189  63.784  1.00  0.00    -0.229 A  
HETATM   21  C   UNL     1     -11.334  14.260  64.608  1.00  0.00    -0.373 A  
HETATM   22  H   UNL     1      -8.081   6.935  61.732  1.00  0.00     0.000 HD 
HETATM   23  C   UNL     1     -11.045  14.261  65.974  1.00  0.00    -0.319 A  
HETATM   24  O   UNL     1     -11.993  15.335  64.077  1.00  0.00    -0.876 OA 
HETATM   25  C   UNL     1      -9.562  10.398  67.446  1.00  0.00    -0.178 A  
HETATM   26  H   UNL     1     -12.259  16.058  64.633  1.00  0.00     0.000 HD 
HETATM   27  C   UNL     1     -10.327  13.170  66.483  1.00  0.00    -0.284 A  
HETATM   28  C   UNL     1     -10.757   9.716  67.620  1.00  0.00    -0.324 A  
HETATM   29  C   UNL     1      -9.868  12.121  65.663  1.00  0.00    -0.256 A  
HETATM   30  C   UNL     1      -8.979  11.046  66.229  1.00  0.00    -0.185 C  
HETATM   31  C   UNL     1     -11.047   9.218  68.893  1.00  0.00     0.042 A  
HETATM   32  C   UNL     1     -10.144   9.394  69.955  1.00  0.00    -0.259 A  
HETATM   33  O   UNL     1      -7.777  11.677  66.745  1.00  0.00    -0.156 OA 
HETATM   34  C   UNL     1      -8.939  10.070  69.763  1.00  0.00    -0.209 A  
HETATM   35  O   UNL     1      -6.514  11.539  68.666  1.00  0.00    -0.052 OA 
HETATM   36  C   UNL     1      -7.527  11.316  68.036  1.00  0.00    -0.095 C  
HETATM   37  C   UNL     1      -8.686  10.568  68.500  1.00  0.00    -0.140 A  
BRANCH  23  38
HETATM   38  C   UNL     1     -11.291  15.426  66.917  1.00  0.00    -0.147 C  
BRANCH  38  39
HETATM   39  N   UNL     1     -10.457  15.514  68.155  1.00  0.00    -0.254 NA 
BRANCH  39  40
HETATM   40  C   UNL     1      -9.241  16.338  67.841  1.00  0.00    -0.201 C  
HETATM   41  O   UNL     1      -7.302  16.784  69.247  1.00  0.00    -0.237 OA 
HETATM   42  C   UNL     1      -8.066  15.973  68.739  1.00  0.00    -0.212 C  
HETATM   43  O   UNL     1      -7.943  14.632  68.907  1.00  0.00    -0.146 OA 
ENDBRANCH  39  40
BRANCH  39  44
HETATM   44  C   UNL     1     -11.256  16.278  69.191  1.00  0.00    -0.309 C  
HETATM   45  C   UNL     1     -12.240  15.393  69.954  1.00  0.00    -0.334 C  
HETATM   46  O   UNL     1     -13.274  15.801  70.462  1.00  0.00    -0.449 OA 
HETATM   47  O   UNL     1     -11.827  14.103  70.062  1.00  0.00    -0.286 OA 
ENDBRANCH  39  44
ENDBRANCH  38  39
ENDBRANCH  23  38
ENDBRANCH  10  11
ENDBRANCH   5  10
ENDBRANCH   4   5
TORSDOF 8
ENDMDL
MODEL       46
REMARK 921   NORMALIZED FREE ENERGY PREDICTED BY IDOCK:   -5.88 KCAL/MOL
REMARK 922        TOTAL FREE ENERGY PREDICTED BY IDOCK:  -10.90 KCAL/MOL
REMARK 923 INTER-LIGAND FREE ENERGY PREDICTED BY IDOCK:   -9.48 KCAL/MOL
REMARK 924 INTRA-LIGAND FREE ENERGY PREDICTED BY IDOCK:   -1.42 KCAL/MOL
REMARK 927      BINDING AFFINITY PREDICTED BY RF-SCORE:    0.00 PKD
ROOT
HETATM    1  O   UNL     1     -12.508  15.667  69.663  1.00  0.00    -0.264 OA 
HETATM    2  C   UNL     1     -11.548  14.714  69.674  1.00  0.00    -0.307 C  
HETATM    3  O   UNL     1     -10.864  14.480  70.658  1.00  0.00     0.086 OA 
HETATM    4  C   UNL     1     -11.465  13.929  68.370  1.00  0.00    -0.311 C  
ENDROOT
BRANCH   4   5
HETATM    5  N   UNL     1     -11.802  14.745  67.136  1.00  0.00    -0.347 NA 
BRANCH   5   6
HETATM    6  C   UNL     1     -10.507  14.976  66.386  1.00  0.00    -0.294 C  
HETATM    7  O   UNL     1     -10.479  17.099  67.545  1.00  0.00    -0.337 OA 
HETATM    8  C   UNL     1      -9.947  16.390  66.525  1.00  0.00    -0.282 C  
HETATM    9  O   UNL     1      -9.049  16.828  65.820  1.00  0.00    -0.515 OA 
ENDBRANCH   5   6
BRANCH   5  10
HETATM   10  C   UNL     1     -12.692  13.855  66.286  1.00  0.00    -0.213 C  
BRANCH  10  11
HETATM   11  C   UNL     1     -11.920  12.888  65.401  1.00  0.00    -0.470 A  
HETATM   12  C   UNL     1     -11.294  11.783  65.978  1.00  0.00    -0.335 A  
HETATM   13  C   UNL     1     -10.473  10.913  65.228  1.00  0.00    -0.299 A  
HETATM   14  C   UNL     1     -10.392  11.064  63.848  1.00  0.00    -0.372 A  
HETATM   15  C   UNL     1     -11.053  12.139  63.240  1.00  0.00    -0.408 A  
HETATM   16  O   UNL     1      -9.693  10.198  63.031  1.00  0.00    -0.258 OA 
HETATM   17  C   UNL     1      -9.006   9.143  63.600  1.00  0.00     0.054 A  
HETATM   18  C   UNL     1     -11.788  13.050  64.019  1.00  0.00    -0.445 A  
HETATM   19  O   UNL     1     -12.383  14.131  63.434  1.00  0.00    -1.109 OA 
HETATM   20  C   UNL     1      -8.396   8.220  62.737  1.00  0.00    -0.111 A  
HETATM   21  C   UNL     1      -7.667   7.132  63.253  1.00  0.00    -0.116 A  
HETATM   22  H   UNL     1     -12.293  14.241  62.494  1.00  0.00     0.000 HD 
HETATM   23  C   UNL     1      -7.496   6.969  64.629  1.00  0.00    -0.098 A  
HETATM   24  O   UNL     1      -7.125   6.201  62.411  1.00  0.00    -0.040 OA 
HETATM   25  C   UNL     1      -8.748  10.468  66.970  1.00  0.00    -0.132 A  
HETATM   26  H   UNL     1      -6.633   5.466  62.759  1.00  0.00     0.000 HD 
HETATM   27  C   UNL     1      -8.102   7.912  65.472  1.00  0.00    -0.130 A  
HETATM   28  C   UNL     1      -7.624  11.272  66.848  1.00  0.00    -0.148 A  
HETATM   29  C   UNL     1      -8.890   8.968  64.976  1.00  0.00    -0.213 A  
HETATM   30  C   UNL     1      -9.636   9.870  65.924  1.00  0.00    -0.239 C  
HETATM   31  C   UNL     1      -6.981  11.681  68.018  1.00  0.00    -0.078 A  
HETATM   32  C   UNL     1      -7.472  11.298  69.278  1.00  0.00    -0.040 A  
HETATM   33  O   UNL     1     -10.546   9.051  66.705  1.00  0.00    -0.211 OA 
HETATM   34  C   UNL     1      -8.611  10.500  69.387  1.00  0.00    -0.100 A  
HETATM   35  O   UNL     1     -11.125   8.854  68.925  1.00  0.00     0.003 OA 
HETATM   36  C   UNL     1     -10.395   9.257  68.044  1.00  0.00    -0.221 C  
HETATM   37  C   UNL     1      -9.216  10.095  68.214  1.00  0.00    -0.130 A  
BRANCH  23  38
HETATM   38  C   UNL     1      -6.858   5.760  65.292  1.00  0.00    -0.051 C  
BRANCH  38  39
HETATM   39  N   UNL     1      -7.435   5.285  66.587  1.00  0.00    -0.086 NA 
BRANCH  39  40
HETATM   40  C   UNL     1      -7.660   3.804  66.483  1.00  0.00    -0.084 C  
HETATM   41  O   UNL     1      -9.336   2.439  67.607  1.00  0.00    -0.184 OA 
HETATM   42  C   UNL     1      -9.068   3.417  66.921  1.00  0.00    -0.170 C  
HETATM   43  O   UNL     1     -10.008   4.274  66.449  1.00  0.00    -0.221 OA 
ENDBRANCH  39  40
BRANCH  39  44
HETATM   44  C   UNL     1      -6.387   5.501  67.660  1.00  0.00    -0.042 C  
HETATM   45  C   UNL     1      -6.766   6.600  68.650  1.00  0.00    -0.064 C  
HETATM   46  O   UNL     1      -5.955   7.267  69.275  1.00  0.00    -0.028 OA 
HETATM   47  O   UNL     1      -8.109   6.733  68.813  1.00  0.00    -0.117 OA 
ENDBRANCH  39  44
ENDBRANCH  38  39
ENDBRANCH  23  38
ENDBRANCH  10  11
ENDBRANCH   5  10
ENDBRANCH   4   5
TORSDOF 8
ENDMDL
MODEL       47
REMARK 921   NORMALIZED FREE ENERGY PREDICTED BY IDOCK:   -5.88 KCAL/MOL
REMARK 922        TOTAL FREE ENERGY PREDICTED BY IDOCK:  -10.89 KCAL/MOL
REMARK 923 INTER-LIGAND FREE ENERGY PREDICTED BY IDOCK:   -9.87 KCAL/MOL
REMARK 924 INTRA-LIGAND FREE ENERGY PREDICTED BY IDOCK:   -1.03 KCAL/MOL
REMARK 927      BINDING AFFINITY PREDICTED BY RF-SCORE:    0.00 PKD
ROOT
HETATM    1  O   UNL     1     -11.290  16.796  64.076  1.00  0.00    -1.153 OA 
HETATM    2  C   UNL     1     -11.141  15.752  64.924  1.00  0.00    -0.399 C  
HETATM    3  O   UNL     1     -11.973  14.863  65.026  1.00  0.00    -0.336 OA 
HETATM    4  C   UNL     1      -9.813  15.767  65.671  1.00  0.00    -0.322 C  
ENDROOT
BRANCH   4   5
HETATM    5  N   UNL     1      -9.295  17.161  65.980  1.00  0.00    -0.504 NA 
BRANCH   5   6
HETATM    6  C   UNL     1      -9.732  17.496  67.390  1.00  0.00    -0.274 C  
HETATM    7  O   UNL     1     -10.166  19.699  66.490  1.00  0.00    -0.401 OA 
HETATM    8  C   UNL     1     -10.011  18.979  67.623  1.00  0.00    -0.351 C  
HETATM    9  O   UNL     1     -10.149  19.469  68.735  1.00  0.00    -0.436 OA 
ENDBRANCH   5   6
BRANCH   5  10
HETATM   10  C   UNL     1      -7.781  17.048  65.964  1.00  0.00    -0.118 C  
BRANCH  10  11
HETATM   11  C   UNL     1      -7.234  16.032  66.955  1.00  0.00    -0.249 A  
HETATM   12  C   UNL     1      -7.751  14.736  66.961  1.00  0.00    -0.038 A  
HETATM   13  C   UNL     1      -7.365  13.782  67.928  1.00  0.00    -0.155 A  
HETATM   14  C   UNL     1      -6.336  14.081  68.815  1.00  0.00    -0.090 A  
HETATM   15  C   UNL     1      -5.769  15.361  68.795  1.00  0.00    -0.092 A  
HETATM   16  O   UNL     1      -5.832  13.171  69.724  1.00  0.00    -0.106 OA 
HETATM   17  C   UNL     1      -6.388  11.908  69.791  1.00  0.00    -0.118 A  
HETATM   18  C   UNL     1      -6.235  16.327  67.887  1.00  0.00    -0.126 A  
HETATM   19  O   UNL     1      -5.722  17.592  67.906  1.00  0.00    -0.139 OA 
HETATM   20  C   UNL     1      -5.783  10.974  70.645  1.00  0.00    -0.122 A  
HETATM   21  C   UNL     1      -6.311   9.675  70.772  1.00  0.00    -0.097 A  
HETATM   22  H   UNL     1      -5.043  17.793  68.539  1.00  0.00     0.000 HD 
HETATM   23  C   UNL     1      -7.469   9.298  70.088  1.00  0.00    -0.098 A  
HETATM   24  O   UNL     1      -5.685   8.748  71.559  1.00  0.00    -0.039 OA 
HETATM   25  C   UNL     1      -9.577  12.676  68.236  1.00  0.00    -0.208 A  
HETATM   26  H   UNL     1      -6.041   7.871  71.645  1.00  0.00     0.000 HD 
HETATM   27  C   UNL     1      -8.063  10.253  69.251  1.00  0.00    -0.156 A  
HETATM   28  C   UNL     1     -10.287  13.162  69.325  1.00  0.00     0.270 A  
HETATM   29  C   UNL     1      -7.513  11.535  69.060  1.00  0.00    -0.073 A  
HETATM   30  C   UNL     1      -8.106  12.474  68.044  1.00  0.00    -0.164 C  
HETATM   31  C   UNL     1     -11.678  13.233  69.220  1.00  0.00    -0.380 A  
HETATM   32  C   UNL     1     -12.331  12.837  68.040  1.00  0.00     0.278 A  
HETATM   33  O   UNL     1      -8.037  11.834  66.742  1.00  0.00    -0.166 OA 
HETATM   34  C   UNL     1     -11.604  12.363  66.948  1.00  0.00    -0.437 A  
HETATM   35  O   UNL     1      -9.463  11.517  64.961  1.00  0.00    -0.222 OA 
HETATM   36  C   UNL     1      -9.249  11.820  66.117  1.00  0.00    -0.210 C  
HETATM   37  C   UNL     1     -10.231  12.286  67.084  1.00  0.00    -0.224 A  
BRANCH  23  38
HETATM   38  C   UNL     1      -8.034   7.890  70.038  1.00  0.00    -0.111 C  
BRANCH  38  39
HETATM   39  N   UNL     1      -9.454   7.719  69.600  1.00  0.00    -0.157 NA 
BRANCH  39  40
HETATM   40  C   UNL     1      -9.479   6.722  68.478  1.00  0.00    -0.131 C  
HETATM   41  O   UNL     1     -11.241   6.317  66.844  1.00  0.00    -0.335 OA 
HETATM   42  C   UNL     1     -10.493   7.107  67.406  1.00  0.00    -0.284 C  
HETATM   43  O   UNL     1     -10.467   8.434  67.126  1.00  0.00    -0.294 OA 
ENDBRANCH  39  40
BRANCH  39  44
HETATM   44  C   UNL     1     -10.217   7.105  70.757  1.00  0.00    -0.197 C  
HETATM   45  C   UNL     1     -10.830   8.151  71.686  1.00  0.00    -0.249 C  
HETATM   46  O   UNL     1     -11.064   7.960  72.870  1.00  0.00    -0.384 OA 
HETATM   47  O   UNL     1     -11.146   9.312  71.052  1.00  0.00    -0.271 OA 
ENDBRANCH  39  44
ENDBRANCH  38  39
ENDBRANCH  23  38
ENDBRANCH  10  11
ENDBRANCH   5  10
ENDBRANCH   4   5
TORSDOF 8
ENDMDL
MODEL       48
REMARK 921   NORMALIZED FREE ENERGY PREDICTED BY IDOCK:   -5.84 KCAL/MOL
REMARK 922        TOTAL FREE ENERGY PREDICTED BY IDOCK:  -10.84 KCAL/MOL
REMARK 923 INTER-LIGAND FREE ENERGY PREDICTED BY IDOCK:   -8.30 KCAL/MOL
REMARK 924 INTRA-LIGAND FREE ENERGY PREDICTED BY IDOCK:   -2.55 KCAL/MOL
REMARK 927      BINDING AFFINITY PREDICTED BY RF-SCORE:    0.00 PKD
ROOT
HETATM    1  O   UNL     1      -8.368  19.114  68.828  1.00  0.00    -0.359 OA 
HETATM    2  C   UNL     1      -7.756  19.482  67.679  1.00  0.00    -0.273 C  
HETATM    3  O   UNL     1      -7.779  20.630  67.260  1.00  0.00    -0.330 OA 
HETATM    4  C   UNL     1      -6.986  18.347  67.015  1.00  0.00    -0.192 C  
ENDROOT
BRANCH   4   5
HETATM    5  N   UNL     1      -7.613  16.978  67.212  1.00  0.00    -0.158 NA 
BRANCH   5   6
HETATM    6  C   UNL     1      -8.725  16.848  66.193  1.00  0.00    -0.245 C  
HETATM    7  O   UNL     1      -9.969  15.854  68.015  1.00  0.00    -0.218 OA 
HETATM    8  C   UNL     1      -9.924  16.033  66.677  1.00  0.00    -0.267 C  
HETATM    9  O   UNL     1     -10.804  15.629  65.931  1.00  0.00    -0.326 OA 
ENDBRANCH   5   6
BRANCH   5  10
HETATM   10  C   UNL     1      -6.528  15.976  66.862  1.00  0.00     0.116 C  
BRANCH  10  11
HETATM   11  C   UNL     1      -6.451  14.799  67.824  1.00  0.00    -0.183 A  
HETATM   12  C   UNL     1      -7.076  13.599  67.486  1.00  0.00    -0.166 A  
HETATM   13  C   UNL     1      -7.135  12.509  68.383  1.00  0.00    -0.107 A  
HETATM   14  C   UNL     1      -6.431  12.567  69.582  1.00  0.00    -0.057 A  
HETATM   15  C   UNL     1      -5.755  13.747  69.919  1.00  0.00    -0.118 A  
HETATM   16  O   UNL     1      -6.355  11.510  70.467  1.00  0.00    -0.286 OA 
HETATM   17  C   UNL     1      -7.034  10.341  70.179  1.00  0.00    -0.155 A  
HETATM   18  C   UNL     1      -5.790  14.854  69.054  1.00  0.00    -0.096 A  
HETATM   19  O   UNL     1      -5.180  16.023  69.409  1.00  0.00    -0.109 OA 
HETATM   20  C   UNL     1      -6.849   9.250  71.042  1.00  0.00    -0.091 A  
HETATM   21  C   UNL     1      -7.524   8.037  70.815  1.00  0.00    -0.072 A  
HETATM   22  H   UNL     1      -4.731  16.060  70.246  1.00  0.00     0.000 HD 
HETATM   23  C   UNL     1      -8.424   7.901  69.755  1.00  0.00    -0.132 A  
HETATM   24  O   UNL     1      -7.297   6.956  71.622  1.00  0.00    -0.082 OA 
HETATM   25  C   UNL     1      -9.429  11.714  67.822  1.00  0.00    -0.178 A  
HETATM   26  H   UNL     1      -7.752   6.137  71.468  1.00  0.00     0.000 HD 
HETATM   27  C   UNL     1      -8.604   9.009  68.915  1.00  0.00    -0.131 A  
HETATM   28  C   UNL     1     -10.402  12.191  68.688  1.00  0.00    -0.211 A  
HETATM   29  C   UNL     1      -7.887  10.209  69.087  1.00  0.00    -0.120 A  
HETATM   30  C   UNL     1      -8.008  11.319  68.077  1.00  0.00    -0.119 C  
HETATM   31  C   UNL     1     -11.665  12.475  68.162  1.00  0.00    -0.400 A  
HETATM   32  C   UNL     1     -11.930  12.294  66.794  1.00  0.00    -0.230 A  
HETATM   33  O   UNL     1      -7.582  10.805  66.787  1.00  0.00    -0.116 OA 
HETATM   34  C   UNL     1     -10.938  11.827  65.931  1.00  0.00    -0.354 A  
HETATM   35  O   UNL     1      -8.365  10.873  64.622  1.00  0.00    -0.044 OA 
HETATM   36  C   UNL     1      -8.513  11.029  65.817  1.00  0.00    -0.119 C  
HETATM   37  C   UNL     1      -9.704  11.537  66.481  1.00  0.00    -0.226 A  
BRANCH  23  38
HETATM   38  C   UNL     1      -9.088   6.602  69.335  1.00  0.00    -0.143 C  
BRANCH  38  39
HETATM   39  N   UNL     1      -9.984   5.922  70.321  1.00  0.00    -0.183 NA 
BRANCH  39  40
HETATM   40  C   UNL     1     -11.404   6.275  69.984  1.00  0.00    -0.416 C  
HETATM   41  O   UNL     1     -13.258   6.726  71.498  1.00  0.00    -0.291 OA 
HETATM   42  C   UNL     1     -12.107   6.956  71.152  1.00  0.00    -0.381 C  
HETATM   43  O   UNL     1     -11.315   7.870  71.767  1.00  0.00    -0.248 OA 
ENDBRANCH  39  40
BRANCH  39  44
HETATM   44  C   UNL     1      -9.837   4.428  70.115  1.00  0.00    -0.217 C  
HETATM   45  C   UNL     1      -8.927   3.771  71.152  1.00  0.00    -0.098 C  
HETATM   46  O   UNL     1      -8.291   2.747  70.952  1.00  0.00    -0.052 OA 
HETATM   47  O   UNL     1      -8.932   4.412  72.351  1.00  0.00    -0.117 OA 
ENDBRANCH  39  44
ENDBRANCH  38  39
ENDBRANCH  23  38
ENDBRANCH  10  11
ENDBRANCH   5  10
ENDBRANCH   4   5
TORSDOF 8
ENDMDL
MODEL       49
REMARK 921   NORMALIZED FREE ENERGY PREDICTED BY IDOCK:   -5.83 KCAL/MOL
REMARK 922        TOTAL FREE ENERGY PREDICTED BY IDOCK:  -10.83 KCAL/MOL
REMARK 923 INTER-LIGAND FREE ENERGY PREDICTED BY IDOCK:   -8.46 KCAL/MOL
REMARK 924 INTRA-LIGAND FREE ENERGY PREDICTED BY IDOCK:   -2.37 KCAL/MOL
REMARK 927      BINDING AFFINITY PREDICTED BY RF-SCORE:    0.00 PKD
ROOT
HETATM    1  O   UNL     1     -10.259  17.955  69.034  1.00  0.00    -0.378 OA 
HETATM    2  C   UNL     1     -10.038  18.665  67.904  1.00  0.00    -0.369 C  
HETATM    3  O   UNL     1     -10.594  19.728  67.674  1.00  0.00    -0.429 OA 
HETATM    4  C   UNL     1      -8.982  18.041  66.997  1.00  0.00    -0.258 C  
ENDROOT
BRANCH   4   5
HETATM    5  N   UNL     1      -8.954  16.524  67.036  1.00  0.00    -0.197 NA 
BRANCH   5   6
HETATM    6  C   UNL     1      -9.663  16.033  65.792  1.00  0.00    -0.305 C  
HETATM    7  O   UNL     1     -11.234  15.052  67.348  1.00  0.00    -0.319 OA 
HETATM    8  C   UNL     1     -10.807  15.059  66.066  1.00  0.00    -0.334 C  
HETATM    9  O   UNL     1     -11.339  14.387  65.194  1.00  0.00    -0.329 OA 
ENDBRANCH   5   6
BRANCH   5  10
HETATM   10  C   UNL     1      -7.490  16.138  66.933  1.00  0.00    -0.231 C  
BRANCH  10  11
HETATM   11  C   UNL     1      -7.083  15.024  67.886  1.00  0.00    -0.165 A  
HETATM   12  C   UNL     1      -7.542  13.727  67.657  1.00  0.00    -0.189 A  
HETATM   13  C   UNL     1      -7.292  12.674  68.564  1.00  0.00    -0.115 A  
HETATM   14  C   UNL     1      -6.444  12.888  69.647  1.00  0.00    -0.044 A  
HETATM   15  C   UNL     1      -5.932  14.172  69.869  1.00  0.00    -0.133 A  
HETATM   16  O   UNL     1      -6.069  11.889  70.523  1.00  0.00    -0.253 OA 
HETATM   17  C   UNL     1      -6.579  10.615  70.351  1.00  0.00    -0.070 A  
HETATM   18  C   UNL     1      -6.272  15.228  69.006  1.00  0.00    -0.103 A  
HETATM   19  O   UNL     1      -5.821  16.492  69.256  1.00  0.00    -0.138 OA 
HETATM   20  C   UNL     1      -6.095   9.600  71.189  1.00  0.00    -0.060 A  
HETATM   21  C   UNL     1      -6.585   8.286  71.076  1.00  0.00    -0.040 A  
HETATM   22  H   UNL     1      -5.269  16.631  70.017  1.00  0.00     0.000 HD 
HETATM   23  C   UNL     1      -7.591   7.969  70.161  1.00  0.00    -0.081 A  
HETATM   24  O   UNL     1      -6.069   7.286  71.853  1.00  0.00    -0.037 OA 
HETATM   25  C   UNL     1      -9.478  11.498  68.353  1.00  0.00    -0.195 A  
HETATM   26  H   UNL     1      -6.400   6.398  71.777  1.00  0.00     0.000 HD 
HETATM   27  C   UNL     1      -8.069   9.003  69.343  1.00  0.00    -0.108 A  
HETATM   28  C   UNL     1     -10.384  11.841  69.346  1.00  0.00     0.196 A  
HETATM   29  C   UNL     1      -7.544  10.309  69.396  1.00  0.00    -0.137 A  
HETATM   30  C   UNL     1      -7.990  11.348  68.402  1.00  0.00    -0.142 C  
HETATM   31  C   UNL     1     -11.738  11.896  69.007  1.00  0.00    -0.391 A  
HETATM   32  C   UNL     1     -12.161  11.628  67.694  1.00  0.00     0.133 A  
HETATM   33  O   UNL     1      -7.672  10.865  67.069  1.00  0.00    -0.117 OA 
HETATM   34  C   UNL     1     -11.238  11.298  66.701  1.00  0.00    -0.247 A  
HETATM   35  O   UNL     1      -8.754  10.730  65.041  1.00  0.00    -0.191 OA 
HETATM   36  C   UNL     1      -8.755  10.901  66.243  1.00  0.00    -0.171 C  
HETATM   37  C   UNL     1      -9.908  11.232  67.068  1.00  0.00    -0.217 A  
BRANCH  23  38
HETATM   38  C   UNL     1      -8.083   6.565  69.856  1.00  0.00    -0.121 C  
BRANCH  38  39
HETATM   39  N   UNL     1      -9.417   6.417  69.196  1.00  0.00    -0.135 NA 
BRANCH  39  40
HETATM   40  C   UNL     1      -9.216   5.696  67.894  1.00  0.00    -0.106 C  
HETATM   41  O   UNL     1     -10.833   5.283  66.120  1.00  0.00    -0.257 OA 
HETATM   42  C   UNL     1     -10.279   6.076  66.870  1.00  0.00    -0.210 C  
HETATM   43  O   UNL     1     -10.538   7.408  66.867  1.00  0.00    -0.326 OA 
ENDBRANCH  39  40
BRANCH  39  44
HETATM   44  C   UNL     1     -10.265   5.521  70.075  1.00  0.00    -0.266 C  
HETATM   45  C   UNL     1     -11.135   6.302  71.058  1.00  0.00    -0.298 C  
HETATM   46  O   UNL     1     -11.519   5.860  72.130  1.00  0.00    -0.291 OA 
HETATM   47  O   UNL     1     -11.491   7.531  70.598  1.00  0.00    -0.283 OA 
ENDBRANCH  39  44
ENDBRANCH  38  39
ENDBRANCH  23  38
ENDBRANCH  10  11
ENDBRANCH   5  10
ENDBRANCH   4   5
TORSDOF 8
ENDMDL
MODEL       50
REMARK 921   NORMALIZED FREE ENERGY PREDICTED BY IDOCK:   -5.81 KCAL/MOL
REMARK 922        TOTAL FREE ENERGY PREDICTED BY IDOCK:  -10.80 KCAL/MOL
REMARK 923 INTER-LIGAND FREE ENERGY PREDICTED BY IDOCK:   -8.28 KCAL/MOL
REMARK 924 INTRA-LIGAND FREE ENERGY PREDICTED BY IDOCK:   -2.52 KCAL/MOL
REMARK 927      BINDING AFFINITY PREDICTED BY RF-SCORE:    0.00 PKD
ROOT
HETATM    1  O   UNL     1      -8.309   4.549  71.432  1.00  0.00    -0.096 OA 
HETATM    2  C   UNL     1      -9.372   3.911  70.891  1.00  0.00    -0.152 C  
HETATM    3  O   UNL     1      -9.618   2.734  71.112  1.00  0.00    -0.147 OA 
HETATM    4  C   UNL     1     -10.257   4.822  70.047  1.00  0.00    -0.181 C  
ENDROOT
BRANCH   4   5
HETATM    5  N   UNL     1      -9.499   5.920  69.324  1.00  0.00    -0.127 NA 
BRANCH   5   6
HETATM    6  C   UNL     1      -9.707   5.702  67.840  1.00  0.00    -0.125 C  
HETATM    7  O   UNL     1      -7.337   6.161  67.672  1.00  0.00    -0.077 OA 
HETATM    8  C   UNL     1      -8.493   6.051  66.980  1.00  0.00    -0.108 C  
HETATM    9  O   UNL     1      -8.543   6.159  65.764  1.00  0.00    -0.145 OA 
ENDBRANCH   5   6
BRANCH   5  10
HETATM   10  C   UNL     1     -10.184   7.217  69.715  1.00  0.00    -0.210 C  
BRANCH  10  11
HETATM   11  C   UNL     1      -9.245   8.413  69.765  1.00  0.00    -0.157 A  
HETATM   12  C   UNL     1      -9.551   9.554  69.022  1.00  0.00    -0.166 A  
HETATM   13  C   UNL     1      -8.665  10.651  68.939  1.00  0.00    -0.163 A  
HETATM   14  C   UNL     1      -7.520  10.671  69.729  1.00  0.00    -0.079 A  
HETATM   15  C   UNL     1      -7.219   9.555  70.521  1.00  0.00    -0.141 A  
HETATM   16  O   UNL     1      -6.656  11.746  69.782  1.00  0.00    -0.120 OA 
HETATM   17  C   UNL     1      -6.907  12.852  68.992  1.00  0.00    -0.080 A  
HETATM   18  C   UNL     1      -8.066   8.434  70.515  1.00  0.00    -0.107 A  
HETATM   19  O   UNL     1      -7.742   7.324  71.241  1.00  0.00    -0.086 OA 
HETATM   20  C   UNL     1      -6.073  13.969  69.150  1.00  0.00    -0.098 A  
HETATM   21  C   UNL     1      -6.266  15.121  68.364  1.00  0.00    -0.108 A  
HETATM   22  H   UNL     1      -6.940   7.338  71.750  1.00  0.00     0.000 HD 
HETATM   23  C   UNL     1      -7.259  15.165  67.382  1.00  0.00    -0.231 A  
HETATM   24  O   UNL     1      -5.490  16.230  68.561  1.00  0.00    -0.099 OA 
HETATM   25  C   UNL     1      -9.067  11.250  66.554  1.00  0.00    -0.193 A  
HETATM   26  H   UNL     1      -5.620  17.008  68.030  1.00  0.00     0.000 HD 
HETATM   27  C   UNL     1      -8.070  14.031  67.234  1.00  0.00    -0.174 A  
HETATM   28  C   UNL     1      -8.127  10.712  65.687  1.00  0.00    -0.146 A  
HETATM   29  C   UNL     1      -7.936  12.896  68.055  1.00  0.00    -0.158 A  
HETATM   30  C   UNL     1      -8.922  11.762  67.953  1.00  0.00    -0.180 C  
HETATM   31  C   UNL     1      -8.556  10.320  64.417  1.00  0.00    -0.195 A  
HETATM   32  C   UNL     1      -9.904  10.454  64.041  1.00  0.00    -0.355 A  
HETATM   33  O   UNL     1     -10.245  12.285  68.243  1.00  0.00    -0.209 OA 
HETATM   34  C   UNL     1     -10.842  10.983  64.928  1.00  0.00    -0.211 A  
HETATM   35  O   UNL     1     -12.346  12.116  67.315  1.00  0.00    -0.354 OA 
HETATM   36  C   UNL     1     -11.142  11.971  67.266  1.00  0.00    -0.285 C  
HETATM   37  C   UNL     1     -10.387  11.380  66.170  1.00  0.00    -0.294 A  
BRANCH  23  38
HETATM   38  C   UNL     1      -7.645  16.399  66.587  1.00  0.00    -0.253 C  
BRANCH  38  39
HETATM   39  N   UNL     1      -8.960  17.044  66.888  1.00  0.00    -0.221 NA 
BRANCH  39  40
HETATM   40  C   UNL     1      -8.754  18.531  66.924  1.00  0.00    -0.286 C  
HETATM   41  O   UNL     1      -9.227  20.088  68.737  1.00  0.00    -0.155 OA 
HETATM   42  C   UNL     1      -8.691  19.056  68.353  1.00  0.00    -0.346 C  
HETATM   43  O   UNL     1      -7.954  18.256  69.164  1.00  0.00    -0.140 OA 
ENDBRANCH  39  40
BRANCH  39  44
HETATM   44  C   UNL     1      -9.888  16.752  65.725  1.00  0.00    -0.180 C  
HETATM   45  C   UNL     1     -10.883  15.633  66.026  1.00  0.00    -0.275 C  
HETATM   46  O   UNL     1     -11.382  14.916  65.172  1.00  0.00    -0.354 OA 
HETATM   47  O   UNL     1     -11.207  15.544  67.343  1.00  0.00    -0.315 OA 
ENDBRANCH  39  44
ENDBRANCH  38  39
ENDBRANCH  23  38
ENDBRANCH  10  11
ENDBRANCH   5  10
ENDBRANCH   4   5
TORSDOF 8
ENDMDL
MODEL       51
REMARK 921   NORMALIZED FREE ENERGY PREDICTED BY IDOCK:   -5.78 KCAL/MOL
REMARK 922        TOTAL FREE ENERGY PREDICTED BY IDOCK:  -10.76 KCAL/MOL
REMARK 923 INTER-LIGAND FREE ENERGY PREDICTED BY IDOCK:   -8.43 KCAL/MOL
REMARK 924 INTRA-LIGAND FREE ENERGY PREDICTED BY IDOCK:   -2.32 KCAL/MOL
REMARK 927      BINDING AFFINITY PREDICTED BY RF-SCORE:    0.00 PKD
ROOT
HETATM    1  O   UNL     1      -9.431  16.031  65.509  1.00  0.00    -0.401 OA 
HETATM    2  C   UNL     1     -10.306  17.009  65.834  1.00  0.00    -0.298 C  
HETATM    3  O   UNL     1     -11.123  17.452  65.041  1.00  0.00    -0.662 OA 
HETATM    4  C   UNL     1     -10.213  17.442  67.293  1.00  0.00    -0.324 C  
ENDROOT
BRANCH   4   5
HETATM    5  N   UNL     1      -8.812  17.364  67.871  1.00  0.00    -0.233 NA 
BRANCH   5   6
HETATM    6  C   UNL     1      -8.585  18.635  68.662  1.00  0.00    -0.307 C  
HETATM    7  O   UNL     1      -6.305  18.450  67.874  1.00  0.00    -0.188 OA 
HETATM    8  C   UNL     1      -7.120  19.054  68.767  1.00  0.00    -0.318 C  
HETATM    9  O   UNL     1      -6.722  19.909  69.545  1.00  0.00    -0.339 OA 
ENDBRANCH   5   6
BRANCH   5  10
HETATM   10  C   UNL     1      -8.832  16.197  68.841  1.00  0.00    -0.248 C  
BRANCH  10  11
HETATM   11  C   UNL     1      -8.079  14.973  68.340  1.00  0.00    -0.141 A  
HETATM   12  C   UNL     1      -8.798  13.879  67.858  1.00  0.00    -0.184 A  
HETATM   13  C   UNL     1      -8.162  12.674  67.484  1.00  0.00    -0.178 A  
HETATM   14  C   UNL     1      -6.773  12.611  67.453  1.00  0.00    -0.142 A  
HETATM   15  C   UNL     1      -6.031  13.717  67.887  1.00  0.00    -0.145 A  
HETATM   16  O   UNL     1      -6.075  11.507  67.005  1.00  0.00    -0.100 OA 
HETATM   17  C   UNL     1      -6.775  10.388  66.597  1.00  0.00    -0.090 A  
HETATM   18  C   UNL     1      -6.685  14.873  68.346  1.00  0.00    -0.101 A  
HETATM   19  O   UNL     1      -5.963  15.928  68.824  1.00  0.00    -0.099 OA 
HETATM   20  C   UNL     1      -6.043   9.325  66.046  1.00  0.00    -0.059 A  
HETATM   21  C   UNL     1      -6.695   8.151  65.626  1.00  0.00    -0.055 A  
HETATM   22  H   UNL     1      -5.015  15.860  68.828  1.00  0.00     0.000 HD 
HETATM   23  C   UNL     1      -8.073   7.996  65.785  1.00  0.00    -0.121 A  
HETATM   24  O   UNL     1      -5.987   7.141  65.035  1.00  0.00    -0.036 OA 
HETATM   25  C   UNL     1      -9.894  11.088  68.317  1.00  0.00    -0.185 A  
HETATM   26  H   UNL     1      -6.426   6.348  64.751  1.00  0.00     0.000 HD 
HETATM   27  C   UNL     1      -8.782   9.066  66.351  1.00  0.00    -0.149 A  
HETATM   28  C   UNL     1      -9.615  10.583  69.578  1.00  0.00    -0.125 A  
HETATM   29  C   UNL     1      -8.158  10.274  66.716  1.00  0.00    -0.121 A  
HETATM   30  C   UNL     1      -8.981  11.444  67.186  1.00  0.00    -0.162 C  
HETATM   31  C   UNL     1     -10.688  10.336  70.437  1.00  0.00    -0.270 A  
HETATM   32  C   UNL     1     -12.007  10.608  70.035  1.00  0.00    -0.408 A  
HETATM   33  O   UNL     1      -9.907  11.801  66.125  1.00  0.00    -0.216 OA 
HETATM   34  C   UNL     1     -12.273  11.129  68.769  1.00  0.00    -0.080 A  
HETATM   35  O   UNL     1     -12.149  12.302  65.966  1.00  0.00    -0.623 OA 
HETATM   36  C   UNL     1     -11.193  11.863  66.572  1.00  0.00    -0.327 C  
HETATM   37  C   UNL     1     -11.195  11.346  67.933  1.00  0.00    -0.352 A  
BRANCH  23  38
HETATM   38  C   UNL     1      -8.891   6.840  65.236  1.00  0.00     0.170 C  
BRANCH  38  39
HETATM   39  N   UNL     1      -8.509   5.454  65.647  1.00  0.00    -0.132 NA 
BRANCH  39  40
HETATM   40  C   UNL     1      -8.792   5.306  67.114  1.00  0.00    -0.109 C  
HETATM   41  O   UNL     1      -7.684   3.868  68.739  1.00  0.00    -0.054 OA 
HETATM   42  C   UNL     1      -7.601   4.717  67.861  1.00  0.00    -0.082 C  
HETATM   43  O   UNL     1      -6.423   5.253  67.455  1.00  0.00    -0.048 OA 
ENDBRANCH  39  40
BRANCH  39  44
HETATM   44  C   UNL     1      -9.426   4.493  64.918  1.00  0.00    -0.138 C  
HETATM   45  C   UNL     1      -8.675   3.550  63.980  1.00  0.00    -0.093 C  
HETATM   46  O   UNL     1      -9.167   3.043  62.983  1.00  0.00    -0.094 OA 
HETATM   47  O   UNL     1      -7.408   3.280  64.393  1.00  0.00    -0.064 OA 
ENDBRANCH  39  44
ENDBRANCH  38  39
ENDBRANCH  23  38
ENDBRANCH  10  11
ENDBRANCH   5  10
ENDBRANCH   4   5
TORSDOF 8
ENDMDL
MODEL       52
REMARK 921   NORMALIZED FREE ENERGY PREDICTED BY IDOCK:   -5.76 KCAL/MOL
REMARK 922        TOTAL FREE ENERGY PREDICTED BY IDOCK:  -10.73 KCAL/MOL
REMARK 923 INTER-LIGAND FREE ENERGY PREDICTED BY IDOCK:   -9.22 KCAL/MOL
REMARK 924 INTRA-LIGAND FREE ENERGY PREDICTED BY IDOCK:   -1.50 KCAL/MOL
REMARK 927      BINDING AFFINITY PREDICTED BY RF-SCORE:    0.00 PKD
ROOT
HETATM    1  O   UNL     1     -10.763  18.820  65.959  1.00  0.00    -0.419 OA 
HETATM    2  C   UNL     1     -10.727  18.760  67.310  1.00  0.00    -0.425 C  
HETATM    3  O   UNL     1     -10.655  19.758  68.012  1.00  0.00    -0.418 OA 
HETATM    4  C   UNL     1     -10.858  17.342  67.854  1.00  0.00    -0.270 C  
ENDROOT
BRANCH   4   5
HETATM    5  N   UNL     1     -10.236  16.281  66.965  1.00  0.00    -0.275 NA 
BRANCH   5   6
HETATM    6  C   UNL     1      -8.913  15.895  67.591  1.00  0.00    -0.190 C  
HETATM    7  O   UNL     1      -7.942  17.117  65.742  1.00  0.00    -0.476 OA 
HETATM    8  C   UNL     1      -7.693  16.235  66.735  1.00  0.00    -0.260 C  
HETATM    9  O   UNL     1      -6.573  15.800  66.962  1.00  0.00    -0.284 OA 
ENDBRANCH   5   6
BRANCH   5  10
HETATM   10  C   UNL     1     -11.167  15.083  67.044  1.00  0.00    -0.328 C  
BRANCH  10  11
HETATM   11  C   UNL     1     -10.764  13.936  66.130  1.00  0.00    -0.283 A  
HETATM   12  C   UNL     1     -10.244  12.767  66.688  1.00  0.00    -0.246 A  
HETATM   13  C   UNL     1      -9.750  11.713  65.889  1.00  0.00    -0.260 A  
HETATM   14  C   UNL     1      -9.912  11.765  64.508  1.00  0.00    -0.242 A  
HETATM   15  C   UNL     1     -10.476  12.909  63.930  1.00  0.00    -0.333 A  
HETATM   16  O   UNL     1      -9.548  10.734  63.664  1.00  0.00    -0.248 OA 
HETATM   17  C   UNL     1      -8.961   9.602  64.198  1.00  0.00    -0.229 A  
HETATM   18  C   UNL     1     -10.874  13.987  64.738  1.00  0.00    -0.419 A  
HETATM   19  O   UNL     1     -11.370  15.126  64.170  1.00  0.00    -0.651 OA 
HETATM   20  C   UNL     1      -8.703   8.530  63.331  1.00  0.00     0.164 A  
HETATM   21  C   UNL     1      -8.092   7.355  63.809  1.00  0.00    -0.017 A  
HETATM   22  H   UNL     1     -11.444  15.161  63.223  1.00  0.00     0.000 HD 
HETATM   23  C   UNL     1      -7.690   7.244  65.142  1.00  0.00    -0.113 A  
HETATM   24  O   UNL     1      -7.897   6.289  62.975  1.00  0.00    -0.094 OA 
HETATM   25  C   UNL     1      -7.828  11.050  67.329  1.00  0.00    -0.122 A  
HETATM   26  H   UNL     1      -7.484   5.496  63.297  1.00  0.00     0.000 HD 
HETATM   27  C   UNL     1      -7.946   8.333  65.986  1.00  0.00    -0.098 A  
HETATM   28  C   UNL     1      -6.625  11.615  66.933  1.00  0.00    -0.129 A  
HETATM   29  C   UNL     1      -8.615   9.490  65.542  1.00  0.00    -0.163 A  
HETATM   30  C   UNL     1      -8.993  10.572  66.519  1.00  0.00    -0.157 C  
HETATM   31  C   UNL     1      -5.706  11.962  67.927  1.00  0.00    -0.054 A  
HETATM   32  C   UNL     1      -6.005  11.755  69.284  1.00  0.00    -0.077 A  
HETATM   33  O   UNL     1      -9.866   9.991  67.523  1.00  0.00    -0.164 OA 
HETATM   34  C   UNL     1      -7.225  11.198  69.669  1.00  0.00    -0.016 A  
HETATM   35  O   UNL     1     -10.032  10.040  69.820  1.00  0.00    -0.225 OA 
HETATM   36  C   UNL     1      -9.425  10.243  68.788  1.00  0.00    -0.176 C  
HETATM   37  C   UNL     1      -8.107  10.847  68.666  1.00  0.00    -0.143 A  
BRANCH  23  38
HETATM   38  C   UNL     1      -7.161   5.977  65.790  1.00  0.00    -0.075 C  
BRANCH  38  39
HETATM   39  N   UNL     1      -8.140   5.082  66.482  1.00  0.00    -0.107 NA 
BRANCH  39  40
HETATM   40  C   UNL     1      -8.341   5.599  67.877  1.00  0.00    -0.100 C  
HETATM   41  O   UNL     1      -9.875   4.794  69.590  1.00  0.00    -0.187 OA 
HETATM   42  C   UNL     1      -8.992   4.555  68.776  1.00  0.00    -0.111 C  
HETATM   43  O   UNL     1      -8.471   3.316  68.587  1.00  0.00    -0.074 OA 
ENDBRANCH  39  40
BRANCH  39  44
HETATM   44  C   UNL     1      -9.467   5.215  65.762  1.00  0.00    -0.141 C  
HETATM   45  C   UNL     1      -9.864   3.948  65.007  1.00  0.00    -0.192 C  
HETATM   46  O   UNL     1     -10.585   3.938  64.021  1.00  0.00    -0.255 OA 
HETATM   47  O   UNL     1      -9.378   2.812  65.575  1.00  0.00    -0.140 OA 
ENDBRANCH  39  44
ENDBRANCH  38  39
ENDBRANCH  23  38
ENDBRANCH  10  11
ENDBRANCH   5  10
ENDBRANCH   4   5
TORSDOF 8
ENDMDL
MODEL       53
REMARK 921   NORMALIZED FREE ENERGY PREDICTED BY IDOCK:   -5.73 KCAL/MOL
REMARK 922        TOTAL FREE ENERGY PREDICTED BY IDOCK:  -10.67 KCAL/MOL
REMARK 923 INTER-LIGAND FREE ENERGY PREDICTED BY IDOCK:  -10.09 KCAL/MOL
REMARK 924 INTRA-LIGAND FREE ENERGY PREDICTED BY IDOCK:   -0.58 KCAL/MOL
REMARK 927      BINDING AFFINITY PREDICTED BY RF-SCORE:    0.00 PKD
ROOT
HETATM    1  O   UNL     1     -10.982   5.412  67.110  1.00  0.00    -0.115 OA 
HETATM    2  C   UNL     1     -10.088   4.728  66.359  1.00  0.00    -0.262 C  
HETATM    3  O   UNL     1     -10.367   4.262  65.265  1.00  0.00    -0.244 OA 
HETATM    4  C   UNL     1      -8.698   4.668  66.984  1.00  0.00    -0.104 C  
ENDROOT
BRANCH   4   5
HETATM    5  N   UNL     1      -8.705   4.624  68.501  1.00  0.00    -0.097 NA 
BRANCH   5   6
HETATM    6  C   UNL     1      -7.917   3.400  68.915  1.00  0.00    -0.053 C  
HETATM    7  O   UNL     1      -9.680   3.094  70.543  1.00  0.00    -0.161 OA 
HETATM    8  C   UNL     1      -8.430   2.724  70.186  1.00  0.00    -0.046 C  
HETATM    9  O   UNL     1      -7.797   1.874  70.795  1.00  0.00    -0.039 OA 
ENDBRANCH   5   6
BRANCH   5  10
HETATM   10  C   UNL     1      -7.941   5.856  68.950  1.00  0.00    -0.102 C  
BRANCH  10  11
HETATM   11  C   UNL     1      -8.834   6.974  69.466  1.00  0.00    -0.133 A  
HETATM   12  C   UNL     1      -9.000   8.127  68.697  1.00  0.00    -0.137 A  
HETATM   13  C   UNL     1      -9.725   9.243  69.170  1.00  0.00    -0.164 A  
HETATM   14  C   UNL     1     -10.419   9.151  70.373  1.00  0.00    -0.223 A  
HETATM   15  C   UNL     1     -10.306   7.984  71.138  1.00  0.00    -0.229 A  
HETATM   16  O   UNL     1     -11.230  10.159  70.857  1.00  0.00    -0.337 OA 
HETATM   17  C   UNL     1     -11.342  11.336  70.141  1.00  0.00    -0.164 A  
HETATM   18  C   UNL     1      -9.502   6.921  70.693  1.00  0.00    -0.165 A  
HETATM   19  O   UNL     1      -9.344   5.807  71.467  1.00  0.00    -0.146 OA 
HETATM   20  C   UNL     1     -12.256  12.295  70.602  1.00  0.00    -0.378 A  
HETATM   21  C   UNL     1     -12.406  13.521  69.928  1.00  0.00    -0.224 A  
HETATM   22  H   UNL     1      -9.798   5.771  72.301  1.00  0.00     0.000 HD 
HETATM   23  C   UNL     1     -11.621  13.831  68.815  1.00  0.00    -0.363 A  
HETATM   24  O   UNL     1     -13.340  14.430  70.343  1.00  0.00    -0.446 OA 
HETATM   25  C   UNL     1      -8.294  11.033  68.192  1.00  0.00    -0.130 A  
HETATM   26  H   UNL     1     -13.441  15.258  69.889  1.00  0.00     0.000 HD 
HETATM   27  C   UNL     1     -10.705  12.863  68.381  1.00  0.00    -0.273 A  
HETATM   28  C   UNL     1      -7.363  11.541  69.086  1.00  0.00    -0.057 A  
HETATM   29  C   UNL     1     -10.588  11.604  69.002  1.00  0.00    -0.188 A  
HETATM   30  C   UNL     1      -9.692  10.547  68.414  1.00  0.00    -0.159 C  
HETATM   31  C   UNL     1      -6.118  11.929  68.584  1.00  0.00    -0.052 A  
HETATM   32  C   UNL     1      -5.821  11.793  67.218  1.00  0.00    -0.119 A  
HETATM   33  O   UNL     1     -10.152  10.263  67.066  1.00  0.00    -0.198 OA 
HETATM   34  C   UNL     1      -6.762  11.267  66.332  1.00  0.00    -0.065 A  
HETATM   35  O   UNL     1      -9.183  10.006  64.992  1.00  0.00    -0.188 OA 
HETATM   36  C   UNL     1      -9.143  10.356  66.154  1.00  0.00    -0.160 C  
HETATM   37  C   UNL     1      -7.991  10.909  66.851  1.00  0.00    -0.138 A  
BRANCH  23  38
HETATM   38  C   UNL     1     -11.803  15.054  67.932  1.00  0.00    -0.218 C  
BRANCH  38  39
HETATM   39  N   UNL     1     -11.111  15.070  66.606  1.00  0.00    -0.330 NA 
BRANCH  39  40
HETATM   40  C   UNL     1      -9.649  15.317  66.845  1.00  0.00    -0.233 C  
HETATM   41  O   UNL     1      -8.199  16.979  65.811  1.00  0.00    -0.486 OA 
HETATM   42  C   UNL     1      -9.235  16.717  66.407  1.00  0.00    -0.287 C  
HETATM   43  O   UNL     1     -10.143  17.659  66.768  1.00  0.00    -0.306 OA 
ENDBRANCH  39  40
BRANCH  39  44
HETATM   44  C   UNL     1     -11.236  13.684  66.009  1.00  0.00    -0.296 C  
HETATM   45  C   UNL     1     -12.429  13.548  65.065  1.00  0.00    -0.417 C  
HETATM   46  O   UNL     1     -13.009  12.496  64.843  1.00  0.00    -0.821 OA 
HETATM   47  O   UNL     1     -12.756  14.713  64.444  1.00  0.00    -0.636 OA 
ENDBRANCH  39  44
ENDBRANCH  38  39
ENDBRANCH  23  38
ENDBRANCH  10  11
ENDBRANCH   5  10
ENDBRANCH   4   5
TORSDOF 8
ENDMDL
MODEL       54
REMARK 921   NORMALIZED FREE ENERGY PREDICTED BY IDOCK:   -5.72 KCAL/MOL
REMARK 922        TOTAL FREE ENERGY PREDICTED BY IDOCK:  -10.66 KCAL/MOL
REMARK 923 INTER-LIGAND FREE ENERGY PREDICTED BY IDOCK:   -8.74 KCAL/MOL
REMARK 924 INTRA-LIGAND FREE ENERGY PREDICTED BY IDOCK:   -1.93 KCAL/MOL
REMARK 927      BINDING AFFINITY PREDICTED BY RF-SCORE:    0.00 PKD
ROOT
HETATM    1  O   UNL     1     -11.266  16.190  65.669  1.00  0.00    -0.078 OA 
HETATM    2  C   UNL     1     -10.854  17.478  65.708  1.00  0.00     0.012 C  
HETATM    3  O   UNL     1     -10.758  18.170  64.705  1.00  0.00    -0.250 OA 
HETATM    4  C   UNL     1     -10.596  17.986  67.122  1.00  0.00    -0.325 C  
ENDROOT
BRANCH   4   5
HETATM    5  N   UNL     1     -10.074  16.924  68.073  1.00  0.00    -0.280 NA 
BRANCH   5   6
HETATM    6  C   UNL     1      -8.786  17.453  68.667  1.00  0.00    -0.261 C  
HETATM    7  O   UNL     1      -7.716  16.139  66.940  1.00  0.00    -0.202 OA 
HETATM    8  C   UNL     1      -7.523  16.807  68.099  1.00  0.00    -0.171 C  
HETATM    9  O   UNL     1      -6.419  16.934  68.607  1.00  0.00    -0.156 OA 
ENDBRANCH   5   6
BRANCH   5  10
HETATM   10  C   UNL     1     -11.105  16.826  69.184  1.00  0.00    -0.141 C  
BRANCH  10  11
HETATM   11  C   UNL     1     -11.393  15.399  69.625  1.00  0.00    -0.315 A  
HETATM   12  C   UNL     1     -10.733  14.342  68.996  1.00  0.00    -0.261 A  
HETATM   13  C   UNL     1     -11.039  12.994  69.282  1.00  0.00    -0.194 A  
HETATM   14  C   UNL     1     -11.915  12.694  70.321  1.00  0.00    -0.284 A  
HETATM   15  C   UNL     1     -12.552  13.741  70.999  1.00  0.00    -0.446 A  
HETATM   16  O   UNL     1     -12.191  11.404  70.731  1.00  0.00    -0.368 OA 
HETATM   17  C   UNL     1     -11.602  10.346  70.064  1.00  0.00    -0.301 A  
HETATM   18  C   UNL     1     -12.306  15.075  70.633  1.00  0.00    -0.348 A  
HETATM   19  O   UNL     1     -12.971  16.093  71.254  1.00  0.00    -0.522 OA 
HETATM   20  C   UNL     1     -11.815   9.056  70.572  1.00  0.00    -0.107 A  
HETATM   21  C   UNL     1     -11.257   7.934  69.931  1.00  0.00    -0.046 A  
HETATM   22  H   UNL     1     -13.591  15.873  71.939  1.00  0.00     0.000 HD 
HETATM   23  C   UNL     1     -10.516   8.072  68.755  1.00  0.00    -0.196 A  
HETATM   24  O   UNL     1     -11.416   6.684  70.462  1.00  0.00    -0.326 OA 
HETATM   25  C   UNL     1     -10.794  12.078  66.978  1.00  0.00    -0.297 A  
HETATM   26  H   UNL     1     -11.040   5.926  70.029  1.00  0.00     0.000 HD 
HETATM   27  C   UNL     1     -10.328   9.370  68.259  1.00  0.00    -0.251 A  
HETATM   28  C   UNL     1     -11.999  11.973  66.298  1.00  0.00    -0.098 A  
HETATM   29  C   UNL     1     -10.823  10.509  68.922  1.00  0.00    -0.275 A  
HETATM   30  C   UNL     1     -10.474  11.888  68.428  1.00  0.00    -0.217 C  
HETATM   31  C   UNL     1     -11.994  12.203  64.921  1.00  0.00    -0.356 A  
HETATM   32  C   UNL     1     -10.806  12.544  64.253  1.00  0.00    -0.400 A  
HETATM   33  O   UNL     1      -9.029  12.028  68.459  1.00  0.00    -0.171 OA 
HETATM   34  C   UNL     1      -9.604  12.660  64.951  1.00  0.00     0.161 A  
HETATM   35  O   UNL     1      -7.398  12.816  67.037  1.00  0.00    -0.063 OA 
HETATM   36  C   UNL     1      -8.532  12.445  67.261  1.00  0.00    -0.183 C  
HETATM   37  C   UNL     1      -9.632  12.410  66.309  1.00  0.00    -0.245 A  
BRANCH  23  38
HETATM   38  C   UNL     1      -9.752   6.953  68.069  1.00  0.00    -0.130 C  
BRANCH  38  39
HETATM   39  N   UNL     1      -8.263   7.067  67.990  1.00  0.00    -0.118 NA 
BRANCH  39  40
HETATM   40  C   UNL     1      -7.739   7.305  69.377  1.00  0.00    -0.107 C  
HETATM   41  O   UNL     1      -5.463   7.046  70.206  1.00  0.00    -0.022 OA 
HETATM   42  C   UNL     1      -6.230   7.521  69.379  1.00  0.00    -0.031 C  
HETATM   43  O   UNL     1      -5.823   8.320  68.360  1.00  0.00    -0.039 OA 
ENDBRANCH  39  40
BRANCH  39  44
HETATM   44  C   UNL     1      -7.727   5.725  67.536  1.00  0.00    -0.097 C  
HETATM   45  C   UNL     1      -7.505   5.653  66.027  1.00  0.00    -0.082 C  
HETATM   46  O   UNL     1      -7.541   4.617  65.379  1.00  0.00    -0.080 OA 
HETATM   47  O   UNL     1      -7.206   6.857  65.472  1.00  0.00    -0.072 OA 
ENDBRANCH  39  44
ENDBRANCH  38  39
ENDBRANCH  23  38
ENDBRANCH  10  11
ENDBRANCH   5  10
ENDBRANCH   4   5
TORSDOF 8
ENDMDL
MODEL       55
REMARK 921   NORMALIZED FREE ENERGY PREDICTED BY IDOCK:   -5.71 KCAL/MOL
REMARK 922        TOTAL FREE ENERGY PREDICTED BY IDOCK:  -10.65 KCAL/MOL
REMARK 923 INTER-LIGAND FREE ENERGY PREDICTED BY IDOCK:   -8.30 KCAL/MOL
REMARK 924 INTRA-LIGAND FREE ENERGY PREDICTED BY IDOCK:   -2.35 KCAL/MOL
REMARK 927      BINDING AFFINITY PREDICTED BY RF-SCORE:    0.00 PKD
ROOT
HETATM    1  O   UNL     1      -7.984   4.006  74.040  1.00  0.00    -0.082 OA 
HETATM    2  C   UNL     1      -7.623   2.819  73.501  1.00  0.00    -0.051 C  
HETATM    3  O   UNL     1      -6.963   1.992  74.111  1.00  0.00    -0.022 OA 
HETATM    4  C   UNL     1      -8.182   2.599  72.099  1.00  0.00    -0.055 C  
ENDROOT
BRANCH   4   5
HETATM    5  N   UNL     1      -8.313   3.870  71.281  1.00  0.00    -0.071 NA 
BRANCH   5   6
HETATM    6  C   UNL     1      -7.494   3.676  70.022  1.00  0.00    -0.045 C  
HETATM    7  O   UNL     1      -6.699   5.917  70.464  1.00  0.00    -0.048 OA 
HETATM    8  C   UNL     1      -6.781   4.937  69.538  1.00  0.00    -0.051 C  
HETATM    9  O   UNL     1      -6.269   5.035  68.432  1.00  0.00    -0.029 OA 
ENDBRANCH   5   6
BRANCH   5  10
HETATM   10  C   UNL     1      -9.777   3.956  70.888  1.00  0.00    -0.183 C  
BRANCH  10  11
HETATM   11  C   UNL     1     -10.398   5.321  71.143  1.00  0.00    -0.291 A  
HETATM   12  C   UNL     1     -10.233   6.335  70.199  1.00  0.00    -0.237 A  
HETATM   13  C   UNL     1     -10.689   7.651  70.428  1.00  0.00    -0.241 A  
HETATM   14  C   UNL     1     -11.454   7.926  71.558  1.00  0.00    -0.265 A  
HETATM   15  C   UNL     1     -11.673   6.910  72.496  1.00  0.00    -0.194 A  
HETATM   16  O   UNL     1     -12.021   9.160  71.806  1.00  0.00    -0.335 OA 
HETATM   17  C   UNL     1     -11.800  10.194  70.915  1.00  0.00    -0.374 A  
HETATM   18  C   UNL     1     -11.128   5.630  72.294  1.00  0.00    -0.261 A  
HETATM   19  O   UNL     1     -11.293   4.656  73.237  1.00  0.00    -0.312 OA 
HETATM   20  C   UNL     1     -12.478  11.402  71.138  1.00  0.00    -0.465 A  
HETATM   21  C   UNL     1     -12.285  12.499  70.277  1.00  0.00    -0.267 A  
HETATM   22  H   UNL     1     -11.789   4.867  74.019  1.00  0.00     0.000 HD 
HETATM   23  C   UNL     1     -11.385  12.428  69.211  1.00  0.00    -0.315 A  
HETATM   24  O   UNL     1     -12.992  13.655  70.461  1.00  0.00    -0.156 OA 
HETATM   25  C   UNL     1      -8.811   8.871  69.336  1.00  0.00    -0.143 A  
HETATM   26  H   UNL     1     -12.861  14.396  69.880  1.00  0.00     0.000 HD 
HETATM   27  C   UNL     1     -10.709  11.215  69.017  1.00  0.00    -0.265 A  
HETATM   28  C   UNL     1      -7.837   9.292  70.230  1.00  0.00    -0.148 A  
HETATM   29  C   UNL     1     -10.939  10.086  69.827  1.00  0.00    -0.317 A  
HETATM   30  C   UNL     1     -10.296   8.766  69.493  1.00  0.00    -0.213 C  
HETATM   31  C   UNL     1      -6.509   9.292  69.798  1.00  0.00    -0.040 A  
HETATM   32  C   UNL     1      -6.175   8.863  68.502  1.00  0.00    -0.053 A  
HETATM   33  O   UNL     1     -10.732   8.374  68.164  1.00  0.00    -0.152 OA 
HETATM   34  C   UNL     1      -7.163   8.429  67.618  1.00  0.00    -0.088 A  
HETATM   35  O   UNL     1      -9.737   7.556  66.255  1.00  0.00    -0.142 OA 
HETATM   36  C   UNL     1      -9.680   8.077  67.350  1.00  0.00    -0.166 C  
HETATM   37  C   UNL     1      -8.470   8.457  68.064  1.00  0.00    -0.132 A  
BRANCH  23  38
HETATM   38  C   UNL     1     -11.212  13.493  68.143  1.00  0.00    -0.272 C  
BRANCH  38  39
HETATM   39  N   UNL     1     -10.027  13.389  67.235  1.00  0.00    -0.229 NA 
BRANCH  39  40
HETATM   40  C   UNL     1     -10.321  14.179  65.992  1.00  0.00    -0.309 C  
HETATM   41  O   UNL     1     -10.338  13.419  63.678  1.00  0.00    -0.006 OA 
HETATM   42  C   UNL     1     -10.719  13.274  64.832  1.00  0.00    -0.351 C  
HETATM   43  O   UNL     1     -11.566  12.286  65.216  1.00  0.00    -0.342 OA 
ENDBRANCH  39  40
BRANCH  39  44
HETATM   44  C   UNL     1      -8.862  14.067  67.927  1.00  0.00    -0.185 C  
HETATM   45  C   UNL     1      -7.679  13.128  68.157  1.00  0.00    -0.143 C  
HETATM   46  O   UNL     1      -6.864  13.264  69.057  1.00  0.00    -0.105 OA 
HETATM   47  O   UNL     1      -7.586  12.146  67.222  1.00  0.00    -0.145 OA 
ENDBRANCH  39  44
ENDBRANCH  38  39
ENDBRANCH  23  38
ENDBRANCH  10  11
ENDBRANCH   5  10
ENDBRANCH   4   5
TORSDOF 8
ENDMDL
MODEL       56
REMARK 921   NORMALIZED FREE ENERGY PREDICTED BY IDOCK:   -5.69 KCAL/MOL
REMARK 922        TOTAL FREE ENERGY PREDICTED BY IDOCK:  -10.62 KCAL/MOL
REMARK 923 INTER-LIGAND FREE ENERGY PREDICTED BY IDOCK:  -11.13 KCAL/MOL
REMARK 924 INTRA-LIGAND FREE ENERGY PREDICTED BY IDOCK:    0.51 KCAL/MOL
REMARK 927      BINDING AFFINITY PREDICTED BY RF-SCORE:    0.00 PKD
ROOT
HETATM    1  O   UNL     1      -6.912  19.275  65.234  1.00  0.00    -0.439 OA 
HETATM    2  C   UNL     1      -6.354  19.379  66.462  1.00  0.00    -0.185 C  
HETATM    3  O   UNL     1      -5.156  19.232  66.655  1.00  0.00    -0.155 OA 
HETATM    4  C   UNL     1      -7.352  19.765  67.548  1.00  0.00    -0.263 C  
ENDROOT
BRANCH   4   5
HETATM    5  N   UNL     1      -8.750  19.219  67.322  1.00  0.00    -0.287 NA 
BRANCH   5   6
HETATM    6  C   UNL     1      -9.242  19.784  66.006  1.00  0.00    -0.275 C  
HETATM    7  O   UNL     1     -11.411  19.786  67.077  1.00  0.00    -0.141 OA 
HETATM    8  C   UNL     1     -10.762  19.882  65.896  1.00  0.00    -0.339 C  
HETATM    9  O   UNL     1     -11.345  20.093  64.842  1.00  0.00    -0.022 OA 
ENDBRANCH   5   6
BRANCH   5  10
HETATM   10  C   UNL     1      -8.584  17.719  67.163  1.00  0.00    -0.233 C  
BRANCH  10  11
HETATM   11  C   UNL     1      -9.436  16.904  68.124  1.00  0.00    -0.251 A  
HETATM   12  C   UNL     1      -9.448  15.513  68.018  1.00  0.00    -0.194 A  
HETATM   13  C   UNL     1     -10.302  14.710  68.805  1.00  0.00    -0.248 A  
HETATM   14  C   UNL     1     -11.051  15.296  69.821  1.00  0.00    -0.282 A  
HETATM   15  C   UNL     1     -11.017  16.687  69.978  1.00  0.00    -0.148 A  
HETATM   16  O   UNL     1     -11.833  14.572  70.699  1.00  0.00    -0.285 OA 
HETATM   17  C   UNL     1     -11.912  13.199  70.555  1.00  0.00    -0.222 A  
HETATM   18  C   UNL     1     -10.233  17.477  69.120  1.00  0.00    -0.256 A  
HETATM   19  O   UNL     1     -10.245  18.838  69.235  1.00  0.00    -0.489 OA 
HETATM   20  C   UNL     1     -12.626  12.482  71.527  1.00  0.00    -0.253 A  
HETATM   21  C   UNL     1     -12.758  11.084  71.429  1.00  0.00    -0.429 A  
HETATM   22  H   UNL     1     -10.787  19.227  69.911  1.00  0.00     0.000 HD 
HETATM   23  C   UNL     1     -12.224  10.384  70.345  1.00  0.00    -0.389 A  
HETATM   24  O   UNL     1     -13.403  10.380  72.409  1.00  0.00    -0.601 OA 
HETATM   25  C   UNL     1     -10.858  12.994  67.087  1.00  0.00    -0.278 A  
HETATM   26  H   UNL     1     -13.492   9.436  72.343  1.00  0.00     0.000 HD 
HETATM   27  C   UNL     1     -11.527  11.125  69.379  1.00  0.00    -0.368 A  
HETATM   28  C   UNL     1     -12.059  13.239  66.436  1.00  0.00    -0.454 A  
HETATM   29  C   UNL     1     -11.327  12.514  69.494  1.00  0.00    -0.240 A  
HETATM   30  C   UNL     1     -10.453  13.240  68.507  1.00  0.00    -0.250 C  
HETATM   31  C   UNL     1     -12.153  12.893  65.086  1.00  0.00    -0.489 A  
HETATM   32  C   UNL     1     -11.057  12.328  64.411  1.00  0.00    -0.381 A  
HETATM   33  O   UNL     1      -9.123  12.660  68.567  1.00  0.00    -0.156 OA 
HETATM   34  C   UNL     1      -9.851  12.101  65.074  1.00  0.00    -0.182 A  
HETATM   35  O   UNL     1      -7.545  11.945  67.050  1.00  0.00    -0.151 OA 
HETATM   36  C   UNL     1      -8.673  12.290  67.334  1.00  0.00    -0.180 C  
HETATM   37  C   UNL     1      -9.791  12.435  66.413  1.00  0.00    -0.249 A  
BRANCH  23  38
HETATM   38  C   UNL     1     -12.182   8.872  70.217  1.00  0.00     0.434 C  
BRANCH  38  39
HETATM   39  N   UNL     1     -10.871   8.186  70.432  1.00  0.00    -0.234 NA 
BRANCH  39  40
HETATM   40  C   UNL     1      -9.862   8.808  69.510  1.00  0.00    -0.180 C  
HETATM   41  O   UNL     1      -8.026   7.736  68.321  1.00  0.00    -0.118 OA 
HETATM   42  C   UNL     1      -9.217   7.771  68.598  1.00  0.00    -0.138 C  
HETATM   43  O   UNL     1     -10.121   6.886  68.106  1.00  0.00    -0.153 OA 
ENDBRANCH  39  40
BRANCH  39  44
HETATM   44  C   UNL     1     -10.424   8.488  71.848  1.00  0.00    -0.317 C  
HETATM   45  C   UNL     1     -10.023   7.235  72.625  1.00  0.00    -0.184 C  
HETATM   46  O   UNL     1     -10.085   7.136  73.842  1.00  0.00    -0.322 OA 
HETATM   47  O   UNL     1      -9.532   6.247  71.831  1.00  0.00    -0.154 OA 
ENDBRANCH  39  44
ENDBRANCH  38  39
ENDBRANCH  23  38
ENDBRANCH  10  11
ENDBRANCH   5  10
ENDBRANCH   4   5
TORSDOF 8
ENDMDL
MODEL       57
REMARK 921   NORMALIZED FREE ENERGY PREDICTED BY IDOCK:   -5.67 KCAL/MOL
REMARK 922        TOTAL FREE ENERGY PREDICTED BY IDOCK:  -10.59 KCAL/MOL
REMARK 923 INTER-LIGAND FREE ENERGY PREDICTED BY IDOCK:   -8.70 KCAL/MOL
REMARK 924 INTRA-LIGAND FREE ENERGY PREDICTED BY IDOCK:   -1.89 KCAL/MOL
REMARK 927      BINDING AFFINITY PREDICTED BY RF-SCORE:    0.00 PKD
ROOT
HETATM    1  O   UNL     1      -9.108   7.266  66.027  1.00  0.00    -0.153 OA 
HETATM    2  C   UNL     1      -7.853   6.986  66.446  1.00  0.00    -0.106 C  
HETATM    3  O   UNL     1      -6.904   6.907  65.680  1.00  0.00    -0.050 OA 
HETATM    4  C   UNL     1      -7.739   6.855  67.961  1.00  0.00    -0.113 C  
ENDROOT
BRANCH   4   5
HETATM    5  N   UNL     1      -8.977   6.281  68.625  1.00  0.00    -0.128 NA 
BRANCH   5   6
HETATM    6  C   UNL     1      -8.660   4.848  68.994  1.00  0.00    -0.084 C  
HETATM    7  O   UNL     1     -10.009   4.292  67.064  1.00  0.00    -0.206 OA 
HETATM    8  C   UNL     1      -9.438   3.808  68.189  1.00  0.00    -0.157 C  
HETATM    9  O   UNL     1      -9.489   2.625  68.495  1.00  0.00    -0.195 OA 
ENDBRANCH   5   6
BRANCH   5  10
HETATM   10  C   UNL     1      -9.159   7.074  69.908  1.00  0.00    -0.141 C  
BRANCH  10  11
HETATM   11  C   UNL     1      -8.404   8.394  69.921  1.00  0.00    -0.124 A  
HETATM   12  C   UNL     1      -8.870   9.456  69.145  1.00  0.00    -0.143 A  
HETATM   13  C   UNL     1      -8.154  10.668  69.029  1.00  0.00    -0.148 A  
HETATM   14  C   UNL     1      -7.027  10.877  69.818  1.00  0.00    -0.120 A  
HETATM   15  C   UNL     1      -6.569   9.841  70.642  1.00  0.00    -0.113 A  
HETATM   16  O   UNL     1      -6.328  12.068  69.838  1.00  0.00    -0.141 OA 
HETATM   17  C   UNL     1      -6.735  13.102  69.016  1.00  0.00    -0.103 A  
HETATM   18  C   UNL     1      -7.243   8.609  70.669  1.00  0.00    -0.058 A  
HETATM   19  O   UNL     1      -6.764   7.579  71.428  1.00  0.00    -0.048 OA 
HETATM   20  C   UNL     1      -6.073  14.333  69.140  1.00  0.00    -0.095 A  
HETATM   21  C   UNL     1      -6.429  15.420  68.320  1.00  0.00    -0.116 A  
HETATM   22  H   UNL     1      -5.974   7.725  71.936  1.00  0.00     0.000 HD 
HETATM   23  C   UNL     1      -7.414  15.291  67.339  1.00  0.00    -0.239 A  
HETATM   24  O   UNL     1      -5.824  16.636  68.483  1.00  0.00    -0.121 OA 
HETATM   25  C   UNL     1      -8.630  11.131  66.628  1.00  0.00    -0.165 A  
HETATM   26  H   UNL     1      -6.064  17.371  67.930  1.00  0.00     0.000 HD 
HETATM   27  C   UNL     1      -8.051  14.047  67.224  1.00  0.00    -0.174 A  
HETATM   28  C   UNL     1      -7.618  10.711  65.776  1.00  0.00    -0.120 A  
HETATM   29  C   UNL     1      -7.756  12.968  68.079  1.00  0.00    -0.145 A  
HETATM   30  C   UNL     1      -8.565  11.700  68.011  1.00  0.00    -0.152 C  
HETATM   31  C   UNL     1      -7.981  10.223  64.519  1.00  0.00    -0.133 A  
HETATM   32  C   UNL     1      -9.333  10.148  64.141  1.00  0.00    -0.340 A  
HETATM   33  O   UNL     1      -9.952  12.033  68.286  1.00  0.00    -0.194 OA 
HETATM   34  C   UNL     1     -10.341  10.561  65.012  1.00  0.00    -0.310 A  
HETATM   35  O   UNL     1     -12.003  11.532  67.365  1.00  0.00    -0.623 OA 
HETATM   36  C   UNL     1     -10.790  11.562  67.320  1.00  0.00    -0.256 C  
HETATM   37  C   UNL     1      -9.953  11.057  66.242  1.00  0.00    -0.269 A  
BRANCH  23  38
HETATM   38  C   UNL     1      -7.973  16.432  66.507  1.00  0.00    -0.307 C  
BRANCH  38  39
HETATM   39  N   UNL     1      -8.867  17.421  67.185  1.00  0.00    -0.227 NA 
BRANCH  39  40
HETATM   40  C   UNL     1      -8.745  18.732  66.463  1.00  0.00    -0.312 C  
HETATM   41  O   UNL     1      -8.320  20.943  67.392  1.00  0.00    -0.252 OA 
HETATM   42  C   UNL     1      -7.999  19.766  67.298  1.00  0.00    -0.285 C  
HETATM   43  O   UNL     1      -6.915  19.239  67.922  1.00  0.00    -0.230 OA 
ENDBRANCH  39  40
BRANCH  39  44
HETATM   44  C   UNL     1     -10.294  16.944  67.003  1.00  0.00    -0.307 C  
HETATM   45  C   UNL     1     -10.861  16.273  68.252  1.00  0.00    -0.340 C  
HETATM   46  O   UNL     1     -11.743  15.427  68.233  1.00  0.00    -0.360 OA 
HETATM   47  O   UNL     1     -10.323  16.749  69.406  1.00  0.00    -0.302 OA 
ENDBRANCH  39  44
ENDBRANCH  38  39
ENDBRANCH  23  38
ENDBRANCH  10  11
ENDBRANCH   5  10
ENDBRANCH   4   5
TORSDOF 8
ENDMDL
MODEL       58
REMARK 921   NORMALIZED FREE ENERGY PREDICTED BY IDOCK:   -5.63 KCAL/MOL
REMARK 922        TOTAL FREE ENERGY PREDICTED BY IDOCK:  -10.53 KCAL/MOL
REMARK 923 INTER-LIGAND FREE ENERGY PREDICTED BY IDOCK:   -9.94 KCAL/MOL
REMARK 924 INTRA-LIGAND FREE ENERGY PREDICTED BY IDOCK:   -0.60 KCAL/MOL
REMARK 927      BINDING AFFINITY PREDICTED BY RF-SCORE:    0.00 PKD
ROOT
HETATM    1  O   UNL     1     -11.340   6.260  67.617  1.00  0.00    -0.246 OA 
HETATM    2  C   UNL     1     -10.230   5.561  67.287  1.00  0.00    -0.212 C  
HETATM    3  O   UNL     1     -10.021   5.153  66.154  1.00  0.00    -0.174 OA 
HETATM    4  C   UNL     1      -9.251   5.403  68.445  1.00  0.00    -0.111 C  
ENDROOT
BRANCH   4   5
HETATM    5  N   UNL     1      -9.916   5.299  69.805  1.00  0.00    -0.213 NA 
BRANCH   5   6
HETATM    6  C   UNL     1      -9.603   3.922  70.351  1.00  0.00    -0.196 C  
HETATM    7  O   UNL     1     -10.869   4.647  72.281  1.00  0.00    -0.136 OA 
HETATM    8  C   UNL     1     -10.005   3.721  71.811  1.00  0.00    -0.157 C  
HETATM    9  O   UNL     1      -9.631   2.771  72.484  1.00  0.00    -0.102 OA 
ENDBRANCH   5   6
BRANCH   5  10
HETATM   10  C   UNL     1      -9.221   6.327  70.681  1.00  0.00    -0.158 C  
BRANCH  10  11
HETATM   11  C   UNL     1      -9.868   7.703  70.639  1.00  0.00    -0.182 A  
HETATM   12  C   UNL     1      -9.628   8.539  69.548  1.00  0.00    -0.170 A  
HETATM   13  C   UNL     1     -10.108   9.866  69.504  1.00  0.00    -0.240 A  
HETATM   14  C   UNL     1     -10.967  10.319  70.500  1.00  0.00    -0.270 A  
HETATM   15  C   UNL     1     -11.261   9.478  71.581  1.00  0.00    -0.378 A  
HETATM   16  O   UNL     1     -11.559  11.567  70.479  1.00  0.00    -0.245 OA 
HETATM   17  C   UNL     1     -11.268  12.433  69.442  1.00  0.00    -0.158 A  
HETATM   18  C   UNL     1     -10.694   8.194  71.653  1.00  0.00    -0.241 A  
HETATM   19  O   UNL     1     -10.934   7.397  72.735  1.00  0.00    -0.283 OA 
HETATM   20  C   UNL     1     -11.967  13.648  69.391  1.00  0.00    -0.394 A  
HETATM   21  C   UNL     1     -11.706  14.581  68.370  1.00  0.00    -0.333 A  
HETATM   22  H   UNL     1     -11.496   7.732  73.425  1.00  0.00     0.000 HD 
HETATM   23  C   UNL     1     -10.719  14.341  67.412  1.00  0.00    -0.282 A  
HETATM   24  O   UNL     1     -12.431  15.737  68.288  1.00  0.00    -0.191 OA 
HETATM   25  C   UNL     1      -8.149  10.912  68.374  1.00  0.00    -0.131 A  
HETATM   26  H   UNL     1     -12.255  16.367  67.599  1.00  0.00     0.000 HD 
HETATM   27  C   UNL     1     -10.023  13.126  67.491  1.00  0.00    -0.223 A  
HETATM   28  C   UNL     1      -7.256  11.502  69.257  1.00  0.00    -0.048 A  
HETATM   29  C   UNL     1     -10.316  12.152  68.465  1.00  0.00    -0.233 A  
HETATM   30  C   UNL     1      -9.641  10.807  68.423  1.00  0.00    -0.176 C  
HETATM   31  C   UNL     1      -5.896  11.452  68.944  1.00  0.00    -0.047 A  
HETATM   32  C   UNL     1      -5.451  10.810  67.776  1.00  0.00    -0.039 A  
HETATM   33  O   UNL     1      -9.961  10.181  67.152  1.00  0.00    -0.179 OA 
HETATM   34  C   UNL     1      -6.359  10.208  66.903  1.00  0.00    -0.069 A  
HETATM   35  O   UNL     1      -8.803   9.061  65.506  1.00  0.00    -0.172 OA 
HETATM   36  C   UNL     1      -8.842   9.766  66.493  1.00  0.00    -0.138 C  
HETATM   37  C   UNL     1      -7.699  10.288  67.227  1.00  0.00    -0.095 A  
BRANCH  23  38
HETATM   38  C   UNL     1     -10.460  15.206  66.191  1.00  0.00    -0.312 C  
BRANCH  38  39
HETATM   39  N   UNL     1      -9.623  16.434  66.366  1.00  0.00    -0.270 NA 
BRANCH  39  40
HETATM   40  C   UNL     1     -10.435  17.450  67.117  1.00  0.00    -0.305 C  
HETATM   41  O   UNL     1     -10.489  19.868  66.825  1.00  0.00    -0.444 OA 
HETATM   42  C   UNL     1     -10.573  18.750  66.334  1.00  0.00    -0.368 C  
HETATM   43  O   UNL     1     -10.818  18.534  65.016  1.00  0.00    -0.596 OA 
ENDBRANCH  39  40
BRANCH  39  44
HETATM   44  C   UNL     1      -8.449  16.063  67.249  1.00  0.00    -0.184 C  
HETATM   45  C   UNL     1      -7.117  16.590  66.720  1.00  0.00    -0.218 C  
HETATM   46  O   UNL     1      -6.036  16.068  66.949  1.00  0.00    -0.323 OA 
HETATM   47  O   UNL     1      -7.242  17.740  66.005  1.00  0.00    -0.301 OA 
ENDBRANCH  39  44
ENDBRANCH  38  39
ENDBRANCH  23  38
ENDBRANCH  10  11
ENDBRANCH   5  10
ENDBRANCH   4   5
TORSDOF 8
ENDMDL
MODEL       59
REMARK 921   NORMALIZED FREE ENERGY PREDICTED BY IDOCK:   -5.60 KCAL/MOL
REMARK 922        TOTAL FREE ENERGY PREDICTED BY IDOCK:  -10.49 KCAL/MOL
REMARK 923 INTER-LIGAND FREE ENERGY PREDICTED BY IDOCK:   -8.32 KCAL/MOL
REMARK 924 INTRA-LIGAND FREE ENERGY PREDICTED BY IDOCK:   -2.17 KCAL/MOL
REMARK 927      BINDING AFFINITY PREDICTED BY RF-SCORE:    0.00 PKD
ROOT
HETATM    1  O   UNL     1      -5.336  19.077  64.615  1.00  0.00    -0.175 OA 
HETATM    2  C   UNL     1      -5.886  20.312  64.650  1.00  0.00    -0.234 C  
HETATM    3  O   UNL     1      -5.346  21.288  64.152  1.00  0.00    -0.204 OA 
HETATM    4  C   UNL     1      -7.264  20.339  65.302  1.00  0.00    -0.122 C  
ENDROOT
BRANCH   4   5
HETATM    5  N   UNL     1      -7.437  19.327  66.420  1.00  0.00    -0.246 NA 
BRANCH   5   6
HETATM    6  C   UNL     1      -8.745  19.648  67.112  1.00  0.00    -0.312 C  
HETATM    7  O   UNL     1      -7.496  19.272  69.150  1.00  0.00    -0.346 OA 
HETATM    8  C   UNL     1      -8.732  19.399  68.620  1.00  0.00    -0.363 C  
HETATM    9  O   UNL     1      -9.745  19.380  69.304  1.00  0.00    -0.379 OA 
ENDBRANCH   5   6
BRANCH   5  10
HETATM   10  C   UNL     1      -7.580  17.980  65.735  1.00  0.00    -0.035 C  
BRANCH  10  11
HETATM   11  C   UNL     1      -7.109  16.810  66.585  1.00  0.00    -0.275 A  
HETATM   12  C   UNL     1      -7.881  15.648  66.637  1.00  0.00    -0.134 A  
HETATM   13  C   UNL     1      -7.556  14.573  67.493  1.00  0.00    -0.211 A  
HETATM   14  C   UNL     1      -6.359  14.597  68.201  1.00  0.00    -0.140 A  
HETATM   15  C   UNL     1      -5.544  15.733  68.125  1.00  0.00    -0.122 A  
HETATM   16  O   UNL     1      -5.920  13.545  68.981  1.00  0.00    -0.075 OA 
HETATM   17  C   UNL     1      -6.713  12.419  69.101  1.00  0.00    -0.090 A  
HETATM   18  C   UNL     1      -5.934  16.832  67.342  1.00  0.00    -0.161 A  
HETATM   19  O   UNL     1      -5.169  17.963  67.314  1.00  0.00    -0.129 OA 
HETATM   20  C   UNL     1      -6.191  11.327  69.810  1.00  0.00    -0.124 A  
HETATM   21  C   UNL     1      -6.954  10.157  69.983  1.00  0.00    -0.145 A  
HETATM   22  H   UNL     1      -4.371  17.979  67.829  1.00  0.00     0.000 HD 
HETATM   23  C   UNL     1      -8.259  10.070  69.494  1.00  0.00    -0.173 A  
HETATM   24  O   UNL     1      -6.421   9.071  70.622  1.00  0.00    -0.044 OA 
HETATM   25  C   UNL     1      -9.873  13.922  68.137  1.00  0.00    -0.240 A  
HETATM   26  H   UNL     1      -6.936   8.281  70.739  1.00  0.00     0.000 HD 
HETATM   27  C   UNL     1      -8.764  11.179  68.801  1.00  0.00    -0.130 A  
HETATM   28  C   UNL     1     -10.281  14.468  69.346  1.00  0.00    -0.051 A  
HETATM   29  C   UNL     1      -7.993  12.333  68.561  1.00  0.00    -0.107 A  
HETATM   30  C   UNL     1      -8.529  13.438  67.691  1.00  0.00    -0.187 C  
HETATM   31  C   UNL     1     -11.624  14.827  69.482  1.00  0.00    -0.339 A  
HETATM   32  C   UNL     1     -12.526  14.652  68.419  1.00  0.00     0.196 A  
HETATM   33  O   UNL     1      -8.806  12.887  66.377  1.00  0.00    -0.087 OA 
HETATM   34  C   UNL     1     -12.100  14.115  67.203  1.00  0.00    -0.432 A  
HETATM   35  O   UNL     1     -10.532  12.986  64.855  1.00  0.00    -0.309 OA 
HETATM   36  C   UNL     1     -10.077  13.161  65.967  1.00  0.00    -0.286 C  
HETATM   37  C   UNL     1     -10.771  13.751  67.102  1.00  0.00    -0.283 A  
BRANCH  23  38
HETATM   38  C   UNL     1      -9.110   8.812  69.496  1.00  0.00    -0.146 C  
BRANCH  38  39
HETATM   39  N   UNL     1      -8.877   7.810  70.582  1.00  0.00    -0.143 NA 
BRANCH  39  40
HETATM   40  C   UNL     1      -9.982   7.948  71.590  1.00  0.00    -0.181 C  
HETATM   41  O   UNL     1      -9.971   7.344  73.950  1.00  0.00    -0.301 OA 
HETATM   42  C   UNL     1      -9.447   7.938  73.017  1.00  0.00    -0.271 C  
HETATM   43  O   UNL     1      -8.321   8.683  73.149  1.00  0.00    -0.405 OA 
ENDBRANCH  39  40
BRANCH  39  44
HETATM   44  C   UNL     1      -9.006   6.432  69.966  1.00  0.00    -0.146 C  
HETATM   45  C   UNL     1      -7.786   6.034  69.138  1.00  0.00    -0.099 C  
HETATM   46  O   UNL     1      -7.821   5.247  68.204  1.00  0.00    -0.087 OA 
HETATM   47  O   UNL     1      -6.632   6.603  69.577  1.00  0.00    -0.045 OA 
ENDBRANCH  39  44
ENDBRANCH  38  39
ENDBRANCH  23  38
ENDBRANCH  10  11
ENDBRANCH   5  10
ENDBRANCH   4   5
TORSDOF 8
ENDMDL
MODEL       60
REMARK 921   NORMALIZED FREE ENERGY PREDICTED BY IDOCK:   -5.51 KCAL/MOL
REMARK 922        TOTAL FREE ENERGY PREDICTED BY IDOCK:  -10.36 KCAL/MOL
REMARK 923 INTER-LIGAND FREE ENERGY PREDICTED BY IDOCK:   -9.87 KCAL/MOL
REMARK 924 INTRA-LIGAND FREE ENERGY PREDICTED BY IDOCK:   -0.50 KCAL/MOL
REMARK 927      BINDING AFFINITY PREDICTED BY RF-SCORE:    0.00 PKD
ROOT
HETATM    1  O   UNL     1     -11.151  17.138  64.342  1.00  0.00    -1.100 OA 
HETATM    2  C   UNL     1     -11.018  16.075  65.168  1.00  0.00    -0.348 C  
HETATM    3  O   UNL     1     -11.895  15.235  65.306  1.00  0.00    -0.146 OA 
HETATM    4  C   UNL     1      -9.652  16.000  65.840  1.00  0.00    -0.335 C  
ENDROOT
BRANCH   4   5
HETATM    5  N   UNL     1      -9.035  17.356  66.136  1.00  0.00    -0.486 NA 
BRANCH   5   6
HETATM    6  C   UNL     1      -9.418  17.719  67.555  1.00  0.00    -0.257 C  
HETATM    7  O   UNL     1     -10.504  19.624  66.533  1.00  0.00    -0.436 OA 
HETATM    8  C   UNL     1     -10.062  19.097  67.696  1.00  0.00    -0.377 C  
HETATM    9  O   UNL     1     -10.226  19.653  68.772  1.00  0.00    -0.437 OA 
ENDBRANCH   5   6
BRANCH   5  10
HETATM   10  C   UNL     1      -7.533  17.142  66.088  1.00  0.00    -0.260 C  
BRANCH  10  11
HETATM   11  C   UNL     1      -7.030  16.119  67.095  1.00  0.00    -0.244 A  
HETATM   12  C   UNL     1      -7.561  14.829  67.084  1.00  0.00    -0.114 A  
HETATM   13  C   UNL     1      -7.217  13.870  68.062  1.00  0.00    -0.141 A  
HETATM   14  C   UNL     1      -6.213  14.157  68.982  1.00  0.00    -0.094 A  
HETATM   15  C   UNL     1      -5.631  15.431  68.980  1.00  0.00    -0.098 A  
HETATM   16  O   UNL     1      -5.748  13.242  69.905  1.00  0.00    -0.103 OA 
HETATM   17  C   UNL     1      -6.320  11.985  69.954  1.00  0.00    -0.089 A  
HETATM   18  C   UNL     1      -6.057  16.403  68.059  1.00  0.00    -0.118 A  
HETATM   19  O   UNL     1      -5.532  17.663  68.095  1.00  0.00    -0.147 OA 
HETATM   20  C   UNL     1      -5.754  11.044  70.827  1.00  0.00    -0.095 A  
HETATM   21  C   UNL     1      -6.299   9.751  70.935  1.00  0.00    -0.073 A  
HETATM   22  H   UNL     1      -4.871  17.856  68.751  1.00  0.00     0.000 HD 
HETATM   23  C   UNL     1      -7.438   9.387  70.213  1.00  0.00    -0.131 A  
HETATM   24  O   UNL     1      -5.709   8.817  71.741  1.00  0.00    -0.044 OA 
HETATM   25  C   UNL     1      -9.449  12.789  68.297  1.00  0.00    -0.203 A  
HETATM   26  H   UNL     1      -6.077   7.944  71.815  1.00  0.00     0.000 HD 
HETATM   27  C   UNL     1      -7.995  10.349  69.358  1.00  0.00    -0.161 A  
HETATM   28  C   UNL     1     -10.188  13.282  69.363  1.00  0.00     0.490 A  
HETATM   29  C   UNL     1      -7.425  11.625  69.186  1.00  0.00     0.003 A  
HETATM   30  C   UNL     1      -7.975  12.570  68.153  1.00  0.00    -0.157 C  
HETATM   31  C   UNL     1     -11.574  13.368  69.214  1.00  0.00    -0.365 A  
HETATM   32  C   UNL     1     -12.193  12.979  68.013  1.00  0.00    -0.057 A  
HETATM   33  O   UNL     1      -7.871  11.931  66.853  1.00  0.00    -0.160 OA 
HETATM   34  C   UNL     1     -11.436  12.498  66.944  1.00  0.00    -0.416 A  
HETATM   35  O   UNL     1      -9.242  11.630  65.027  1.00  0.00    -0.108 OA 
HETATM   36  C   UNL     1      -9.062  11.930  66.189  1.00  0.00    -0.161 C  
HETATM   37  C   UNL     1     -10.070  12.406  67.125  1.00  0.00    -0.221 A  
BRANCH  23  38
HETATM   38  C   UNL     1      -8.017   7.985  70.145  1.00  0.00    -0.105 C  
BRANCH  38  39
HETATM   39  N   UNL     1      -9.430   7.787  70.594  1.00  0.00    -0.162 NA 
BRANCH  39  40
HETATM   40  C   UNL     1      -9.827   8.974  71.422  1.00  0.00    -0.311 C  
HETATM   41  O   UNL     1     -12.058   9.664  72.116  1.00  0.00    -0.291 OA 
HETATM   42  C   UNL     1     -11.206   8.789  72.046  1.00  0.00    -0.373 C  
HETATM   43  O   UNL     1     -11.385   7.536  72.537  1.00  0.00    -0.294 OA 
ENDBRANCH  39  40
BRANCH  39  44
HETATM   44  C   UNL     1     -10.306   7.793  69.358  1.00  0.00    -0.219 C  
HETATM   45  C   UNL     1     -10.683   6.390  68.888  1.00  0.00    -0.288 C  
HETATM   46  O   UNL     1     -10.952   6.106  67.731  1.00  0.00    -0.313 OA 
HETATM   47  O   UNL     1     -10.745   5.485  69.901  1.00  0.00    -0.319 OA 
ENDBRANCH  39  44
ENDBRANCH  38  39
ENDBRANCH  23  38
ENDBRANCH  10  11
ENDBRANCH   5  10
ENDBRANCH   4   5
TORSDOF 8
ENDMDL
MODEL       61
REMARK 921   NORMALIZED FREE ENERGY PREDICTED BY IDOCK:   -5.49 KCAL/MOL
REMARK 922        TOTAL FREE ENERGY PREDICTED BY IDOCK:  -10.33 KCAL/MOL
REMARK 923 INTER-LIGAND FREE ENERGY PREDICTED BY IDOCK:   -8.77 KCAL/MOL
REMARK 924 INTRA-LIGAND FREE ENERGY PREDICTED BY IDOCK:   -1.56 KCAL/MOL
REMARK 927      BINDING AFFINITY PREDICTED BY RF-SCORE:    0.00 PKD
ROOT
HETATM    1  O   UNL     1     -10.657  16.698  67.339  1.00  0.00    -0.318 OA 
HETATM    2  C   UNL     1     -10.124  16.866  68.571  1.00  0.00    -0.297 C  
HETATM    3  O   UNL     1     -10.795  16.819  69.591  1.00  0.00    -0.333 OA 
HETATM    4  C   UNL     1      -8.610  17.043  68.553  1.00  0.00    -0.257 C  
ENDROOT
BRANCH   4   5
HETATM    5  N   UNL     1      -8.088  17.764  67.324  1.00  0.00    -0.208 NA 
BRANCH   5   6
HETATM    6  C   UNL     1      -7.362  19.001  67.808  1.00  0.00    -0.238 C  
HETATM    7  O   UNL     1      -9.056  20.204  66.569  1.00  0.00    -0.341 OA 
HETATM    8  C   UNL     1      -7.854  20.303  67.177  1.00  0.00    -0.333 C  
HETATM    9  O   UNL     1      -7.248  21.361  67.266  1.00  0.00    -0.538 OA 
ENDBRANCH   5   6
BRANCH   5  10
HETATM   10  C   UNL     1      -7.069  16.827  66.701  1.00  0.00    -0.240 C  
BRANCH  10  11
HETATM   11  C   UNL     1      -6.855  15.545  67.491  1.00  0.00    -0.225 A  
HETATM   12  C   UNL     1      -7.641  14.428  67.207  1.00  0.00    -0.135 A  
HETATM   13  C   UNL     1      -7.569  13.247  67.977  1.00  0.00    -0.145 A  
HETATM   14  C   UNL     1      -6.589  13.126  68.958  1.00  0.00    -0.105 A  
HETATM   15  C   UNL     1      -5.756  14.219  69.228  1.00  0.00    -0.086 A  
HETATM   16  O   UNL     1      -6.386  11.971  69.687  1.00  0.00    -0.117 OA 
HETATM   17  C   UNL     1      -7.209  10.882  69.467  1.00  0.00    -0.113 A  
HETATM   18  C   UNL     1      -5.910  15.419  68.513  1.00  0.00    -0.096 A  
HETATM   19  O   UNL     1      -5.138  16.504  68.816  1.00  0.00    -0.117 OA 
HETATM   20  C   UNL     1      -6.909   9.691  70.143  1.00  0.00    -0.097 A  
HETATM   21  C   UNL     1      -7.717   8.551  69.976  1.00  0.00    -0.086 A  
HETATM   22  H   UNL     1      -4.495  16.418  69.511  1.00  0.00     0.000 HD 
HETATM   23  C   UNL     1      -8.858   8.589  69.171  1.00  0.00    -0.142 A  
HETATM   24  O   UNL     1      -7.388   7.373  70.589  1.00  0.00    -0.067 OA 
HETATM   25  C   UNL     1      -9.987  12.650  67.940  1.00  0.00    -0.228 A  
HETATM   26  H   UNL     1      -7.934   6.603  70.476  1.00  0.00     0.000 HD 
HETATM   27  C   UNL     1      -9.145   9.795  68.516  1.00  0.00    -0.128 A  
HETATM   28  C   UNL     1     -10.675  13.077  69.067  1.00  0.00    -0.138 A  
HETATM   29  C   UNL     1      -8.312  10.926  68.619  1.00  0.00    -0.148 A  
HETATM   30  C   UNL     1      -8.585  12.150  67.786  1.00  0.00    -0.164 C  
HETATM   31  C   UNL     1     -12.000  13.489  68.908  1.00  0.00    -0.378 A  
HETATM   32  C   UNL     1     -12.607  13.483  67.641  1.00  0.00     0.492 A  
HETATM   33  O   UNL     1      -8.533  11.766  66.387  1.00  0.00    -0.166 OA 
HETATM   34  C   UNL     1     -11.900  13.065  66.513  1.00  0.00    -0.464 A  
HETATM   35  O   UNL     1      -9.815  12.128  64.508  1.00  0.00    -0.219 OA 
HETATM   36  C   UNL     1      -9.652  12.152  65.711  1.00  0.00    -0.197 C  
HETATM   37  C   UNL     1     -10.597  12.646  66.701  1.00  0.00    -0.267 A  
BRANCH  23  38
HETATM   38  C   UNL     1      -9.710   7.386  68.807  1.00  0.00    -0.149 C  
BRANCH  38  39
HETATM   39  N   UNL     1     -10.287   6.573  69.921  1.00  0.00    -0.183 NA 
BRANCH  39  40
HETATM   40  C   UNL     1     -11.779   6.738  69.896  1.00  0.00    -0.221 C  
HETATM   41  O   UNL     1     -13.312   6.995  71.772  1.00  0.00    -0.353 OA 
HETATM   42  C   UNL     1     -12.299   7.357  71.188  1.00  0.00    -0.314 C  
HETATM   43  O   UNL     1     -11.517   8.379  71.620  1.00  0.00    -0.258 OA 
ENDBRANCH  39  40
BRANCH  39  44
HETATM   44  C   UNL     1      -9.996   5.116  69.621  1.00  0.00    -0.243 C  
HETATM   45  C   UNL     1      -9.469   4.353  70.835  1.00  0.00    -0.171 C  
HETATM   46  O   UNL     1      -8.748   3.369  70.763  1.00  0.00    -0.069 OA 
HETATM   47  O   UNL     1      -9.926   4.845  72.017  1.00  0.00    -0.173 OA 
ENDBRANCH  39  44
ENDBRANCH  38  39
ENDBRANCH  23  38
ENDBRANCH  10  11
ENDBRANCH   5  10
ENDBRANCH   4   5
TORSDOF 8
ENDMDL
MODEL       62
REMARK 921   NORMALIZED FREE ENERGY PREDICTED BY IDOCK:   -5.48 KCAL/MOL
REMARK 922        TOTAL FREE ENERGY PREDICTED BY IDOCK:  -10.31 KCAL/MOL
REMARK 923 INTER-LIGAND FREE ENERGY PREDICTED BY IDOCK:  -10.23 KCAL/MOL
REMARK 924 INTRA-LIGAND FREE ENERGY PREDICTED BY IDOCK:   -0.08 KCAL/MOL
REMARK 927      BINDING AFFINITY PREDICTED BY RF-SCORE:    0.00 PKD
ROOT
HETATM    1  O   UNL     1      -6.910  17.239  65.963  1.00  0.00    -0.225 OA 
HETATM    2  C   UNL     1      -6.673  16.638  67.151  1.00  0.00    -0.188 C  
HETATM    3  O   UNL     1      -5.809  15.786  67.298  1.00  0.00    -0.308 OA 
HETATM    4  C   UNL     1      -7.536  17.182  68.285  1.00  0.00    -0.217 C  
ENDROOT
BRANCH   4   5
HETATM    5  N   UNL     1      -8.920  17.626  67.847  1.00  0.00    -0.245 NA 
BRANCH   5   6
HETATM    6  C   UNL     1      -8.732  18.758  66.859  1.00  0.00    -0.293 C  
HETATM    7  O   UNL     1     -10.984  19.379  67.490  1.00  0.00    -0.464 OA 
HETATM    8  C   UNL     1     -10.001  19.563  66.581  1.00  0.00    -0.407 C  
HETATM    9  O   UNL     1     -10.103  20.355  65.655  1.00  0.00    -0.276 OA 
ENDBRANCH   5   6
BRANCH   5  10
HETATM   10  C   UNL     1      -9.515  16.442  67.107  1.00  0.00    -0.231 C  
BRANCH  10  11
HETATM   11  C   UNL     1     -10.254  15.466  68.010  1.00  0.00    -0.235 A  
HETATM   12  C   UNL     1      -9.783  14.159  68.134  1.00  0.00    -0.225 A  
HETATM   13  C   UNL     1     -10.486  13.177  68.867  1.00  0.00    -0.117 A  
HETATM   14  C   UNL     1     -11.603  13.545  69.611  1.00  0.00    -0.275 A  
HETATM   15  C   UNL     1     -12.065  14.865  69.539  1.00  0.00    -0.315 A  
HETATM   16  O   UNL     1     -12.287  12.670  70.432  1.00  0.00    -0.312 OA 
HETATM   17  C   UNL     1     -11.875  11.353  70.503  1.00  0.00    -0.297 A  
HETATM   18  C   UNL     1     -11.405  15.803  68.727  1.00  0.00    -0.362 A  
HETATM   19  O   UNL     1     -11.890  17.074  68.612  1.00  0.00     0.242 OA 
HETATM   20  C   UNL     1     -12.521  10.517  71.427  1.00  0.00    -0.516 A  
HETATM   21  C   UNL     1     -12.161   9.161  71.537  1.00  0.00    -0.351 A  
HETATM   22  H   UNL     1     -12.673  17.303  69.100  1.00  0.00     0.000 HD 
HETATM   23  C   UNL     1     -11.187   8.605  70.705  1.00  0.00    -0.298 A  
HETATM   24  O   UNL     1     -12.750   8.364  72.479  1.00  0.00    -0.533 OA 
HETATM   25  C   UNL     1     -10.027  11.231  67.381  1.00  0.00    -0.206 A  
HETATM   26  H   UNL     1     -12.507   7.448  72.554  1.00  0.00     0.000 HD 
HETATM   27  C   UNL     1     -10.565   9.456  69.780  1.00  0.00    -0.247 A  
HETATM   28  C   UNL     1     -11.052  10.972  66.482  1.00  0.00    -0.174 A  
HETATM   29  C   UNL     1     -10.865  10.830  69.701  1.00  0.00    -0.294 A  
HETATM   30  C   UNL     1     -10.072  11.730  68.792  1.00  0.00    -0.140 C  
HETATM   31  C   UNL     1     -10.706  10.497  65.215  1.00  0.00    -0.019 A  
HETATM   32  C   UNL     1      -9.360  10.303  64.863  1.00  0.00    -0.306 A  
HETATM   33  O   UNL     1      -8.679  11.669  69.198  1.00  0.00     0.116 OA 
HETATM   34  C   UNL     1      -8.338  10.581  65.772  1.00  0.00    -0.166 A  
HETATM   35  O   UNL     1      -6.643  11.433  68.148  1.00  0.00    -0.056 OA 
HETATM   36  C   UNL     1      -7.855  11.377  68.152  1.00  0.00    -0.130 C  
HETATM   37  C   UNL     1      -8.708  11.031  67.024  1.00  0.00    -0.141 A  
BRANCH  23  38
HETATM   38  C   UNL     1     -10.622   7.202  70.839  1.00  0.00    -0.220 C  
BRANCH  38  39
HETATM   39  N   UNL     1      -9.570   6.965  71.876  1.00  0.00    -0.155 NA 
BRANCH  39  40
HETATM   40  C   UNL     1      -8.985   8.294  72.260  1.00  0.00    -0.213 C  
HETATM   41  O   UNL     1      -7.191   8.766  73.838  1.00  0.00    -0.379 OA 
HETATM   42  C   UNL     1      -7.595   8.143  72.865  1.00  0.00    -0.135 C  
HETATM   43  O   UNL     1      -6.834   7.244  72.191  1.00  0.00    -0.058 OA 
ENDBRANCH  39  40
BRANCH  39  44
HETATM   44  C   UNL     1     -10.259   6.411  73.107  1.00  0.00    -0.205 C  
HETATM   45  C   UNL     1     -10.785   4.991  72.905  1.00  0.00    -0.242 C  
HETATM   46  O   UNL     1     -11.734   4.521  73.515  1.00  0.00    -0.239 OA 
HETATM   47  O   UNL     1     -10.056   4.272  72.011  1.00  0.00    -0.177 OA 
ENDBRANCH  39  44
ENDBRANCH  38  39
ENDBRANCH  23  38
ENDBRANCH  10  11
ENDBRANCH   5  10
ENDBRANCH   4   5
TORSDOF 8
ENDMDL
MODEL       63
REMARK 921   NORMALIZED FREE ENERGY PREDICTED BY IDOCK:   -5.46 KCAL/MOL
REMARK 922        TOTAL FREE ENERGY PREDICTED BY IDOCK:  -10.28 KCAL/MOL
REMARK 923 INTER-LIGAND FREE ENERGY PREDICTED BY IDOCK:   -8.64 KCAL/MOL
REMARK 924 INTRA-LIGAND FREE ENERGY PREDICTED BY IDOCK:   -1.64 KCAL/MOL
REMARK 927      BINDING AFFINITY PREDICTED BY RF-SCORE:    0.00 PKD
ROOT
HETATM    1  O   UNL     1     -11.073   5.777  69.933  1.00  0.00    -0.360 OA 
HETATM    2  C   UNL     1      -9.934   5.120  69.617  1.00  0.00    -0.243 C  
HETATM    3  O   UNL     1      -9.855   4.359  68.664  1.00  0.00    -0.144 OA 
HETATM    4  C   UNL     1      -8.759   5.483  70.518  1.00  0.00    -0.135 C  
ENDROOT
BRANCH   4   5
HETATM    5  N   UNL     1      -9.155   5.805  71.948  1.00  0.00    -0.139 NA 
BRANCH   5   6
HETATM    6  C   UNL     1      -9.534   4.498  72.610  1.00  0.00    -0.134 C  
HETATM    7  O   UNL     1     -11.687   5.552  72.940  1.00  0.00    -0.278 OA 
HETATM    8  C   UNL     1     -10.894   4.521  73.306  1.00  0.00    -0.269 C  
HETATM    9  O   UNL     1     -11.266   3.650  74.079  1.00  0.00    -0.142 OA 
ENDBRANCH   5   6
BRANCH   5  10
HETATM   10  C   UNL     1      -7.895   6.328  72.614  1.00  0.00    -0.105 C  
BRANCH  10  11
HETATM   11  C   UNL     1      -7.371   7.619  72.002  1.00  0.00    -0.072 A  
HETATM   12  C   UNL     1      -8.187   8.345  71.134  1.00  0.00    -0.154 A  
HETATM   13  C   UNL     1      -7.720   9.488  70.449  1.00  0.00    -0.177 A  
HETATM   14  C   UNL     1      -6.462  10.001  70.748  1.00  0.00    -0.058 A  
HETATM   15  C   UNL     1      -5.644   9.315  71.654  1.00  0.00    -0.072 A  
HETATM   16  O   UNL     1      -5.970  11.168  70.198  1.00  0.00    -0.105 OA 
HETATM   17  C   UNL     1      -6.740  11.855  69.278  1.00  0.00    -0.099 A  
HETATM   18  C   UNL     1      -6.092   8.125  72.252  1.00  0.00    -0.050 A  
HETATM   19  O   UNL     1      -5.273   7.425  73.090  1.00  0.00    -0.037 OA 
HETATM   20  C   UNL     1      -6.260  13.092  68.821  1.00  0.00    -0.079 A  
HETATM   21  C   UNL     1      -6.988  13.834  67.871  1.00  0.00    -0.155 A  
HETATM   22  H   UNL     1      -4.403   7.769  73.260  1.00  0.00     0.000 HD 
HETATM   23  C   UNL     1      -8.177  13.341  67.330  1.00  0.00    -0.185 A  
HETATM   24  O   UNL     1      -6.549  15.066  67.472  1.00  0.00    -0.178 OA 
HETATM   25  C   UNL     1      -8.912   9.119  68.292  1.00  0.00    -0.129 A  
HETATM   26  H   UNL     1      -7.040  15.567  66.831  1.00  0.00     0.000 HD 
HETATM   27  C   UNL     1      -8.629  12.096  67.792  1.00  0.00    -0.164 A  
HETATM   28  C   UNL     1      -8.128   8.498  67.331  1.00  0.00    -0.106 A  
HETATM   29  C   UNL     1      -7.950  11.370  68.790  1.00  0.00    -0.122 A  
HETATM   30  C   UNL     1      -8.549  10.110  69.354  1.00  0.00    -0.174 C  
HETATM   31  C   UNL     1      -8.751   7.609  66.452  1.00  0.00    -0.166 A  
HETATM   32  C   UNL     1     -10.128   7.345  66.554  1.00  0.00    -0.176 A  
HETATM   33  O   UNL     1      -9.837  10.442  69.937  1.00  0.00    -0.165 OA 
HETATM   34  C   UNL     1     -10.902   7.966  67.535  1.00  0.00    -0.152 A  
HETATM   35  O   UNL     1     -11.965   9.563  69.894  1.00  0.00     0.055 OA 
HETATM   36  C   UNL     1     -10.832   9.639  69.465  1.00  0.00    -0.231 C  
HETATM   37  C   UNL     1     -10.264   8.854  68.378  1.00  0.00    -0.231 A  
BRANCH  23  38
HETATM   38  C   UNL     1      -9.109  14.118  66.418  1.00  0.00    -0.114 C  
BRANCH  38  39
HETATM   39  N   UNL     1     -10.533  14.284  66.846  1.00  0.00    -0.271 NA 
BRANCH  39  40
HETATM   40  C   UNL     1     -10.581  15.347  67.905  1.00  0.00    -0.267 C  
HETATM   41  O   UNL     1     -12.301  15.742  69.585  1.00  0.00    -0.294 OA 
HETATM   42  C   UNL     1     -11.524  14.968  69.041  1.00  0.00    -0.304 C  
HETATM   43  O   UNL     1     -11.399  13.666  69.402  1.00  0.00    -0.262 OA 
ENDBRANCH  39  40
BRANCH  39  44
HETATM   44  C   UNL     1     -11.309  14.807  65.655  1.00  0.00    -0.343 C  
HETATM   45  C   UNL     1     -12.168  13.735  64.987  1.00  0.00    -0.424 C  
HETATM   46  O   UNL     1     -12.491  13.754  63.809  1.00  0.00    -0.713 OA 
HETATM   47  O   UNL     1     -12.589  12.772  65.849  1.00  0.00    -0.518 OA 
ENDBRANCH  39  44
ENDBRANCH  38  39
ENDBRANCH  23  38
ENDBRANCH  10  11
ENDBRANCH   5  10
ENDBRANCH   4   5
TORSDOF 8
ENDMDL
MODEL       64
REMARK 921   NORMALIZED FREE ENERGY PREDICTED BY IDOCK:   -5.45 KCAL/MOL
REMARK 922        TOTAL FREE ENERGY PREDICTED BY IDOCK:  -10.27 KCAL/MOL
REMARK 923 INTER-LIGAND FREE ENERGY PREDICTED BY IDOCK:   -9.39 KCAL/MOL
REMARK 924 INTRA-LIGAND FREE ENERGY PREDICTED BY IDOCK:   -0.88 KCAL/MOL
REMARK 927      BINDING AFFINITY PREDICTED BY RF-SCORE:    0.00 PKD
ROOT
HETATM    1  O   UNL     1     -10.681   5.780  69.899  1.00  0.00    -0.292 OA 
HETATM    2  C   UNL     1     -10.380   5.810  71.217  1.00  0.00    -0.223 C  
HETATM    3  O   UNL     1     -10.313   4.799  71.901  1.00  0.00    -0.199 OA 
HETATM    4  C   UNL     1     -10.066   7.210  71.732  1.00  0.00    -0.183 C  
ENDROOT
BRANCH   4   5
HETATM    5  N   UNL     1     -10.848   8.311  71.040  1.00  0.00    -0.228 NA 
BRANCH   5   6
HETATM    6  C   UNL     1     -11.740   8.948  72.084  1.00  0.00    -0.341 C  
HETATM    7  O   UNL     1     -13.396   7.364  71.307  1.00  0.00    -0.350 OA 
HETATM    8  C   UNL     1     -13.197   8.491  72.025  1.00  0.00    -0.369 C  
HETATM    9  O   UNL     1     -14.101   9.055  72.626  1.00  0.00    -0.516 OA 
ENDBRANCH   5   6
BRANCH   5  10
HETATM   10  C   UNL     1      -9.816   9.337  70.606  1.00  0.00    -0.270 C  
BRANCH  10  11
HETATM   11  C   UNL     1     -10.201  10.095  69.345  1.00  0.00    -0.246 A  
HETATM   12  C   UNL     1      -9.993  11.473  69.284  1.00  0.00     0.154 A  
HETATM   13  C   UNL     1     -10.430  12.248  68.188  1.00  0.00    -0.228 A  
HETATM   14  C   UNL     1     -10.954  11.614  67.065  1.00  0.00    -0.288 A  
HETATM   15  C   UNL     1     -11.126  10.224  67.085  1.00  0.00    -0.165 A  
HETATM   16  O   UNL     1     -11.312  12.288  65.914  1.00  0.00    -0.328 OA 
HETATM   17  C   UNL     1     -11.182  13.663  65.870  1.00  0.00    -0.304 A  
HETATM   18  C   UNL     1     -10.773   9.484  68.225  1.00  0.00    -0.194 A  
HETATM   19  O   UNL     1     -10.995   8.137  68.267  1.00  0.00    -0.438 OA 
HETATM   20  C   UNL     1     -11.450  14.305  64.652  1.00  0.00    -0.389 A  
HETATM   21  C   UNL     1     -11.352  15.705  64.546  1.00  0.00    -0.320 A  
HETATM   22  H   UNL     1     -11.385   7.722  67.505  1.00  0.00     0.000 HD 
HETATM   23  C   UNL     1     -11.029  16.491  65.655  1.00  0.00    -0.053 A  
HETATM   24  O   UNL     1     -11.555  16.324  63.343  1.00  0.00    -0.879 OA 
HETATM   25  C   UNL     1     -11.133  14.279  69.447  1.00  0.00    -0.283 A  
HETATM   26  H   UNL     1     -11.489  17.269  63.271  1.00  0.00     0.000 HD 
HETATM   27  C   UNL     1     -10.779  15.828  66.865  1.00  0.00    -0.299 A  
HETATM   28  C   UNL     1     -12.492  14.310  69.724  1.00  0.00    -0.264 A  
HETATM   29  C   UNL     1     -10.807  14.424  66.975  1.00  0.00    -0.297 A  
HETATM   30  C   UNL     1     -10.394  13.753  68.257  1.00  0.00    -0.247 C  
HETATM   31  C   UNL     1     -12.901  14.879  70.933  1.00  0.00    -0.432 A  
HETATM   32  C   UNL     1     -11.958  15.389  71.842  1.00  0.00    -0.483 A  
HETATM   33  O   UNL     1      -9.019  14.128  68.541  1.00  0.00    -0.189 OA 
HETATM   34  C   UNL     1     -10.593  15.339  71.557  1.00  0.00     0.462 A  
HETATM   35  O   UNL     1      -7.833  14.855  70.377  1.00  0.00     0.413 OA 
HETATM   36  C   UNL     1      -8.878  14.627  69.802  1.00  0.00     0.476 C  
HETATM   37  C   UNL     1     -10.217  14.787  70.347  1.00  0.00     0.406 A  
BRANCH  23  38
HETATM   38  C   UNL     1     -10.755  17.984  65.617  1.00  0.00    -0.043 C  
BRANCH  38  39
HETATM   39  N   UNL     1      -9.668  18.519  66.493  1.00  0.00    -0.329 NA 
BRANCH  39  40
HETATM   40  C   UNL     1     -10.118  18.401  67.921  1.00  0.00    -0.362 C  
HETATM   41  O   UNL     1      -9.489  19.775  69.831  1.00  0.00     0.140 OA 
HETATM   42  C   UNL     1      -9.913  19.703  68.685  1.00  0.00    -0.458 C  
HETATM   43  O   UNL     1     -10.272  20.790  67.956  1.00  0.00    -0.137 OA 
ENDBRANCH  39  40
BRANCH  39  44
HETATM   44  C   UNL     1      -8.463  17.615  66.330  1.00  0.00    -0.246 C  
HETATM   45  C   UNL     1      -7.202  18.373  65.920  1.00  0.00    -0.232 C  
HETATM   46  O   UNL     1      -6.279  17.874  65.293  1.00  0.00    -0.120 OA 
HETATM   47  O   UNL     1      -7.177  19.655  66.370  1.00  0.00    -0.223 OA 
ENDBRANCH  39  44
ENDBRANCH  38  39
ENDBRANCH  23  38
ENDBRANCH  10  11
ENDBRANCH   5  10
ENDBRANCH   4   5
TORSDOF 8
ENDMDL
MODEL       65
REMARK 921   NORMALIZED FREE ENERGY PREDICTED BY IDOCK:   -5.37 KCAL/MOL
REMARK 922        TOTAL FREE ENERGY PREDICTED BY IDOCK:  -10.14 KCAL/MOL
REMARK 923 INTER-LIGAND FREE ENERGY PREDICTED BY IDOCK:   -8.75 KCAL/MOL
REMARK 924 INTRA-LIGAND FREE ENERGY PREDICTED BY IDOCK:   -1.39 KCAL/MOL
REMARK 927      BINDING AFFINITY PREDICTED BY RF-SCORE:    0.00 PKD
ROOT
HETATM    1  O   UNL     1      -6.201   5.098  72.593  1.00  0.00    -0.029 OA 
HETATM    2  C   UNL     1      -7.102   5.996  73.053  1.00  0.00    -0.084 C  
HETATM    3  O   UNL     1      -6.825   6.835  73.897  1.00  0.00    -0.072 OA 
HETATM    4  C   UNL     1      -8.458   5.898  72.362  1.00  0.00    -0.117 C  
ENDROOT
BRANCH   4   5
HETATM    5  N   UNL     1      -8.837   4.489  71.946  1.00  0.00    -0.116 NA 
BRANCH   5   6
HETATM    6  C   UNL     1      -9.221   3.741  73.206  1.00  0.00    -0.101 C  
HETATM    7  O   UNL     1      -7.796   1.993  72.329  1.00  0.00    -0.044 OA 
HETATM    8  C   UNL     1      -8.753   2.287  73.237  1.00  0.00    -0.070 C  
HETATM    9  O   UNL     1      -9.158   1.471  74.052  1.00  0.00    -0.060 OA 
ENDBRANCH   5   6
BRANCH   5  10
HETATM   10  C   UNL     1     -10.078   4.636  71.084  1.00  0.00    -0.173 C  
BRANCH  10  11
HETATM   11  C   UNL     1     -10.587   6.066  70.984  1.00  0.00    -0.305 A  
HETATM   12  C   UNL     1     -10.079   6.904  69.991  1.00  0.00    -0.195 A  
HETATM   13  C   UNL     1     -10.427   8.271  69.916  1.00  0.00    -0.223 A  
HETATM   14  C   UNL     1     -11.413   8.775  70.759  1.00  0.00    -0.270 A  
HETATM   15  C   UNL     1     -11.971   7.938  71.733  1.00  0.00    -0.337 A  
HETATM   16  O   UNL     1     -11.882  10.072  70.685  1.00  0.00    -0.285 OA 
HETATM   17  C   UNL     1     -11.332  10.934  69.754  1.00  0.00    -0.301 A  
HETATM   18  C   UNL     1     -11.540   6.606  71.852  1.00  0.00    -0.303 A  
HETATM   19  O   UNL     1     -12.042   5.806  72.839  1.00  0.00    -0.543 OA 
HETATM   20  C   UNL     1     -11.904  12.209  69.630  1.00  0.00    -0.391 A  
HETATM   21  C   UNL     1     -11.381  13.140  68.713  1.00  0.00    -0.291 A  
HETATM   22  H   UNL     1     -12.690   6.173  73.429  1.00  0.00     0.000 HD 
HETATM   23  C   UNL     1     -10.258  12.836  67.939  1.00  0.00    -0.229 A  
HETATM   24  O   UNL     1     -11.976  14.360  68.550  1.00  0.00    -0.419 OA 
HETATM   25  C   UNL     1      -8.212   9.161  69.204  1.00  0.00    -0.117 A  
HETATM   26  H   UNL     1     -11.623  14.989  67.931  1.00  0.00     0.000 HD 
HETATM   27  C   UNL     1      -9.696  11.560  68.091  1.00  0.00    -0.192 A  
HETATM   28  C   UNL     1      -7.450   9.644  70.258  1.00  0.00    -0.165 A  
HETATM   29  C   UNL     1     -10.245  10.593  68.954  1.00  0.00    -0.216 A  
HETATM   30  C   UNL     1      -9.692   9.193  68.978  1.00  0.00    -0.166 C  
HETATM   31  C   UNL     1      -6.065   9.477  70.193  1.00  0.00    -0.049 A  
HETATM   32  C   UNL     1      -5.470   8.826  69.099  1.00  0.00    -0.036 A  
HETATM   33  O   UNL     1      -9.825   8.631  67.645  1.00  0.00    -0.162 OA 
HETATM   34  C   UNL     1      -6.249   8.333  68.052  1.00  0.00    -0.051 A  
HETATM   35  O   UNL     1      -8.485   7.452  66.189  1.00  0.00    -0.130 OA 
HETATM   36  C   UNL     1      -8.644   8.132  67.182  1.00  0.00    -0.124 C  
HETATM   37  C   UNL     1      -7.615   8.528  68.132  1.00  0.00    -0.098 A  
BRANCH  23  38
HETATM   38  C   UNL     1      -9.706  13.704  66.823  1.00  0.00    -0.275 C  
BRANCH  38  39
HETATM   39  N   UNL     1     -10.509  13.826  65.566  1.00  0.00    -0.305 NA 
BRANCH  39  40
HETATM   40  C   UNL     1     -10.137  15.117  64.897  1.00  0.00    -0.116 C  
HETATM   41  O   UNL     1     -11.604  16.842  63.999  1.00  0.00    -1.195 OA 
HETATM   42  C   UNL     1     -11.282  16.122  64.935  1.00  0.00    -0.285 C  
HETATM   43  O   UNL     1     -11.907  16.145  66.139  1.00  0.00     0.774 OA 
ENDBRANCH  39  40
BRANCH  39  44
HETATM   44  C   UNL     1     -10.079  12.706  64.641  1.00  0.00    -0.235 C  
HETATM   45  C   UNL     1     -10.991  11.483  64.724  1.00  0.00    -0.273 C  
HETATM   46  O   UNL     1     -10.630  10.343  64.472  1.00  0.00    -0.149 OA 
HETATM   47  O   UNL     1     -12.273  11.792  65.056  1.00  0.00    -0.226 OA 
ENDBRANCH  39  44
ENDBRANCH  38  39
ENDBRANCH  23  38
ENDBRANCH  10  11
ENDBRANCH   5  10
ENDBRANCH   4   5
TORSDOF 8
ENDMDL
MODEL       66
REMARK 921   NORMALIZED FREE ENERGY PREDICTED BY IDOCK:   -5.35 KCAL/MOL
REMARK 922        TOTAL FREE ENERGY PREDICTED BY IDOCK:  -10.12 KCAL/MOL
REMARK 923 INTER-LIGAND FREE ENERGY PREDICTED BY IDOCK:   -9.24 KCAL/MOL
REMARK 924 INTRA-LIGAND FREE ENERGY PREDICTED BY IDOCK:   -0.88 KCAL/MOL
REMARK 927      BINDING AFFINITY PREDICTED BY RF-SCORE:    0.00 PKD
ROOT
HETATM    1  O   UNL     1     -10.545  19.151  67.910  1.00  0.00    -0.404 OA 
HETATM    2  C   UNL     1     -10.315  18.323  66.865  1.00  0.00    -0.385 C  
HETATM    3  O   UNL     1     -10.474  18.668  65.704  1.00  0.00    -0.603 OA 
HETATM    4  C   UNL     1      -9.774  16.960  67.284  1.00  0.00    -0.251 C  
ENDROOT
BRANCH   4   5
HETATM    5  N   UNL     1     -10.300  16.473  68.622  1.00  0.00    -0.268 NA 
BRANCH   5   6
HETATM    6  C   UNL     1     -11.144  15.246  68.349  1.00  0.00    -0.287 C  
HETATM    7  O   UNL     1     -12.260  15.833  70.413  1.00  0.00    -0.392 OA 
HETATM    8  C   UNL     1     -12.074  14.858  69.497  1.00  0.00    -0.279 C  
HETATM    9  O   UNL     1     -12.654  13.783  69.555  1.00  0.00    -0.192 OA 
ENDBRANCH   5   6
BRANCH   5  10
HETATM   10  C   UNL     1      -9.076  16.043  69.411  1.00  0.00    -0.189 C  
BRANCH  10  11
HETATM   11  C   UNL     1      -8.194  15.046  68.675  1.00  0.00    -0.156 A  
HETATM   12  C   UNL     1      -8.770  13.904  68.117  1.00  0.00    -0.182 A  
HETATM   13  C   UNL     1      -7.991  12.889  67.520  1.00  0.00    -0.178 A  
HETATM   14  C   UNL     1      -6.625  13.085  67.346  1.00  0.00    -0.107 A  
HETATM   15  C   UNL     1      -6.033  14.248  67.855  1.00  0.00    -0.145 A  
HETATM   16  O   UNL     1      -5.810  12.188  66.684  1.00  0.00    -0.261 OA 
HETATM   17  C   UNL     1      -6.356  11.017  66.194  1.00  0.00    -0.096 A  
HETATM   18  C   UNL     1      -6.812  15.201  68.531  1.00  0.00    -0.108 A  
HETATM   19  O   UNL     1      -6.226  16.306  69.079  1.00  0.00    -0.133 OA 
HETATM   20  C   UNL     1      -5.527  10.179  65.433  1.00  0.00    -0.075 A  
HETATM   21  C   UNL     1      -6.017   8.964  64.920  1.00  0.00    -0.064 A  
HETATM   22  H   UNL     1      -5.286  16.412  68.981  1.00  0.00     0.000 HD 
HETATM   23  C   UNL     1      -7.321   8.542  65.189  1.00  0.00    -0.081 A  
HETATM   24  O   UNL     1      -5.226   8.178  64.128  1.00  0.00    -0.039 OA 
HETATM   25  C   UNL     1      -9.319  10.926  68.289  1.00  0.00    -0.168 A  
HETATM   26  H   UNL     1      -5.557   7.358  63.781  1.00  0.00     0.000 HD 
HETATM   27  C   UNL     1      -8.126   9.390  65.963  1.00  0.00    -0.111 A  
HETATM   28  C   UNL     1      -8.809  10.333  69.436  1.00  0.00    -0.177 A  
HETATM   29  C   UNL     1      -7.675  10.639  66.430  1.00  0.00    -0.141 A  
HETATM   30  C   UNL     1      -8.621  11.575  67.135  1.00  0.00    -0.155 C  
HETATM   31  C   UNL     1      -9.715   9.794  70.352  1.00  0.00    -0.244 A  
HETATM   32  C   UNL     1     -11.099   9.867  70.121  1.00  0.00    -0.353 A  
HETATM   33  O   UNL     1      -9.714  11.881  66.229  1.00  0.00    -0.217 OA 
HETATM   34  C   UNL     1     -11.599  10.478  68.971  1.00  0.00    -0.278 A  
HETATM   35  O   UNL     1     -12.011  11.980  66.360  1.00  0.00    -0.611 OA 
HETATM   36  C   UNL     1     -10.929  11.653  66.803  1.00  0.00    -0.290 C  
HETATM   37  C   UNL     1     -10.681  10.987  68.073  1.00  0.00    -0.260 A  
BRANCH  23  38
HETATM   38  C   UNL     1      -7.992   7.331  64.567  1.00  0.00    -0.112 C  
BRANCH  38  39
HETATM   39  N   UNL     1      -8.435   6.230  65.478  1.00  0.00    -0.150 NA 
BRANCH  39  40
HETATM   40  C   UNL     1      -8.665   5.000  64.647  1.00  0.00    -0.141 C  
HETATM   41  O   UNL     1      -9.427   2.801  65.366  1.00  0.00    -0.116 OA 
HETATM   42  C   UNL     1      -9.593   4.014  65.346  1.00  0.00    -0.188 C  
HETATM   43  O   UNL     1     -10.646   4.630  65.940  1.00  0.00    -0.304 OA 
ENDBRANCH  39  40
BRANCH  39  44
HETATM   44  C   UNL     1      -7.285   5.924  66.416  1.00  0.00    -0.077 C  
HETATM   45  C   UNL     1      -7.609   6.238  67.875  1.00  0.00    -0.102 C  
HETATM   46  O   UNL     1      -6.769   6.526  68.715  1.00  0.00    -0.052 OA 
HETATM   47  O   UNL     1      -8.930   6.111  68.170  1.00  0.00    -0.116 OA 
ENDBRANCH  39  44
ENDBRANCH  38  39
ENDBRANCH  23  38
ENDBRANCH  10  11
ENDBRANCH   5  10
ENDBRANCH   4   5
TORSDOF 8
ENDMDL
MODEL       67
REMARK 921   NORMALIZED FREE ENERGY PREDICTED BY IDOCK:   -5.34 KCAL/MOL
REMARK 922        TOTAL FREE ENERGY PREDICTED BY IDOCK:  -10.10 KCAL/MOL
REMARK 923 INTER-LIGAND FREE ENERGY PREDICTED BY IDOCK:   -8.96 KCAL/MOL
REMARK 924 INTRA-LIGAND FREE ENERGY PREDICTED BY IDOCK:   -1.14 KCAL/MOL
REMARK 927      BINDING AFFINITY PREDICTED BY RF-SCORE:    0.00 PKD
ROOT
HETATM    1  O   UNL     1      -9.617   3.628  67.205  1.00  0.00    -0.209 OA 
HETATM    2  C   UNL     1     -10.150   4.763  66.698  1.00  0.00    -0.245 C  
HETATM    3  O   UNL     1     -10.794   4.782  65.660  1.00  0.00    -0.274 OA 
HETATM    4  C   UNL     1      -9.928   5.983  67.586  1.00  0.00    -0.135 C  
ENDROOT
BRANCH   4   5
HETATM    5  N   UNL     1      -8.616   5.958  68.350  1.00  0.00    -0.114 NA 
BRANCH   5   6
HETATM    6  C   UNL     1      -7.620   6.773  67.553  1.00  0.00    -0.106 C  
HETATM    7  O   UNL     1      -6.448   4.672  67.298  1.00  0.00    -0.043 OA 
HETATM    8  C   UNL     1      -6.349   6.014  67.176  1.00  0.00    -0.041 C  
HETATM    9  O   UNL     1      -5.346   6.561  66.740  1.00  0.00    -0.012 OA 
ENDBRANCH   5   6
BRANCH   5  10
HETATM   10  C   UNL     1      -8.888   6.684  69.655  1.00  0.00    -0.143 C  
BRANCH  10  11
HETATM   11  C   UNL     1      -8.226   8.050  69.744  1.00  0.00    -0.120 A  
HETATM   12  C   UNL     1      -8.833   9.145  69.127  1.00  0.00    -0.146 A  
HETATM   13  C   UNL     1      -8.213  10.413  69.078  1.00  0.00    -0.141 A  
HETATM   14  C   UNL     1      -7.034  10.629  69.784  1.00  0.00    -0.145 A  
HETATM   15  C   UNL     1      -6.433   9.555  70.452  1.00  0.00    -0.079 A  
HETATM   16  O   UNL     1      -6.418  11.862  69.870  1.00  0.00    -0.128 OA 
HETATM   17  C   UNL     1      -6.969  12.938  69.199  1.00  0.00    -0.015 A  
HETATM   18  C   UNL     1      -7.017   8.278  70.407  1.00  0.00    -0.037 A  
HETATM   19  O   UNL     1      -6.401   7.218  71.009  1.00  0.00    -0.036 OA 
HETATM   20  C   UNL     1      -6.383  14.198  69.395  1.00  0.00    -0.114 A  
HETATM   21  C   UNL     1      -6.886  15.331  68.728  1.00  0.00    -0.109 A  
HETATM   22  H   UNL     1      -5.579   7.373  71.460  1.00  0.00     0.000 HD 
HETATM   23  C   UNL     1      -7.947  15.224  67.827  1.00  0.00    -0.159 A  
HETATM   24  O   UNL     1      -6.351  16.567  68.966  1.00  0.00    -0.149 OA 
HETATM   25  C   UNL     1      -8.942  11.074  66.789  1.00  0.00    -0.163 A  
HETATM   26  H   UNL     1      -6.690  17.332  68.516  1.00  0.00     0.000 HD 
HETATM   27  C   UNL     1      -8.507  13.953  67.637  1.00  0.00    -0.193 A  
HETATM   28  C   UNL     1      -7.988  10.819  65.814  1.00  0.00    -0.122 A  
HETATM   29  C   UNL     1      -8.062  12.819  68.345  1.00  0.00    -0.129 A  
HETATM   30  C   UNL     1      -8.787  11.507  68.213  1.00  0.00    -0.166 C  
HETATM   31  C   UNL     1      -8.434  10.432  64.548  1.00  0.00    -0.172 A  
HETATM   32  C   UNL     1      -9.806  10.292  64.281  1.00  0.00    -0.357 A  
HETATM   33  O   UNL     1     -10.161  11.704  68.640  1.00  0.00    -0.211 OA 
HETATM   34  C   UNL     1     -10.755  10.538  65.275  1.00  0.00    -0.019 A  
HETATM   35  O   UNL     1     -12.251  11.141  67.852  1.00  0.00    -0.521 OA 
HETATM   36  C   UNL     1     -11.052  11.269  67.705  1.00  0.00    -0.271 C  
HETATM   37  C   UNL     1     -10.288  10.938  66.512  1.00  0.00    -0.299 A  
BRANCH  23  38
HETATM   38  C   UNL     1      -8.657  16.395  67.172  1.00  0.00    -0.181 C  
BRANCH  38  39
HETATM   39  N   UNL     1     -10.090  16.634  67.526  1.00  0.00    -0.267 NA 
BRANCH  39  40
HETATM   40  C   UNL     1     -10.271  16.314  68.982  1.00  0.00    -0.261 C  
HETATM   41  O   UNL     1     -12.329  15.801  70.180  1.00  0.00    -0.384 OA 
HETATM   42  C   UNL     1     -11.581  15.578  69.237  1.00  0.00    -0.357 C  
HETATM   43  O   UNL     1     -11.827  14.624  68.304  1.00  0.00    -0.322 OA 
ENDBRANCH  39  40
BRANCH  39  44
HETATM   44  C   UNL     1     -10.360  18.116  67.359  1.00  0.00    -0.389 C  
HETATM   45  C   UNL     1     -10.424  18.548  65.896  1.00  0.00    -0.347 C  
HETATM   46  O   UNL     1     -10.162  19.676  65.504  1.00  0.00    -0.403 OA 
HETATM   47  O   UNL     1     -10.857  17.563  65.065  1.00  0.00    -0.727 OA 
ENDBRANCH  39  44
ENDBRANCH  38  39
ENDBRANCH  23  38
ENDBRANCH  10  11
ENDBRANCH   5  10
ENDBRANCH   4   5
TORSDOF 8
ENDMDL
MODEL       68
REMARK 921   NORMALIZED FREE ENERGY PREDICTED BY IDOCK:   -5.33 KCAL/MOL
REMARK 922        TOTAL FREE ENERGY PREDICTED BY IDOCK:  -10.09 KCAL/MOL
REMARK 923 INTER-LIGAND FREE ENERGY PREDICTED BY IDOCK:   -7.51 KCAL/MOL
REMARK 924 INTRA-LIGAND FREE ENERGY PREDICTED BY IDOCK:   -2.59 KCAL/MOL
REMARK 927      BINDING AFFINITY PREDICTED BY RF-SCORE:    0.00 PKD
ROOT
HETATM    1  O   UNL     1      -9.252  18.592  68.781  1.00  0.00    -0.319 OA 
HETATM    2  C   UNL     1      -8.341  19.180  67.973  1.00  0.00    -0.305 C  
HETATM    3  O   UNL     1      -8.369  20.373  67.707  1.00  0.00    -0.266 OA 
HETATM    4  C   UNL     1      -7.252  18.226  67.497  1.00  0.00    -0.205 C  
ENDROOT
BRANCH   4   5
HETATM    5  N   UNL     1      -7.726  16.797  67.302  1.00  0.00    -0.162 NA 
BRANCH   5   6
HETATM    6  C   UNL     1      -8.430  16.741  65.963  1.00  0.00    -0.165 C  
HETATM    7  O   UNL     1     -10.331  15.978  67.251  1.00  0.00    -0.282 OA 
HETATM    8  C   UNL     1      -9.810  16.087  66.009  1.00  0.00    -0.337 C  
HETATM    9  O   UNL     1     -10.424  15.747  65.007  1.00  0.00    -0.462 OA 
ENDBRANCH   5   6
BRANCH   5  10
HETATM   10  C   UNL     1      -6.465  15.956  67.212  1.00  0.00    -0.139 C  
BRANCH  10  11
HETATM   11  C   UNL     1      -6.532  14.668  68.018  1.00  0.00    -0.161 A  
HETATM   12  C   UNL     1      -7.292  13.600  67.539  1.00  0.00    -0.178 A  
HETATM   13  C   UNL     1      -7.484  12.422  68.294  1.00  0.00    -0.124 A  
HETATM   14  C   UNL     1      -6.785  12.246  69.484  1.00  0.00    -0.000 A  
HETATM   15  C   UNL     1      -5.977  13.287  69.959  1.00  0.00    -0.134 A  
HETATM   16  O   UNL     1      -6.838  11.085  70.229  1.00  0.00    -0.217 OA 
HETATM   17  C   UNL     1      -7.648  10.049  69.804  1.00  0.00    -0.164 A  
HETATM   18  C   UNL     1      -5.876  14.490  69.240  1.00  0.00    -0.101 A  
HETATM   19  O   UNL     1      -5.136  15.526  69.732  1.00  0.00    -0.096 OA 
HETATM   20  C   UNL     1      -7.597   8.845  70.523  1.00  0.00    -0.093 A  
HETATM   21  C   UNL     1      -8.409   7.757  70.151  1.00  0.00    -0.128 A  
HETATM   22  H   UNL     1      -4.690  15.405  70.563  1.00  0.00     0.000 HD 
HETATM   23  C   UNL     1      -9.313   7.861  69.092  1.00  0.00    -0.154 A  
HETATM   24  O   UNL     1      -8.314   6.565  70.816  1.00  0.00    -0.126 OA 
HETATM   25  C   UNL     1      -9.852  11.977  67.659  1.00  0.00    -0.191 A  
HETATM   26  H   UNL     1      -8.862   5.830  70.565  1.00  0.00     0.000 HD 
HETATM   27  C   UNL     1      -9.356   9.079  68.398  1.00  0.00    -0.143 A  
HETATM   28  C   UNL     1     -10.767  12.453  68.587  1.00  0.00    -0.260 A  
HETATM   29  C   UNL     1      -8.505  10.156  68.712  1.00  0.00    -0.131 A  
HETATM   30  C   UNL     1      -8.489  11.389  67.849  1.00  0.00    -0.139 C  
HETATM   31  C   UNL     1     -11.985  12.946  68.112  1.00  0.00    -0.306 A  
HETATM   32  C   UNL     1     -12.262  12.970  66.734  1.00  0.00    -0.261 A  
HETATM   33  O   UNL     1      -8.119  10.994  66.502  1.00  0.00    -0.151 OA 
HETATM   34  C   UNL     1     -11.326  12.502  65.811  1.00  0.00    -0.373 A  
HETATM   35  O   UNL     1      -8.876  11.424  64.369  1.00  0.00     0.094 OA 
HETATM   36  C   UNL     1      -9.011  11.445  65.575  1.00  0.00    -0.088 C  
HETATM   37  C   UNL     1     -10.138  12.003  66.309  1.00  0.00    -0.247 A  
BRANCH  23  38
HETATM   38  C   UNL     1     -10.122   6.711  68.519  1.00  0.00    -0.161 C  
BRANCH  38  39
HETATM   39  N   UNL     1      -9.379   5.533  67.976  1.00  0.00    -0.109 NA 
BRANCH  39  40
HETATM   40  C   UNL     1     -10.015   4.287  68.522  1.00  0.00     0.047 C  
HETATM   41  O   UNL     1      -9.065   2.052  68.711  1.00  0.00    -0.110 OA 
HETATM   42  C   UNL     1      -8.972   3.253  68.928  1.00  0.00    -0.130 C  
HETATM   43  O   UNL     1      -7.920   3.811  69.579  1.00  0.00    -0.055 OA 
ENDBRANCH  39  40
BRANCH  39  44
HETATM   44  C   UNL     1      -9.586   5.516  66.475  1.00  0.00    -0.155 C  
HETATM   45  C   UNL     1      -8.352   5.973  65.699  1.00  0.00    -0.145 C  
HETATM   46  O   UNL     1      -8.393   6.484  64.590  1.00  0.00    -0.099 OA 
HETATM   47  O   UNL     1      -7.185   5.706  66.344  1.00  0.00    -0.074 OA 
ENDBRANCH  39  44
ENDBRANCH  38  39
ENDBRANCH  23  38
ENDBRANCH  10  11
ENDBRANCH   5  10
ENDBRANCH   4   5
TORSDOF 8
ENDMDL
MODEL       69
REMARK 921   NORMALIZED FREE ENERGY PREDICTED BY IDOCK:   -5.30 KCAL/MOL
REMARK 922        TOTAL FREE ENERGY PREDICTED BY IDOCK:  -10.05 KCAL/MOL
REMARK 923 INTER-LIGAND FREE ENERGY PREDICTED BY IDOCK:   -9.74 KCAL/MOL
REMARK 924 INTRA-LIGAND FREE ENERGY PREDICTED BY IDOCK:   -0.31 KCAL/MOL
REMARK 927      BINDING AFFINITY PREDICTED BY RF-SCORE:    0.00 PKD
ROOT
HETATM    1  O   UNL     1     -11.535  15.559  72.513  1.00  0.00    -0.441 OA 
HETATM    2  C   UNL     1     -12.834  15.442  72.151  1.00  0.00    -0.381 C  
HETATM    3  O   UNL     1     -13.753  15.555  72.948  1.00  0.00    -0.523 OA 
HETATM    4  C   UNL     1     -13.025  15.232  70.653  1.00  0.00    -0.391 C  
ENDROOT
BRANCH   4   5
HETATM    5  N   UNL     1     -11.910  14.438  69.995  1.00  0.00    -0.296 NA 
BRANCH   5   6
HETATM    6  C   UNL     1     -10.608  15.126  70.344  1.00  0.00    -0.134 C  
HETATM    7  O   UNL     1     -10.829  16.155  68.165  1.00  0.00    -0.303 OA 
HETATM    8  C   UNL     1      -9.983  15.907  69.189  1.00  0.00    -0.245 C  
HETATM    9  O   UNL     1      -8.836  16.330  69.209  1.00  0.00    -0.237 OA 
ENDBRANCH   5   6
BRANCH   5  10
HETATM   10  C   UNL     1     -11.924  13.077  70.667  1.00  0.00    -0.138 C  
BRANCH  10  11
HETATM   11  C   UNL     1     -11.639  11.924  69.716  1.00  0.00    -0.359 A  
HETATM   12  C   UNL     1     -11.432  10.646  70.235  1.00  0.00    -0.422 A  
HETATM   13  C   UNL     1     -11.053   9.559  69.417  1.00  0.00    -0.136 A  
HETATM   14  C   UNL     1     -11.023   9.718  68.035  1.00  0.00    -0.180 A  
HETATM   15  C   UNL     1     -11.276  10.983  67.488  1.00  0.00    -0.372 A  
HETATM   16  O   UNL     1     -10.761   8.683  67.159  1.00  0.00    -0.270 OA 
HETATM   17  C   UNL     1     -10.479   7.428  67.665  1.00  0.00    -0.241 A  
HETATM   18  C   UNL     1     -11.557  12.073  68.329  1.00  0.00    -0.334 A  
HETATM   19  O   UNL     1     -11.745  13.318  67.801  1.00  0.00    -0.319 OA 
HETATM   20  C   UNL     1     -10.325   6.376  66.750  1.00  0.00    -0.279 A  
HETATM   21  C   UNL     1     -10.021   5.077  67.200  1.00  0.00    -0.195 A  
HETATM   22  H   UNL     1     -11.689  13.420  66.857  1.00  0.00     0.000 HD 
HETATM   23  C   UNL     1      -9.822   4.813  68.557  1.00  0.00    -0.198 A  
HETATM   24  O   UNL     1      -9.930   4.041  66.311  1.00  0.00    -0.335 OA 
HETATM   25  C   UNL     1      -9.498   8.441  71.010  1.00  0.00    -0.212 A  
HETATM   26  H   UNL     1      -9.725   3.164  66.615  1.00  0.00     0.000 HD 
HETATM   27  C   UNL     1      -9.967   5.884  69.451  1.00  0.00    -0.229 A  
HETATM   28  C   UNL     1      -8.167   8.772  70.801  1.00  0.00    -0.178 A  
HETATM   29  C   UNL     1     -10.337   7.175  69.026  1.00  0.00    -0.204 A  
HETATM   30  C   UNL     1     -10.619   8.255  70.036  1.00  0.00    -0.235 C  
HETATM   31  C   UNL     1      -7.334   8.870  71.918  1.00  0.00     0.020 A  
HETATM   32  C   UNL     1      -7.838   8.653  73.212  1.00  0.00     0.051 A  
HETATM   33  O   UNL     1     -11.710   7.808  70.884  1.00  0.00    -0.289 OA 
HETATM   34  C   UNL     1      -9.183   8.335  73.409  1.00  0.00    -0.221 A  
HETATM   35  O   UNL     1     -12.157   7.763  73.143  1.00  0.00    -0.020 OA 
HETATM   36  C   UNL     1     -11.395   7.895  72.208  1.00  0.00    -0.337 C  
HETATM   37  C   UNL     1      -9.980   8.226  72.286  1.00  0.00    -0.366 A  
BRANCH  23  38
HETATM   38  C   UNL     1      -9.637   3.432  69.159  1.00  0.00    -0.055 C  
BRANCH  38  39
HETATM   39  N   UNL     1      -8.973   3.332  70.495  1.00  0.00    -0.085 NA 
BRANCH  39  40
HETATM   40  C   UNL     1      -9.502   2.110  71.190  1.00  0.00    -0.142 C  
HETATM   41  O   UNL     1      -9.595   1.641  73.579  1.00  0.00    -0.071 OA 
HETATM   42  C   UNL     1      -9.845   2.396  72.647  1.00  0.00    -0.129 C  
HETATM   43  O   UNL     1     -10.479   3.585  72.804  1.00  0.00    -0.165 OA 
ENDBRANCH  39  40
BRANCH  39  44
HETATM   44  C   UNL     1      -7.495   3.102  70.254  1.00  0.00    -0.040 C  
HETATM   45  C   UNL     1      -6.616   4.188  70.870  1.00  0.00    -0.031 C  
HETATM   46  O   UNL     1      -5.510   4.494  70.447  1.00  0.00    -0.010 OA 
HETATM   47  O   UNL     1      -7.161   4.754  71.979  1.00  0.00    -0.058 OA 
ENDBRANCH  39  44
ENDBRANCH  38  39
ENDBRANCH  23  38
ENDBRANCH  10  11
ENDBRANCH   5  10
ENDBRANCH   4   5
TORSDOF 8
ENDMDL
MODEL       70
REMARK 921   NORMALIZED FREE ENERGY PREDICTED BY IDOCK:   -5.30 KCAL/MOL
REMARK 922        TOTAL FREE ENERGY PREDICTED BY IDOCK:  -10.04 KCAL/MOL
REMARK 923 INTER-LIGAND FREE ENERGY PREDICTED BY IDOCK:  -10.57 KCAL/MOL
REMARK 924 INTRA-LIGAND FREE ENERGY PREDICTED BY IDOCK:    0.53 KCAL/MOL
REMARK 927      BINDING AFFINITY PREDICTED BY RF-SCORE:    0.00 PKD
ROOT
HETATM    1  O   UNL     1     -10.511   5.027  71.561  1.00  0.00    -0.208 OA 
HETATM    2  C   UNL     1     -10.222   5.863  72.585  1.00  0.00    -0.183 C  
HETATM    3  O   UNL     1     -10.170   5.488  73.747  1.00  0.00    -0.189 OA 
HETATM    4  C   UNL     1      -9.903   7.283  72.132  1.00  0.00    -0.160 C  
ENDROOT
BRANCH   4   5
HETATM    5  N   UNL     1     -10.670   7.724  70.899  1.00  0.00    -0.219 NA 
BRANCH   5   6
HETATM    6  C   UNL     1     -11.084   9.163  71.123  1.00  0.00    -0.323 C  
HETATM    7  O   UNL     1     -13.229   8.215  71.719  1.00  0.00    -0.331 OA 
HETATM    8  C   UNL     1     -12.577   9.351  71.385  1.00  0.00    -0.348 C  
HETATM    9  O   UNL     1     -13.130  10.442  71.360  1.00  0.00    -0.382 OA 
ENDBRANCH   5   6
BRANCH   5  10
HETATM   10  C   UNL     1      -9.668   7.689  69.759  1.00  0.00    -0.171 C  
BRANCH  10  11
HETATM   11  C   UNL     1      -8.777   8.920  69.691  1.00  0.00    -0.140 A  
HETATM   12  C   UNL     1      -9.208  10.038  68.975  1.00  0.00    -0.180 A  
HETATM   13  C   UNL     1      -8.381  11.166  68.782  1.00  0.00    -0.136 A  
HETATM   14  C   UNL     1      -7.157  11.241  69.439  1.00  0.00    -0.090 A  
HETATM   15  C   UNL     1      -6.726  10.149  70.203  1.00  0.00    -0.138 A  
HETATM   16  O   UNL     1      -6.335  12.349  69.384  1.00  0.00    -0.106 OA 
HETATM   17  C   UNL     1      -6.716  13.432  68.616  1.00  0.00    -0.095 A  
HETATM   18  C   UNL     1      -7.523   8.997  70.304  1.00  0.00    -0.083 A  
HETATM   19  O   UNL     1      -7.077   7.910  71.000  1.00  0.00    -0.048 OA 
HETATM   20  C   UNL     1      -5.914  14.583  68.667  1.00  0.00    -0.089 A  
HETATM   21  C   UNL     1      -6.238  15.715  67.896  1.00  0.00    -0.146 A  
HETATM   22  H   UNL     1      -6.224   7.962  71.417  1.00  0.00     0.000 HD 
HETATM   23  C   UNL     1      -7.335  15.707  67.031  1.00  0.00    -0.203 A  
HETATM   24  O   UNL     1      -5.490  16.855  67.993  1.00  0.00    -0.114 OA 
HETATM   25  C   UNL     1      -9.070  11.714  66.451  1.00  0.00    -0.209 A  
HETATM   26  H   UNL     1      -5.708  17.619  67.472  1.00  0.00     0.000 HD 
HETATM   27  C   UNL     1      -8.113  14.541  66.986  1.00  0.00    -0.125 A  
HETATM   28  C   UNL     1      -8.212  11.200  65.490  1.00  0.00     0.102 A  
HETATM   29  C   UNL     1      -7.844  13.423  67.799  1.00  0.00    -0.158 A  
HETATM   30  C   UNL     1      -8.789  12.252  67.819  1.00  0.00    -0.174 C  
HETATM   31  C   UNL     1      -8.764  10.773  64.280  1.00  0.00    -0.080 A  
HETATM   32  C   UNL     1     -10.149  10.851  64.056  1.00  0.00    -0.419 A  
HETATM   33  O   UNL     1     -10.092  12.729  68.250  1.00  0.00    -0.229 OA 
HETATM   34  C   UNL     1     -11.003  11.357  65.037  1.00  0.00    -0.271 A  
HETATM   35  O   UNL     1     -12.275  12.467  67.566  1.00  0.00    -0.442 OA 
HETATM   36  C   UNL     1     -11.079  12.366  67.384  1.00  0.00    -0.272 C  
HETATM   37  C   UNL     1     -10.428  11.789  66.217  1.00  0.00    -0.281 A  
BRANCH  23  38
HETATM   38  C   UNL     1      -7.856  16.914  66.271  1.00  0.00    -0.311 C  
BRANCH  38  39
HETATM   39  N   UNL     1      -9.306  16.942  65.909  1.00  0.00    -0.525 NA 
BRANCH  39  40
HETATM   40  C   UNL     1      -9.654  15.629  65.268  1.00  0.00     0.075 C  
HETATM   41  O   UNL     1     -11.856  14.661  64.885  1.00  0.00    -0.381 OA 
HETATM   42  C   UNL     1     -11.093  15.611  64.768  1.00  0.00    -0.412 C  
HETATM   43  O   UNL     1     -11.440  16.770  64.154  1.00  0.00    -1.171 OA 
ENDBRANCH  39  40
BRANCH  39  44
HETATM   44  C   UNL     1     -10.097  17.030  67.199  1.00  0.00    -0.292 C  
HETATM   45  C   UNL     1     -10.409  18.468  67.608  1.00  0.00    -0.410 C  
HETATM   46  O   UNL     1     -10.592  18.826  68.763  1.00  0.00    -0.097 OA 
HETATM   47  O   UNL     1     -10.518  19.315  66.550  1.00  0.00    -0.402 OA 
ENDBRANCH  39  44
ENDBRANCH  38  39
ENDBRANCH  23  38
ENDBRANCH  10  11
ENDBRANCH   5  10
ENDBRANCH   4   5
TORSDOF 8
ENDMDL
MODEL       71
REMARK 921   NORMALIZED FREE ENERGY PREDICTED BY IDOCK:   -5.23 KCAL/MOL
REMARK 922        TOTAL FREE ENERGY PREDICTED BY IDOCK:   -9.94 KCAL/MOL
REMARK 923 INTER-LIGAND FREE ENERGY PREDICTED BY IDOCK:   -9.74 KCAL/MOL
REMARK 924 INTRA-LIGAND FREE ENERGY PREDICTED BY IDOCK:   -0.20 KCAL/MOL
REMARK 927      BINDING AFFINITY PREDICTED BY RF-SCORE:    0.00 PKD
ROOT
HETATM    1  O   UNL     1     -11.041  17.156  67.828  1.00  0.00    -0.263 OA 
HETATM    2  C   UNL     1     -10.063  16.488  67.174  1.00  0.00    -0.274 C  
HETATM    3  O   UNL     1      -9.394  17.000  66.289  1.00  0.00    -0.271 OA 
HETATM    4  C   UNL     1      -9.839  15.076  67.704  1.00  0.00    -0.220 C  
ENDROOT
BRANCH   4   5
HETATM    5  N   UNL     1     -11.101  14.401  68.211  1.00  0.00    -0.250 NA 
BRANCH   5   6
HETATM    6  C   UNL     1     -11.824  15.406  69.082  1.00  0.00    -0.335 C  
HETATM    7  O   UNL     1     -12.244  13.511  70.527  1.00  0.00    -0.345 OA 
HETATM    8  C   UNL     1     -12.596  14.785  70.245  1.00  0.00    -0.315 C  
HETATM    9  O   UNL     1     -13.416  15.402  70.910  1.00  0.00    -0.460 OA 
ENDBRANCH   5   6
BRANCH   5  10
HETATM   10  C   UNL     1     -11.949  14.140  66.979  1.00  0.00    -0.439 C  
BRANCH  10  11
HETATM   11  C   UNL     1     -11.317  13.167  65.997  1.00  0.00    -0.337 A  
HETATM   12  C   UNL     1     -10.796  11.961  66.468  1.00  0.00    -0.317 A  
HETATM   13  C   UNL     1     -10.098  11.068  65.626  1.00  0.00    -0.310 A  
HETATM   14  C   UNL     1     -10.047  11.314  64.257  1.00  0.00    -0.313 A  
HETATM   15  C   UNL     1     -10.606  12.496  63.755  1.00  0.00    -0.471 A  
HETATM   16  O   UNL     1      -9.472  10.443  63.353  1.00  0.00    -0.273 OA 
HETATM   17  C   UNL     1      -8.885   9.281  63.817  1.00  0.00    -0.118 A  
HETATM   18  C   UNL     1     -11.212  13.417  64.626  1.00  0.00    -0.359 A  
HETATM   19  O   UNL     1     -11.706  14.596  64.144  1.00  0.00    -0.637 OA 
HETATM   20  C   UNL     1      -8.408   8.366  62.866  1.00  0.00    -0.117 A  
HETATM   21  C   UNL     1      -7.784   7.172  63.273  1.00  0.00    -0.116 A  
HETATM   22  H   UNL     1     -11.634  14.766  63.212  1.00  0.00     0.000 HD 
HETATM   23  C   UNL     1      -7.586   6.888  64.626  1.00  0.00    -0.106 A  
HETATM   24  O   UNL     1      -7.374   6.255  62.345  1.00  0.00    -0.048 OA 
HETATM   25  C   UNL     1      -8.375  10.313  67.259  1.00  0.00    -0.121 A  
HETATM   26  H   UNL     1      -6.953   5.448  62.620  1.00  0.00     0.000 HD 
HETATM   27  C   UNL     1      -8.059   7.824  65.558  1.00  0.00    -0.128 A  
HETATM   28  C   UNL     1      -7.176  11.002  67.150  1.00  0.00    -0.112 A  
HETATM   29  C   UNL     1      -8.744   8.992  65.171  1.00  0.00    -0.223 A  
HETATM   30  C   UNL     1      -9.356   9.893  66.210  1.00  0.00    -0.176 C  
HETATM   31  C   UNL     1      -6.455  11.251  68.320  1.00  0.00    -0.056 A  
HETATM   32  C   UNL     1      -6.943  10.828  69.568  1.00  0.00    -0.130 A  
HETATM   33  O   UNL     1     -10.324   9.119  66.967  1.00  0.00    -0.250 OA 
HETATM   34  C   UNL     1      -8.158  10.149  69.666  1.00  0.00    -0.178 A  
HETATM   35  O   UNL     1     -10.849   8.817  69.189  1.00  0.00    -0.173 OA 
HETATM   36  C   UNL     1     -10.108   9.206  68.310  1.00  0.00    -0.191 C  
HETATM   37  C   UNL     1      -8.841   9.899  68.492  1.00  0.00    -0.122 A  
BRANCH  23  38
HETATM   38  C   UNL     1      -7.062   5.573  65.175  1.00  0.00    -0.065 C  
BRANCH  38  39
HETATM   39  N   UNL     1      -8.051   4.486  65.455  1.00  0.00    -0.101 NA 
BRANCH  39  40
HETATM   40  C   UNL     1      -8.254   3.702  64.190  1.00  0.00    -0.090 C  
HETATM   41  O   UNL     1      -9.905   1.972  63.724  1.00  0.00    -0.125 OA 
HETATM   42  C   UNL     1      -9.654   3.103  64.118  1.00  0.00    -0.143 C  
HETATM   43  O   UNL     1     -10.609   3.976  64.528  1.00  0.00    -0.257 OA 
ENDBRANCH  39  40
BRANCH  39  44
HETATM   44  C   UNL     1      -7.423   3.547  66.464  1.00  0.00    -0.076 C  
HETATM   45  C   UNL     1      -8.207   3.469  67.773  1.00  0.00    -0.084 C  
HETATM   46  O   UNL     1      -7.708   3.192  68.853  1.00  0.00    -0.051 OA 
HETATM   47  O   UNL     1      -9.539   3.688  67.612  1.00  0.00    -0.198 OA 
ENDBRANCH  39  44
ENDBRANCH  38  39
ENDBRANCH  23  38
ENDBRANCH  10  11
ENDBRANCH   5  10
ENDBRANCH   4   5
TORSDOF 8
ENDMDL
MODEL       72
REMARK 921   NORMALIZED FREE ENERGY PREDICTED BY IDOCK:   -5.20 KCAL/MOL
REMARK 922        TOTAL FREE ENERGY PREDICTED BY IDOCK:   -9.90 KCAL/MOL
REMARK 923 INTER-LIGAND FREE ENERGY PREDICTED BY IDOCK:   -7.79 KCAL/MOL
REMARK 924 INTRA-LIGAND FREE ENERGY PREDICTED BY IDOCK:   -2.11 KCAL/MOL
REMARK 927      BINDING AFFINITY PREDICTED BY RF-SCORE:    0.00 PKD
ROOT
HETATM    1  O   UNL     1     -10.594  18.831  68.287  1.00  0.00    -0.311 OA 
HETATM    2  C   UNL     1     -10.172  19.341  67.108  1.00  0.00    -0.402 C  
HETATM    3  O   UNL     1     -10.577  20.407  66.668  1.00  0.00    -0.216 OA 
HETATM    4  C   UNL     1      -9.099  18.493  66.433  1.00  0.00    -0.269 C  
ENDROOT
BRANCH   4   5
HETATM    5  N   UNL     1      -9.245  17.003  66.681  1.00  0.00    -0.245 NA 
BRANCH   5   6
HETATM    6  C   UNL     1     -10.306  16.495  65.728  1.00  0.00    -0.341 C  
HETATM    7  O   UNL     1     -10.953  15.065  67.569  1.00  0.00    -0.289 OA 
HETATM    8  C   UNL     1     -11.080  15.281  66.242  1.00  0.00    -0.273 C  
HETATM    9  O   UNL     1     -11.805  14.599  65.532  1.00  0.00    -0.349 OA 
ENDBRANCH   5   6
BRANCH   5  10
HETATM   10  C   UNL     1      -7.915  16.389  66.283  1.00  0.00    -0.229 C  
BRANCH  10  11
HETATM   11  C   UNL     1      -7.343  15.441  67.326  1.00  0.00    -0.239 A  
HETATM   12  C   UNL     1      -7.653  14.082  67.259  1.00  0.00    -0.094 A  
HETATM   13  C   UNL     1      -7.246  13.173  68.259  1.00  0.00    -0.107 A  
HETATM   14  C   UNL     1      -6.390  13.600  69.269  1.00  0.00    -0.108 A  
HETATM   15  C   UNL     1      -6.026  14.951  69.327  1.00  0.00    -0.104 A  
HETATM   16  O   UNL     1      -5.866  12.754  70.226  1.00  0.00    -0.150 OA 
HETATM   17  C   UNL     1      -6.227  11.419  70.214  1.00  0.00    -0.106 A  
HETATM   18  C   UNL     1      -6.521  15.859  68.376  1.00  0.00    -0.116 A  
HETATM   19  O   UNL     1      -6.214  17.187  68.467  1.00  0.00    -0.144 OA 
HETATM   20  C   UNL     1      -5.594  10.565  71.130  1.00  0.00    -0.040 A  
HETATM   21  C   UNL     1      -5.928   9.199  71.182  1.00  0.00    -0.063 A  
HETATM   22  H   UNL     1      -5.655  17.471  69.181  1.00  0.00     0.000 HD 
HETATM   23  C   UNL     1      -6.924   8.670  70.357  1.00  0.00    -0.043 A  
HETATM   24  O   UNL     1      -5.268   8.357  72.033  1.00  0.00    -0.034 OA 
HETATM   25  C   UNL     1      -9.283  11.739  68.283  1.00  0.00    -0.188 A  
HETATM   26  H   UNL     1      -5.494   7.434  72.068  1.00  0.00     0.000 HD 
HETATM   27  C   UNL     1      -7.551   9.546  69.460  1.00  0.00    -0.096 A  
HETATM   28  C   UNL     1     -10.186  12.084  69.280  1.00  0.00     0.245 A  
HETATM   29  C   UNL     1      -7.184  10.901  69.347  1.00  0.00    -0.126 A  
HETATM   30  C   UNL     1      -7.787  11.765  68.273  1.00  0.00    -0.137 C  
HETATM   31  C   UNL     1     -11.548  11.947  69.005  1.00  0.00    -0.376 A  
HETATM   32  C   UNL     1     -11.985  11.488  67.751  1.00  0.00    -0.100 A  
HETATM   33  O   UNL     1      -7.464  11.178  66.985  1.00  0.00    -0.117 OA 
HETATM   34  C   UNL     1     -11.068  11.158  66.752  1.00  0.00    -0.280 A  
HETATM   35  O   UNL     1      -8.599  10.695  65.039  1.00  0.00    -0.184 OA 
HETATM   36  C   UNL     1      -8.575  10.997  66.215  1.00  0.00    -0.167 C  
HETATM   37  C   UNL     1      -9.726  11.285  67.057  1.00  0.00    -0.208 A  
BRANCH  23  38
HETATM   38  C   UNL     1      -7.257   7.194  70.228  1.00  0.00    -0.071 C  
BRANCH  38  39
HETATM   39  N   UNL     1      -8.535   6.708  70.834  1.00  0.00    -0.132 NA 
BRANCH  39  40
HETATM   40  C   UNL     1      -8.741   5.283  70.410  1.00  0.00    -0.127 C  
HETATM   41  O   UNL     1     -10.044   3.543  71.509  1.00  0.00    -0.142 OA 
HETATM   42  C   UNL     1      -9.983   4.678  71.054  1.00  0.00    -0.200 C  
HETATM   43  O   UNL     1     -11.033   5.537  71.055  1.00  0.00    -0.222 OA 
ENDBRANCH  39  40
BRANCH  39  44
HETATM   44  C   UNL     1      -8.352   6.703  72.338  1.00  0.00    -0.106 C  
HETATM   45  C   UNL     1      -8.899   7.962  73.009  1.00  0.00    -0.217 C  
HETATM   46  O   UNL     1      -8.481   8.409  74.067  1.00  0.00    -0.268 OA 
HETATM   47  O   UNL     1      -9.942   8.516  72.337  1.00  0.00    -0.302 OA 
ENDBRANCH  39  44
ENDBRANCH  38  39
ENDBRANCH  23  38
ENDBRANCH  10  11
ENDBRANCH   5  10
ENDBRANCH   4   5
TORSDOF 8
ENDMDL
MODEL       73
REMARK 921   NORMALIZED FREE ENERGY PREDICTED BY IDOCK:   -5.19 KCAL/MOL
REMARK 922        TOTAL FREE ENERGY PREDICTED BY IDOCK:   -9.88 KCAL/MOL
REMARK 923 INTER-LIGAND FREE ENERGY PREDICTED BY IDOCK:   -8.38 KCAL/MOL
REMARK 924 INTRA-LIGAND FREE ENERGY PREDICTED BY IDOCK:   -1.51 KCAL/MOL
REMARK 927      BINDING AFFINITY PREDICTED BY RF-SCORE:    0.00 PKD
ROOT
HETATM    1  O   UNL     1      -8.154  15.313  69.481  1.00  0.00    -0.231 OA 
HETATM    2  C   UNL     1      -7.206  15.488  68.532  1.00  0.00    -0.119 C  
HETATM    3  O   UNL     1      -6.018  15.584  68.798  1.00  0.00    -0.097 OA 
HETATM    4  C   UNL     1      -7.764  15.480  67.113  1.00  0.00    -0.222 C  
ENDROOT
BRANCH   4   5
HETATM    5  N   UNL     1      -9.163  16.058  66.997  1.00  0.00    -0.206 NA 
BRANCH   5   6
HETATM    6  C   UNL     1      -9.054  17.326  66.177  1.00  0.00    -0.160 C  
HETATM    7  O   UNL     1     -10.850  18.123  67.589  1.00  0.00    -0.392 OA 
HETATM    8  C   UNL     1     -10.163  18.343  66.447  1.00  0.00    -0.410 C  
HETATM    9  O   UNL     1     -10.373  19.311  65.730  1.00  0.00    -0.478 OA 
ENDBRANCH   5   6
BRANCH   5  10
HETATM   10  C   UNL     1      -9.961  15.043  66.200  1.00  0.00    -0.291 C  
BRANCH  10  11
HETATM   11  C   UNL     1     -10.337  13.801  66.994  1.00  0.00    -0.260 A  
HETATM   12  C   UNL     1      -9.419  12.756  67.103  1.00  0.00    -0.223 A  
HETATM   13  C   UNL     1      -9.748  11.534  67.730  1.00  0.00    -0.180 A  
HETATM   14  C   UNL     1     -10.967  11.408  68.390  1.00  0.00    -0.215 A  
HETATM   15  C   UNL     1     -11.884  12.464  68.335  1.00  0.00    -0.361 A  
HETATM   16  O   UNL     1     -11.324  10.285  69.111  1.00  0.00    -0.230 OA 
HETATM   17  C   UNL     1     -10.454   9.213  69.162  1.00  0.00    -0.217 A  
HETATM   18  C   UNL     1     -11.574  13.635  67.623  1.00  0.00    -0.346 A  
HETATM   19  O   UNL     1     -12.491  14.641  67.520  1.00  0.00    -0.551 OA 
HETATM   20  C   UNL     1     -10.797   8.134  69.990  1.00  0.00    -0.233 A  
HETATM   21  C   UNL     1      -9.963   7.004  70.074  1.00  0.00    -0.181 A  
HETATM   22  H   UNL     1     -13.333  14.528  67.947  1.00  0.00     0.000 HD 
HETATM   23  C   UNL     1      -8.800   6.909  69.307  1.00  0.00    -0.138 A  
HETATM   24  O   UNL     1     -10.269   5.979  70.928  1.00  0.00    -0.193 OA 
HETATM   25  C   UNL     1      -8.498  10.007  66.209  1.00  0.00    -0.134 A  
HETATM   26  H   UNL     1      -9.705   5.216  70.984  1.00  0.00     0.000 HD 
HETATM   27  C   UNL     1      -8.485   7.993  68.476  1.00  0.00    -0.128 A  
HETATM   28  C   UNL     1      -9.291   9.452  65.215  1.00  0.00    -0.303 A  
HETATM   29  C   UNL     1      -9.272   9.160  68.428  1.00  0.00    -0.132 A  
HETATM   30  C   UNL     1      -8.817  10.352  67.630  1.00  0.00    -0.124 C  
HETATM   31  C   UNL     1      -8.713   9.231  63.963  1.00  0.00    -0.198 A  
HETATM   32  C   UNL     1      -7.372   9.576  63.721  1.00  0.00    -0.113 A  
HETATM   33  O   UNL     1      -7.533  10.783  68.152  1.00  0.00    -0.086 OA 
HETATM   34  C   UNL     1      -6.589  10.146  64.725  1.00  0.00    -0.124 A  
HETATM   35  O   UNL     1      -5.493  11.394  67.272  1.00  0.00    -0.047 OA 
HETATM   36  C   UNL     1      -6.594  10.892  67.169  1.00  0.00    -0.083 C  
HETATM   37  C   UNL     1      -7.181  10.337  65.959  1.00  0.00    -0.128 A  
BRANCH  23  38
HETATM   38  C   UNL     1      -7.760   5.809  69.430  1.00  0.00    -0.092 C  
BRANCH  38  39
HETATM   39  N   UNL     1      -7.809   4.684  68.445  1.00  0.00    -0.080 NA 
BRANCH  39  40
HETATM   40  C   UNL     1      -6.553   4.728  67.623  1.00  0.00    -0.047 C  
HETATM   41  O   UNL     1      -6.271   4.246  65.252  1.00  0.00    -0.026 OA 
HETATM   42  C   UNL     1      -6.858   4.857  66.136  1.00  0.00    -0.058 C  
HETATM   43  O   UNL     1      -7.853   5.747  65.889  1.00  0.00    -0.097 OA 
ENDBRANCH  39  40
BRANCH  39  44
HETATM   44  C   UNL     1      -7.782   3.389  69.230  1.00  0.00    -0.051 C  
HETATM   45  C   UNL     1      -9.009   2.515  68.978  1.00  0.00    -0.114 C  
HETATM   46  O   UNL     1      -9.451   1.708  69.783  1.00  0.00    -0.101 OA 
HETATM   47  O   UNL     1      -9.539   2.681  67.737  1.00  0.00    -0.178 OA 
ENDBRANCH  39  44
ENDBRANCH  38  39
ENDBRANCH  23  38
ENDBRANCH  10  11
ENDBRANCH   5  10
ENDBRANCH   4   5
TORSDOF 8
ENDMDL
MODEL       74
REMARK 921   NORMALIZED FREE ENERGY PREDICTED BY IDOCK:   -5.17 KCAL/MOL
REMARK 922        TOTAL FREE ENERGY PREDICTED BY IDOCK:   -9.86 KCAL/MOL
REMARK 923 INTER-LIGAND FREE ENERGY PREDICTED BY IDOCK:   -9.73 KCAL/MOL
REMARK 924 INTRA-LIGAND FREE ENERGY PREDICTED BY IDOCK:   -0.13 KCAL/MOL
REMARK 927      BINDING AFFINITY PREDICTED BY RF-SCORE:    0.00 PKD
ROOT
HETATM    1  O   UNL     1      -6.949  20.751  66.467  1.00  0.00    -0.265 OA 
HETATM    2  C   UNL     1      -6.551  20.352  67.697  1.00  0.00    -0.271 C  
HETATM    3  O   UNL     1      -5.434  20.584  68.134  1.00  0.00    -0.211 OA 
HETATM    4  C   UNL     1      -7.651  19.658  68.492  1.00  0.00    -0.337 C  
ENDROOT
BRANCH   4   5
HETATM    5  N   UNL     1      -8.616  18.856  67.638  1.00  0.00    -0.277 NA 
BRANCH   5   6
HETATM    6  C   UNL     1      -9.453  19.849  66.859  1.00  0.00    -0.386 C  
HETATM    7  O   UNL     1     -10.887  17.951  66.420  1.00  0.00    -0.180 OA 
HETATM    8  C   UNL     1     -10.587  19.216  66.054  1.00  0.00    -0.442 C  
HETATM    9  O   UNL     1     -11.215  19.818  65.195  1.00  0.00    -0.296 OA 
ENDBRANCH   5   6
BRANCH   5  10
HETATM   10  C   UNL     1      -7.752  18.088  66.655  1.00  0.00    -0.238 C  
BRANCH  10  11
HETATM   11  C   UNL     1      -7.439  16.667  67.098  1.00  0.00    -0.218 A  
HETATM   12  C   UNL     1      -8.473  15.735  67.190  1.00  0.00    -0.235 A  
HETATM   13  C   UNL     1      -8.265  14.435  67.701  1.00  0.00    -0.185 A  
HETATM   14  C   UNL     1      -6.972  14.009  67.989  1.00  0.00    -0.145 A  
HETATM   15  C   UNL     1      -5.911  14.914  67.858  1.00  0.00    -0.160 A  
HETATM   16  O   UNL     1      -6.672  12.725  68.397  1.00  0.00    -0.073 OA 
HETATM   17  C   UNL     1      -7.698  11.814  68.564  1.00  0.00    -0.137 A  
HETATM   18  C   UNL     1      -6.154  16.233  67.439  1.00  0.00    -0.164 A  
HETATM   19  O   UNL     1      -5.129  17.132  67.367  1.00  0.00    -0.107 OA 
HETATM   20  C   UNL     1      -7.351  10.490  68.873  1.00  0.00    -0.098 A  
HETATM   21  C   UNL     1      -8.348   9.518  69.073  1.00  0.00    -0.126 A  
HETATM   22  H   UNL     1      -4.255  16.837  67.599  1.00  0.00     0.000 HD 
HETATM   23  C   UNL     1      -9.703   9.853  69.012  1.00  0.00    -0.195 A  
HETATM   24  O   UNL     1      -8.007   8.216  69.314  1.00  0.00    -0.111 OA 
HETATM   25  C   UNL     1     -10.424  14.184  68.919  1.00  0.00    -0.229 A  
HETATM   26  H   UNL     1      -8.681   7.559  69.449  1.00  0.00     0.000 HD 
HETATM   27  C   UNL     1     -10.025  11.185  68.716  1.00  0.00    -0.207 A  
HETATM   28  C   UNL     1     -10.331  14.488  70.269  1.00  0.00     0.514 A  
HETATM   29  C   UNL     1      -9.042  12.157  68.448  1.00  0.00    -0.151 A  
HETATM   30  C   UNL     1      -9.439  13.537  67.996  1.00  0.00    -0.220 C  
HETATM   31  C   UNL     1     -11.430  15.095  70.881  1.00  0.00    -0.363 A  
HETATM   32  C   UNL     1     -12.585  15.400  70.142  1.00  0.00    -0.329 A  
HETATM   33  O   UNL     1     -10.193  13.409  66.761  1.00  0.00    -0.252 OA 
HETATM   34  C   UNL     1     -12.661  15.102  68.781  1.00  0.00     0.383 A  
HETATM   35  O   UNL     1     -12.147  14.273  65.901  1.00  0.00    -0.398 OA 
HETATM   36  C   UNL     1     -11.390  14.057  66.826  1.00  0.00    -0.334 C  
HETATM   37  C   UNL     1     -11.567  14.485  68.205  1.00  0.00    -0.358 A  
BRANCH  23  38
HETATM   38  C   UNL     1     -10.851   8.861  69.065  1.00  0.00    -0.046 C  
BRANCH  38  39
HETATM   39  N   UNL     1     -11.438   8.539  70.402  1.00  0.00    -0.188 NA 
BRANCH  39  40
HETATM   40  C   UNL     1     -10.534   7.552  71.084  1.00  0.00    -0.205 C  
HETATM   41  O   UNL     1     -10.706   6.638  73.336  1.00  0.00    -0.281 OA 
HETATM   42  C   UNL     1     -11.230   6.866  72.254  1.00  0.00    -0.263 C  
HETATM   43  O   UNL     1     -12.508   6.515  71.959  1.00  0.00    -0.327 OA 
ENDBRANCH  39  40
BRANCH  39  44
HETATM   44  C   UNL     1     -11.414   9.809  71.229  1.00  0.00    -0.385 C  
HETATM   45  C   UNL     1     -12.805  10.396  71.457  1.00  0.00    -0.464 C  
HETATM   46  O   UNL     1     -13.022  11.583  71.655  1.00  0.00    -0.437 OA 
HETATM   47  O   UNL     1     -13.787   9.457  71.472  1.00  0.00    -0.336 OA 
ENDBRANCH  39  44
ENDBRANCH  38  39
ENDBRANCH  23  38
ENDBRANCH  10  11
ENDBRANCH   5  10
ENDBRANCH   4   5
TORSDOF 8
ENDMDL
MODEL       75
REMARK 921   NORMALIZED FREE ENERGY PREDICTED BY IDOCK:   -5.16 KCAL/MOL
REMARK 922        TOTAL FREE ENERGY PREDICTED BY IDOCK:   -9.85 KCAL/MOL
REMARK 923 INTER-LIGAND FREE ENERGY PREDICTED BY IDOCK:   -8.04 KCAL/MOL
REMARK 924 INTRA-LIGAND FREE ENERGY PREDICTED BY IDOCK:   -1.81 KCAL/MOL
REMARK 927      BINDING AFFINITY PREDICTED BY RF-SCORE:    0.00 PKD
ROOT
HETATM    1  O   UNL     1      -8.286   4.911  69.878  1.00  0.00    -0.078 OA 
HETATM    2  C   UNL     1      -9.357   4.112  69.667  1.00  0.00    -0.171 C  
HETATM    3  O   UNL     1      -9.675   3.220  70.438  1.00  0.00    -0.167 OA 
HETATM    4  C   UNL     1     -10.152   4.486  68.421  1.00  0.00     0.040 C  
ENDROOT
BRANCH   4   5
HETATM    5  N   UNL     1      -9.304   5.043  67.292  1.00  0.00    -0.121 NA 
BRANCH   5   6
HETATM    6  C   UNL     1      -9.551   4.173  66.078  1.00  0.00    -0.194 C  
HETATM    7  O   UNL     1      -7.323   3.335  66.506  1.00  0.00    -0.072 OA 
HETATM    8  C   UNL     1      -8.322   3.402  65.600  1.00  0.00    -0.102 C  
HETATM    9  O   UNL     1      -8.266   2.836  64.517  1.00  0.00    -0.085 OA 
ENDBRANCH   5   6
BRANCH   5  10
HETATM   10  C   UNL     1      -9.858   6.427  67.007  1.00  0.00    -0.154 C  
BRANCH  10  11
HETATM   11  C   UNL     1      -8.932   7.556  67.434  1.00  0.00    -0.129 A  
HETATM   12  C   UNL     1      -9.447   8.845  67.579  1.00  0.00    -0.172 A  
HETATM   13  C   UNL     1      -8.619   9.953  67.863  1.00  0.00    -0.125 A  
HETATM   14  C   UNL     1      -7.273   9.748  68.153  1.00  0.00    -0.079 A  
HETATM   15  C   UNL     1      -6.746   8.454  68.062  1.00  0.00    -0.065 A  
HETATM   16  O   UNL     1      -6.419  10.762  68.538  1.00  0.00    -0.053 OA 
HETATM   17  C   UNL     1      -6.900  12.056  68.611  1.00  0.00    -0.091 A  
HETATM   18  C   UNL     1      -7.568   7.379  67.683  1.00  0.00    -0.106 A  
HETATM   19  O   UNL     1      -7.041   6.128  67.537  1.00  0.00    -0.070 OA 
HETATM   20  C   UNL     1      -6.038  13.045  69.109  1.00  0.00    -0.095 A  
HETATM   21  C   UNL     1      -6.461  14.385  69.193  1.00  0.00    -0.107 A  
HETATM   22  H   UNL     1      -6.114   6.008  67.706  1.00  0.00     0.000 HD 
HETATM   23  C   UNL     1      -7.726  14.770  68.745  1.00  0.00    -0.136 A  
HETATM   24  O   UNL     1      -5.640  15.336  69.734  1.00  0.00    -0.103 OA 
HETATM   25  C   UNL     1      -9.792  11.642  66.457  1.00  0.00    -0.228 A  
HETATM   26  H   UNL     1      -5.926  16.241  69.791  1.00  0.00     0.000 HD 
HETATM   27  C   UNL     1      -8.564  13.767  68.238  1.00  0.00    -0.175 A  
HETATM   28  C   UNL     1      -9.214  11.814  65.208  1.00  0.00     0.023 A  
HETATM   29  C   UNL     1      -8.184  12.411  68.208  1.00  0.00    -0.170 A  
HETATM   30  C   UNL     1      -9.170  11.354  67.788  1.00  0.00    -0.159 C  
HETATM   31  C   UNL     1     -10.057  12.085  64.128  1.00  0.00    -0.340 A  
HETATM   32  C   UNL     1     -11.448  12.165  64.305  1.00  0.00    -0.437 A  
HETATM   33  O   UNL     1     -10.305  11.409  68.692  1.00  0.00    -0.192 OA 
HETATM   34  C   UNL     1     -12.019  11.975  65.564  1.00  0.00    -0.168 A  
HETATM   35  O   UNL     1     -12.600  11.398  68.492  1.00  0.00    -0.205 OA 
HETATM   36  C   UNL     1     -11.487  11.509  68.020  1.00  0.00    -0.311 C  
HETATM   37  C   UNL     1     -11.161  11.727  66.618  1.00  0.00    -0.383 A  
BRANCH  23  38
HETATM   38  C   UNL     1      -8.332  16.150  68.924  1.00  0.00    -0.233 C  
BRANCH  38  39
HETATM   39  N   UNL     1      -8.466  17.020  67.714  1.00  0.00    -0.196 NA 
BRANCH  39  40
HETATM   40  C   UNL     1      -9.921  17.090  67.348  1.00  0.00    -0.278 C  
HETATM   41  O   UNL     1     -10.940  16.957  65.139  1.00  0.00    -0.508 OA 
HETATM   42  C   UNL     1     -10.186  16.479  65.977  1.00  0.00    -0.356 C  
HETATM   43  O   UNL     1      -9.500  15.324  65.786  1.00  0.00    -0.333 OA 
ENDBRANCH  39  40
BRANCH  39  44
HETATM   44  C   UNL     1      -8.039  18.419  68.109  1.00  0.00    -0.290 C  
HETATM   45  C   UNL     1      -6.988  19.007  67.170  1.00  0.00    -0.203 C  
HETATM   46  O   UNL     1      -6.173  19.855  67.502  1.00  0.00    -0.188 OA 
HETATM   47  O   UNL     1      -7.080  18.533  65.899  1.00  0.00    -0.276 OA 
ENDBRANCH  39  44
ENDBRANCH  38  39
ENDBRANCH  23  38
ENDBRANCH  10  11
ENDBRANCH   5  10
ENDBRANCH   4   5
TORSDOF 8
ENDMDL
MODEL       76
REMARK 921   NORMALIZED FREE ENERGY PREDICTED BY IDOCK:   -5.11 KCAL/MOL
REMARK 922        TOTAL FREE ENERGY PREDICTED BY IDOCK:   -9.77 KCAL/MOL
REMARK 923 INTER-LIGAND FREE ENERGY PREDICTED BY IDOCK:   -9.59 KCAL/MOL
REMARK 924 INTRA-LIGAND FREE ENERGY PREDICTED BY IDOCK:   -0.18 KCAL/MOL
REMARK 927      BINDING AFFINITY PREDICTED BY RF-SCORE:    0.00 PKD
ROOT
HETATM    1  O   UNL     1     -11.370   6.124  72.335  1.00  0.00    -0.269 OA 
HETATM    2  C   UNL     1     -11.111   7.440  72.167  1.00  0.00    -0.252 C  
HETATM    3  O   UNL     1     -11.757   8.315  72.724  1.00  0.00    -0.397 OA 
HETATM    4  C   UNL     1      -9.900   7.708  71.280  1.00  0.00    -0.171 C  
ENDROOT
BRANCH   4   5
HETATM    5  N   UNL     1      -9.703   6.682  70.179  1.00  0.00    -0.164 NA 
BRANCH   5   6
HETATM    6  C   UNL     1     -10.535   7.132  68.997  1.00  0.00    -0.211 C  
HETATM    7  O   UNL     1     -10.508   4.794  68.376  1.00  0.00     0.028 OA 
HETATM    8  C   UNL     1     -10.768   6.048  67.946  1.00  0.00    -0.284 C  
HETATM    9  O   UNL     1     -11.212   6.280  66.831  1.00  0.00    -0.335 OA 
ENDBRANCH   5   6
BRANCH   5  10
HETATM   10  C   UNL     1      -8.238   6.773  69.791  1.00  0.00    -0.127 C  
BRANCH  10  11
HETATM   11  C   UNL     1      -7.687   8.190  69.815  1.00  0.00    -0.100 A  
HETATM   12  C   UNL     1      -8.359   9.197  69.122  1.00  0.00    -0.123 A  
HETATM   13  C   UNL     1      -7.839  10.506  69.014  1.00  0.00    -0.129 A  
HETATM   14  C   UNL     1      -6.700  10.853  69.733  1.00  0.00    -0.144 A  
HETATM   15  C   UNL     1      -6.035   9.868  70.475  1.00  0.00    -0.078 A  
HETATM   16  O   UNL     1      -6.184  12.134  69.762  1.00  0.00    -0.129 OA 
HETATM   17  C   UNL     1      -6.798  13.124  69.018  1.00  0.00    -0.090 A  
HETATM   18  C   UNL     1      -6.517   8.549  70.491  1.00  0.00    -0.037 A  
HETATM   19  O   UNL     1      -5.837   7.576  71.166  1.00  0.00    -0.035 OA 
HETATM   20  C   UNL     1      -6.317  14.435  69.154  1.00  0.00    -0.102 A  
HETATM   21  C   UNL     1      -6.888  15.486  68.412  1.00  0.00    -0.115 A  
HETATM   22  H   UNL     1      -5.042   7.820  71.626  1.00  0.00     0.000 HD 
HETATM   23  C   UNL     1      -7.913  15.245  67.495  1.00  0.00    -0.197 A  
HETATM   24  O   UNL     1      -6.457  16.772  68.590  1.00  0.00    -0.153 OA 
HETATM   25  C   UNL     1      -8.555  10.979  66.675  1.00  0.00    -0.157 A  
HETATM   26  H   UNL     1      -6.842  17.481  68.089  1.00  0.00     0.000 HD 
HETATM   27  C   UNL     1      -8.368  13.925  67.366  1.00  0.00    -0.208 A  
HETATM   28  C   UNL     1      -7.558  10.746  65.739  1.00  0.00    -0.079 A  
HETATM   29  C   UNL     1      -7.855  12.872  68.148  1.00  0.00    -0.147 A  
HETATM   30  C   UNL     1      -8.472  11.501  68.076  1.00  0.00    -0.148 C  
HETATM   31  C   UNL     1      -7.938  10.254  64.488  1.00  0.00    -0.133 A  
HETATM   32  C   UNL     1      -9.288   9.992  64.199  1.00  0.00    -0.335 A  
HETATM   33  O   UNL     1      -9.868  11.612  68.460  1.00  0.00    -0.197 OA 
HETATM   34  C   UNL     1     -10.279  10.217  65.155  1.00  0.00    -0.295 A  
HETATM   35  O   UNL     1     -11.886  10.844  67.658  1.00  0.00    -0.572 OA 
HETATM   36  C   UNL     1     -10.698  11.057  67.532  1.00  0.00    -0.244 C  
HETATM   37  C   UNL     1      -9.878  10.721  66.377  1.00  0.00    -0.254 A  
BRANCH  23  38
HETATM   38  C   UNL     1      -8.693  16.319  66.757  1.00  0.00    -0.231 C  
BRANCH  38  39
HETATM   39  N   UNL     1      -9.937  16.848  67.399  1.00  0.00    -0.262 NA 
BRANCH  39  40
HETATM   40  C   UNL     1     -10.159  16.095  68.679  1.00  0.00    -0.231 C  
HETATM   41  O   UNL     1     -12.255  15.300  69.631  1.00  0.00    -0.316 OA 
HETATM   42  C   UNL     1     -11.493  15.359  68.675  1.00  0.00    -0.346 C  
HETATM   43  O   UNL     1     -11.744  14.753  67.487  1.00  0.00    -0.363 OA 
ENDBRANCH  39  40
BRANCH  39  44
HETATM   44  C   UNL     1      -9.678  18.293  67.773  1.00  0.00    -0.297 C  
HETATM   45  C   UNL     1      -9.588  19.214  66.558  1.00  0.00    -0.355 C  
HETATM   46  O   UNL     1      -8.952  20.258  66.537  1.00  0.00    -0.299 OA 
HETATM   47  O   UNL     1     -10.335  18.787  65.505  1.00  0.00    -0.510 OA 
ENDBRANCH  39  44
ENDBRANCH  38  39
ENDBRANCH  23  38
ENDBRANCH  10  11
ENDBRANCH   5  10
ENDBRANCH   4   5
TORSDOF 8
ENDMDL
MODEL       77
REMARK 921   NORMALIZED FREE ENERGY PREDICTED BY IDOCK:   -5.07 KCAL/MOL
REMARK 922        TOTAL FREE ENERGY PREDICTED BY IDOCK:   -9.72 KCAL/MOL
REMARK 923 INTER-LIGAND FREE ENERGY PREDICTED BY IDOCK:   -7.90 KCAL/MOL
REMARK 924 INTRA-LIGAND FREE ENERGY PREDICTED BY IDOCK:   -1.82 KCAL/MOL
REMARK 927      BINDING AFFINITY PREDICTED BY RF-SCORE:    0.00 PKD
ROOT
HETATM    1  O   UNL     1     -10.940   5.586  70.024  1.00  0.00    -0.301 OA 
HETATM    2  C   UNL     1      -9.850   4.845  69.720  1.00  0.00    -0.221 C  
HETATM    3  O   UNL     1      -9.836   4.042  68.800  1.00  0.00    -0.117 OA 
HETATM    4  C   UNL     1      -8.640   5.170  70.588  1.00  0.00    -0.119 C  
ENDROOT
BRANCH   4   5
HETATM    5  N   UNL     1      -8.990   5.575  72.008  1.00  0.00    -0.134 NA 
BRANCH   5   6
HETATM    6  C   UNL     1      -9.293   4.304  72.773  1.00  0.00    -0.120 C  
HETATM    7  O   UNL     1     -11.437   5.340  73.200  1.00  0.00    -0.310 OA 
HETATM    8  C   UNL     1     -10.598   4.346  73.566  1.00  0.00    -0.227 C  
HETATM    9  O   UNL     1     -10.893   3.517  74.414  1.00  0.00    -0.165 OA 
ENDBRANCH   5   6
BRANCH   5  10
HETATM   10  C   UNL     1      -7.726   6.187  72.584  1.00  0.00    -0.102 C  
BRANCH  10  11
HETATM   11  C   UNL     1      -7.329   7.501  71.927  1.00  0.00    -0.072 A  
HETATM   12  C   UNL     1      -8.236   8.144  71.083  1.00  0.00    -0.123 A  
HETATM   13  C   UNL     1      -7.887   9.305  70.358  1.00  0.00    -0.158 A  
HETATM   14  C   UNL     1      -6.660   9.918  70.592  1.00  0.00    -0.103 A  
HETATM   15  C   UNL     1      -5.753   9.315  71.472  1.00  0.00    -0.069 A  
HETATM   16  O   UNL     1      -6.283  11.107  70.000  1.00  0.00    -0.115 OA 
HETATM   17  C   UNL     1      -7.142  11.715  69.103  1.00  0.00    -0.090 A  
HETATM   18  C   UNL     1      -6.084   8.107  72.111  1.00  0.00    -0.049 A  
HETATM   19  O   UNL     1      -5.177   7.489  72.924  1.00  0.00    -0.037 OA 
HETATM   20  C   UNL     1      -6.779  12.974  68.604  1.00  0.00    -0.096 A  
HETATM   21  C   UNL     1      -7.601  13.639  67.675  1.00  0.00    -0.179 A  
HETATM   22  H   UNL     1      -4.330   7.901  73.048  1.00  0.00     0.000 HD 
HETATM   23  C   UNL     1      -8.772  13.046  67.196  1.00  0.00    -0.204 A  
HETATM   24  O   UNL     1      -7.275  14.892  67.235  1.00  0.00    -0.194 OA 
HETATM   25  C   UNL     1      -9.139   8.802  68.264  1.00  0.00    -0.141 A  
HETATM   26  H   UNL     1      -7.830  15.341  66.608  1.00  0.00     0.000 HD 
HETATM   27  C   UNL     1      -9.107  11.781  67.699  1.00  0.00    -0.177 A  
HETATM   28  C   UNL     1      -8.352   8.222  67.279  1.00  0.00    -0.124 A  
HETATM   29  C   UNL     1      -8.332  11.130  68.678  1.00  0.00    -0.154 A  
HETATM   30  C   UNL     1      -8.807   9.839  69.290  1.00  0.00    -0.169 C  
HETATM   31  C   UNL     1      -8.943   7.270  66.445  1.00  0.00    -0.184 A  
HETATM   32  C   UNL     1     -10.290   6.905  66.613  1.00  0.00    -0.214 A  
HETATM   33  O   UNL     1     -10.090  10.085  69.925  1.00  0.00    -0.235 OA 
HETATM   34  C   UNL     1     -11.066   7.486  67.616  1.00  0.00     0.056 A  
HETATM   35  O   UNL     1     -12.145   9.047  69.992  1.00  0.00     0.263 OA 
HETATM   36  C   UNL     1     -11.041   9.200  69.511  1.00  0.00    -0.051 C  
HETATM   37  C   UNL     1     -10.462   8.438  68.415  1.00  0.00    -0.208 A  
BRANCH  23  38
HETATM   38  C   UNL     1      -9.799  13.732  66.313  1.00  0.00    -0.303 C  
BRANCH  38  39
HETATM   39  N   UNL     1     -10.354  15.043  66.770  1.00  0.00    -0.265 NA 
BRANCH  39  40
HETATM   40  C   UNL     1     -10.644  15.877  65.556  1.00  0.00    -0.401 C  
HETATM   41  O   UNL     1     -10.728  18.304  65.363  1.00  0.00    -0.610 OA 
HETATM   42  C   UNL     1     -10.120  17.300  65.711  1.00  0.00    -0.141 C  
HETATM   43  O   UNL     1      -8.885  17.336  66.271  1.00  0.00    -0.343 OA 
ENDBRANCH  39  40
BRANCH  39  44
HETATM   44  C   UNL     1     -11.681  14.766  67.447  1.00  0.00    -0.350 C  
HETATM   45  C   UNL     1     -11.583  14.766  68.971  1.00  0.00    -0.297 C  
HETATM   46  O   UNL     1     -12.333  14.139  69.704  1.00  0.00    -0.326 OA 
HETATM   47  O   UNL     1     -10.605  15.583  69.445  1.00  0.00    -0.217 OA 
ENDBRANCH  39  44
ENDBRANCH  38  39
ENDBRANCH  23  38
ENDBRANCH  10  11
ENDBRANCH   5  10
ENDBRANCH   4   5
TORSDOF 8
ENDMDL
MODEL       78
REMARK 921   NORMALIZED FREE ENERGY PREDICTED BY IDOCK:   -5.07 KCAL/MOL
REMARK 922        TOTAL FREE ENERGY PREDICTED BY IDOCK:   -9.71 KCAL/MOL
REMARK 923 INTER-LIGAND FREE ENERGY PREDICTED BY IDOCK:   -9.45 KCAL/MOL
REMARK 924 INTRA-LIGAND FREE ENERGY PREDICTED BY IDOCK:   -0.27 KCAL/MOL
REMARK 927      BINDING AFFINITY PREDICTED BY RF-SCORE:    0.00 PKD
ROOT
HETATM    1  O   UNL     1     -12.922  10.783  71.745  1.00  0.00    -0.446 OA 
HETATM    2  C   UNL     1     -13.087   9.458  71.532  1.00  0.00    -0.377 C  
HETATM    3  O   UNL     1     -14.126   8.872  71.796  1.00  0.00    -0.394 OA 
HETATM    4  C   UNL     1     -11.881   8.799  70.871  1.00  0.00    -0.230 C  
ENDROOT
BRANCH   4   5
HETATM    5  N   UNL     1     -10.550   9.412  71.267  1.00  0.00    -0.333 NA 
BRANCH   5   6
HETATM    6  C   UNL     1      -9.993   8.574  72.398  1.00  0.00    -0.295 C  
HETATM    7  O   UNL     1      -7.840   9.334  71.599  1.00  0.00    -0.329 OA 
HETATM    8  C   UNL     1      -8.472   8.433  72.383  1.00  0.00    -0.172 C  
HETATM    9  O   UNL     1      -7.867   7.621  73.068  1.00  0.00    -0.095 OA 
ENDBRANCH   5   6
BRANCH   5  10
HETATM   10  C   UNL     1      -9.645   9.242  70.059  1.00  0.00    -0.209 C  
BRANCH  10  11
HETATM   11  C   UNL     1     -10.061  10.081  68.861  1.00  0.00    -0.200 A  
HETATM   12  C   UNL     1      -9.864  11.462  68.892  1.00  0.00    -0.127 A  
HETATM   13  C   UNL     1     -10.330  12.307  67.861  1.00  0.00    -0.216 A  
HETATM   14  C   UNL     1     -10.873  11.748  66.708  1.00  0.00    -0.270 A  
HETATM   15  C   UNL     1     -11.035  10.359  66.635  1.00  0.00    -0.067 A  
HETATM   16  O   UNL     1     -11.260  12.496  65.614  1.00  0.00    -0.295 OA 
HETATM   17  C   UNL     1     -11.140  13.872  65.663  1.00  0.00    -0.298 A  
HETATM   18  C   UNL     1     -10.653   9.544  67.714  1.00  0.00    -0.261 A  
HETATM   19  O   UNL     1     -10.865   8.196  67.667  1.00  0.00    -0.481 OA 
HETATM   20  C   UNL     1     -11.438  14.595  64.498  1.00  0.00    -0.340 A  
HETATM   21  C   UNL     1     -11.352  16.000  64.487  1.00  0.00    -0.295 A  
HETATM   22  H   UNL     1     -11.267   7.831  66.887  1.00  0.00     0.000 HD 
HETATM   23  C   UNL     1     -11.011  16.710  65.640  1.00  0.00    -0.028 A  
HETATM   24  O   UNL     1     -11.585  16.698  63.334  1.00  0.00    -0.515 OA 
HETATM   25  C   UNL     1     -11.019  14.240  69.272  1.00  0.00    -0.271 A  
HETATM   26  H   UNL     1     -11.527  17.646  63.326  1.00  0.00     0.000 HD 
HETATM   27  C   UNL     1     -10.732  15.967  66.796  1.00  0.00    -0.281 A  
HETATM   28  C   UNL     1     -12.373  14.241  69.579  1.00  0.00    -0.272 A  
HETATM   29  C   UNL     1     -10.748  14.558  66.809  1.00  0.00    -0.291 A  
HETATM   30  C   UNL     1     -10.302  13.804  68.033  1.00  0.00    -0.246 C  
HETATM   31  C   UNL     1     -12.760  14.722  70.832  1.00  0.00    -0.405 A  
HETATM   32  C   UNL     1     -11.801  15.176  71.754  1.00  0.00    -0.471 A  
HETATM   33  O   UNL     1      -8.925  14.170  68.314  1.00  0.00    -0.178 OA 
HETATM   34  C   UNL     1     -10.442  15.157  71.439  1.00  0.00     0.671 A  
HETATM   35  O   UNL     1      -7.705  14.778  70.171  1.00  0.00     0.130 OA 
HETATM   36  C   UNL     1      -8.760  14.582  69.603  1.00  0.00     0.456 C  
HETATM   37  C   UNL     1     -10.089  14.693  70.186  1.00  0.00     0.436 A  
BRANCH  23  38
HETATM   38  C   UNL     1     -10.748  18.204  65.700  1.00  0.00    -0.032 C  
BRANCH  38  39
HETATM   39  N   UNL     1      -9.707  18.695  66.655  1.00  0.00    -0.326 NA 
BRANCH  39  40
HETATM   40  C   UNL     1      -8.770  19.595  65.903  1.00  0.00    -0.114 C  
HETATM   41  O   UNL     1      -6.342  19.722  66.048  1.00  0.00    -0.179 OA 
HETATM   42  C   UNL     1      -7.349  19.044  65.892  1.00  0.00    -0.239 C  
HETATM   43  O   UNL     1      -7.317  17.706  65.671  1.00  0.00    -0.487 OA 
ENDBRANCH  39  40
BRANCH  39  44
HETATM   44  C   UNL     1     -10.408  19.549  67.692  1.00  0.00    -0.451 C  
HETATM   45  C   UNL     1      -9.710  19.527  69.051  1.00  0.00    -0.387 C  
HETATM   46  O   UNL     1     -10.280  19.717  70.115  1.00  0.00     0.103 OA 
HETATM   47  O   UNL     1      -8.368  19.327  68.960  1.00  0.00    -0.338 OA 
ENDBRANCH  39  44
ENDBRANCH  38  39
ENDBRANCH  23  38
ENDBRANCH  10  11
ENDBRANCH   5  10
ENDBRANCH   4   5
TORSDOF 8
ENDMDL
MODEL       79
REMARK 921   NORMALIZED FREE ENERGY PREDICTED BY IDOCK:   -5.07 KCAL/MOL
REMARK 922        TOTAL FREE ENERGY PREDICTED BY IDOCK:   -9.71 KCAL/MOL
REMARK 923 INTER-LIGAND FREE ENERGY PREDICTED BY IDOCK:   -9.13 KCAL/MOL
REMARK 924 INTRA-LIGAND FREE ENERGY PREDICTED BY IDOCK:   -0.58 KCAL/MOL
REMARK 927      BINDING AFFINITY PREDICTED BY RF-SCORE:    0.00 PKD
ROOT
HETATM    1  O   UNL     1     -14.389  15.731  71.469  1.00  0.00    -0.456 OA 
HETATM    2  C   UNL     1     -13.436  15.603  72.421  1.00  0.00    -0.513 C  
HETATM    3  O   UNL     1     -13.463  16.233  73.468  1.00  0.00    -0.654 OA 
HETATM    4  C   UNL     1     -12.385  14.552  72.084  1.00  0.00    -0.260 C  
ENDROOT
BRANCH   4   5
HETATM    5  N   UNL     1     -12.088  14.430  70.601  1.00  0.00    -0.313 NA 
BRANCH   5   6
HETATM    6  C   UNL     1     -10.594  14.602  70.429  1.00  0.00     0.276 C  
HETATM    7  O   UNL     1     -11.183  16.729  69.437  1.00  0.00    -0.182 OA 
HETATM    8  C   UNL     1     -10.196  15.820  69.596  1.00  0.00    -0.289 C  
HETATM    9  O   UNL     1      -9.067  15.994  69.161  1.00  0.00    -0.229 OA 
ENDBRANCH   5   6
BRANCH   5  10
HETATM   10  C   UNL     1     -12.448  13.003  70.227  1.00  0.00    -0.147 C  
BRANCH  10  11
HETATM   11  C   UNL     1     -11.891  12.565  68.881  1.00  0.00    -0.346 A  
HETATM   12  C   UNL     1     -11.223  11.344  68.782  1.00  0.00    -0.308 A  
HETATM   13  C   UNL     1     -10.588  10.934  67.589  1.00  0.00    -0.263 A  
HETATM   14  C   UNL     1     -10.748  11.689  66.432  1.00  0.00    -0.272 A  
HETATM   15  C   UNL     1     -11.457  12.896  66.497  1.00  0.00    -0.390 A  
HETATM   16  O   UNL     1     -10.245  11.308  65.203  1.00  0.00    -0.260 OA 
HETATM   17  C   UNL     1      -9.516  10.138  65.109  1.00  0.00    -0.260 A  
HETATM   18  C   UNL     1     -12.000  13.332  67.718  1.00  0.00    -0.314 A  
HETATM   19  O   UNL     1     -12.640  14.536  67.795  1.00  0.00    -0.499 OA 
HETATM   20  C   UNL     1      -9.112   9.723  63.831  1.00  0.00    -0.275 A  
HETATM   21  C   UNL     1      -8.353   8.549  63.667  1.00  0.00    -0.080 A  
HETATM   22  H   UNL     1     -12.713  15.057  67.004  1.00  0.00     0.000 HD 
HETATM   23  C   UNL     1      -7.947   7.795  64.770  1.00  0.00    -0.142 A  
HETATM   24  O   UNL     1      -8.012   8.115  62.416  1.00  0.00    -0.140 OA 
HETATM   25  C   UNL     1      -8.603   9.827  68.608  1.00  0.00    -0.121 A  
HETATM   26  H   UNL     1      -7.499   7.322  62.305  1.00  0.00     0.000 HD 
HETATM   27  C   UNL     1      -8.350   8.238  66.038  1.00  0.00    -0.130 A  
HETATM   28  C   UNL     1      -7.483  10.645  68.659  1.00  0.00    -0.098 A  
HETATM   29  C   UNL     1      -9.165   9.372  66.217  1.00  0.00    -0.229 A  
HETATM   30  C   UNL     1      -9.689   9.724  67.583  1.00  0.00    -0.156 C  
HETATM   31  C   UNL     1      -6.625  10.513  69.752  1.00  0.00    -0.112 A  
HETATM   32  C   UNL     1      -6.900   9.588  70.774  1.00  0.00    -0.105 A  
HETATM   33  O   UNL     1     -10.482   8.608  68.066  1.00  0.00    -0.223 OA 
HETATM   34  C   UNL     1      -8.037   8.781  70.718  1.00  0.00    -0.156 A  
HETATM   35  O   UNL     1     -10.665   7.416  70.029  1.00  0.00    -0.237 OA 
HETATM   36  C   UNL     1     -10.085   8.199  69.305  1.00  0.00    -0.202 C  
HETATM   37  C   UNL     1      -8.859   8.919  69.616  1.00  0.00    -0.142 A  
BRANCH  23  38
HETATM   38  C   UNL     1      -7.257   6.445  64.698  1.00  0.00    -0.064 C  
BRANCH  38  39
HETATM   39  N   UNL     1      -7.747   5.357  65.600  1.00  0.00    -0.089 NA 
BRANCH  39  40
HETATM   40  C   UNL     1      -7.839   5.912  66.992  1.00  0.00    -0.102 C  
HETATM   41  O   UNL     1      -7.596   4.739  69.114  1.00  0.00    -0.056 OA 
HETATM   42  C   UNL     1      -7.150   5.005  68.006  1.00  0.00    -0.062 C  
HETATM   43  O   UNL     1      -5.964   4.530  67.549  1.00  0.00    -0.022 OA 
ENDBRANCH  39  40
BRANCH  39  44
HETATM   44  C   UNL     1      -9.156   5.006  65.167  1.00  0.00    -0.123 C  
HETATM   45  C   UNL     1      -9.223   3.722  64.343  1.00  0.00    -0.142 C  
HETATM   46  O   UNL     1     -10.092   3.484  63.518  1.00  0.00    -0.156 OA 
HETATM   47  O   UNL     1      -8.243   2.833  64.657  1.00  0.00    -0.085 OA 
ENDBRANCH  39  44
ENDBRANCH  38  39
ENDBRANCH  23  38
ENDBRANCH  10  11
ENDBRANCH   5  10
ENDBRANCH   4   5
TORSDOF 8
ENDMDL
MODEL       80
REMARK 921   NORMALIZED FREE ENERGY PREDICTED BY IDOCK:   -5.06 KCAL/MOL
REMARK 922        TOTAL FREE ENERGY PREDICTED BY IDOCK:   -9.70 KCAL/MOL
REMARK 923 INTER-LIGAND FREE ENERGY PREDICTED BY IDOCK:   -9.15 KCAL/MOL
REMARK 924 INTRA-LIGAND FREE ENERGY PREDICTED BY IDOCK:   -0.55 KCAL/MOL
REMARK 927      BINDING AFFINITY PREDICTED BY RF-SCORE:    0.00 PKD
ROOT
HETATM    1  O   UNL     1      -7.245  15.368  69.690  1.00  0.00    -0.190 OA 
HETATM    2  C   UNL     1      -6.359  16.090  68.968  1.00  0.00    -0.140 C  
HETATM    3  O   UNL     1      -5.275  16.437  69.412  1.00  0.00    -0.123 OA 
HETATM    4  C   UNL     1      -6.820  16.357  67.540  1.00  0.00    -0.152 C  
ENDROOT
BRANCH   4   5
HETATM    5  N   UNL     1      -8.323  16.515  67.396  1.00  0.00    -0.166 NA 
BRANCH   5   6
HETATM    6  C   UNL     1      -8.561  17.697  66.481  1.00  0.00    -0.259 C  
HETATM    7  O   UNL     1      -9.900  18.551  68.306  1.00  0.00    -0.324 OA 
HETATM    8  C   UNL     1      -9.608  18.685  66.993  1.00  0.00    -0.304 C  
HETATM    9  O   UNL     1     -10.096  19.565  66.299  1.00  0.00    -0.395 OA 
ENDBRANCH   5   6
BRANCH   5  10
HETATM   10  C   UNL     1      -8.801  15.261  66.688  1.00  0.00    -0.293 C  
BRANCH  10  11
HETATM   11  C   UNL     1      -9.727  14.398  67.532  1.00  0.00    -0.215 A  
HETATM   12  C   UNL     1      -9.281  13.155  67.983  1.00  0.00    -0.211 A  
HETATM   13  C   UNL     1     -10.129  12.263  68.674  1.00  0.00    -0.153 A  
HETATM   14  C   UNL     1     -11.403  12.678  69.051  1.00  0.00    -0.292 A  
HETATM   15  C   UNL     1     -11.854  13.942  68.650  1.00  0.00    -0.407 A  
HETATM   16  O   UNL     1     -12.257  11.905  69.813  1.00  0.00    -0.251 OA 
HETATM   17  C   UNL     1     -11.855  10.641  70.201  1.00  0.00    -0.337 A  
HETATM   18  C   UNL     1     -11.027  14.777  67.879  1.00  0.00    -0.278 A  
HETATM   19  O   UNL     1     -11.488  15.984  67.439  1.00  0.00    -0.083 OA 
HETATM   20  C   UNL     1     -12.698   9.925  71.064  1.00  0.00    -0.425 A  
HETATM   21  C   UNL     1     -12.355   8.626  71.484  1.00  0.00    -0.324 A  
HETATM   22  H   UNL     1     -12.372  16.242  67.675  1.00  0.00     0.000 HD 
HETATM   23  C   UNL     1     -11.194   8.003  71.020  1.00  0.00    -0.287 A  
HETATM   24  O   UNL     1     -13.148   7.954  72.372  1.00  0.00    -0.519 OA 
HETATM   25  C   UNL     1      -9.280  10.136  67.692  1.00  0.00    -0.151 A  
HETATM   26  H   UNL     1     -12.917   7.077  72.655  1.00  0.00     0.000 HD 
HETATM   27  C   UNL     1     -10.374   8.733  70.147  1.00  0.00    -0.225 A  
HETATM   28  C   UNL     1     -10.042   9.682  66.625  1.00  0.00    -0.307 A  
HETATM   29  C   UNL     1     -10.667  10.057  69.769  1.00  0.00    -0.304 A  
HETATM   30  C   UNL     1      -9.686  10.847  68.945  1.00  0.00    -0.187 C  
HETATM   31  C   UNL     1      -9.382   9.034  65.579  1.00  0.00    -0.255 A  
HETATM   32  C   UNL     1      -7.987   8.865  65.604  1.00  0.00    -0.098 A  
HETATM   33  O   UNL     1      -8.438  10.931  69.685  1.00  0.00     0.084 OA 
HETATM   34  C   UNL     1      -7.231   9.340  66.676  1.00  0.00    -0.082 A  
HETATM   35  O   UNL     1      -6.200  10.650  69.219  1.00  0.00    -0.044 OA 
HETATM   36  C   UNL     1      -7.374  10.526  68.935  1.00  0.00    -0.098 C  
HETATM   37  C   UNL     1      -7.911   9.959  67.707  1.00  0.00    -0.105 A  
BRANCH  23  38
HETATM   38  C   UNL     1     -10.658   6.673  71.520  1.00  0.00    -0.222 C  
BRANCH  38  39
HETATM   39  N   UNL     1      -9.254   6.304  71.162  1.00  0.00    -0.153 NA 
BRANCH  39  40
HETATM   40  C   UNL     1      -9.247   5.813  69.743  1.00  0.00    -0.140 C  
HETATM   41  O   UNL     1      -7.459   4.684  68.534  1.00  0.00    -0.064 OA 
HETATM   42  C   UNL     1      -8.180   4.747  69.521  1.00  0.00    -0.076 C  
HETATM   43  O   UNL     1      -8.124   3.854  70.541  1.00  0.00    -0.054 OA 
ENDBRANCH  39  40
BRANCH  39  44
HETATM   44  C   UNL     1      -8.426   7.572  71.198  1.00  0.00    -0.117 C  
HETATM   45  C   UNL     1      -7.426   7.597  72.352  1.00  0.00    -0.079 C  
HETATM   46  O   UNL     1      -7.007   8.622  72.870  1.00  0.00    -0.269 OA 
HETATM   47  O   UNL     1      -7.001   6.360  72.720  1.00  0.00    -0.073 OA 
ENDBRANCH  39  44
ENDBRANCH  38  39
ENDBRANCH  23  38
ENDBRANCH  10  11
ENDBRANCH   5  10
ENDBRANCH   4   5
TORSDOF 8
ENDMDL
MODEL       81
REMARK 921   NORMALIZED FREE ENERGY PREDICTED BY IDOCK:   -5.06 KCAL/MOL
REMARK 922        TOTAL FREE ENERGY PREDICTED BY IDOCK:   -9.69 KCAL/MOL
REMARK 923 INTER-LIGAND FREE ENERGY PREDICTED BY IDOCK:   -9.53 KCAL/MOL
REMARK 924 INTRA-LIGAND FREE ENERGY PREDICTED BY IDOCK:   -0.17 KCAL/MOL
REMARK 927      BINDING AFFINITY PREDICTED BY RF-SCORE:    0.00 PKD
ROOT
HETATM    1  O   UNL     1      -6.847   1.549  69.489  1.00  0.00    -0.032 OA 
HETATM    2  C   UNL     1      -7.511   2.354  70.349  1.00  0.00    -0.039 C  
HETATM    3  O   UNL     1      -7.974   1.950  71.406  1.00  0.00    -0.040 OA 
HETATM    4  C   UNL     1      -7.555   3.811  69.901  1.00  0.00    -0.048 C  
ENDROOT
BRANCH   4   5
HETATM    5  N   UNL     1      -7.610   3.990  68.395  1.00  0.00    -0.065 NA 
BRANCH   5   6
HETATM    6  C   UNL     1      -9.048   4.298  68.035  1.00  0.00    -0.131 C  
HETATM    7  O   UNL     1      -8.659   2.816  66.163  1.00  0.00    -0.105 OA 
HETATM    8  C   UNL     1      -9.482   3.759  66.673  1.00  0.00    -0.192 C  
HETATM    9  O   UNL     1     -10.517   4.098  66.117  1.00  0.00    -0.070 OA 
ENDBRANCH   5   6
BRANCH   5  10
HETATM   10  C   UNL     1      -6.772   5.221  68.098  1.00  0.00    -0.055 C  
BRANCH  10  11
HETATM   11  C   UNL     1      -7.590   6.426  67.658  1.00  0.00    -0.101 A  
HETATM   12  C   UNL     1      -8.074   7.312  68.621  1.00  0.00    -0.125 A  
HETATM   13  C   UNL     1      -8.931   8.384  68.287  1.00  0.00    -0.139 A  
HETATM   14  C   UNL     1      -9.191   8.663  66.949  1.00  0.00    -0.159 A  
HETATM   15  C   UNL     1      -8.674   7.814  65.962  1.00  0.00    -0.184 A  
HETATM   16  O   UNL     1      -9.935   9.750  66.534  1.00  0.00    -0.209 OA 
HETATM   17  C   UNL     1     -10.484  10.592  67.482  1.00  0.00    -0.239 A  
HETATM   18  C   UNL     1      -7.903   6.697  66.323  1.00  0.00    -0.105 A  
HETATM   19  O   UNL     1      -7.449   5.836  65.365  1.00  0.00    -0.074 OA 
HETATM   20  C   UNL     1     -11.141  11.745  67.028  1.00  0.00    -0.358 A  
HETATM   21  C   UNL     1     -11.736  12.635  67.942  1.00  0.00    -0.358 A  
HETATM   22  H   UNL     1      -7.662   6.020  64.457  1.00  0.00     0.000 HD 
HETATM   23  C   UNL     1     -11.725  12.373  69.313  1.00  0.00    -0.386 A  
HETATM   24  O   UNL     1     -12.324  13.789  67.501  1.00  0.00    -0.425 OA 
HETATM   25  C   UNL     1     -10.397   8.305  70.300  1.00  0.00    -0.211 A  
HETATM   26  H   UNL     1     -12.725  14.390  68.118  1.00  0.00     0.000 HD 
HETATM   27  C   UNL     1     -11.075  11.207  69.742  1.00  0.00    -0.271 A  
HETATM   28  C   UNL     1     -11.572   7.596  70.096  1.00  0.00    -0.005 A  
HETATM   29  C   UNL     1     -10.417  10.339  68.849  1.00  0.00    -0.231 A  
HETATM   30  C   UNL     1      -9.613   9.178  69.371  1.00  0.00    -0.165 C  
HETATM   31  C   UNL     1     -12.086   6.860  71.165  1.00  0.00    -0.428 A  
HETATM   32  C   UNL     1     -11.421   6.831  72.403  1.00  0.00    -0.302 A  
HETATM   33  O   UNL     1      -8.566   9.703  70.230  1.00  0.00    -0.203 OA 
HETATM   34  C   UNL     1     -10.233   7.537  72.591  1.00  0.00    -0.297 A  
HETATM   35  O   UNL     1      -7.704   9.201  72.307  1.00  0.00    -0.304 OA 
HETATM   36  C   UNL     1      -8.561   9.100  71.453  1.00  0.00     0.008 C  
HETATM   37  C   UNL     1      -9.756   8.271  71.522  1.00  0.00    -0.251 A  
BRANCH  23  38
HETATM   38  C   UNL     1     -12.204  13.332  70.389  1.00  0.00    -0.332 C  
BRANCH  38  39
HETATM   39  N   UNL     1     -12.116  14.799  70.111  1.00  0.00    -0.307 NA 
BRANCH  39  40
HETATM   40  C   UNL     1     -13.044  15.509  71.053  1.00  0.00    -0.489 C  
HETATM   41  O   UNL     1     -13.759  14.833  73.281  1.00  0.00    -0.454 OA 
HETATM   42  C   UNL     1     -12.848  15.047  72.492  1.00  0.00    -0.357 C  
HETATM   43  O   UNL     1     -11.537  14.912  72.815  1.00  0.00    -0.257 OA 
ENDBRANCH  39  40
BRANCH  39  44
HETATM   44  C   UNL     1     -10.708  15.244  70.453  1.00  0.00    -0.240 C  
HETATM   45  C   UNL     1      -9.944  15.780  69.244  1.00  0.00    -0.262 C  
HETATM   46  O   UNL     1      -8.726  15.753  69.139  1.00  0.00    -0.222 OA 
HETATM   47  O   UNL     1     -10.751  16.346  68.308  1.00  0.00    -0.306 OA 
ENDBRANCH  39  44
ENDBRANCH  38  39
ENDBRANCH  23  38
ENDBRANCH  10  11
ENDBRANCH   5  10
ENDBRANCH   4   5
TORSDOF 8
ENDMDL
MODEL       82
REMARK 921   NORMALIZED FREE ENERGY PREDICTED BY IDOCK:   -5.05 KCAL/MOL
REMARK 922        TOTAL FREE ENERGY PREDICTED BY IDOCK:   -9.69 KCAL/MOL
REMARK 923 INTER-LIGAND FREE ENERGY PREDICTED BY IDOCK:   -9.27 KCAL/MOL
REMARK 924 INTRA-LIGAND FREE ENERGY PREDICTED BY IDOCK:   -0.41 KCAL/MOL
REMARK 927      BINDING AFFINITY PREDICTED BY RF-SCORE:    0.00 PKD
ROOT
HETATM    1  O   UNL     1     -11.229  16.325  70.857  1.00  0.00    -0.355 OA 
HETATM    2  C   UNL     1     -11.807  15.597  69.874  1.00  0.00    -0.360 C  
HETATM    3  O   UNL     1     -12.536  14.644  70.103  1.00  0.00    -0.335 OA 
HETATM    4  C   UNL     1     -11.515  16.132  68.477  1.00  0.00    -0.324 C  
ENDROOT
BRANCH   4   5
HETATM    5  N   UNL     1     -10.144  16.767  68.334  1.00  0.00    -0.270 NA 
BRANCH   5   6
HETATM    6  C   UNL     1     -10.261  18.195  68.825  1.00  0.00    -0.337 C  
HETATM    7  O   UNL     1     -10.474  18.745  66.479  1.00  0.00    -0.396 OA 
HETATM    8  C   UNL     1     -10.243  19.243  67.714  1.00  0.00    -0.408 C  
HETATM    9  O   UNL     1     -10.097  20.438  67.922  1.00  0.00    -0.383 OA 
ENDBRANCH   5   6
BRANCH   5  10
HETATM   10  C   UNL     1      -9.239  16.009  69.289  1.00  0.00    -0.243 C  
BRANCH  10  11
HETATM   11  C   UNL     1      -8.329  15.004  68.599  1.00  0.00    -0.166 A  
HETATM   12  C   UNL     1      -8.887  13.873  68.002  1.00  0.00    -0.184 A  
HETATM   13  C   UNL     1      -8.088  12.850  67.445  1.00  0.00    -0.181 A  
HETATM   14  C   UNL     1      -6.712  13.029  67.351  1.00  0.00    -0.115 A  
HETATM   15  C   UNL     1      -6.135  14.181  67.900  1.00  0.00    -0.154 A  
HETATM   16  O   UNL     1      -5.872  12.124  66.732  1.00  0.00    -0.265 OA 
HETATM   17  C   UNL     1      -6.404  10.963  66.205  1.00  0.00    -0.123 A  
HETATM   18  C   UNL     1      -6.940  15.141  68.536  1.00  0.00    -0.105 A  
HETATM   19  O   UNL     1      -6.371  16.235  69.123  1.00  0.00    -0.146 OA 
HETATM   20  C   UNL     1      -5.543  10.118  65.488  1.00  0.00    -0.077 A  
HETATM   21  C   UNL     1      -6.019   8.912  64.940  1.00  0.00    -0.064 A  
HETATM   22  H   UNL     1      -5.426  16.328  69.081  1.00  0.00     0.000 HD 
HETATM   23  C   UNL     1      -7.342   8.507  65.131  1.00  0.00    -0.081 A  
HETATM   24  O   UNL     1      -5.194   8.120  64.191  1.00  0.00    -0.039 OA 
HETATM   25  C   UNL     1      -9.484  10.901  68.125  1.00  0.00    -0.167 A  
HETATM   26  H   UNL     1      -5.515   7.305  63.821  1.00  0.00     0.000 HD 
HETATM   27  C   UNL     1      -8.179   9.361  65.863  1.00  0.00    -0.115 A  
HETATM   28  C   UNL     1      -9.049  10.296  69.295  1.00  0.00    -0.206 A  
HETATM   29  C   UNL     1      -7.739  10.602  66.362  1.00  0.00    -0.141 A  
HETATM   30  C   UNL     1      -8.712  11.546  67.017  1.00  0.00    -0.169 C  
HETATM   31  C   UNL     1     -10.013   9.765  70.154  1.00  0.00    -0.315 A  
HETATM   32  C   UNL     1     -11.381   9.857  69.845  1.00  0.00    -0.273 A  
HETATM   33  O   UNL     1      -9.747  11.872  66.051  1.00  0.00    -0.228 OA 
HETATM   34  C   UNL     1     -11.806  10.481  68.671  1.00  0.00    -0.047 A  
HETATM   35  O   UNL     1     -12.046  12.001  66.050  1.00  0.00    -0.561 OA 
HETATM   36  C   UNL     1     -10.996  11.658  66.552  1.00  0.00    -0.299 C  
HETATM   37  C   UNL     1     -10.831  10.981  67.830  1.00  0.00    -0.285 A  
BRANCH  23  38
HETATM   38  C   UNL     1      -7.992   7.307  64.464  1.00  0.00    -0.112 C  
BRANCH  38  39
HETATM   39  N   UNL     1      -8.453   6.184  65.338  1.00  0.00    -0.150 NA 
BRANCH  39  40
HETATM   40  C   UNL     1      -8.736   4.997  64.462  1.00  0.00    -0.132 C  
HETATM   41  O   UNL     1      -9.515   2.782  65.109  1.00  0.00    -0.140 OA 
HETATM   42  C   UNL     1      -9.657   3.997  65.150  1.00  0.00    -0.181 C  
HETATM   43  O   UNL     1     -10.677   4.604  65.808  1.00  0.00    -0.310 OA 
ENDBRANCH  39  40
BRANCH  39  44
HETATM   44  C   UNL     1      -7.296   5.804  66.240  1.00  0.00    -0.078 C  
HETATM   45  C   UNL     1      -7.525   6.199  67.698  1.00  0.00    -0.088 C  
HETATM   46  O   UNL     1      -6.626   6.437  68.491  1.00  0.00    -0.050 OA 
HETATM   47  O   UNL     1      -8.838   6.209  68.050  1.00  0.00    -0.114 OA 
ENDBRANCH  39  44
ENDBRANCH  38  39
ENDBRANCH  23  38
ENDBRANCH  10  11
ENDBRANCH   5  10
ENDBRANCH   4   5
TORSDOF 8
ENDMDL
MODEL       83
REMARK 921   NORMALIZED FREE ENERGY PREDICTED BY IDOCK:   -5.04 KCAL/MOL
REMARK 922        TOTAL FREE ENERGY PREDICTED BY IDOCK:   -9.66 KCAL/MOL
REMARK 923 INTER-LIGAND FREE ENERGY PREDICTED BY IDOCK:   -8.59 KCAL/MOL
REMARK 924 INTRA-LIGAND FREE ENERGY PREDICTED BY IDOCK:   -1.07 KCAL/MOL
REMARK 927      BINDING AFFINITY PREDICTED BY RF-SCORE:    0.00 PKD
ROOT
HETATM    1  O   UNL     1      -9.908  15.026  69.193  1.00  0.00    -0.220 OA 
HETATM    2  C   UNL     1      -8.984  15.507  68.331  1.00  0.00    -0.189 C  
HETATM    3  O   UNL     1      -8.243  16.437  68.611  1.00  0.00    -0.199 OA 
HETATM    4  C   UNL     1      -8.917  14.728  67.022  1.00  0.00    -0.238 C  
ENDROOT
BRANCH   4   5
HETATM    5  N   UNL     1     -10.254  14.167  66.570  1.00  0.00    -0.272 NA 
BRANCH   5   6
HETATM    6  C   UNL     1     -10.534  14.738  65.196  1.00  0.00    -0.418 C  
HETATM    7  O   UNL     1     -12.859  14.436  65.794  1.00  0.00    -0.389 OA 
HETATM    8  C   UNL     1     -12.001  14.665  64.775  1.00  0.00    -0.433 C  
HETATM    9  O   UNL     1     -12.380  14.861  63.630  1.00  0.00    -0.608 OA 
ENDBRANCH   5   6
BRANCH   5  10
HETATM   10  C   UNL     1     -10.044  12.670  66.429  1.00  0.00    -0.253 C  
BRANCH  10  11
HETATM   11  C   UNL     1     -10.458  11.877  67.659  1.00  0.00    -0.232 A  
HETATM   12  C   UNL     1      -9.567  10.957  68.212  1.00  0.00    -0.169 A  
HETATM   13  C   UNL     1      -9.933  10.113  69.283  1.00  0.00    -0.234 A  
HETATM   14  C   UNL     1     -11.162  10.292  69.910  1.00  0.00    -0.299 A  
HETATM   15  C   UNL     1     -12.053  11.245  69.402  1.00  0.00    -0.384 A  
HETATM   16  O   UNL     1     -11.555   9.577  71.024  1.00  0.00    -0.291 OA 
HETATM   17  C   UNL     1     -10.711   8.609  71.534  1.00  0.00    -0.282 A  
HETATM   18  C   UNL     1     -11.706  12.009  68.274  1.00  0.00    -0.334 A  
HETATM   19  O   UNL     1     -12.598  12.896  67.743  1.00  0.00     0.122 OA 
HETATM   20  C   UNL     1     -11.090   7.977  72.729  1.00  0.00    -0.448 A  
HETATM   21  C   UNL     1     -10.283   6.971  73.292  1.00  0.00    -0.275 A  
HETATM   22  H   UNL     1     -13.447  12.985  68.162  1.00  0.00     0.000 HD 
HETATM   23  C   UNL     1      -9.114   6.546  72.658  1.00  0.00    -0.134 A  
HETATM   24  O   UNL     1     -10.624   6.399  74.487  1.00  0.00    -0.368 OA 
HETATM   25  C   UNL     1      -8.701   8.071  68.560  1.00  0.00    -0.131 A  
HETATM   26  H   UNL     1     -10.080   5.720  74.867  1.00  0.00     0.000 HD 
HETATM   27  C   UNL     1      -8.763   7.182  71.458  1.00  0.00    -0.119 A  
HETATM   28  C   UNL     1      -9.495   7.166  67.870  1.00  0.00    -0.135 A  
HETATM   29  C   UNL     1      -9.522   8.236  70.914  1.00  0.00    -0.192 A  
HETATM   30  C   UNL     1      -9.029   8.981  69.702  1.00  0.00    -0.153 C  
HETATM   31  C   UNL     1      -8.906   6.435  66.835  1.00  0.00    -0.119 A  
HETATM   32  C   UNL     1      -7.555   6.625  66.500  1.00  0.00    -0.090 A  
HETATM   33  O   UNL     1      -7.741   9.569  70.025  1.00  0.00    -0.105 OA 
HETATM   34  C   UNL     1      -6.771   7.549  67.193  1.00  0.00    -0.067 A  
HETATM   35  O   UNL     1      -5.677   9.724  69.014  1.00  0.00    -0.036 OA 
HETATM   36  C   UNL     1      -6.788   9.243  69.106  1.00  0.00    -0.050 C  
HETATM   37  C   UNL     1      -7.373   8.245  68.223  1.00  0.00    -0.095 A  
BRANCH  23  38
HETATM   38  C   UNL     1      -8.102   5.580  73.248  1.00  0.00    -0.114 C  
BRANCH  38  39
HETATM   39  N   UNL     1      -8.132   4.160  72.780  1.00  0.00    -0.091 NA 
BRANCH  39  40
HETATM   40  C   UNL     1      -9.548   3.668  72.870  1.00  0.00    -0.126 C  
HETATM   41  O   UNL     1     -10.441   1.486  72.259  1.00  0.00    -0.154 OA 
HETATM   42  C   UNL     1      -9.616   2.146  72.877  1.00  0.00    -0.085 C  
HETATM   43  O   UNL     1      -8.661   1.591  73.665  1.00  0.00    -0.052 OA 
ENDBRANCH  39  40
BRANCH  39  44
HETATM   44  C   UNL     1      -7.753   4.156  71.313  1.00  0.00    -0.070 C  
HETATM   45  C   UNL     1      -6.613   3.191  70.996  1.00  0.00    -0.031 C  
HETATM   46  O   UNL     1      -5.839   3.331  70.061  1.00  0.00    -0.017 OA 
HETATM   47  O   UNL     1      -6.571   2.118  71.831  1.00  0.00    -0.014 OA 
ENDBRANCH  39  44
ENDBRANCH  38  39
ENDBRANCH  23  38
ENDBRANCH  10  11
ENDBRANCH   5  10
ENDBRANCH   4   5
TORSDOF 8
ENDMDL
MODEL       84
REMARK 921   NORMALIZED FREE ENERGY PREDICTED BY IDOCK:   -5.02 KCAL/MOL
REMARK 922        TOTAL FREE ENERGY PREDICTED BY IDOCK:   -9.63 KCAL/MOL
REMARK 923 INTER-LIGAND FREE ENERGY PREDICTED BY IDOCK:   -9.14 KCAL/MOL
REMARK 924 INTRA-LIGAND FREE ENERGY PREDICTED BY IDOCK:   -0.50 KCAL/MOL
REMARK 927      BINDING AFFINITY PREDICTED BY RF-SCORE:    0.00 PKD
ROOT
HETATM    1  O   UNL     1     -11.272  16.838  64.573  1.00  0.00    -0.997 OA 
HETATM    2  C   UNL     1     -10.643  17.488  65.579  1.00  0.00    -0.092 C  
HETATM    3  O   UNL     1     -10.064  18.552  65.416  1.00  0.00    -0.309 OA 
HETATM    4  C   UNL     1     -10.796  16.799  66.931  1.00  0.00    -0.033 C  
ENDROOT
BRANCH   4   5
HETATM    5  N   UNL     1     -10.868  15.285  66.846  1.00  0.00    -0.315 NA 
BRANCH   5   6
HETATM    6  C   UNL     1     -10.174  14.877  65.564  1.00  0.00    -0.374 C  
HETATM    7  O   UNL     1     -12.077  13.413  65.266  1.00  0.00    -0.367 OA 
HETATM    8  C   UNL     1     -10.821  13.690  64.852  1.00  0.00    -0.375 C  
HETATM    9  O   UNL     1     -10.281  13.079  63.941  1.00  0.00    -0.378 OA 
ENDBRANCH   5   6
BRANCH   5  10
HETATM   10  C   UNL     1     -10.049  14.769  68.015  1.00  0.00    -0.218 C  
BRANCH  10  11
HETATM   11  C   UNL     1     -10.415  13.356  68.442  1.00  0.00    -0.257 A  
HETATM   12  C   UNL     1      -9.529  12.311  68.180  1.00  0.00    -0.213 A  
HETATM   13  C   UNL     1      -9.859  10.965  68.449  1.00  0.00    -0.183 A  
HETATM   14  C   UNL     1     -11.037  10.670  69.129  1.00  0.00    -0.255 A  
HETATM   15  C   UNL     1     -11.920  11.710  69.445  1.00  0.00    -0.381 A  
HETATM   16  O   UNL     1     -11.387   9.392  69.519  1.00  0.00    -0.104 OA 
HETATM   17  C   UNL     1     -10.553   8.338  69.197  1.00  0.00    -0.165 A  
HETATM   18  C   UNL     1     -11.615  13.032  69.081  1.00  0.00    -0.316 A  
HETATM   19  O   UNL     1     -12.502  14.038  69.338  1.00  0.00    -0.454 OA 
HETATM   20  C   UNL     1     -10.880   7.070  69.701  1.00  0.00    -0.275 A  
HETATM   21  C   UNL     1     -10.081   5.952  69.396  1.00  0.00    -0.202 A  
HETATM   22  H   UNL     1     -13.319  13.818  69.772  1.00  0.00     0.000 HD 
HETATM   23  C   UNL     1      -8.972   6.068  68.554  1.00  0.00    -0.114 A  
HETATM   24  O   UNL     1     -10.367   4.729  69.937  1.00  0.00    -0.238 OA 
HETATM   25  C   UNL     1      -8.761   9.927  66.469  1.00  0.00    -0.139 A  
HETATM   26  H   UNL     1      -9.828   3.974  69.732  1.00  0.00     0.000 HD 
HETATM   27  C   UNL     1      -8.673   7.342  68.051  1.00  0.00    -0.127 A  
HETATM   28  C   UNL     1      -9.633   9.696  65.415  1.00  0.00    -0.361 A  
HETATM   29  C   UNL     1      -9.422   8.483  68.398  1.00  0.00    -0.141 A  
HETATM   30  C   UNL     1      -8.978   9.849  67.948  1.00  0.00    -0.128 C  
HETATM   31  C   UNL     1      -9.142   9.839  64.115  1.00  0.00    -0.289 A  
HETATM   32  C   UNL     1      -7.809  10.219  63.889  1.00  0.00    -0.115 A  
HETATM   33  O   UNL     1      -7.649  10.092  68.480  1.00  0.00    -0.084 OA 
HETATM   34  C   UNL     1      -6.945  10.462  64.958  1.00  0.00    -0.064 A  
HETATM   35  O   UNL     1      -5.649  10.901  67.673  1.00  0.00    -0.043 OA 
HETATM   36  C   UNL     1      -6.771  10.467  67.507  1.00  0.00    -0.070 C  
HETATM   37  C   UNL     1      -7.451  10.296  66.232  1.00  0.00    -0.118 A  
BRANCH  23  38
HETATM   38  C   UNL     1      -7.965   4.964  68.282  1.00  0.00    -0.086 C  
BRANCH  38  39
HETATM   39  N   UNL     1      -7.895   4.406  66.896  1.00  0.00    -0.097 NA 
BRANCH  39  40
HETATM   40  C   UNL     1      -9.151   3.623  66.643  1.00  0.00    -0.162 C  
HETATM   41  O   UNL     1      -9.963   2.688  64.546  1.00  0.00    -0.084 OA 
HETATM   42  C   UNL     1      -9.057   2.807  65.360  1.00  0.00    -0.145 C  
HETATM   43  O   UNL     1      -7.850   2.203  65.221  1.00  0.00    -0.075 OA 
ENDBRANCH  39  40
BRANCH  39  44
HETATM   44  C   UNL     1      -7.899   5.575  65.932  1.00  0.00    -0.104 C  
HETATM   45  C   UNL     1      -6.504   5.930  65.422  1.00  0.00    -0.042 C  
HETATM   46  O   UNL     1      -6.176   7.047  65.048  1.00  0.00    -0.036 OA 
HETATM   47  O   UNL     1      -5.664   4.863  65.373  1.00  0.00    -0.013 OA 
ENDBRANCH  39  44
ENDBRANCH  38  39
ENDBRANCH  23  38
ENDBRANCH  10  11
ENDBRANCH   5  10
ENDBRANCH   4   5
TORSDOF 8
ENDMDL
MODEL       85
REMARK 921   NORMALIZED FREE ENERGY PREDICTED BY IDOCK:   -4.94 KCAL/MOL
REMARK 922        TOTAL FREE ENERGY PREDICTED BY IDOCK:   -9.52 KCAL/MOL
REMARK 923 INTER-LIGAND FREE ENERGY PREDICTED BY IDOCK:   -9.65 KCAL/MOL
REMARK 924 INTRA-LIGAND FREE ENERGY PREDICTED BY IDOCK:    0.13 KCAL/MOL
REMARK 927      BINDING AFFINITY PREDICTED BY RF-SCORE:    0.00 PKD
ROOT
HETATM    1  O   UNL     1      -8.902   9.204  64.097  1.00  0.00    -0.185 OA 
HETATM    2  C   UNL     1      -8.706  10.474  63.675  1.00  0.00    -0.181 C  
HETATM    3  O   UNL     1      -7.672  10.835  63.133  1.00  0.00    -0.031 OA 
HETATM    4  C   UNL     1      -9.921  11.371  63.879  1.00  0.00    -0.315 C  
ENDROOT
BRANCH   4   5
HETATM    5  N   UNL     1     -10.740  11.029  65.111  1.00  0.00    -0.230 NA 
BRANCH   5   6
HETATM    6  C   UNL     1      -9.899  11.384  66.318  1.00  0.00    -0.218 C  
HETATM    7  O   UNL     1     -10.926   9.437  67.322  1.00  0.00    -0.183 OA 
HETATM    8  C   UNL     1     -10.216  10.560  67.566  1.00  0.00    -0.206 C  
HETATM    9  O   UNL     1      -9.811  10.851  68.682  1.00  0.00    -0.176 OA 
ENDBRANCH   5   6
BRANCH   5  10
HETATM   10  C   UNL     1     -11.940  11.960  65.076  1.00  0.00    -0.082 C  
BRANCH  10  11
HETATM   11  C   UNL     1     -11.568  13.434  65.046  1.00  0.00    -0.339 A  
HETATM   12  C   UNL     1     -10.789  13.964  66.075  1.00  0.00    -0.290 A  
HETATM   13  C   UNL     1     -10.504  15.345  66.162  1.00  0.00    -0.325 A  
HETATM   14  C   UNL     1     -10.881  16.190  65.124  1.00  0.00    -0.361 A  
HETATM   15  C   UNL     1     -11.623  15.670  64.055  1.00  0.00     0.079 A  
HETATM   16  O   UNL     1     -10.555  17.532  65.083  1.00  0.00    -0.657 OA 
HETATM   17  C   UNL     1      -9.849  18.085  66.135  1.00  0.00    -0.249 A  
HETATM   18  C   UNL     1     -11.977  14.310  64.037  1.00  0.00    -0.297 A  
HETATM   19  O   UNL     1     -12.750  13.815  63.026  1.00  0.00    -0.879 OA 
HETATM   20  C   UNL     1      -9.440  19.421  66.014  1.00  0.00    -0.251 A  
HETATM   21  C   UNL     1      -8.732  20.049  67.056  1.00  0.00    -0.336 A  
HETATM   22  H   UNL     1     -13.029  14.410  62.339  1.00  0.00     0.000 HD 
HETATM   23  C   UNL     1      -8.458  19.375  68.248  1.00  0.00    -0.376 A  
HETATM   24  O   UNL     1      -8.282  21.332  66.912  1.00  0.00    -0.500 OA 
HETATM   25  C   UNL     1     -10.625  15.575  68.640  1.00  0.00    -0.243 A  
HETATM   26  H   UNL     1      -7.804  21.756  67.615  1.00  0.00     0.000 HD 
HETATM   27  C   UNL     1      -8.890  18.045  68.352  1.00  0.00    -0.300 A  
HETATM   28  C   UNL     1     -11.857  16.029  69.090  1.00  0.00    -0.268 A  
HETATM   29  C   UNL     1      -9.541  17.379  67.295  1.00  0.00    -0.258 A  
HETATM   30  C   UNL     1      -9.857  15.911  67.400  1.00  0.00    -0.234 C  
HETATM   31  C   UNL     1     -12.329  15.538  70.309  1.00  0.00    -0.431 A  
HETATM   32  C   UNL     1     -11.582  14.603  71.045  1.00  0.00    -0.277 A  
HETATM   33  O   UNL     1      -8.610  15.192  67.590  1.00  0.00    -0.160 OA 
HETATM   34  C   UNL     1     -10.351  14.144  70.575  1.00  0.00     1.488 A  
HETATM   35  O   UNL     1      -7.842  13.520  68.975  1.00  0.00    -0.002 OA 
HETATM   36  C   UNL     1      -8.658  14.367  68.674  1.00  0.00    -0.161 C  
HETATM   37  C   UNL     1      -9.899  14.659  69.375  1.00  0.00    -0.008 A  
BRANCH  23  38
HETATM   38  C   UNL     1      -7.581  19.904  69.368  1.00  0.00     0.024 C  
BRANCH  38  39
HETATM   39  N   UNL     1      -6.229  20.436  69.009  1.00  0.00    -0.327 NA 
BRANCH  39  40
HETATM   40  C   UNL     1      -5.409  20.514  70.265  1.00  0.00    -0.308 C  
HETATM   41  O   UNL     1      -5.605  19.179  72.293  1.00  0.00    -0.425 OA 
HETATM   42  C   UNL     1      -5.496  19.226  71.075  1.00  0.00    -0.237 C  
HETATM   43  O   UNL     1      -5.423  18.119  70.293  1.00  0.00    -0.228 OA 
ENDBRANCH  39  40
BRANCH  39  44
HETATM   44  C   UNL     1      -5.564  19.417  68.107  1.00  0.00    -0.199 C  
HETATM   45  C   UNL     1      -5.341  19.936  66.688  1.00  0.00    -0.161 C  
HETATM   46  O   UNL     1      -5.276  19.219  65.700  1.00  0.00    -0.148 OA 
HETATM   47  O   UNL     1      -5.164  21.282  66.632  1.00  0.00    -0.199 OA 
ENDBRANCH  39  44
ENDBRANCH  38  39
ENDBRANCH  23  38
ENDBRANCH  10  11
ENDBRANCH   5  10
ENDBRANCH   4   5
TORSDOF 8
ENDMDL
MODEL       86
REMARK 921   NORMALIZED FREE ENERGY PREDICTED BY IDOCK:   -4.84 KCAL/MOL
REMARK 922        TOTAL FREE ENERGY PREDICTED BY IDOCK:   -9.37 KCAL/MOL
REMARK 923 INTER-LIGAND FREE ENERGY PREDICTED BY IDOCK:   -8.86 KCAL/MOL
REMARK 924 INTRA-LIGAND FREE ENERGY PREDICTED BY IDOCK:   -0.50 KCAL/MOL
REMARK 927      BINDING AFFINITY PREDICTED BY RF-SCORE:    0.00 PKD
ROOT
HETATM    1  O   UNL     1      -9.774  18.293  67.487  1.00  0.00    -0.288 OA 
HETATM    2  C   UNL     1      -9.898  17.212  66.684  1.00  0.00    -0.289 C  
HETATM    3  O   UNL     1     -10.278  17.291  65.525  1.00  0.00    -0.602 OA 
HETATM    4  C   UNL     1      -9.448  15.914  67.347  1.00  0.00    -0.219 C  
ENDROOT
BRANCH   4   5
HETATM    5  N   UNL     1      -9.706  15.865  68.842  1.00  0.00    -0.217 NA 
BRANCH   5   6
HETATM    6  C   UNL     1     -10.797  14.840  69.072  1.00  0.00    -0.245 C  
HETATM    7  O   UNL     1     -11.421  16.257  70.931  1.00  0.00    -0.406 OA 
HETATM    8  C   UNL     1     -11.576  15.037  70.372  1.00  0.00    -0.287 C  
HETATM    9  O   UNL     1     -12.327  14.193  70.837  1.00  0.00    -0.323 OA 
ENDBRANCH   5   6
BRANCH   5  10
HETATM   10  C   UNL     1      -8.423  15.341  69.461  1.00  0.00    -0.188 C  
BRANCH  10  11
HETATM   11  C   UNL     1      -7.743  14.259  68.635  1.00  0.00    -0.135 A  
HETATM   12  C   UNL     1      -8.459  13.114  68.287  1.00  0.00    -0.161 A  
HETATM   13  C   UNL     1      -7.852  12.028  67.619  1.00  0.00    -0.149 A  
HETATM   14  C   UNL     1      -6.544  12.147  67.160  1.00  0.00    -0.127 A  
HETATM   15  C   UNL     1      -5.821  13.310  67.457  1.00  0.00    -0.050 A  
HETATM   16  O   UNL     1      -5.911  11.173  66.413  1.00  0.00    -0.124 OA 
HETATM   17  C   UNL     1      -6.585  10.001  66.127  1.00  0.00    -0.088 A  
HETATM   18  C   UNL     1      -6.415  14.340  68.207  1.00  0.00    -0.116 A  
HETATM   19  O   UNL     1      -5.692  15.448  68.546  1.00  0.00    -0.090 OA 
HETATM   20  C   UNL     1      -5.956   9.079  65.276  1.00  0.00    -0.059 A  
HETATM   21  C   UNL     1      -6.581   7.859  64.958  1.00  0.00    -0.051 A  
HETATM   22  H   UNL     1      -4.789  15.502  68.255  1.00  0.00     0.000 HD 
HETATM   23  C   UNL     1      -7.817   7.517  65.513  1.00  0.00    -0.114 A  
HETATM   24  O   UNL     1      -5.994   6.989  64.082  1.00  0.00    -0.035 OA 
HETATM   25  C   UNL     1      -9.061  10.181  68.775  1.00  0.00    -0.153 A  
HETATM   26  H   UNL     1      -6.416   6.165  63.867  1.00  0.00     0.000 HD 
HETATM   27  C   UNL     1      -8.419   8.448  66.371  1.00  0.00    -0.127 A  
HETATM   28  C   UNL     1      -8.349   9.638  69.835  1.00  0.00    -0.195 A  
HETATM   29  C   UNL     1      -7.840   9.702  66.649  1.00  0.00    -0.105 A  
HETATM   30  C   UNL     1      -8.590  10.723  67.461  1.00  0.00    -0.125 C  
HETATM   31  C   UNL     1      -9.067   9.200  70.950  1.00  0.00    -0.316 A  
HETATM   32  C   UNL     1     -10.466   9.323  70.997  1.00  0.00    -0.384 A  
HETATM   33  O   UNL     1      -9.834  11.023  66.774  1.00  0.00    -0.189 OA 
HETATM   34  C   UNL     1     -11.169   9.885  69.931  1.00  0.00    -0.298 A  
HETATM   35  O   UNL     1     -12.052  11.239  67.356  1.00  0.00    -0.450 OA 
HETATM   36  C   UNL     1     -10.914  10.890  67.595  1.00  0.00    -0.293 C  
HETATM   37  C   UNL     1     -10.436  10.292  68.833  1.00  0.00    -0.231 A  
BRANCH  23  38
HETATM   38  C   UNL     1      -8.641   6.302  65.126  1.00  0.00    -0.023 C  
BRANCH  38  39
HETATM   39  N   UNL     1      -9.220   5.468  66.224  1.00  0.00    -0.151 NA 
BRANCH  39  40
HETATM   40  C   UNL     1     -10.395   6.206  66.800  1.00  0.00    -0.231 C  
HETATM   41  O   UNL     1     -11.359   6.022  69.030  1.00  0.00    -0.340 OA 
HETATM   42  C   UNL     1     -10.374   6.194  68.324  1.00  0.00    -0.198 C  
HETATM   43  O   UNL     1      -9.132   6.415  68.824  1.00  0.00    -0.126 OA 
ENDBRANCH  39  40
BRANCH  39  44
HETATM   44  C   UNL     1      -9.757   4.198  65.597  1.00  0.00    -0.204 C  
HETATM   45  C   UNL     1      -9.161   2.933  66.213  1.00  0.00    -0.132 C  
HETATM   46  O   UNL     1      -9.053   1.870  65.621  1.00  0.00    -0.122 OA 
HETATM   47  O   UNL     1      -8.806   3.088  67.516  1.00  0.00    -0.112 OA 
ENDBRANCH  39  44
ENDBRANCH  38  39
ENDBRANCH  23  38
ENDBRANCH  10  11
ENDBRANCH   5  10
ENDBRANCH   4   5
TORSDOF 8
ENDMDL
MODEL       87
REMARK 921   NORMALIZED FREE ENERGY PREDICTED BY IDOCK:   -4.82 KCAL/MOL
REMARK 922        TOTAL FREE ENERGY PREDICTED BY IDOCK:   -9.34 KCAL/MOL
REMARK 923 INTER-LIGAND FREE ENERGY PREDICTED BY IDOCK:   -7.33 KCAL/MOL
REMARK 924 INTRA-LIGAND FREE ENERGY PREDICTED BY IDOCK:   -2.01 KCAL/MOL
REMARK 927      BINDING AFFINITY PREDICTED BY RF-SCORE:    0.00 PKD
ROOT
HETATM    1  O   UNL     1     -10.858  19.658  66.138  1.00  0.00    -0.424 OA 
HETATM    2  C   UNL     1     -10.840  19.571  67.488  1.00  0.00    -0.370 C  
HETATM    3  O   UNL     1     -10.780  20.554  68.211  1.00  0.00    -0.011 OA 
HETATM    4  C   UNL     1     -10.973  18.142  68.002  1.00  0.00    -0.013 C  
ENDROOT
BRANCH   4   5
HETATM    5  N   UNL     1     -10.335  17.100  67.100  1.00  0.00    -0.309 NA 
BRANCH   5   6
HETATM    6  C   UNL     1      -9.026  16.696  67.743  1.00  0.00    -0.211 C  
HETATM    7  O   UNL     1      -8.022  18.107  66.053  1.00  0.00    -0.468 OA 
HETATM    8  C   UNL     1      -7.785  17.145  66.973  1.00  0.00    -0.189 C  
HETATM    9  O   UNL     1      -6.662  16.723  67.207  1.00  0.00    -0.142 OA 
ENDBRANCH   5   6
BRANCH   5  10
HETATM   10  C   UNL     1     -11.270  15.904  67.131  1.00  0.00    -0.060 C  
BRANCH  10  11
HETATM   11  C   UNL     1     -10.882  14.801  66.158  1.00  0.00    -0.321 A  
HETATM   12  C   UNL     1     -10.432  13.578  66.655  1.00  0.00    -0.274 A  
HETATM   13  C   UNL     1      -9.952  12.556  65.806  1.00  0.00    -0.272 A  
HETATM   14  C   UNL     1     -10.061  12.703  64.426  1.00  0.00    -0.256 A  
HETATM   15  C   UNL     1     -10.556  13.905  63.906  1.00  0.00     0.742 A  
HETATM   16  O   UNL     1      -9.709  11.713  63.530  1.00  0.00    -0.319 OA 
HETATM   17  C   UNL     1      -9.190  10.525  64.008  1.00  0.00    -0.253 A  
HETATM   18  C   UNL     1     -10.938  14.946  64.769  1.00  0.00    -0.375 A  
HETATM   19  O   UNL     1     -11.365  16.140  64.260  1.00  0.00    -0.961 OA 
HETATM   20  C   UNL     1      -8.945   9.501  63.081  1.00  0.00    -0.217 A  
HETATM   21  C   UNL     1      -8.402   8.272  63.502  1.00  0.00    -0.015 A  
HETATM   22  H   UNL     1     -11.403  16.238  63.316  1.00  0.00     0.000 HD 
HETATM   23  C   UNL     1      -8.054   8.058  64.837  1.00  0.00    -0.147 A  
HETATM   24  O   UNL     1      -8.220   7.254  62.606  1.00  0.00    -0.266 OA 
HETATM   25  C   UNL     1      -8.114  11.718  67.263  1.00  0.00    -0.164 A  
HETATM   26  H   UNL     1      -7.853   6.425  62.890  1.00  0.00     0.000 HD 
HETATM   27  C   UNL     1      -8.295   9.101  65.742  1.00  0.00    -0.131 A  
HETATM   28  C   UNL     1      -6.874  12.255  66.947  1.00  0.00     0.056 A  
HETATM   29  C   UNL     1      -8.899  10.312  65.353  1.00  0.00    -0.192 A  
HETATM   30  C   UNL     1      -9.267  11.345  66.385  1.00  0.00    -0.197 C  
HETATM   31  C   UNL     1      -5.980  12.496  67.992  1.00  0.00    -0.081 A  
HETATM   32  C   UNL     1      -6.336  12.216  69.322  1.00  0.00    -0.103 A  
HETATM   33  O   UNL     1     -10.200  10.739  67.318  1.00  0.00    -0.189 OA 
HETATM   34  C   UNL     1      -7.592  11.689  69.628  1.00  0.00     0.513 A  
HETATM   35  O   UNL     1     -10.448  10.648  69.606  1.00  0.00    -0.228 OA 
HETATM   36  C   UNL     1      -9.796  10.890  68.612  1.00  0.00    -0.190 C  
HETATM   37  C   UNL     1      -8.450  11.443  68.574  1.00  0.00    -0.152 A  
BRANCH  23  38
HETATM   38  C   UNL     1      -7.602   6.730  65.419  1.00  0.00    -0.090 C  
BRANCH  38  39
HETATM   39  N   UNL     1      -8.130   6.337  66.762  1.00  0.00    -0.108 NA 
BRANCH  39  40
HETATM   40  C   UNL     1      -8.502   4.883  66.711  1.00  0.00    -0.106 C  
HETATM   41  O   UNL     1      -9.492   3.506  68.459  1.00  0.00    -0.168 OA 
HETATM   42  C   UNL     1      -9.524   4.526  67.784  1.00  0.00    -0.156 C  
HETATM   43  O   UNL     1     -10.497   5.465  67.902  1.00  0.00    -0.188 OA 
ENDBRANCH  39  40
BRANCH  39  44
HETATM   44  C   UNL     1      -6.993   6.470  67.755  1.00  0.00    -0.082 C  
HETATM   45  C   UNL     1      -7.149   7.677  68.679  1.00  0.00    -0.080 C  
HETATM   46  O   UNL     1      -6.212   8.259  69.206  1.00  0.00    -0.037 OA 
HETATM   47  O   UNL     1      -8.446   8.013  68.906  1.00  0.00    -0.128 OA 
ENDBRANCH  39  44
ENDBRANCH  38  39
ENDBRANCH  23  38
ENDBRANCH  10  11
ENDBRANCH   5  10
ENDBRANCH   4   5
TORSDOF 8
ENDMDL
MODEL       88
REMARK 921   NORMALIZED FREE ENERGY PREDICTED BY IDOCK:   -4.81 KCAL/MOL
REMARK 922        TOTAL FREE ENERGY PREDICTED BY IDOCK:   -9.33 KCAL/MOL
REMARK 923 INTER-LIGAND FREE ENERGY PREDICTED BY IDOCK:   -8.71 KCAL/MOL
REMARK 924 INTRA-LIGAND FREE ENERGY PREDICTED BY IDOCK:   -0.62 KCAL/MOL
REMARK 927      BINDING AFFINITY PREDICTED BY RF-SCORE:    0.00 PKD
ROOT
HETATM    1  O   UNL     1      -5.177   3.031  71.472  1.00  0.00    -0.003 OA 
HETATM    2  C   UNL     1      -6.188   3.830  71.885  1.00  0.00    -0.014 C  
HETATM    3  O   UNL     1      -6.580   3.850  73.042  1.00  0.00    -0.033 OA 
HETATM    4  C   UNL     1      -6.725   4.740  70.787  1.00  0.00    -0.036 C  
ENDROOT
BRANCH   4   5
HETATM    5  N   UNL     1      -6.674   4.128  69.399  1.00  0.00    -0.043 NA 
BRANCH   5   6
HETATM    6  C   UNL     1      -8.077   4.187  68.834  1.00  0.00    -0.071 C  
HETATM    7  O   UNL     1      -7.837   1.791  68.595  1.00  0.00    -0.046 OA 
HETATM    8  C   UNL     1      -8.565   2.870  68.232  1.00  0.00    -0.088 C  
HETATM    9  O   UNL     1      -9.565   2.782  67.533  1.00  0.00    -0.154 OA 
ENDBRANCH   5   6
BRANCH   5  10
HETATM   10  C   UNL     1      -5.791   5.050  68.576  1.00  0.00    -0.021 C  
BRANCH  10  11
HETATM   11  C   UNL     1      -6.563   5.915  67.592  1.00  0.00    -0.056 A  
HETATM   12  C   UNL     1      -7.083   7.138  68.018  1.00  0.00    -0.085 A  
HETATM   13  C   UNL     1      -7.901   7.933  67.186  1.00  0.00    -0.109 A  
HETATM   14  C   UNL     1      -8.082   7.572  65.854  1.00  0.00    -0.127 A  
HETATM   15  C   UNL     1      -7.528   6.372  65.392  1.00  0.00    -0.084 A  
HETATM   16  O   UNL     1      -8.783   8.345  64.949  1.00  0.00    -0.134 OA 
HETATM   17  C   UNL     1      -9.369   9.520  65.379  1.00  0.00    -0.261 A  
HETATM   18  C   UNL     1      -6.797   5.548  66.264  1.00  0.00    -0.059 A  
HETATM   19  O   UNL     1      -6.306   4.350  65.828  1.00  0.00    -0.034 OA 
HETATM   20  C   UNL     1      -9.980  10.336  64.415  1.00  0.00    -0.331 A  
HETATM   21  C   UNL     1     -10.608  11.538  64.789  1.00  0.00    -0.305 A  
HETATM   22  H   UNL     1      -6.465   4.100  64.925  1.00  0.00     0.000 HD 
HETATM   23  C   UNL     1     -10.677  11.927  66.129  1.00  0.00    -0.318 A  
HETATM   24  O   UNL     1     -11.150  12.360  63.840  1.00  0.00    -0.347 OA 
HETATM   25  C   UNL     1      -9.477   8.763  68.928  1.00  0.00    -0.145 A  
HETATM   26  H   UNL     1     -11.574  13.172  64.093  1.00  0.00     0.000 HD 
HETATM   27  C   UNL     1     -10.072  11.089  67.076  1.00  0.00    -0.232 A  
HETATM   28  C   UNL     1     -10.651   8.028  69.001  1.00  0.00    -0.169 A  
HETATM   29  C   UNL     1      -9.381   9.917  66.714  1.00  0.00    -0.187 A  
HETATM   30  C   UNL     1      -8.628   9.127  67.750  1.00  0.00    -0.121 C  
HETATM   31  C   UNL     1     -11.236   7.853  70.257  1.00  0.00    -0.206 A  
HETATM   32  C   UNL     1     -10.641   8.396  71.409  1.00  0.00    -0.296 A  
HETATM   33  O   UNL     1      -7.621   9.994  68.336  1.00  0.00    -0.082 OA 
HETATM   34  C   UNL     1      -9.452   9.121  71.323  1.00  0.00    -0.313 A  
HETATM   35  O   UNL     1      -6.883  10.498  70.459  1.00  0.00    -0.312 OA 
HETATM   36  C   UNL     1      -7.694  10.012  69.697  1.00  0.00    -0.156 C  
HETATM   37  C   UNL     1      -8.905   9.294  70.067  1.00  0.00    -0.212 A  
BRANCH  23  38
HETATM   38  C   UNL     1     -11.197  13.265  66.623  1.00  0.00    -0.306 C  
BRANCH  38  39
HETATM   39  N   UNL     1     -10.251  14.423  66.639  1.00  0.00    -0.272 NA 
BRANCH  39  40
HETATM   40  C   UNL     1      -8.883  13.903  66.976  1.00  0.00    -0.218 C  
HETATM   41  O   UNL     1      -6.795  15.142  67.185  1.00  0.00    -0.259 OA 
HETATM   42  C   UNL     1      -7.972  15.010  67.495  1.00  0.00    -0.178 C  
HETATM   43  O   UNL     1      -8.609  15.837  68.361  1.00  0.00    -0.163 OA 
ENDBRANCH  39  40
BRANCH  39  44
HETATM   44  C   UNL     1     -10.181  14.975  65.230  1.00  0.00    -0.377 C  
HETATM   45  C   UNL     1     -10.750  16.388  65.116  1.00  0.00    -0.291 C  
HETATM   46  O   UNL     1     -11.231  16.851  64.092  1.00  0.00    -1.176 OA 
HETATM   47  O   UNL     1     -10.620  17.111  66.260  1.00  0.00    -0.285 OA 
ENDBRANCH  39  44
ENDBRANCH  38  39
ENDBRANCH  23  38
ENDBRANCH  10  11
ENDBRANCH   5  10
ENDBRANCH   4   5
TORSDOF 8
ENDMDL
MODEL       89
REMARK 921   NORMALIZED FREE ENERGY PREDICTED BY IDOCK:   -4.80 KCAL/MOL
REMARK 922        TOTAL FREE ENERGY PREDICTED BY IDOCK:   -9.31 KCAL/MOL
REMARK 923 INTER-LIGAND FREE ENERGY PREDICTED BY IDOCK:   -7.56 KCAL/MOL
REMARK 924 INTRA-LIGAND FREE ENERGY PREDICTED BY IDOCK:   -1.75 KCAL/MOL
REMARK 927      BINDING AFFINITY PREDICTED BY RF-SCORE:    0.00 PKD
ROOT
HETATM    1  O   UNL     1      -7.894   1.518  70.910  1.00  0.00    -0.035 OA 
HETATM    2  C   UNL     1      -7.036   2.230  71.677  1.00  0.00    -0.031 C  
HETATM    3  O   UNL     1      -6.900   2.028  72.874  1.00  0.00    -0.021 OA 
HETATM    4  C   UNL     1      -6.219   3.244  70.884  1.00  0.00    -0.019 C  
ENDROOT
BRANCH   4   5
HETATM    5  N   UNL     1      -6.958   3.843  69.702  1.00  0.00    -0.041 NA 
BRANCH   5   6
HETATM    6  C   UNL     1      -8.162   4.577  70.254  1.00  0.00    -0.070 C  
HETATM    7  O   UNL     1      -9.404   3.315  68.606  1.00  0.00    -0.159 OA 
HETATM    8  C   UNL     1      -9.445   4.368  69.452  1.00  0.00    -0.180 C  
HETATM    9  O   UNL     1     -10.449   5.049  69.604  1.00  0.00    -0.255 OA 
ENDBRANCH   5   6
BRANCH   5  10
HETATM   10  C   UNL     1      -6.011   4.866  69.101  1.00  0.00    -0.021 C  
BRANCH  10  11
HETATM   11  C   UNL     1      -6.604   5.634  67.930  1.00  0.00    -0.053 A  
HETATM   12  C   UNL     1      -7.011   6.956  68.114  1.00  0.00    -0.080 A  
HETATM   13  C   UNL     1      -7.669   7.684  67.099  1.00  0.00    -0.112 A  
HETATM   14  C   UNL     1      -7.793   7.131  65.828  1.00  0.00    -0.109 A  
HETATM   15  C   UNL     1      -7.347   5.822  65.607  1.00  0.00    -0.076 A  
HETATM   16  O   UNL     1      -8.333   7.813  64.755  1.00  0.00    -0.130 OA 
HETATM   17  C   UNL     1      -8.810   9.097  64.945  1.00  0.00    -0.173 A  
HETATM   18  C   UNL     1      -6.781   5.081  66.658  1.00  0.00    -0.057 A  
HETATM   19  O   UNL     1      -6.400   3.785  66.459  1.00  0.00    -0.034 OA 
HETATM   20  C   UNL     1      -9.251   9.802  63.815  1.00  0.00    -0.237 A  
HETATM   21  C   UNL     1      -9.763  11.107  63.942  1.00  0.00    -0.286 A  
HETATM   22  H   UNL     1      -6.521   3.409  65.594  1.00  0.00     0.000 HD 
HETATM   23  C   UNL     1      -9.885  11.714  65.194  1.00  0.00    -0.281 A  
HETATM   24  O   UNL     1     -10.137  11.814  62.832  1.00  0.00    -0.604 OA 
HETATM   25  C   UNL     1      -9.262   8.942  68.543  1.00  0.00    -0.137 A  
HETATM   26  H   UNL     1     -10.482  12.695  62.918  1.00  0.00     0.000 HD 
HETATM   27  C   UNL     1      -9.450  10.984  66.310  1.00  0.00    -0.219 A  
HETATM   28  C   UNL     1     -10.515   8.352  68.622  1.00  0.00    -0.197 A  
HETATM   29  C   UNL     1      -8.874   9.704  66.196  1.00  0.00    -0.173 A  
HETATM   30  C   UNL     1      -8.294   9.021  67.405  1.00  0.00    -0.112 C  
HETATM   31  C   UNL     1     -11.207   8.444  69.832  1.00  0.00    -0.029 A  
HETATM   32  C   UNL     1     -10.639   9.104  70.936  1.00  0.00    -0.341 A  
HETATM   33  O   UNL     1      -7.239   9.866  67.939  1.00  0.00    -0.085 OA 
HETATM   34  C   UNL     1      -9.372   9.681  70.847  1.00  0.00     0.004 A  
HETATM   35  O   UNL     1      -6.606  10.631  70.017  1.00  0.00    -0.122 OA 
HETATM   36  C   UNL     1      -7.409  10.112  69.269  1.00  0.00    -0.098 C  
HETATM   37  C   UNL     1      -8.718   9.591  69.634  1.00  0.00    -0.189 A  
BRANCH  23  38
HETATM   38  C   UNL     1     -10.283  13.160  65.427  1.00  0.00    -0.290 C  
BRANCH  38  39
HETATM   39  N   UNL     1     -10.491  13.611  66.838  1.00  0.00    -0.270 NA 
BRANCH  39  40
HETATM   40  C   UNL     1     -10.601  15.109  66.838  1.00  0.00    -0.297 C  
HETATM   41  O   UNL     1     -11.007  16.603  68.719  1.00  0.00    -0.328 OA 
HETATM   42  C   UNL     1     -10.356  15.691  68.225  1.00  0.00    -0.244 C  
HETATM   43  O   UNL     1      -9.314  15.094  68.857  1.00  0.00    -0.190 OA 
ENDBRANCH  39  40
BRANCH  39  44
HETATM   44  C   UNL     1     -11.829  13.067  67.298  1.00  0.00    -0.363 C  
HETATM   45  C   UNL     1     -11.710  12.139  68.504  1.00  0.00    -0.330 C  
HETATM   46  O   UNL     1     -12.503  11.245  68.760  1.00  0.00    -0.444 OA 
HETATM   47  O   UNL     1     -10.654  12.437  69.308  1.00  0.00    -0.043 OA 
ENDBRANCH  39  44
ENDBRANCH  38  39
ENDBRANCH  23  38
ENDBRANCH  10  11
ENDBRANCH   5  10
ENDBRANCH   4   5
TORSDOF 8
ENDMDL
MODEL       90
REMARK 921   NORMALIZED FREE ENERGY PREDICTED BY IDOCK:   -4.80 KCAL/MOL
REMARK 922        TOTAL FREE ENERGY PREDICTED BY IDOCK:   -9.31 KCAL/MOL
REMARK 923 INTER-LIGAND FREE ENERGY PREDICTED BY IDOCK:   -7.57 KCAL/MOL
REMARK 924 INTRA-LIGAND FREE ENERGY PREDICTED BY IDOCK:   -1.74 KCAL/MOL
REMARK 927      BINDING AFFINITY PREDICTED BY RF-SCORE:    0.00 PKD
ROOT
HETATM    1  O   UNL     1     -11.413  15.373  68.559  1.00  0.00    -0.317 OA 
HETATM    2  C   UNL     1     -10.669  15.652  69.654  1.00  0.00    -0.278 C  
HETATM    3  O   UNL     1     -11.163  16.012  70.712  1.00  0.00    -0.356 OA 
HETATM    4  C   UNL     1      -9.179  15.401  69.450  1.00  0.00    -0.268 C  
ENDROOT
BRANCH   4   5
HETATM    5  N   UNL     1      -8.697  15.668  68.036  1.00  0.00    -0.166 NA 
BRANCH   5   6
HETATM    6  C   UNL     1      -8.972  17.127  67.740  1.00  0.00    -0.226 C  
HETATM    7  O   UNL     1      -9.964  16.292  65.698  1.00  0.00    -0.436 OA 
HETATM    8  C   UNL     1      -9.500  17.392  66.331  1.00  0.00    -0.261 C  
HETATM    9  O   UNL     1      -9.560  18.508  65.836  1.00  0.00    -0.494 OA 
ENDBRANCH   5   6
BRANCH   5  10
HETATM   10  C   UNL     1      -7.193  15.464  68.070  1.00  0.00    -0.124 C  
BRANCH  10  11
HETATM   11  C   UNL     1      -6.761  14.237  68.858  1.00  0.00    -0.100 A  
HETATM   12  C   UNL     1      -7.081  12.967  68.376  1.00  0.00    -0.103 A  
HETATM   13  C   UNL     1      -6.806  11.796  69.115  1.00  0.00    -0.106 A  
HETATM   14  C   UNL     1      -6.067  11.883  70.291  1.00  0.00    -0.103 A  
HETATM   15  C   UNL     1      -5.693  13.146  70.769  1.00  0.00    -0.170 A  
HETATM   16  O   UNL     1      -5.671  10.780  71.020  1.00  0.00    -0.241 OA 
HETATM   17  C   UNL     1      -6.048   9.520  70.593  1.00  0.00    -0.071 A  
HETATM   18  C   UNL     1      -6.060  14.306  70.066  1.00  0.00    -0.150 A  
HETATM   19  O   UNL     1      -5.747  15.539  70.561  1.00  0.00    -0.150 OA 
HETATM   20  C   UNL     1      -5.539   8.415  71.292  1.00  0.00    -0.034 A  
HETATM   21  C   UNL     1      -5.897   7.107  70.918  1.00  0.00    -0.031 A  
HETATM   22  H   UNL     1      -5.270  15.585  71.383  1.00  0.00     0.000 HD 
HETATM   23  C   UNL     1      -6.797   6.877  69.875  1.00  0.00    -0.050 A  
HETATM   24  O   UNL     1      -5.353   6.030  71.562  1.00  0.00    -0.020 OA 
HETATM   25  C   UNL     1      -8.854  10.510  68.513  1.00  0.00    -0.144 A  
HETATM   26  H   UNL     1      -5.595   5.146  71.310  1.00  0.00     0.000 HD 
HETATM   27  C   UNL     1      -7.303   7.997  69.200  1.00  0.00    -0.086 A  
HETATM   28  C   UNL     1      -9.861  10.605  69.463  1.00  0.00    -0.115 A  
HETATM   29  C   UNL     1      -6.905   9.310  69.516  1.00  0.00    -0.048 A  
HETATM   30  C   UNL     1      -7.366  10.468  68.672  1.00  0.00    -0.091 C  
HETATM   31  C   UNL     1     -11.184  10.615  69.015  1.00  0.00    -0.324 A  
HETATM   32  C   UNL     1     -11.478  10.545  67.643  1.00  0.00    -0.078 A  
HETATM   33  O   UNL     1      -6.904  10.249  67.313  1.00  0.00    -0.079 OA 
HETATM   34  C   UNL     1     -10.455  10.465  66.697  1.00  0.00    -0.279 A  
HETATM   35  O   UNL     1      -7.811  10.384  65.200  1.00  0.00    -0.148 OA 
HETATM   36  C   UNL     1      -7.919  10.344  66.408  1.00  0.00    -0.130 C  
HETATM   37  C   UNL     1      -9.157  10.438  67.168  1.00  0.00    -0.152 A  
BRANCH  23  38
HETATM   38  C   UNL     1      -7.135   5.513  69.298  1.00  0.00    -0.064 C  
BRANCH  38  39
HETATM   39  N   UNL     1      -8.252   5.428  68.307  1.00  0.00    -0.095 NA 
BRANCH  39  40
HETATM   40  C   UNL     1      -7.908   4.361  67.308  1.00  0.00    -0.096 C  
HETATM   41  O   UNL     1      -9.045   3.807  65.226  1.00  0.00    -0.130 OA 
HETATM   42  C   UNL     1      -8.523   4.650  65.943  1.00  0.00    -0.116 C  
HETATM   43  O   UNL     1      -8.413   5.957  65.595  1.00  0.00    -0.143 OA 
ENDBRANCH  39  40
BRANCH  39  44
HETATM   44  C   UNL     1      -9.486   4.959  69.051  1.00  0.00    -0.144 C  
HETATM   45  C   UNL     1     -10.547   6.050  69.187  1.00  0.00    -0.295 C  
HETATM   46  O   UNL     1     -11.369   6.094  70.091  1.00  0.00    -0.382 OA 
HETATM   47  O   UNL     1     -10.527   6.947  68.167  1.00  0.00    -0.179 OA 
ENDBRANCH  39  44
ENDBRANCH  38  39
ENDBRANCH  23  38
ENDBRANCH  10  11
ENDBRANCH   5  10
ENDBRANCH   4   5
TORSDOF 8
ENDMDL
MODEL       91
REMARK 921   NORMALIZED FREE ENERGY PREDICTED BY IDOCK:   -4.80 KCAL/MOL
REMARK 922        TOTAL FREE ENERGY PREDICTED BY IDOCK:   -9.31 KCAL/MOL
REMARK 923 INTER-LIGAND FREE ENERGY PREDICTED BY IDOCK:   -7.69 KCAL/MOL
REMARK 924 INTRA-LIGAND FREE ENERGY PREDICTED BY IDOCK:   -1.61 KCAL/MOL
REMARK 927      BINDING AFFINITY PREDICTED BY RF-SCORE:    0.00 PKD
ROOT
HETATM    1  O   UNL     1      -6.984   3.923  62.852  1.00  0.00    -0.037 OA 
HETATM    2  C   UNL     1      -5.891   3.267  63.305  1.00  0.00    -0.013 C  
HETATM    3  O   UNL     1      -5.503   2.217  62.815  1.00  0.00    -0.007 OA 
HETATM    4  C   UNL     1      -5.166   4.004  64.425  1.00  0.00    -0.009 C  
ENDROOT
BRANCH   4   5
HETATM    5  N   UNL     1      -6.085   4.801  65.334  1.00  0.00    -0.032 NA 
BRANCH   5   6
HETATM    6  C   UNL     1      -5.932   4.234  66.729  1.00  0.00    -0.024 C  
HETATM    7  O   UNL     1      -8.348   4.111  66.698  1.00  0.00    -0.101 OA 
HETATM    8  C   UNL     1      -7.250   4.065  67.484  1.00  0.00    -0.067 C  
HETATM    9  O   UNL     1      -7.311   3.843  68.684  1.00  0.00    -0.054 OA 
ENDBRANCH   5   6
BRANCH   5  10
HETATM   10  C   UNL     1      -5.535   6.216  65.333  1.00  0.00    -0.017 C  
BRANCH  10  11
HETATM   11  C   UNL     1      -6.535   7.260  64.860  1.00  0.00    -0.037 A  
HETATM   12  C   UNL     1      -7.207   8.040  65.802  1.00  0.00    -0.071 A  
HETATM   13  C   UNL     1      -8.226   8.945  65.433  1.00  0.00    -0.131 A  
HETATM   14  C   UNL     1      -8.479   9.183  64.085  1.00  0.00    -0.185 A  
HETATM   15  C   UNL     1      -7.780   8.445  63.120  1.00  0.00    -0.136 A  
HETATM   16  O   UNL     1      -9.387  10.123  63.639  1.00  0.00    -0.267 OA 
HETATM   17  C   UNL     1     -10.114  10.848  64.564  1.00  0.00    -0.341 A  
HETATM   18  C   UNL     1      -6.838   7.480  63.513  1.00  0.00    -0.058 A  
HETATM   19  O   UNL     1      -6.200   6.720  62.575  1.00  0.00    -0.038 OA 
HETATM   20  C   UNL     1     -10.946  11.869  64.083  1.00  0.00    -0.430 A  
HETATM   21  C   UNL     1     -11.726  12.634  64.972  1.00  0.00    -0.359 A  
HETATM   22  H   UNL     1      -6.406   6.870  61.659  1.00  0.00     0.000 HD 
HETATM   23  C   UNL     1     -11.724  12.368  66.343  1.00  0.00    -0.453 A  
HETATM   24  O   UNL     1     -12.491  13.668  64.507  1.00  0.00    -0.565 OA 
HETATM   25  C   UNL     1      -9.735   8.594  67.384  1.00  0.00    -0.227 A  
HETATM   26  H   UNL     1     -13.017  14.184  65.106  1.00  0.00     0.000 HD 
HETATM   27  C   UNL     1     -10.895  11.333  66.798  1.00  0.00    -0.334 A  
HETATM   28  C   UNL     1     -10.756   7.689  67.133  1.00  0.00    -0.361 A  
HETATM   29  C   UNL     1     -10.058  10.602  65.933  1.00  0.00    -0.321 A  
HETATM   30  C   UNL     1      -9.082   9.599  66.488  1.00  0.00    -0.154 C  
HETATM   31  C   UNL     1     -11.174   6.866  68.181  1.00  0.00    -0.082 A  
HETATM   32  C   UNL     1     -10.565   6.947  69.445  1.00  0.00    -0.254 A  
HETATM   33  O   UNL     1      -8.180  10.294  67.389  1.00  0.00    -0.114 OA 
HETATM   34  C   UNL     1      -9.529   7.851  69.680  1.00  0.00    -0.160 A  
HETATM   35  O   UNL     1      -7.327   9.940  69.499  1.00  0.00    -0.077 OA 
HETATM   36  C   UNL     1      -8.117   9.694  68.611  1.00  0.00    -0.100 C  
HETATM   37  C   UNL     1      -9.148   8.666  68.632  1.00  0.00    -0.138 A  
BRANCH  23  38
HETATM   38  C   UNL     1     -12.408  13.219  67.398  1.00  0.00    -0.030 C  
BRANCH  38  39
HETATM   39  N   UNL     1     -11.590  14.256  68.101  1.00  0.00    -0.313 NA 
BRANCH  39  40
HETATM   40  C   UNL     1     -12.299  14.627  69.372  1.00  0.00    -0.164 C  
HETATM   41  O   UNL     1     -11.597  16.192  71.102  1.00  0.00    -0.419 OA 
HETATM   42  C   UNL     1     -11.811  15.963  69.918  1.00  0.00    -0.300 C  
HETATM   43  O   UNL     1     -11.653  16.892  68.942  1.00  0.00     0.059 OA 
ENDBRANCH  39  40
BRANCH  39  44
HETATM   44  C   UNL     1     -10.277  13.611  68.495  1.00  0.00    -0.234 C  
HETATM   45  C   UNL     1      -9.068  14.273  67.837  1.00  0.00    -0.190 C  
HETATM   46  O   UNL     1      -8.014  13.698  67.609  1.00  0.00    -0.148 OA 
HETATM   47  O   UNL     1      -9.258  15.593  67.574  1.00  0.00    -0.198 OA 
ENDBRANCH  39  44
ENDBRANCH  38  39
ENDBRANCH  23  38
ENDBRANCH  10  11
ENDBRANCH   5  10
ENDBRANCH   4   5
TORSDOF 8
ENDMDL
MODEL       92
REMARK 921   NORMALIZED FREE ENERGY PREDICTED BY IDOCK:   -4.74 KCAL/MOL
REMARK 922        TOTAL FREE ENERGY PREDICTED BY IDOCK:   -9.22 KCAL/MOL
REMARK 923 INTER-LIGAND FREE ENERGY PREDICTED BY IDOCK:   -9.31 KCAL/MOL
REMARK 924 INTRA-LIGAND FREE ENERGY PREDICTED BY IDOCK:    0.09 KCAL/MOL
REMARK 927      BINDING AFFINITY PREDICTED BY RF-SCORE:    0.00 PKD
ROOT
HETATM    1  O   UNL     1     -11.083   3.854  73.970  1.00  0.00    -0.192 OA 
HETATM    2  C   UNL     1     -11.226   5.066  73.388  1.00  0.00    -0.319 C  
HETATM    3  O   UNL     1     -12.210   5.370  72.731  1.00  0.00    -0.125 OA 
HETATM    4  C   UNL     1     -10.079   6.022  73.696  1.00  0.00    -0.214 C  
ENDROOT
BRANCH   4   5
HETATM    5  N   UNL     1      -8.733   5.339  73.857  1.00  0.00    -0.118 NA 
BRANCH   5   6
HETATM    6  C   UNL     1      -8.257   4.959  72.471  1.00  0.00    -0.115 C  
HETATM    7  O   UNL     1      -8.089   2.726  73.386  1.00  0.00    -0.062 OA 
HETATM    8  C   UNL     1      -7.735   3.528  72.358  1.00  0.00    -0.063 C  
HETATM    9  O   UNL     1      -7.105   3.119  71.393  1.00  0.00    -0.031 OA 
ENDBRANCH   5   6
BRANCH   5  10
HETATM   10  C   UNL     1      -7.797   6.400  74.407  1.00  0.00    -0.105 C  
BRANCH  10  11
HETATM   11  C   UNL     1      -7.426   7.471  73.393  1.00  0.00    -0.120 A  
HETATM   12  C   UNL     1      -8.379   7.896  72.467  1.00  0.00    -0.191 A  
HETATM   13  C   UNL     1      -8.063   8.803  71.432  1.00  0.00    -0.189 A  
HETATM   14  C   UNL     1      -6.811   9.411  71.410  1.00  0.00     0.085 A  
HETATM   15  C   UNL     1      -5.854   9.035  72.361  1.00  0.00    -0.053 A  
HETATM   16  O   UNL     1      -6.457  10.381  70.494  1.00  0.00    -0.188 OA 
HETATM   17  C   UNL     1      -7.367  10.755  69.523  1.00  0.00    -0.124 A  
HETATM   18  C   UNL     1      -6.159   8.058  73.324  1.00  0.00    -0.072 A  
HETATM   19  O   UNL     1      -5.208   7.650  74.214  1.00  0.00    -0.053 OA 
HETATM   20  C   UNL     1      -7.018  11.818  68.677  1.00  0.00    -0.093 A  
HETATM   21  C   UNL     1      -7.893  12.237  67.657  1.00  0.00    -0.156 A  
HETATM   22  H   UNL     1      -4.346   8.049  74.167  1.00  0.00     0.000 HD 
HETATM   23  C   UNL     1      -9.106  11.581  67.435  1.00  0.00    -0.166 A  
HETATM   24  O   UNL     1      -7.577  13.312  66.873  1.00  0.00    -0.370 OA 
HETATM   25  C   UNL     1      -9.472   7.800  69.639  1.00  0.00    -0.156 A  
HETATM   26  H   UNL     1      -8.168  13.595  66.184  1.00  0.00     0.000 HD 
HETATM   27  C   UNL     1      -9.426  10.512  68.284  1.00  0.00    -0.158 A  
HETATM   28  C   UNL     1      -8.768   6.947  68.801  1.00  0.00    -0.129 A  
HETATM   29  C   UNL     1      -8.594  10.122  69.351  1.00  0.00    -0.183 A  
HETATM   30  C   UNL     1      -9.048   9.063  70.321  1.00  0.00    -0.202 C  
HETATM   31  C   UNL     1      -9.435   5.827  68.298  1.00  0.00    -0.130 A  
HETATM   32  C   UNL     1     -10.772   5.571  68.645  1.00  0.00    -0.176 A  
HETATM   33  O   UNL     1     -10.277   9.519  70.946  1.00  0.00    -0.292 OA 
HETATM   34  C   UNL     1     -11.464   6.430  69.500  1.00  0.00    -0.412 A  
HETATM   35  O   UNL     1     -12.340   8.614  71.426  1.00  0.00    -0.301 OA 
HETATM   36  C   UNL     1     -11.271   8.590  70.852  1.00  0.00    -0.266 C  
HETATM   37  C   UNL     1     -10.787   7.539  69.969  1.00  0.00    -0.260 A  
BRANCH  23  38
HETATM   38  C   UNL     1     -10.182  12.040  66.467  1.00  0.00    -0.206 C  
BRANCH  38  39
HETATM   39  N   UNL     1     -11.008  13.227  66.848  1.00  0.00    -0.280 NA 
BRANCH  39  40
HETATM   40  C   UNL     1     -10.301  13.952  67.956  1.00  0.00    -0.245 C  
HETATM   41  O   UNL     1     -11.068  15.867  69.252  1.00  0.00    -0.267 OA 
HETATM   42  C   UNL     1     -11.275  14.738  68.826  1.00  0.00    -0.270 C  
HETATM   43  O   UNL     1     -12.405  14.038  69.095  1.00  0.00    -0.313 OA 
ENDBRANCH  39  40
BRANCH  39  44
HETATM   44  C   UNL     1     -11.040  14.161  65.655  1.00  0.00    -0.307 C  
HETATM   45  C   UNL     1     -12.396  14.182  64.953  1.00  0.00    -0.430 C  
HETATM   46  O   UNL     1     -12.550  14.449  63.770  1.00  0.00    -0.829 OA 
HETATM   47  O   UNL     1     -13.437  13.925  65.789  1.00  0.00    -0.464 OA 
ENDBRANCH  39  44
ENDBRANCH  38  39
ENDBRANCH  23  38
ENDBRANCH  10  11
ENDBRANCH   5  10
ENDBRANCH   4   5
TORSDOF 8
ENDMDL
MODEL       93
REMARK 921   NORMALIZED FREE ENERGY PREDICTED BY IDOCK:   -4.70 KCAL/MOL
REMARK 922        TOTAL FREE ENERGY PREDICTED BY IDOCK:   -9.16 KCAL/MOL
REMARK 923 INTER-LIGAND FREE ENERGY PREDICTED BY IDOCK:   -6.96 KCAL/MOL
REMARK 924 INTRA-LIGAND FREE ENERGY PREDICTED BY IDOCK:   -2.21 KCAL/MOL
REMARK 927      BINDING AFFINITY PREDICTED BY RF-SCORE:    0.00 PKD
ROOT
HETATM    1  O   UNL     1      -9.176  18.172  68.859  1.00  0.00    -0.262 OA 
HETATM    2  C   UNL     1      -8.148  18.620  68.102  1.00  0.00    -0.294 C  
HETATM    3  O   UNL     1      -7.948  19.808  67.898  1.00  0.00    -0.285 OA 
HETATM    4  C   UNL     1      -7.238  17.504  67.601  1.00  0.00    -0.169 C  
ENDROOT
BRANCH   4   5
HETATM    5  N   UNL     1      -7.960  16.198  67.321  1.00  0.00    -0.159 NA 
BRANCH   5   6
HETATM    6  C   UNL     1      -8.669  16.357  65.993  1.00  0.00    -0.239 C  
HETATM    7  O   UNL     1     -10.536  15.311  67.121  1.00  0.00    -0.269 OA 
HETATM    8  C   UNL     1     -10.025  15.657  65.919  1.00  0.00    -0.351 C  
HETATM    9  O   UNL     1     -10.631  15.480  64.872  1.00  0.00    -0.423 OA 
ENDBRANCH   5   6
BRANCH   5  10
HETATM   10  C   UNL     1      -6.871  15.154  67.158  1.00  0.00     0.118 C  
BRANCH  10  11
HETATM   11  C   UNL     1      -7.220  13.806  67.769  1.00  0.00    -0.169 A  
HETATM   12  C   UNL     1      -7.754  12.804  66.957  1.00  0.00     0.003 A  
HETATM   13  C   UNL     1      -8.201  11.573  67.485  1.00  0.00    -0.140 A  
HETATM   14  C   UNL     1      -7.978  11.279  68.826  1.00  0.00    -0.137 A  
HETATM   15  C   UNL     1      -7.398  12.253  69.650  1.00  0.00     0.581 A  
HETATM   16  O   UNL     1      -8.293  10.062  69.397  1.00  0.00    -0.137 OA 
HETATM   17  C   UNL     1      -8.893   9.089  68.620  1.00  0.00    -0.137 A  
HETATM   18  C   UNL     1      -7.048  13.508  69.124  1.00  0.00    -0.021 A  
HETATM   19  O   UNL     1      -6.538  14.477  69.939  1.00  0.00    -0.149 OA 
HETATM   20  C   UNL     1      -9.101   7.829  69.200  1.00  0.00    -0.145 A  
HETATM   21  C   UNL     1      -9.721   6.799  68.467  1.00  0.00    -0.133 A  
HETATM   22  H   UNL     1      -6.421  14.275  70.860  1.00  0.00     0.000 HD 
HETATM   23  C   UNL     1     -10.182   7.018  67.167  1.00  0.00    -0.318 A  
HETATM   24  O   UNL     1      -9.869   5.554  69.013  1.00  0.00    -0.140 OA 
HETATM   25  C   UNL     1     -10.180  11.253  66.005  1.00  0.00    -0.295 A  
HETATM   26  H   UNL     1     -10.288   4.859  68.519  1.00  0.00     0.000 HD 
HETATM   27  C   UNL     1      -9.976   8.290  66.614  1.00  0.00    -0.348 A  
HETATM   28  C   UNL     1     -11.370  11.676  66.580  1.00  0.00    -0.338 A  
HETATM   29  C   UNL     1      -9.298   9.311  67.307  1.00  0.00    -0.161 A  
HETATM   30  C   UNL     1      -8.976  10.611  66.620  1.00  0.00    -0.150 C  
HETATM   31  C   UNL     1     -12.335  12.242  65.745  1.00  0.00     0.048 A  
HETATM   32  C   UNL     1     -12.097  12.389  64.367  1.00  0.00    -0.505 A  
HETATM   33  O   UNL     1      -8.143  10.319  65.466  1.00  0.00    -0.145 OA 
HETATM   34  C   UNL     1     -10.890  11.972  63.804  1.00  0.00    -0.481 A  
HETATM   35  O   UNL     1      -8.082  10.947  63.251  1.00  0.00    -0.007 OA 
HETATM   36  C   UNL     1      -8.643  10.872  64.325  1.00  0.00     0.053 C  
HETATM   37  C   UNL     1      -9.960  11.399  64.650  1.00  0.00    -0.315 A  
BRANCH  23  38
HETATM   38  C   UNL     1     -10.728   5.944  66.243  1.00  0.00     0.027 C  
BRANCH  38  39
HETATM   39  N   UNL     1      -9.832   4.799  65.893  1.00  0.00    -0.194 NA 
BRANCH  39  40
HETATM   40  C   UNL     1     -10.574   3.897  64.948  1.00  0.00    -0.072 C  
HETATM   41  O   UNL     1      -9.669   2.361  63.287  1.00  0.00    -0.096 OA 
HETATM   42  C   UNL     1      -9.691   2.761  64.444  1.00  0.00    -0.124 C  
HETATM   43  O   UNL     1      -8.933   2.221  65.432  1.00  0.00    -0.124 OA 
ENDBRANCH  39  40
BRANCH  39  44
HETATM   44  C   UNL     1      -8.648   5.361  65.133  1.00  0.00    -0.149 C  
HETATM   45  C   UNL     1      -7.423   5.579  66.018  1.00  0.00    -0.082 C  
HETATM   46  O   UNL     1      -6.556   6.411  65.793  1.00  0.00    -0.045 OA 
HETATM   47  O   UNL     1      -7.357   4.712  67.064  1.00  0.00    -0.078 OA 
ENDBRANCH  39  44
ENDBRANCH  38  39
ENDBRANCH  23  38
ENDBRANCH  10  11
ENDBRANCH   5  10
ENDBRANCH   4   5
TORSDOF 8
ENDMDL
MODEL       94
REMARK 921   NORMALIZED FREE ENERGY PREDICTED BY IDOCK:   -4.68 KCAL/MOL
REMARK 922        TOTAL FREE ENERGY PREDICTED BY IDOCK:   -9.13 KCAL/MOL
REMARK 923 INTER-LIGAND FREE ENERGY PREDICTED BY IDOCK:   -9.11 KCAL/MOL
REMARK 924 INTRA-LIGAND FREE ENERGY PREDICTED BY IDOCK:   -0.02 KCAL/MOL
REMARK 927      BINDING AFFINITY PREDICTED BY RF-SCORE:    0.00 PKD
ROOT
HETATM    1  O   UNL     1     -11.428   6.596  67.452  1.00  0.00    -0.183 OA 
HETATM    2  C   UNL     1     -10.528   6.991  68.381  1.00  0.00    -0.201 C  
HETATM    3  O   UNL     1     -10.853   7.551  69.417  1.00  0.00    -0.224 OA 
HETATM    4  C   UNL     1      -9.094   6.604  68.034  1.00  0.00    -0.114 C  
ENDROOT
BRANCH   4   5
HETATM    5  N   UNL     1      -8.798   6.606  66.545  1.00  0.00    -0.134 NA 
BRANCH   5   6
HETATM    6  C   UNL     1      -9.608   5.485  65.929  1.00  0.00    -0.063 C  
HETATM    7  O   UNL     1      -7.884   4.048  66.833  1.00  0.00    -0.094 OA 
HETATM    8  C   UNL     1      -8.920   4.121  65.969  1.00  0.00    -0.126 C  
HETATM    9  O   UNL     1      -9.308   3.156  65.327  1.00  0.00    -0.149 OA 
ENDBRANCH   5   6
BRANCH   5  10
HETATM   10  C   UNL     1      -9.338   7.925  66.022  1.00  0.00    -0.063 C  
BRANCH  10  11
HETATM   11  C   UNL     1      -8.428   9.112  66.305  1.00  0.00    -0.131 A  
HETATM   12  C   UNL     1      -8.976  10.284  66.826  1.00  0.00    -0.147 A  
HETATM   13  C   UNL     1      -8.206  11.454  67.004  1.00  0.00    -0.160 A  
HETATM   14  C   UNL     1      -6.831  11.409  66.797  1.00  0.00    -0.132 A  
HETATM   15  C   UNL     1      -6.252  10.227  66.320  1.00  0.00    -0.084 A  
HETATM   16  O   UNL     1      -5.993  12.478  67.044  1.00  0.00    -0.283 OA 
HETATM   17  C   UNL     1      -6.535  13.670  67.488  1.00  0.00    -0.085 A  
HETATM   18  C   UNL     1      -7.053   9.102  66.057  1.00  0.00    -0.090 A  
HETATM   19  O   UNL     1      -6.497   7.969  65.537  1.00  0.00    -0.045 OA 
HETATM   20  C   UNL     1      -5.648  14.701  67.834  1.00  0.00    -0.113 A  
HETATM   21  C   UNL     1      -6.136  15.944  68.277  1.00  0.00    -0.110 A  
HETATM   22  H   UNL     1      -5.562   7.962  65.369  1.00  0.00     0.000 HD 
HETATM   23  C   UNL     1      -7.508  16.198  68.342  1.00  0.00    -0.153 A  
HETATM   24  O   UNL     1      -5.269  16.927  68.670  1.00  0.00    -0.123 OA 
HETATM   25  C   UNL     1      -9.944  13.122  66.370  1.00  0.00    -0.282 A  
HETATM   26  H   UNL     1      -5.599  17.767  68.970  1.00  0.00     0.000 HD 
HETATM   27  C   UNL     1      -8.374  15.157  67.978  1.00  0.00    -0.147 A  
HETATM   28  C   UNL     1      -9.854  13.534  65.048  1.00  0.00    -0.084 A  
HETATM   29  C   UNL     1      -7.906  13.885  67.596  1.00  0.00    -0.187 A  
HETATM   30  C   UNL     1      -8.875  12.760  67.352  1.00  0.00    -0.190 C  
HETATM   31  C   UNL     1     -11.040  13.816  64.367  1.00  0.00    -0.356 A  
HETATM   32  C   UNL     1     -12.285  13.671  65.003  1.00  0.00    -0.450 A  
HETATM   33  O   UNL     1      -9.625  12.535  68.575  1.00  0.00    -0.194 OA 
HETATM   34  C   UNL     1     -12.363  13.243  66.329  1.00  0.00    -0.382 A  
HETATM   35  O   UNL     1     -11.835  12.221  69.143  1.00  0.00    -0.300 OA 
HETATM   36  C   UNL     1     -10.971  12.550  68.357  1.00  0.00    -0.248 C  
HETATM   37  C   UNL     1     -11.174  12.989  66.984  1.00  0.00    -0.325 A  
BRANCH  23  38
HETATM   38  C   UNL     1      -8.138  17.443  68.941  1.00  0.00    -0.183 C  
BRANCH  38  39
HETATM   39  N   UNL     1      -8.391  18.605  68.035  1.00  0.00    -0.270 NA 
BRANCH  39  40
HETATM   40  C   UNL     1      -7.120  19.397  67.924  1.00  0.00    -0.256 C  
HETATM   41  O   UNL     1      -6.487  21.026  66.227  1.00  0.00    -0.256 OA 
HETATM   42  C   UNL     1      -7.301  20.634  67.053  1.00  0.00    -0.316 C  
HETATM   43  O   UNL     1      -8.471  21.274  67.304  1.00  0.00    -0.055 OA 
ENDBRANCH  39  40
BRANCH  39  44
HETATM   44  C   UNL     1      -8.692  18.052  66.657  1.00  0.00    -0.259 C  
HETATM   45  C   UNL     1     -10.176  18.119  66.301  1.00  0.00    -0.395 C  
HETATM   46  O   UNL     1     -10.726  17.358  65.518  1.00  0.00    -0.530 OA 
HETATM   47  O   UNL     1     -10.826  19.151  66.903  1.00  0.00    -0.439 OA 
ENDBRANCH  39  44
ENDBRANCH  38  39
ENDBRANCH  23  38
ENDBRANCH  10  11
ENDBRANCH   5  10
ENDBRANCH   4   5
TORSDOF 8
ENDMDL
MODEL       95
REMARK 921   NORMALIZED FREE ENERGY PREDICTED BY IDOCK:   -4.66 KCAL/MOL
REMARK 922        TOTAL FREE ENERGY PREDICTED BY IDOCK:   -9.10 KCAL/MOL
REMARK 923 INTER-LIGAND FREE ENERGY PREDICTED BY IDOCK:   -8.88 KCAL/MOL
REMARK 924 INTRA-LIGAND FREE ENERGY PREDICTED BY IDOCK:   -0.22 KCAL/MOL
REMARK 927      BINDING AFFINITY PREDICTED BY RF-SCORE:    0.00 PKD
ROOT
HETATM    1  O   UNL     1      -8.673   4.018  64.176  1.00  0.00    -0.107 OA 
HETATM    2  C   UNL     1      -8.202   3.744  65.414  1.00  0.00    -0.101 C  
HETATM    3  O   UNL     1      -8.096   2.604  65.841  1.00  0.00    -0.081 OA 
HETATM    4  C   UNL     1      -7.757   4.986  66.178  1.00  0.00    -0.091 C  
ENDROOT
BRANCH   4   5
HETATM    5  N   UNL     1      -8.569   6.229  65.862  1.00  0.00    -0.145 NA 
BRANCH   5   6
HETATM    6  C   UNL     1      -8.966   6.850  67.184  1.00  0.00    -0.120 C  
HETATM    7  O   UNL     1     -10.949   5.479  66.974  1.00  0.00    -0.190 OA 
HETATM    8  C   UNL     1     -10.392   6.524  67.626  1.00  0.00    -0.194 C  
HETATM    9  O   UNL     1     -10.963   7.110  68.534  1.00  0.00    -0.138 OA 
ENDBRANCH   5   6
BRANCH   5  10
HETATM   10  C   UNL     1      -7.612   7.176  65.159  1.00  0.00    -0.102 C  
BRANCH  10  11
HETATM   11  C   UNL     1      -8.262   8.474  64.705  1.00  0.00    -0.164 A  
HETATM   12  C   UNL     1      -8.336   9.548  65.593  1.00  0.00    -0.131 A  
HETATM   13  C   UNL     1      -9.024  10.738  65.270  1.00  0.00    -0.211 A  
HETATM   14  C   UNL     1      -9.521  10.917  63.983  1.00  0.00    -0.262 A  
HETATM   15  C   UNL     1      -9.414   9.869  63.060  1.00  0.00    -0.123 A  
HETATM   16  O   UNL     1     -10.117  12.087  63.557  1.00  0.00    -0.408 OA 
HETATM   17  C   UNL     1     -10.265  13.131  64.451  1.00  0.00    -0.297 A  
HETATM   18  C   UNL     1      -8.810   8.656  63.433  1.00  0.00     0.273 A  
HETATM   19  O   UNL     1      -8.758   7.614  62.552  1.00  0.00    -0.396 OA 
HETATM   20  C   UNL     1     -10.774  14.343  63.959  1.00  0.00     0.802 A  
HETATM   21  C   UNL     1     -10.965  15.439  64.821  1.00  0.00    -0.393 A  
HETATM   22  H   UNL     1      -9.131   7.738  61.686  1.00  0.00     0.000 HD 
HETATM   23  C   UNL     1     -10.695  15.337  66.187  1.00  0.00    -0.322 A  
HETATM   24  O   UNL     1     -11.404  16.637  64.328  1.00  0.00    -1.304 OA 
HETATM   25  C   UNL     1      -9.985  11.213  67.519  1.00  0.00    -0.204 A  
HETATM   26  H   UNL     1     -11.533  17.378  64.910  1.00  0.00     0.000 HD 
HETATM   27  C   UNL     1     -10.201  14.112  66.657  1.00  0.00    -0.270 A  
HETATM   28  C   UNL     1     -11.289  10.763  67.665  1.00  0.00    -0.328 A  
HETATM   29  C   UNL     1      -9.941  13.025  65.800  1.00  0.00    -0.260 A  
HETATM   30  C   UNL     1      -9.278  11.781  66.329  1.00  0.00    -0.221 C  
HETATM   31  C   UNL     1     -11.680  10.284  68.918  1.00  0.00    -0.057 A  
HETATM   32  C   UNL     1     -10.771  10.248  69.989  1.00  0.00    -0.345 A  
HETATM   33  O   UNL     1      -7.984  12.154  66.871  1.00  0.00    -0.157 OA 
HETATM   34  C   UNL     1      -9.458  10.690  69.825  1.00  0.00     0.188 A  
HETATM   35  O   UNL     1      -6.788  11.711  68.790  1.00  0.00    -0.076 OA 
HETATM   36  C   UNL     1      -7.819  11.707  68.149  1.00  0.00    -0.133 C  
HETATM   37  C   UNL     1      -9.103  11.176  68.581  1.00  0.00    -0.166 A  
BRANCH  23  38
HETATM   38  C   UNL     1     -10.725  16.492  67.172  1.00  0.00    -0.220 C  
BRANCH  38  39
HETATM   39  N   UNL     1     -10.245  16.239  68.565  1.00  0.00    -0.236 NA 
BRANCH  39  40
HETATM   40  C   UNL     1      -9.040  17.102  68.808  1.00  0.00    -0.244 C  
HETATM   41  O   UNL     1      -8.209  18.962  67.472  1.00  0.00    -0.264 OA 
HETATM   42  C   UNL     1      -9.139  18.429  68.063  1.00  0.00    -0.294 C  
HETATM   43  O   UNL     1     -10.380  18.971  68.140  1.00  0.00    -0.376 OA 
ENDBRANCH  39  40
BRANCH  39  44
HETATM   44  C   UNL     1     -11.328  16.711  69.514  1.00  0.00     0.047 C  
HETATM   45  C   UNL     1     -12.140  15.562  70.107  1.00  0.00    -0.378 C  
HETATM   46  O   UNL     1     -13.296  15.668  70.490  1.00  0.00    -0.426 OA 
HETATM   47  O   UNL     1     -11.431  14.407  70.221  1.00  0.00    -0.258 OA 
ENDBRANCH  39  44
ENDBRANCH  38  39
ENDBRANCH  23  38
ENDBRANCH  10  11
ENDBRANCH   5  10
ENDBRANCH   4   5
TORSDOF 8
ENDMDL
MODEL       96
REMARK 921   NORMALIZED FREE ENERGY PREDICTED BY IDOCK:   -4.58 KCAL/MOL
REMARK 922        TOTAL FREE ENERGY PREDICTED BY IDOCK:   -9.00 KCAL/MOL
REMARK 923 INTER-LIGAND FREE ENERGY PREDICTED BY IDOCK:   -8.95 KCAL/MOL
REMARK 924 INTRA-LIGAND FREE ENERGY PREDICTED BY IDOCK:   -0.04 KCAL/MOL
REMARK 927      BINDING AFFINITY PREDICTED BY RF-SCORE:    0.00 PKD
ROOT
HETATM    1  O   UNL     1     -12.527  16.081  69.769  1.00  0.00    -0.170 OA 
HETATM    2  C   UNL     1     -11.361  16.168  69.088  1.00  0.00    -0.323 C  
HETATM    3  O   UNL     1     -11.031  17.171  68.473  1.00  0.00    -0.317 OA 
HETATM    4  C   UNL     1     -10.487  14.927  69.230  1.00  0.00    -0.241 C  
ENDROOT
BRANCH   4   5
HETATM    5  N   UNL     1     -11.269  13.633  69.363  1.00  0.00    -0.231 NA 
BRANCH   5   6
HETATM    6  C   UNL     1     -12.196  13.793  70.549  1.00  0.00    -0.369 C  
HETATM    7  O   UNL     1     -11.942  11.399  70.782  1.00  0.00    -0.345 OA 
HETATM    8  C   UNL     1     -12.671  12.473  71.155  1.00  0.00    -0.245 C  
HETATM    9  O   UNL     1     -13.590  12.397  71.958  1.00  0.00    -0.421 OA 
ENDBRANCH   5   6
BRANCH   5  10
HETATM   10  C   UNL     1     -12.116  13.536  68.107  1.00  0.00    -0.255 C  
BRANCH  10  11
HETATM   11  C   UNL     1     -11.480  12.703  67.004  1.00  0.00    -0.406 A  
HETATM   12  C   UNL     1     -10.934  11.457  67.317  1.00  0.00    -0.336 A  
HETATM   13  C   UNL     1     -10.233  10.688  66.363  1.00  0.00    -0.291 A  
HETATM   14  C   UNL     1     -10.202  11.102  65.035  1.00  0.00    -0.296 A  
HETATM   15  C   UNL     1     -10.787  12.327  64.689  1.00  0.00    -0.349 A  
HETATM   16  O   UNL     1      -9.625  10.360  64.023  1.00  0.00    -0.277 OA 
HETATM   17  C   UNL     1      -9.014   9.160  64.334  1.00  0.00    -0.055 A  
HETATM   18  C   UNL     1     -11.397  13.123  65.674  1.00  0.00    -0.303 A  
HETATM   19  O   UNL     1     -11.915  14.343  65.348  1.00  0.00    -0.364 OA 
HETATM   20  C   UNL     1      -8.534   8.379  63.272  1.00  0.00    -0.008 A  
HETATM   21  C   UNL     1      -7.886   7.154  63.521  1.00  0.00    -0.103 A  
HETATM   22  H   UNL     1     -11.858  14.629  64.443  1.00  0.00     0.000 HD 
HETATM   23  C   UNL     1      -7.668   6.708  64.827  1.00  0.00    -0.111 A  
HETATM   24  O   UNL     1      -7.473   6.366  62.483  1.00  0.00    -0.053 OA 
HETATM   25  C   UNL     1      -8.479   9.766  67.873  1.00  0.00    -0.125 A  
HETATM   26  H   UNL     1      -7.036   5.539  62.651  1.00  0.00     0.000 HD 
HETATM   27  C   UNL     1      -8.144   7.512  65.872  1.00  0.00    -0.127 A  
HETATM   28  C   UNL     1      -7.292  10.483  67.837  1.00  0.00    -0.089 A  
HETATM   29  C   UNL     1      -8.852   8.708  65.640  1.00  0.00    -0.227 A  
HETATM   30  C   UNL     1      -9.466   9.462  66.789  1.00  0.00    -0.165 C  
HETATM   31  C   UNL     1      -6.561  10.598  69.022  1.00  0.00    -0.062 A  
HETATM   32  C   UNL     1      -7.026  10.015  70.213  1.00  0.00    -0.153 A  
HETATM   33  O   UNL     1     -10.412   8.583  67.454  1.00  0.00    -0.262 OA 
HETATM   34  C   UNL     1      -8.229   9.308  70.238  1.00  0.00    -0.187 A  
HETATM   35  O   UNL     1     -10.905   7.999  69.627  1.00  0.00    -0.240 OA 
HETATM   36  C   UNL     1     -10.181   8.507  68.795  1.00  0.00    -0.200 C  
HETATM   37  C   UNL     1      -8.923   9.194  69.049  1.00  0.00    -0.143 A  
BRANCH  23  38
HETATM   38  C   UNL     1      -7.116   5.344  65.202  1.00  0.00    -0.065 C  
BRANCH  38  39
HETATM   39  N   UNL     1      -8.079   4.307  65.684  1.00  0.00    -0.104 NA 
BRANCH  39  40
HETATM   40  C   UNL     1      -8.142   4.387  67.182  1.00  0.00    -0.101 C  
HETATM   41  O   UNL     1      -8.687   2.629  68.777  1.00  0.00    -0.069 OA 
HETATM   42  C   UNL     1      -8.019   3.011  67.825  1.00  0.00    -0.074 C  
HETATM   43  O   UNL     1      -7.066   2.249  67.233  1.00  0.00    -0.046 OA 
ENDBRANCH  39  40
BRANCH  39  44
HETATM   44  C   UNL     1      -9.452   4.680  65.161  1.00  0.00    -0.140 C  
HETATM   45  C   UNL     1      -9.935   3.755  64.046  1.00  0.00    -0.190 C  
HETATM   46  O   UNL     1     -10.727   4.089  63.176  1.00  0.00    -0.191 OA 
HETATM   47  O   UNL     1      -9.439   2.493  64.144  1.00  0.00    -0.122 OA 
ENDBRANCH  39  44
ENDBRANCH  38  39
ENDBRANCH  23  38
ENDBRANCH  10  11
ENDBRANCH   5  10
ENDBRANCH   4   5
TORSDOF 8
ENDMDL
MODEL       97
REMARK 921   NORMALIZED FREE ENERGY PREDICTED BY IDOCK:   -4.56 KCAL/MOL
REMARK 922        TOTAL FREE ENERGY PREDICTED BY IDOCK:   -8.97 KCAL/MOL
REMARK 923 INTER-LIGAND FREE ENERGY PREDICTED BY IDOCK:   -9.52 KCAL/MOL
REMARK 924 INTRA-LIGAND FREE ENERGY PREDICTED BY IDOCK:    0.56 KCAL/MOL
REMARK 927      BINDING AFFINITY PREDICTED BY RF-SCORE:    0.00 PKD
ROOT
HETATM    1  O   UNL     1     -12.263   6.534  72.137  1.00  0.00    -0.308 OA 
HETATM    2  C   UNL     1     -11.145   7.185  72.533  1.00  0.00    -0.280 C  
HETATM    3  O   UNL     1     -10.646   7.026  73.637  1.00  0.00    -0.357 OA 
HETATM    4  C   UNL     1     -10.543   8.067  71.445  1.00  0.00    -0.216 C  
ENDROOT
BRANCH   4   5
HETATM    5  N   UNL     1     -11.571   8.685  70.514  1.00  0.00    -0.200 NA 
BRANCH   5   6
HETATM    6  C   UNL     1     -11.662  10.155  70.864  1.00  0.00    -0.378 C  
HETATM    7  O   UNL     1     -13.712   9.528  71.985  1.00  0.00    -0.395 OA 
HETATM    8  C   UNL     1     -12.984  10.563  71.513  1.00  0.00    -0.460 C  
HETATM    9  O   UNL     1     -13.330  11.727  71.653  1.00  0.00    -0.338 OA 
ENDBRANCH   5   6
BRANCH   5  10
HETATM   10  C   UNL     1     -10.985   8.564  69.119  1.00  0.00     0.076 C  
BRANCH  10  11
HETATM   11  C   UNL     1      -9.856   9.546  68.843  1.00  0.00    -0.179 A  
HETATM   12  C   UNL     1     -10.155  10.895  68.651  1.00  0.00    -0.200 A  
HETATM   13  C   UNL     1      -9.167  11.835  68.283  1.00  0.00    -0.188 A  
HETATM   14  C   UNL     1      -7.831  11.448  68.248  1.00  0.00    -0.132 A  
HETATM   15  C   UNL     1      -7.503  10.107  68.485  1.00  0.00    -0.086 A  
HETATM   16  O   UNL     1      -6.795  12.325  67.995  1.00  0.00    -0.068 OA 
HETATM   17  C   UNL     1      -7.085  13.650  67.728  1.00  0.00    -0.161 A  
HETATM   18  C   UNL     1      -8.513   9.169  68.756  1.00  0.00    -0.130 A  
HETATM   19  O   UNL     1      -8.199   7.851  68.930  1.00  0.00    -0.123 OA 
HETATM   20  C   UNL     1      -6.008  14.537  67.583  1.00  0.00    -0.044 A  
HETATM   21  C   UNL     1      -6.235  15.896  67.294  1.00  0.00    -0.082 A  
HETATM   22  H   UNL     1      -7.286   7.595  68.870  1.00  0.00     0.000 HD 
HETATM   23  C   UNL     1      -7.529  16.384  67.102  1.00  0.00    -0.227 A  
HETATM   24  O   UNL     1      -5.186  16.770  67.213  1.00  0.00    -0.120 OA 
HETATM   25  C   UNL     1     -10.553  13.219  66.743  1.00  0.00    -0.276 A  
HETATM   26  H   UNL     1      -5.340  17.688  67.017  1.00  0.00     0.000 HD 
HETATM   27  C   UNL     1      -8.589  15.476  67.237  1.00  0.00    -0.215 A  
HETATM   28  C   UNL     1     -10.403  12.873  65.408  1.00  0.00    -0.310 A  
HETATM   29  C   UNL     1      -8.385  14.128  67.592  1.00  0.00    -0.187 A  
HETATM   30  C   UNL     1      -9.561  13.228  67.864  1.00  0.00    -0.217 C  
HETATM   31  C   UNL     1     -11.521  12.972  64.577  1.00  0.00    -0.389 A  
HETATM   32  C   UNL     1     -12.760  13.395  65.087  1.00  0.00    -0.459 A  
HETATM   33  O   UNL     1     -10.322  13.798  68.962  1.00  0.00    -0.184 OA 
HETATM   34  C   UNL     1     -12.900  13.727  66.435  1.00  0.00     0.034 A  
HETATM   35  O   UNL     1     -12.542  14.214  69.414  1.00  0.00    -0.192 OA 
HETATM   36  C   UNL     1     -11.642  13.936  68.649  1.00  0.00    -0.328 C  
HETATM   37  C   UNL     1     -11.775  13.638  67.230  1.00  0.00    -0.416 A  
BRANCH  23  38
HETATM   38  C   UNL     1      -7.893  17.849  66.933  1.00  0.00    -0.221 C  
BRANCH  38  39
HETATM   39  N   UNL     1      -8.611  18.254  65.685  1.00  0.00    -0.118 NA 
BRANCH  39  40
HETATM   40  C   UNL     1     -10.078  18.334  65.996  1.00  0.00    -0.271 C  
HETATM   41  O   UNL     1     -11.156  18.870  68.113  1.00  0.00     0.020 OA 
HETATM   42  C   UNL     1     -10.345  19.164  67.246  1.00  0.00    -0.432 C  
HETATM   43  O   UNL     1      -9.587  20.289  67.288  1.00  0.00    -0.393 OA 
ENDBRANCH  39  40
BRANCH  39  44
HETATM   44  C   UNL     1      -8.155  19.655  65.331  1.00  0.00     0.489 C  
HETATM   45  C   UNL     1      -6.639  19.767  65.186  1.00  0.00    -0.280 C  
HETATM   46  O   UNL     1      -6.009  20.798  65.372  1.00  0.00    -0.215 OA 
HETATM   47  O   UNL     1      -6.053  18.612  64.772  1.00  0.00    -0.364 OA 
ENDBRANCH  39  44
ENDBRANCH  38  39
ENDBRANCH  23  38
ENDBRANCH  10  11
ENDBRANCH   5  10
ENDBRANCH   4   5
TORSDOF 8
ENDMDL
MODEL       98
REMARK 921   NORMALIZED FREE ENERGY PREDICTED BY IDOCK:   -4.47 KCAL/MOL
REMARK 922        TOTAL FREE ENERGY PREDICTED BY IDOCK:   -8.83 KCAL/MOL
REMARK 923 INTER-LIGAND FREE ENERGY PREDICTED BY IDOCK:   -7.12 KCAL/MOL
REMARK 924 INTRA-LIGAND FREE ENERGY PREDICTED BY IDOCK:   -1.71 KCAL/MOL
REMARK 927      BINDING AFFINITY PREDICTED BY RF-SCORE:    0.00 PKD
ROOT
HETATM    1  O   UNL     1     -10.606  18.511  68.167  1.00  0.00    -0.350 OA 
HETATM    2  C   UNL     1     -10.242  18.836  66.906  1.00  0.00    -0.386 C  
HETATM    3  O   UNL     1     -10.751  19.762  66.292  1.00  0.00    -0.468 OA 
HETATM    4  C   UNL     1      -9.097  17.984  66.370  1.00  0.00    -0.235 C  
ENDROOT
BRANCH   4   5
HETATM    5  N   UNL     1      -9.097  16.557  66.886  1.00  0.00    -0.211 NA 
BRANCH   5   6
HETATM    6  C   UNL     1     -10.167  15.807  66.121  1.00  0.00    -0.315 C  
HETATM    7  O   UNL     1     -10.701  14.832  68.270  1.00  0.00    -0.235 OA 
HETATM    8  C   UNL     1     -10.877  14.726  66.934  1.00  0.00    -0.316 C  
HETATM    9  O   UNL     1     -11.597  13.875  66.433  1.00  0.00    -0.337 OA 
ENDBRANCH   5   6
BRANCH   5  10
HETATM   10  C   UNL     1      -7.746  15.982  66.500  1.00  0.00    -0.132 C  
BRANCH  10  11
HETATM   11  C   UNL     1      -7.181  15.010  67.526  1.00  0.00    -0.228 A  
HETATM   12  C   UNL     1      -7.505  13.656  67.436  1.00  0.00    -0.139 A  
HETATM   13  C   UNL     1      -7.104  12.725  68.419  1.00  0.00    -0.102 A  
HETATM   14  C   UNL     1      -6.240  13.126  69.433  1.00  0.00    -0.111 A  
HETATM   15  C   UNL     1      -5.863  14.472  69.514  1.00  0.00    -0.098 A  
HETATM   16  O   UNL     1      -5.722  12.258  70.374  1.00  0.00    -0.148 OA 
HETATM   17  C   UNL     1      -6.097  10.928  70.341  1.00  0.00    -0.129 A  
HETATM   18  C   UNL     1      -6.351  15.401  68.580  1.00  0.00    -0.095 A  
HETATM   19  O   UNL     1      -6.030  16.724  68.693  1.00  0.00    -0.131 OA 
HETATM   20  C   UNL     1      -5.471  10.051  71.240  1.00  0.00    -0.075 A  
HETATM   21  C   UNL     1      -5.819   8.688  71.268  1.00  0.00    -0.041 A  
HETATM   22  H   UNL     1      -5.466  16.990  69.410  1.00  0.00     0.000 HD 
HETATM   23  C   UNL     1      -6.822   8.183  70.438  1.00  0.00    -0.037 A  
HETATM   24  O   UNL     1      -5.165   7.824  72.103  1.00  0.00    -0.035 OA 
HETATM   25  C   UNL     1      -9.156  11.312  68.425  1.00  0.00    -0.170 A  
HETATM   26  H   UNL     1      -5.400   6.904  72.123  1.00  0.00     0.000 HD 
HETATM   27  C   UNL     1      -7.444   9.081  69.558  1.00  0.00    -0.076 A  
HETATM   28  C   UNL     1     -10.052  11.649  69.430  1.00  0.00     0.299 A  
HETATM   29  C   UNL     1      -7.063  10.434  69.468  1.00  0.00    -0.113 A  
HETATM   30  C   UNL     1      -7.660  11.323  68.410  1.00  0.00    -0.120 C  
HETATM   31  C   UNL     1     -11.417  11.531  69.157  1.00  0.00    -0.362 A  
HETATM   32  C   UNL     1     -11.862  11.098  67.896  1.00  0.00    -0.162 A  
HETATM   33  O   UNL     1      -7.347  10.755  67.111  1.00  0.00    -0.093 OA 
HETATM   34  C   UNL     1     -10.951  10.776  66.890  1.00  0.00    -0.255 A  
HETATM   35  O   UNL     1      -8.492  10.318  65.161  1.00  0.00    -0.155 OA 
HETATM   36  C   UNL     1      -8.461  10.599  66.342  1.00  0.00    -0.152 C  
HETATM   37  C   UNL     1      -9.608  10.884  67.192  1.00  0.00    -0.187 A  
BRANCH  23  38
HETATM   38  C   UNL     1      -7.171   6.714  70.284  1.00  0.00    -0.077 C  
BRANCH  38  39
HETATM   39  N   UNL     1      -7.930   6.054  71.392  1.00  0.00    -0.112 NA 
BRANCH  39  40
HETATM   40  C   UNL     1      -8.600   7.126  72.202  1.00  0.00    -0.110 C  
HETATM   41  O   UNL     1      -9.968   6.887  74.203  1.00  0.00    -0.303 OA 
HETATM   42  C   UNL     1      -8.924   6.646  73.612  1.00  0.00    -0.133 C  
HETATM   43  O   UNL     1      -7.910   5.927  74.157  1.00  0.00    -0.101 OA 
ENDBRANCH  39  40
BRANCH  39  44
HETATM   44  C   UNL     1      -9.028   5.223  70.760  1.00  0.00    -0.136 C  
HETATM   45  C   UNL     1      -8.728   3.725  70.783  1.00  0.00    -0.074 C  
HETATM   46  O   UNL     1      -9.173   2.927  69.972  1.00  0.00    -0.115 OA 
HETATM   47  O   UNL     1      -7.953   3.350  71.835  1.00  0.00    -0.060 OA 
ENDBRANCH  39  44
ENDBRANCH  38  39
ENDBRANCH  23  38
ENDBRANCH  10  11
ENDBRANCH   5  10
ENDBRANCH   4   5
TORSDOF 8
ENDMDL
MODEL       99
REMARK 921   NORMALIZED FREE ENERGY PREDICTED BY IDOCK:   -4.45 KCAL/MOL
REMARK 922        TOTAL FREE ENERGY PREDICTED BY IDOCK:   -8.80 KCAL/MOL
REMARK 923 INTER-LIGAND FREE ENERGY PREDICTED BY IDOCK:   -9.59 KCAL/MOL
REMARK 924 INTRA-LIGAND FREE ENERGY PREDICTED BY IDOCK:    0.80 KCAL/MOL
REMARK 927      BINDING AFFINITY PREDICTED BY RF-SCORE:    0.00 PKD
ROOT
HETATM    1  O   UNL     1     -10.017  18.184  66.698  1.00  0.00    -0.323 OA 
HETATM    2  C   UNL     1     -10.038  17.075  65.924  1.00  0.00    -0.263 C  
HETATM    3  O   UNL     1     -10.674  17.011  64.882  1.00  0.00    -0.728 OA 
HETATM    4  C   UNL     1      -9.139  15.959  66.444  1.00  0.00    -0.320 C  
ENDROOT
BRANCH   4   5
HETATM    5  N   UNL     1      -9.036  15.905  67.958  1.00  0.00    -0.183 NA 
BRANCH   5   6
HETATM    6  C   UNL     1      -8.170  17.070  68.387  1.00  0.00    -0.250 C  
HETATM    7  O   UNL     1      -6.572  15.362  69.002  1.00  0.00    -0.113 OA 
HETATM    8  C   UNL     1      -6.902  16.665  69.137  1.00  0.00    -0.224 C  
HETATM    9  O   UNL     1      -6.206  17.458  69.754  1.00  0.00    -0.250 OA 
ENDBRANCH   5   6
BRANCH   5  10
HETATM   10  C   UNL     1     -10.444  16.144  68.473  1.00  0.00    -0.269 C  
BRANCH  10  11
HETATM   11  C   UNL     1     -11.051  14.938  69.173  1.00  0.00    -0.279 A  
HETATM   12  C   UNL     1     -10.434  13.692  69.048  1.00  0.00    -0.099 A  
HETATM   13  C   UNL     1     -11.008  12.517  69.580  1.00  0.00     0.029 A  
HETATM   14  C   UNL     1     -12.144  12.608  70.378  1.00  0.00    -0.300 A  
HETATM   15  C   UNL     1     -12.753  13.857  70.558  1.00  0.00    -0.318 A  
HETATM   16  O   UNL     1     -12.710  11.523  71.017  1.00  0.00    -0.371 OA 
HETATM   17  C   UNL     1     -12.152  10.271  70.838  1.00  0.00    -0.368 A  
HETATM   18  C   UNL     1     -12.218  15.000  69.939  1.00  0.00    -0.309 A  
HETATM   19  O   UNL     1     -12.844  16.207  70.066  1.00  0.00    -0.558 OA 
HETATM   20  C   UNL     1     -12.682   9.208  71.585  1.00  0.00    -0.429 A  
HETATM   21  C   UNL     1     -12.170   7.906  71.438  1.00  0.00    -0.313 A  
HETATM   22  H   UNL     1     -13.638  16.249  70.587  1.00  0.00     0.000 HD 
HETATM   23  C   UNL     1     -11.156   7.631  70.517  1.00  0.00    -0.267 A  
HETATM   24  O   UNL     1     -12.647   6.883  72.210  1.00  0.00    -0.516 OA 
HETATM   25  C   UNL     1     -10.364  10.950  67.753  1.00  0.00    -0.218 A  
HETATM   26  H   UNL     1     -12.302   6.003  72.111  1.00  0.00     0.000 HD 
HETATM   27  C   UNL     1     -10.653   8.706  69.772  1.00  0.00    -0.224 A  
HETATM   28  C   UNL     1     -11.371  10.751  66.820  1.00  0.00     0.094 A  
HETATM   29  C   UNL     1     -11.106  10.027  69.953  1.00  0.00    -0.336 A  
HETATM   30  C   UNL     1     -10.436  11.166  69.233  1.00  0.00    -0.151 C  
HETATM   31  C   UNL     1     -10.999  10.566  65.486  1.00  0.00     0.229 A  
HETATM   32  C   UNL     1      -9.647  10.597  65.106  1.00  0.00    -0.304 A  
HETATM   33  O   UNL     1      -9.037  11.189  69.623  1.00  0.00     0.333 OA 
HETATM   34  C   UNL     1      -8.645  10.812  66.053  1.00  0.00    -0.181 A  
HETATM   35  O   UNL     1      -7.009  11.388  68.550  1.00  0.00    -0.070 OA 
HETATM   36  C   UNL     1      -8.207  11.194  68.541  1.00  0.00    -0.149 C  
HETATM   37  C   UNL     1      -9.038  10.973  67.367  1.00  0.00    -0.143 A  
BRANCH  23  38
HETATM   38  C   UNL     1     -10.436   6.301  70.384  1.00  0.00    -0.222 C  
BRANCH  38  39
HETATM   39  N   UNL     1      -9.149   6.123  71.125  1.00  0.00    -0.146 NA 
BRANCH  39  40
HETATM   40  C   UNL     1      -9.317   6.706  72.499  1.00  0.00    -0.137 C  
HETATM   41  O   UNL     1      -7.648   7.792  73.903  1.00  0.00    -0.120 OA 
HETATM   42  C   UNL     1      -8.217   7.710  72.822  1.00  0.00    -0.121 C  
HETATM   43  O   UNL     1      -7.941   8.528  71.774  1.00  0.00    -0.127 OA 
ENDBRANCH  39  40
BRANCH  39  44
HETATM   44  C   UNL     1      -8.925   4.635  71.299  1.00  0.00    -0.127 C  
HETATM   45  C   UNL     1      -9.693   4.052  72.483  1.00  0.00    -0.150 C  
HETATM   46  O   UNL     1      -9.343   3.058  73.102  1.00  0.00    -0.089 OA 
HETATM   47  O   UNL     1     -10.847   4.718  72.753  1.00  0.00    -0.215 OA 
ENDBRANCH  39  44
ENDBRANCH  38  39
ENDBRANCH  23  38
ENDBRANCH  10  11
ENDBRANCH   5  10
ENDBRANCH   4   5
TORSDOF 8
ENDMDL
MODEL      100
REMARK 921   NORMALIZED FREE ENERGY PREDICTED BY IDOCK:   -4.44 KCAL/MOL
REMARK 922        TOTAL FREE ENERGY PREDICTED BY IDOCK:   -8.79 KCAL/MOL
REMARK 923 INTER-LIGAND FREE ENERGY PREDICTED BY IDOCK:   -8.90 KCAL/MOL
REMARK 924 INTRA-LIGAND FREE ENERGY PREDICTED BY IDOCK:    0.11 KCAL/MOL
REMARK 927      BINDING AFFINITY PREDICTED BY RF-SCORE:    0.00 PKD
ROOT
HETATM    1  O   UNL     1      -7.683  14.581  69.139  1.00  0.00    -0.130 OA 
HETATM    2  C   UNL     1      -7.114  15.794  68.951  1.00  0.00    -0.139 C  
HETATM    3  O   UNL     1      -6.218  16.219  69.664  1.00  0.00    -0.178 OA 
HETATM    4  C   UNL     1      -7.653  16.530  67.729  1.00  0.00    -0.148 C  
ENDROOT
BRANCH   4   5
HETATM    5  N   UNL     1      -9.116  16.251  67.437  1.00  0.00    -0.194 NA 
BRANCH   5   6
HETATM    6  C   UNL     1      -9.558  17.247  66.386  1.00  0.00    -0.274 C  
HETATM    7  O   UNL     1      -9.996  18.699  68.271  1.00  0.00    -0.344 OA 
HETATM    8  C   UNL     1     -10.216  18.505  66.952  1.00  0.00    -0.381 C  
HETATM    9  O   UNL     1     -10.835  19.304  66.265  1.00  0.00    -0.383 OA 
ENDBRANCH   5   6
BRANCH   5  10
HETATM   10  C   UNL     1      -9.155  14.863  66.824  1.00  0.00    -0.270 C  
BRANCH  10  11
HETATM   11  C   UNL     1     -10.013  13.876  67.601  1.00  0.00    -0.237 A  
HETATM   12  C   UNL     1      -9.458  12.664  68.013  1.00  0.00    -0.209 A  
HETATM   13  C   UNL     1     -10.232  11.662  68.638  1.00  0.00    -0.215 A  
HETATM   14  C   UNL     1     -11.551  11.932  68.990  1.00  0.00    -0.317 A  
HETATM   15  C   UNL     1     -12.114  13.162  68.629  1.00  0.00    -0.222 A  
HETATM   16  O   UNL     1     -12.344  11.045  69.691  1.00  0.00    -0.321 OA 
HETATM   17  C   UNL     1     -11.829   9.811  70.038  1.00  0.00    -0.008 A  
HETATM   18  C   UNL     1     -11.354  14.109  67.921  1.00  0.00    -0.294 A  
HETATM   19  O   UNL     1     -11.920  15.284  67.518  1.00  0.00    -0.320 OA 
HETATM   20  C   UNL     1     -12.620   8.977  70.843  1.00  0.00    -0.074 A  
HETATM   21  C   UNL     1     -12.160   7.701  71.218  1.00  0.00    -0.314 A  
HETATM   22  H   UNL     1     -12.832  15.442  67.736  1.00  0.00     0.000 HD 
HETATM   23  C   UNL     1     -10.931   7.217  70.766  1.00  0.00    -0.278 A  
HETATM   24  O   UNL     1     -12.907   6.914  72.051  1.00  0.00    -0.506 OA 
HETATM   25  C   UNL     1      -9.148   9.676  67.595  1.00  0.00    -0.141 A  
HETATM   26  H   UNL     1     -12.597   6.052  72.305  1.00  0.00     0.000 HD 
HETATM   27  C   UNL     1     -10.164   8.062  69.952  1.00  0.00    -0.204 A  
HETATM   28  C   UNL     1      -9.830   9.197  66.486  1.00  0.00    -0.333 A  
HETATM   29  C   UNL     1     -10.577   9.367  69.621  1.00  0.00    -0.239 A  
HETATM   30  C   UNL     1      -9.657  10.287  68.863  1.00  0.00    -0.190 C  
HETATM   31  C   UNL     1      -9.080   8.666  65.435  1.00  0.00    -0.150 A  
HETATM   32  C   UNL     1      -7.676   8.634  65.498  1.00  0.00    -0.092 A  
HETATM   33  O   UNL     1      -8.445  10.460  69.645  1.00  0.00    -0.145 OA 
HETATM   34  C   UNL     1      -7.002   9.132  66.613  1.00  0.00    -0.081 A  
HETATM   35  O   UNL     1      -6.178  10.422  69.241  1.00  0.00    -0.043 OA 
HETATM   36  C   UNL     1      -7.325  10.195  68.914  1.00  0.00    -0.083 C  
HETATM   37  C   UNL     1      -7.769   9.635  67.646  1.00  0.00    -0.095 A  
BRANCH  23  38
HETATM   38  C   UNL     1     -10.279   5.925  71.227  1.00  0.00    -0.210 C  
BRANCH  38  39
HETATM   39  N   UNL     1      -8.859   5.983  71.693  1.00  0.00    -0.139 NA 
BRANCH  39  40
HETATM   40  C   UNL     1      -8.863   6.241  73.172  1.00  0.00    -0.129 C  
HETATM   41  O   UNL     1      -7.374   7.665  74.471  1.00  0.00    -0.119 OA 
HETATM   42  C   UNL     1      -8.134   7.533  73.521  1.00  0.00    -0.133 C  
HETATM   43  O   UNL     1      -8.433   8.540  72.663  1.00  0.00    -0.313 OA 
ENDBRANCH  39  40
BRANCH  39  44
HETATM   44  C   UNL     1      -8.254   4.610  71.482  1.00  0.00    -0.103 C  
HETATM   45  C   UNL     1      -8.438   4.091  70.058  1.00  0.00    -0.064 C  
HETATM   46  O   UNL     1      -8.478   2.906  69.762  1.00  0.00    -0.053 OA 
HETATM   47  O   UNL     1      -8.501   5.083  69.130  1.00  0.00    -0.085 OA 
ENDBRANCH  39  44
ENDBRANCH  38  39
ENDBRANCH  23  38
ENDBRANCH  10  11
ENDBRANCH   5  10
ENDBRANCH   4   5
TORSDOF 8
ENDMDL
MODEL      101
REMARK 921   NORMALIZED FREE ENERGY PREDICTED BY IDOCK:   -4.41 KCAL/MOL
REMARK 922        TOTAL FREE ENERGY PREDICTED BY IDOCK:   -8.73 KCAL/MOL
REMARK 923 INTER-LIGAND FREE ENERGY PREDICTED BY IDOCK:   -8.34 KCAL/MOL
REMARK 924 INTRA-LIGAND FREE ENERGY PREDICTED BY IDOCK:   -0.40 KCAL/MOL
REMARK 927      BINDING AFFINITY PREDICTED BY RF-SCORE:    0.00 PKD
ROOT
HETATM    1  O   UNL     1     -10.099  18.016  66.004  1.00  0.00    -0.494 OA 
HETATM    2  C   UNL     1     -10.512  18.286  67.263  1.00  0.00    -0.398 C  
HETATM    3  O   UNL     1     -11.229  19.239  67.531  1.00  0.00    -0.326 OA 
HETATM    4  C   UNL     1     -10.053  17.250  68.283  1.00  0.00    -0.321 C  
ENDROOT
BRANCH   4   5
HETATM    5  N   UNL     1      -8.700  16.636  67.973  1.00  0.00    -0.191 NA 
BRANCH   5   6
HETATM    6  C   UNL     1      -7.667  17.731  68.136  1.00  0.00    -0.254 C  
HETATM    7  O   UNL     1      -7.173  17.299  65.808  1.00  0.00    -0.305 OA 
HETATM    8  C   UNL     1      -6.732  17.893  66.938  1.00  0.00    -0.178 C  
HETATM    9  O   UNL     1      -5.705  18.556  66.975  1.00  0.00    -0.146 OA 
ENDBRANCH   5   6
BRANCH   5  10
HETATM   10  C   UNL     1      -8.465  15.595  69.053  1.00  0.00    -0.231 C  
BRANCH  10  11
HETATM   11  C   UNL     1      -7.762  14.343  68.551  1.00  0.00    -0.135 A  
HETATM   12  C   UNL     1      -8.524  13.277  68.072  1.00  0.00    -0.170 A  
HETATM   13  C   UNL     1      -7.938  12.048  67.697  1.00  0.00    -0.150 A  
HETATM   14  C   UNL     1      -6.552  11.931  67.662  1.00  0.00    -0.099 A  
HETATM   15  C   UNL     1      -5.766  13.007  68.092  1.00  0.00    -0.093 A  
HETATM   16  O   UNL     1      -5.899  10.799  67.213  1.00  0.00    -0.044 OA 
HETATM   17  C   UNL     1      -6.645   9.708  66.808  1.00  0.00    -0.067 A  
HETATM   18  C   UNL     1      -6.373  14.187  68.552  1.00  0.00    -0.093 A  
HETATM   19  O   UNL     1      -5.609  15.214  69.027  1.00  0.00    -0.096 OA 
HETATM   20  C   UNL     1      -5.956   8.617  66.256  1.00  0.00    -0.051 A  
HETATM   21  C   UNL     1      -6.655   7.469  65.839  1.00  0.00    -0.046 A  
HETATM   22  H   UNL     1      -4.664  15.109  69.028  1.00  0.00     0.000 HD 
HETATM   23  C   UNL     1      -8.038   7.368  66.003  1.00  0.00    -0.124 A  
HETATM   24  O   UNL     1      -5.989   6.431  65.247  1.00  0.00    -0.028 OA 
HETATM   25  C   UNL     1      -9.728  10.532  68.537  1.00  0.00    -0.170 A  
HETATM   26  H   UNL     1      -6.460   5.656  64.965  1.00  0.00     0.000 HD 
HETATM   27  C   UNL     1      -8.702   8.465  66.570  1.00  0.00    -0.151 A  
HETATM   28  C   UNL     1      -9.464  10.017  69.798  1.00  0.00    -0.239 A  
HETATM   29  C   UNL     1      -8.030   9.649  66.931  1.00  0.00    -0.105 A  
HETATM   30  C   UNL     1      -8.805  10.850  67.403  1.00  0.00    -0.133 C  
HETATM   31  C   UNL     1     -10.544   9.813  70.661  1.00  0.00    -0.382 A  
HETATM   32  C   UNL     1     -11.853  10.136  70.262  1.00  0.00    -0.342 A  
HETATM   33  O   UNL     1      -9.719  11.242  66.345  1.00  0.00    -0.199 OA 
HETATM   34  C   UNL     1     -12.102  10.666  68.996  1.00  0.00    -0.084 A  
HETATM   35  O   UNL     1     -11.941  11.831  66.192  1.00  0.00    -0.464 OA 
HETATM   36  C   UNL     1     -11.001  11.355  66.795  1.00  0.00    -0.291 C  
HETATM   37  C   UNL     1     -11.019  10.840  68.157  1.00  0.00    -0.308 A  
BRANCH  23  38
HETATM   38  C   UNL     1      -8.902   6.245  65.458  1.00  0.00    -0.029 C  
BRANCH  38  39
HETATM   39  N   UNL     1     -10.063   5.789  66.283  1.00  0.00    -0.120 NA 
BRANCH  39  40
HETATM   40  C   UNL     1     -10.864   4.817  65.466  1.00  0.00    -0.038 C  
HETATM   41  O   UNL     1     -10.184   3.576  63.483  1.00  0.00    -0.168 OA 
HETATM   42  C   UNL     1      -9.967   3.900  64.644  1.00  0.00    -0.204 C  
HETATM   43  O   UNL     1      -8.894   3.460  65.349  1.00  0.00    -0.121 OA 
ENDBRANCH  39  40
BRANCH  39  44
HETATM   44  C   UNL     1      -9.508   5.024  67.467  1.00  0.00    -0.135 C  
HETATM   45  C   UNL     1      -9.872   5.658  68.809  1.00  0.00    -0.146 C  
HETATM   46  O   UNL     1      -9.203   5.539  69.825  1.00  0.00    -0.132 OA 
HETATM   47  O   UNL     1     -11.053   6.331  68.780  1.00  0.00    -0.337 OA 
ENDBRANCH  39  44
ENDBRANCH  38  39
ENDBRANCH  23  38
ENDBRANCH  10  11
ENDBRANCH   5  10
ENDBRANCH   4   5
TORSDOF 8
ENDMDL
MODEL      102
REMARK 921   NORMALIZED FREE ENERGY PREDICTED BY IDOCK:   -4.40 KCAL/MOL
REMARK 922        TOTAL FREE ENERGY PREDICTED BY IDOCK:   -8.72 KCAL/MOL
REMARK 923 INTER-LIGAND FREE ENERGY PREDICTED BY IDOCK:   -7.99 KCAL/MOL
REMARK 924 INTRA-LIGAND FREE ENERGY PREDICTED BY IDOCK:   -0.74 KCAL/MOL
REMARK 927      BINDING AFFINITY PREDICTED BY RF-SCORE:    0.00 PKD
ROOT
HETATM    1  O   UNL     1      -5.136   3.057  69.415  1.00  0.00    -0.009 OA 
HETATM    2  C   UNL     1      -5.770   2.476  68.371  1.00  0.00    -0.023 C  
HETATM    3  O   UNL     1      -5.215   1.692  67.616  1.00  0.00    -0.011 OA 
HETATM    4  C   UNL     1      -7.248   2.843  68.283  1.00  0.00    -0.049 C  
ENDROOT
BRANCH   4   5
HETATM    5  N   UNL     1      -7.563   4.249  68.761  1.00  0.00    -0.059 NA 
BRANCH   5   6
HETATM    6  C   UNL     1      -7.100   4.345  70.199  1.00  0.00    -0.045 C  
HETATM    7  O   UNL     1      -9.206   5.479  70.563  1.00  0.00    -0.143 OA 
HETATM    8  C   UNL     1      -7.987   5.218  71.085  1.00  0.00    -0.108 C  
HETATM    9  O   UNL     1      -7.655   5.597  72.199  1.00  0.00    -0.097 OA 
ENDBRANCH   5   6
BRANCH   5  10
HETATM   10  C   UNL     1      -6.699   5.171  67.920  1.00  0.00    -0.055 C  
BRANCH  10  11
HETATM   11  C   UNL     1      -7.482   6.270  67.218  1.00  0.00    -0.084 A  
HETATM   12  C   UNL     1      -7.850   7.411  67.932  1.00  0.00    -0.118 A  
HETATM   13  C   UNL     1      -8.671   8.412  67.369  1.00  0.00    -0.136 A  
HETATM   14  C   UNL     1      -9.010   8.345  66.021  1.00  0.00    -0.184 A  
HETATM   15  C   UNL     1      -8.609   7.232  65.272  1.00  0.00    -0.002 A  
HETATM   16  O   UNL     1      -9.724   9.332  65.370  1.00  0.00    -0.251 OA 
HETATM   17  C   UNL     1     -10.160  10.431  66.086  1.00  0.00    -0.237 A  
HETATM   18  C   UNL     1      -7.873   6.199  65.878  1.00  0.00    -0.107 A  
HETATM   19  O   UNL     1      -7.533   5.086  65.163  1.00  0.00    -0.074 OA 
HETATM   20  C   UNL     1     -10.786  11.465  65.375  1.00  0.00    -0.292 A  
HETATM   21  C   UNL     1     -11.268  12.604  66.046  1.00  0.00    -0.306 A  
HETATM   22  H   UNL     1      -7.799   5.038  64.252  1.00  0.00     0.000 HD 
HETATM   23  C   UNL     1     -11.175  12.714  67.436  1.00  0.00    -0.337 A  
HETATM   24  O   UNL     1     -11.824  13.638  65.344  1.00  0.00    -0.327 OA 
HETATM   25  C   UNL     1      -9.994   8.970  69.405  1.00  0.00    -0.191 A  
HETATM   26  H   UNL     1     -12.150  14.407  65.798  1.00  0.00     0.000 HD 
HETATM   27  C   UNL     1     -10.557  11.661  68.126  1.00  0.00    -0.230 A  
HETATM   28  C   UNL     1     -11.216   8.316  69.462  1.00  0.00     0.152 A  
HETATM   29  C   UNL     1     -10.010  10.545  67.465  1.00  0.00    -0.204 A  
HETATM   30  C   UNL     1      -9.233   9.511  68.235  1.00  0.00    -0.130 C  
HETATM   31  C   UNL     1     -11.691   7.926  70.716  1.00  0.00    -0.230 A  
HETATM   32  C   UNL     1     -10.943   8.180  71.879  1.00  0.00    -0.338 A  
HETATM   33  O   UNL     1      -8.102  10.170  68.864  1.00  0.00    -0.101 OA 
HETATM   34  C   UNL     1      -9.709   8.827  71.806  1.00  0.00    -0.380 A  
HETATM   35  O   UNL     1      -7.124  10.178  70.949  1.00  0.00    -0.325 OA 
HETATM   36  C   UNL     1      -8.043   9.914  70.202  1.00  0.00    -0.146 C  
HETATM   37  C   UNL     1      -9.271   9.217  70.555  1.00  0.00    -0.311 A  
BRANCH  23  38
HETATM   38  C   UNL     1     -11.526  13.954  68.238  1.00  0.00    -0.311 C  
BRANCH  38  39
HETATM   39  N   UNL     1     -10.666  14.296  69.413  1.00  0.00    -0.182 NA 
BRANCH  39  40
HETATM   40  C   UNL     1      -9.667  15.329  68.976  1.00  0.00    -0.234 C  
HETATM   41  O   UNL     1      -7.324  15.541  69.609  1.00  0.00    -0.205 OA 
HETATM   42  C   UNL     1      -8.235  14.847  69.176  1.00  0.00    -0.151 C  
HETATM   43  O   UNL     1      -8.070  13.553  68.802  1.00  0.00    -0.093 OA 
ENDBRANCH  39  40
BRANCH  39  44
HETATM   44  C   UNL     1     -11.553  14.947  70.454  1.00  0.00    -0.281 C  
HETATM   45  C   UNL     1     -12.592  13.989  71.034  1.00  0.00    -0.366 C  
HETATM   46  O   UNL     1     -13.667  14.344  71.495  1.00  0.00    -0.371 OA 
HETATM   47  O   UNL     1     -12.182  12.693  71.038  1.00  0.00    -0.304 OA 
ENDBRANCH  39  44
ENDBRANCH  38  39
ENDBRANCH  23  38
ENDBRANCH  10  11
ENDBRANCH   5  10
ENDBRANCH   4   5
TORSDOF 8
ENDMDL
MODEL      103
REMARK 921   NORMALIZED FREE ENERGY PREDICTED BY IDOCK:   -4.40 KCAL/MOL
REMARK 922        TOTAL FREE ENERGY PREDICTED BY IDOCK:   -8.72 KCAL/MOL
REMARK 923 INTER-LIGAND FREE ENERGY PREDICTED BY IDOCK:   -6.97 KCAL/MOL
REMARK 924 INTRA-LIGAND FREE ENERGY PREDICTED BY IDOCK:   -1.75 KCAL/MOL
REMARK 927      BINDING AFFINITY PREDICTED BY RF-SCORE:    0.00 PKD
ROOT
HETATM    1  O   UNL     1     -10.562  16.087  67.013  1.00  0.00    -0.309 OA 
HETATM    2  C   UNL     1     -10.193  16.307  68.295  1.00  0.00    -0.253 C  
HETATM    3  O   UNL     1     -10.993  16.315  69.219  1.00  0.00    -0.281 OA 
HETATM    4  C   UNL     1      -8.687  16.468  68.470  1.00  0.00    -0.228 C  
ENDROOT
BRANCH   4   5
HETATM    5  N   UNL     1      -7.996  17.125  67.288  1.00  0.00    -0.174 NA 
BRANCH   5   6
HETATM    6  C   UNL     1      -7.606  18.522  67.722  1.00  0.00    -0.232 C  
HETATM    7  O   UNL     1      -7.432  18.965  65.350  1.00  0.00    -0.452 OA 
HETATM    8  C   UNL     1      -7.119  19.418  66.583  1.00  0.00    -0.211 C  
HETATM    9  O   UNL     1      -6.552  20.485  66.766  1.00  0.00    -0.222 OA 
ENDBRANCH   5   6
BRANCH   5  10
HETATM   10  C   UNL     1      -6.726  16.326  67.060  1.00  0.00    -0.182 C  
BRANCH  10  11
HETATM   11  C   UNL     1      -6.712  14.983  67.775  1.00  0.00    -0.188 A  
HETATM   12  C   UNL     1      -7.496  13.939  67.283  1.00  0.00    -0.051 A  
HETATM   13  C   UNL     1      -7.612  12.707  67.964  1.00  0.00    -0.132 A  
HETATM   14  C   UNL     1      -6.817  12.461  69.079  1.00  0.00    -0.093 A  
HETATM   15  C   UNL     1      -5.986  13.480  69.562  1.00  0.00    -0.110 A  
HETATM   16  O   UNL     1      -6.796  11.250  69.742  1.00  0.00    -0.126 OA 
HETATM   17  C   UNL     1      -7.625  10.232  69.310  1.00  0.00    -0.125 A  
HETATM   18  C   UNL     1      -5.958  14.732  68.924  1.00  0.00    -0.085 A  
HETATM   19  O   UNL     1      -5.192  15.744  69.429  1.00  0.00    -0.105 OA 
HETATM   20  C   UNL     1      -7.502   8.982  69.934  1.00  0.00    -0.065 A  
HETATM   21  C   UNL     1      -8.328   7.908  69.552  1.00  0.00    -0.131 A  
HETATM   22  H   UNL     1      -4.680  15.573  70.211  1.00  0.00     0.000 HD 
HETATM   23  C   UNL     1      -9.315   8.070  68.578  1.00  0.00    -0.142 A  
HETATM   24  O   UNL     1      -8.166   6.674  70.120  1.00  0.00    -0.128 OA 
HETATM   25  C   UNL     1     -10.018  12.267  67.490  1.00  0.00    -0.201 A  
HETATM   26  H   UNL     1      -8.723   5.949  69.862  1.00  0.00     0.000 HD 
HETATM   27  C   UNL     1      -9.429   9.333  67.978  1.00  0.00    -0.152 A  
HETATM   28  C   UNL     1     -10.861  12.660  68.519  1.00  0.00    -0.279 A  
HETATM   29  C   UNL     1      -8.568  10.400  68.300  1.00  0.00    -0.128 A  
HETATM   30  C   UNL     1      -8.637  11.691  67.528  1.00  0.00    -0.149 C  
HETATM   31  C   UNL     1     -12.119  13.163  68.179  1.00  0.00    -0.224 A  
HETATM   32  C   UNL     1     -12.506  13.279  66.833  1.00  0.00    -0.045 A  
HETATM   33  O   UNL     1      -8.372  11.398  66.131  1.00  0.00    -0.155 OA 
HETATM   34  C   UNL     1     -11.642  12.893  65.807  1.00  0.00    -0.411 A  
HETATM   35  O   UNL     1      -9.303  11.963  64.102  1.00  0.00     0.008 OA 
HETATM   36  C   UNL     1      -9.342  11.897  65.313  1.00  0.00     0.003 C  
HETATM   37  C   UNL     1     -10.412  12.382  66.172  1.00  0.00    -0.274 A  
BRANCH  23  38
HETATM   38  C   UNL     1     -10.155   6.949  67.991  1.00  0.00    -0.166 C  
BRANCH  38  39
HETATM   39  N   UNL     1      -9.442   5.790  67.372  1.00  0.00    -0.111 NA 
BRANCH  39  40
HETATM   40  C   UNL     1     -10.274   4.559  67.590  1.00  0.00     0.062 C  
HETATM   41  O   UNL     1      -9.555   2.348  68.319  1.00  0.00    -0.206 OA 
HETATM   42  C   UNL     1      -9.571   3.559  68.501  1.00  0.00    -0.081 C  
HETATM   43  O   UNL     1      -8.970   4.160  69.558  1.00  0.00    -0.087 OA 
ENDBRANCH  39  40
BRANCH  39  44
HETATM   44  C   UNL     1      -9.390   6.031  65.877  1.00  0.00    -0.021 C  
HETATM   45  C   UNL     1      -8.152   6.814  65.443  1.00  0.00    -0.129 C  
HETATM   46  O   UNL     1      -8.103   7.517  64.445  1.00  0.00    -0.135 OA 
HETATM   47  O   UNL     1      -7.079   6.610  66.253  1.00  0.00    -0.064 OA 
ENDBRANCH  39  44
ENDBRANCH  38  39
ENDBRANCH  23  38
ENDBRANCH  10  11
ENDBRANCH   5  10
ENDBRANCH   4   5
TORSDOF 8
ENDMDL
MODEL      104
REMARK 921   NORMALIZED FREE ENERGY PREDICTED BY IDOCK:   -4.35 KCAL/MOL
REMARK 922        TOTAL FREE ENERGY PREDICTED BY IDOCK:   -8.65 KCAL/MOL
REMARK 923 INTER-LIGAND FREE ENERGY PREDICTED BY IDOCK:   -7.26 KCAL/MOL
REMARK 924 INTRA-LIGAND FREE ENERGY PREDICTED BY IDOCK:   -1.39 KCAL/MOL
REMARK 927      BINDING AFFINITY PREDICTED BY RF-SCORE:    0.00 PKD
ROOT
HETATM    1  O   UNL     1      -9.151   1.771  65.434  1.00  0.00    -0.124 OA 
HETATM    2  C   UNL     1      -9.512   2.326  64.255  1.00  0.00    -0.138 C  
HETATM    3  O   UNL     1      -9.556   1.689  63.213  1.00  0.00    -0.095 OA 
HETATM    4  C   UNL     1      -9.922   3.790  64.378  1.00  0.00    -0.197 C  
ENDROOT
BRANCH   4   5
HETATM    5  N   UNL     1      -9.168   4.553  65.452  1.00  0.00    -0.147 NA 
BRANCH   5   6
HETATM    6  C   UNL     1      -8.103   5.371  64.752  1.00  0.00    -0.123 C  
HETATM    7  O   UNL     1      -6.551   4.018  66.022  1.00  0.00    -0.039 OA 
HETATM    8  C   UNL     1      -6.688   5.138  65.279  1.00  0.00    -0.048 C  
HETATM    9  O   UNL     1      -5.743   5.862  65.004  1.00  0.00    -0.022 OA 
ENDBRANCH   5   6
BRANCH   5  10
HETATM   10  C   UNL     1     -10.178   5.508  66.061  1.00  0.00    -0.012 C  
BRANCH  10  11
HETATM   11  C   UNL     1      -9.550   6.595  66.920  1.00  0.00    -0.194 A  
HETATM   12  C   UNL     1      -9.509   7.905  66.443  1.00  0.00    -0.258 A  
HETATM   13  C   UNL     1      -8.841   8.935  67.142  1.00  0.00    -0.133 A  
HETATM   14  C   UNL     1      -8.331   8.683  68.412  1.00  0.00    -0.127 A  
HETATM   15  C   UNL     1      -8.405   7.385  68.932  1.00  0.00    -0.129 A  
HETATM   16  O   UNL     1      -7.754   9.658  69.202  1.00  0.00    -0.079 OA 
HETATM   17  C   UNL     1      -7.638  10.944  68.709  1.00  0.00    -0.121 A  
HETATM   18  C   UNL     1      -8.989   6.353  68.177  1.00  0.00    -0.116 A  
HETATM   19  O   UNL     1      -9.009   5.076  68.659  1.00  0.00    -0.103 OA 
HETATM   20  C   UNL     1      -7.148  11.932  69.575  1.00  0.00     0.127 A  
HETATM   21  C   UNL     1      -6.991  13.258  69.130  1.00  0.00    -0.031 A  
HETATM   22  H   UNL     1      -8.627   4.911  69.514  1.00  0.00     0.000 HD 
HETATM   23  C   UNL     1      -7.276  13.613  67.809  1.00  0.00    -0.169 A  
HETATM   24  O   UNL     1      -6.570  14.233  69.993  1.00  0.00    -0.233 OA 
HETATM   25  C   UNL     1      -7.919  10.157  65.177  1.00  0.00    -0.146 A  
HETATM   26  H   UNL     1      -6.463  15.128  69.692  1.00  0.00     0.000 HD 
HETATM   27  C   UNL     1      -7.751  12.605  66.959  1.00  0.00    -0.021 A  
HETATM   28  C   UNL     1      -6.608   9.813  64.882  1.00  0.00    -0.108 A  
HETATM   29  C   UNL     1      -7.978  11.288  67.404  1.00  0.00    -0.132 A  
HETATM   30  C   UNL     1      -8.622  10.277  66.492  1.00  0.00    -0.132 C  
HETATM   31  C   UNL     1      -6.224   9.790  63.539  1.00  0.00    -0.115 A  
HETATM   32  C   UNL     1      -7.145  10.093  62.523  1.00  0.00    -0.141 A  
HETATM   33  O   UNL     1      -9.931  10.780  66.113  1.00  0.00    -0.215 OA 
HETATM   34  C   UNL     1      -8.465  10.424  62.832  1.00  0.00    -0.187 A  
HETATM   35  O   UNL     1     -11.142  10.976  64.164  1.00  0.00    -0.244 OA 
HETATM   36  C   UNL     1     -10.103  10.782  64.761  1.00  0.00    -0.331 C  
HETATM   37  C   UNL     1      -8.814  10.457  64.168  1.00  0.00    -0.228 A  
BRANCH  23  38
HETATM   38  C   UNL     1      -7.282  15.032  67.269  1.00  0.00    -0.140 C  
BRANCH  38  39
HETATM   39  N   UNL     1      -8.601  15.723  67.129  1.00  0.00    -0.186 NA 
BRANCH  39  40
HETATM   40  C   UNL     1      -9.594  15.017  68.007  1.00  0.00    -0.208 C  
HETATM   41  O   UNL     1     -11.982  15.435  68.241  1.00  0.00    -0.283 OA 
HETATM   42  C   UNL     1     -11.022  15.216  67.514  1.00  0.00    -0.310 C  
HETATM   43  O   UNL     1     -11.121  15.108  66.165  1.00  0.00    -0.339 OA 
ENDBRANCH  39  40
BRANCH  39  44
HETATM   44  C   UNL     1      -8.440  17.126  67.680  1.00  0.00    -0.200 C  
HETATM   45  C   UNL     1      -8.781  18.208  66.657  1.00  0.00    -0.264 C  
HETATM   46  O   UNL     1      -8.309  19.336  66.673  1.00  0.00    -0.278 OA 
HETATM   47  O   UNL     1      -9.712  17.813  65.749  1.00  0.00    -0.534 OA 
ENDBRANCH  39  44
ENDBRANCH  38  39
ENDBRANCH  23  38
ENDBRANCH  10  11
ENDBRANCH   5  10
ENDBRANCH   4   5
TORSDOF 8
ENDMDL
MODEL      105
REMARK 921   NORMALIZED FREE ENERGY PREDICTED BY IDOCK:   -4.30 KCAL/MOL
REMARK 922        TOTAL FREE ENERGY PREDICTED BY IDOCK:   -8.58 KCAL/MOL
REMARK 923 INTER-LIGAND FREE ENERGY PREDICTED BY IDOCK:   -7.94 KCAL/MOL
REMARK 924 INTRA-LIGAND FREE ENERGY PREDICTED BY IDOCK:   -0.64 KCAL/MOL
REMARK 927      BINDING AFFINITY PREDICTED BY RF-SCORE:    0.00 PKD
ROOT
HETATM    1  O   UNL     1      -9.522   3.182  65.441  1.00  0.00    -0.152 OA 
HETATM    2  C   UNL     1     -10.557   3.958  65.047  1.00  0.00    -0.017 C  
HETATM    3  O   UNL     1     -11.137   3.791  63.984  1.00  0.00    -0.331 OA 
HETATM    4  C   UNL     1     -10.962   4.997  66.086  1.00  0.00     0.054 C  
ENDROOT
BRANCH   4   5
HETATM    5  N   UNL     1      -9.804   5.526  66.912  1.00  0.00    -0.147 NA 
BRANCH   5   6
HETATM    6  C   UNL     1      -9.006   6.453  66.020  1.00  0.00    -0.130 C  
HETATM    7  O   UNL     1      -7.105   5.138  66.737  1.00  0.00    -0.066 OA 
HETATM    8  C   UNL     1      -7.492   6.287  66.139  1.00  0.00    -0.085 C  
HETATM    9  O   UNL     1      -6.691   7.088  65.679  1.00  0.00    -0.050 OA 
ENDBRANCH   5   6
BRANCH   5  10
HETATM   10  C   UNL     1     -10.433   6.355  68.017  1.00  0.00    -0.220 C  
BRANCH  10  11
HETATM   11  C   UNL     1      -9.541   7.480  68.521  1.00  0.00    -0.150 A  
HETATM   12  C   UNL     1      -9.694   8.763  67.995  1.00  0.00    -0.183 A  
HETATM   13  C   UNL     1      -8.824   9.820  68.339  1.00  0.00    -0.120 A  
HETATM   14  C   UNL     1      -7.875   9.631  69.339  1.00  0.00    -0.104 A  
HETATM   15  C   UNL     1      -7.737   8.363  69.916  1.00  0.00    -0.092 A  
HETATM   16  O   UNL     1      -7.054  10.640  69.804  1.00  0.00    -0.134 OA 
HETATM   17  C   UNL     1      -7.144  11.897  69.236  1.00  0.00    -0.004 A  
HETATM   18  C   UNL     1      -8.549   7.299  69.489  1.00  0.00    -0.134 A  
HETATM   19  O   UNL     1      -8.375   6.048  70.010  1.00  0.00    -0.119 OA 
HETATM   20  C   UNL     1      -6.376  12.925  69.804  1.00  0.00    -0.063 A  
HETATM   21  C   UNL     1      -6.410  14.223  69.262  1.00  0.00    -0.110 A  
HETATM   22  H   UNL     1      -7.700   5.925  70.669  1.00  0.00     0.000 HD 
HETATM   23  C   UNL     1      -7.171  14.511  68.127  1.00  0.00    -0.132 A  
HETATM   24  O   UNL     1      -5.708  15.237  69.853  1.00  0.00    -0.114 OA 
HETATM   25  C   UNL     1      -8.714  10.928  66.110  1.00  0.00    -0.189 A  
HETATM   26  H   UNL     1      -5.730  16.114  69.488  1.00  0.00     0.000 HD 
HETATM   27  C   UNL     1      -7.918  13.464  67.569  1.00  0.00    -0.186 A  
HETATM   28  C   UNL     1      -7.604  10.555  65.366  1.00  0.00    -0.097 A  
HETATM   29  C   UNL     1      -7.950  12.175  68.135  1.00  0.00    -0.151 A  
HETATM   30  C   UNL     1      -8.877  11.125  67.585  1.00  0.00    -0.136 C  
HETATM   31  C   UNL     1      -7.747  10.458  63.980  1.00  0.00    -0.035 A  
HETATM   32  C   UNL     1      -8.985  10.716  63.366  1.00  0.00    -0.226 A  
HETATM   33  O   UNL     1     -10.238  11.620  67.695  1.00  0.00    -0.184 OA 
HETATM   34  C   UNL     1     -10.097  11.076  64.127  1.00  0.00    -0.403 A  
HETATM   35  O   UNL     1     -12.090  11.726  66.330  1.00  0.00    -0.446 OA 
HETATM   36  C   UNL     1     -10.902  11.552  66.506  1.00  0.00    -0.288 C  
HETATM   37  C   UNL     1      -9.923  11.183  65.494  1.00  0.00    -0.298 A  
BRANCH  23  38
HETATM   38  C   UNL     1      -7.392  15.899  67.553  1.00  0.00    -0.171 C  
BRANCH  38  39
HETATM   39  N   UNL     1      -8.731  16.534  67.752  1.00  0.00    -0.194 NA 
BRANCH  39  40
HETATM   40  C   UNL     1      -9.348  16.757  66.401  1.00  0.00    -0.278 C  
HETATM   41  O   UNL     1     -10.545  18.713  65.580  1.00  0.00    -0.610 OA 
HETATM   42  C   UNL     1      -9.549  18.239  66.111  1.00  0.00    -0.180 C  
HETATM   43  O   UNL     1      -8.484  18.988  66.495  1.00  0.00    -0.293 OA 
ENDBRANCH  39  40
BRANCH  39  44
HETATM   44  C   UNL     1      -9.606  15.535  68.481  1.00  0.00    -0.203 C  
HETATM   45  C   UNL     1     -10.548  16.193  69.488  1.00  0.00    -0.306 C  
HETATM   46  O   UNL     1     -10.982  15.634  70.484  1.00  0.00    -0.312 OA 
HETATM   47  O   UNL     1     -10.906  17.457  69.140  1.00  0.00    -0.149 OA 
ENDBRANCH  39  44
ENDBRANCH  38  39
ENDBRANCH  23  38
ENDBRANCH  10  11
ENDBRANCH   5  10
ENDBRANCH   4   5
TORSDOF 8
ENDMDL
MODEL      106
REMARK 921   NORMALIZED FREE ENERGY PREDICTED BY IDOCK:   -4.30 KCAL/MOL
REMARK 922        TOTAL FREE ENERGY PREDICTED BY IDOCK:   -8.58 KCAL/MOL
REMARK 923 INTER-LIGAND FREE ENERGY PREDICTED BY IDOCK:   -7.66 KCAL/MOL
REMARK 924 INTRA-LIGAND FREE ENERGY PREDICTED BY IDOCK:   -0.91 KCAL/MOL
REMARK 927      BINDING AFFINITY PREDICTED BY RF-SCORE:    0.00 PKD
ROOT
HETATM    1  O   UNL     1     -10.626  15.297  68.159  1.00  0.00    -0.244 OA 
HETATM    2  C   UNL     1     -10.073  15.779  69.296  1.00  0.00    -0.255 C  
HETATM    3  O   UNL     1     -10.695  15.871  70.343  1.00  0.00    -0.310 OA 
HETATM    4  C   UNL     1      -8.594  16.118  69.149  1.00  0.00    -0.235 C  
ENDROOT
BRANCH   4   5
HETATM    5  N   UNL     1      -8.211  16.620  67.768  1.00  0.00    -0.175 NA 
BRANCH   5   6
HETATM    6  C   UNL     1      -7.966  18.109  67.887  1.00  0.00    -0.246 C  
HETATM    7  O   UNL     1     -10.138  18.319  66.842  1.00  0.00    -0.328 OA 
HETATM    8  C   UNL     1      -9.001  18.973  67.168  1.00  0.00    -0.287 C  
HETATM    9  O   UNL     1      -8.848  20.168  66.959  1.00  0.00    -0.327 OA 
ENDBRANCH   5   6
BRANCH   5  10
HETATM   10  C   UNL     1      -6.891  15.946  67.439  1.00  0.00    -0.194 C  
BRANCH  10  11
HETATM   11  C   UNL     1      -6.606  14.714  68.285  1.00  0.00    -0.118 A  
HETATM   12  C   UNL     1      -7.164  13.489  67.919  1.00  0.00    -0.139 A  
HETATM   13  C   UNL     1      -7.029  12.336  68.723  1.00  0.00    -0.098 A  
HETATM   14  C   UNL     1      -6.200  12.370  69.839  1.00  0.00    -0.102 A  
HETATM   15  C   UNL     1      -5.590  13.579  70.198  1.00  0.00    -0.126 A  
HETATM   16  O   UNL     1      -5.935  11.263  70.620  1.00  0.00    -0.266 OA 
HETATM   17  C   UNL     1      -6.543  10.060  70.311  1.00  0.00    -0.127 A  
HETATM   18  C   UNL     1      -5.815  14.739  69.437  1.00  0.00    -0.097 A  
HETATM   19  O   UNL     1      -5.269  15.930  69.821  1.00  0.00    -0.109 OA 
HETATM   20  C   UNL     1      -6.170   8.931  71.055  1.00  0.00    -0.052 A  
HETATM   21  C   UNL     1      -6.763   7.680  70.802  1.00  0.00    -0.042 A  
HETATM   22  H   UNL     1      -4.731  15.946  70.604  1.00  0.00     0.000 HD 
HETATM   23  C   UNL     1      -7.764   7.540  69.838  1.00  0.00    -0.098 A  
HETATM   24  O   UNL     1      -6.355   6.569  71.487  1.00  0.00    -0.041 OA 
HETATM   25  C   UNL     1      -9.298  11.376  68.348  1.00  0.00    -0.194 A  
HETATM   26  H   UNL     1      -6.756   5.725  71.316  1.00  0.00     0.000 HD 
HETATM   27  C   UNL     1      -8.130   8.686  69.117  1.00  0.00    -0.116 A  
HETATM   28  C   UNL     1     -10.202  11.697  69.351  1.00  0.00     0.220 A  
HETATM   29  C   UNL     1      -7.501   9.931  69.310  1.00  0.00    -0.096 A  
HETATM   30  C   UNL     1      -7.829  11.096  68.414  1.00  0.00    -0.133 C  
HETATM   31  C   UNL     1     -11.535  11.901  68.989  1.00  0.00    -0.355 A  
HETATM   32  C   UNL     1     -11.939  11.797  67.647  1.00  0.00    -0.106 A  
HETATM   33  O   UNL     1      -7.512  10.719  67.048  1.00  0.00    -0.103 OA 
HETATM   34  C   UNL     1     -11.018  11.488  66.647  1.00  0.00    -0.349 A  
HETATM   35  O   UNL     1      -8.541  10.874  64.993  1.00  0.00    -0.153 OA 
HETATM   36  C   UNL     1      -8.564  10.927  66.206  1.00  0.00    -0.164 C  
HETATM   37  C   UNL     1      -9.709  11.274  67.034  1.00  0.00    -0.208 A  
BRANCH  23  38
HETATM   38  C   UNL     1      -8.361   6.220  69.386  1.00  0.00    -0.121 C  
BRANCH  38  39
HETATM   39  N   UNL     1      -9.795   5.949  69.715  1.00  0.00    -0.161 NA 
BRANCH  39  40
HETATM   40  C   UNL     1     -10.257   6.996  70.687  1.00  0.00    -0.191 C  
HETATM   41  O   UNL     1     -12.347   7.096  71.935  1.00  0.00    -0.315 OA 
HETATM   42  C   UNL     1     -11.349   6.467  71.609  1.00  0.00    -0.289 C  
HETATM   43  O   UNL     1     -11.087   5.210  72.049  1.00  0.00    -0.145 OA 
ENDBRANCH  39  40
BRANCH  39  44
HETATM   44  C   UNL     1     -10.598   6.138  68.444  1.00  0.00    -0.265 C  
HETATM   45  C   UNL     1     -10.322   5.057  67.400  1.00  0.00    -0.112 C  
HETATM   46  O   UNL     1     -10.452   5.222  66.196  1.00  0.00    -0.238 OA 
HETATM   47  O   UNL     1      -9.966   3.864  67.946  1.00  0.00    -0.048 OA 
ENDBRANCH  39  44
ENDBRANCH  38  39
ENDBRANCH  23  38
ENDBRANCH  10  11
ENDBRANCH   5  10
ENDBRANCH   4   5
TORSDOF 8
ENDMDL
MODEL      107
REMARK 921   NORMALIZED FREE ENERGY PREDICTED BY IDOCK:   -4.29 KCAL/MOL
REMARK 922        TOTAL FREE ENERGY PREDICTED BY IDOCK:   -8.57 KCAL/MOL
REMARK 923 INTER-LIGAND FREE ENERGY PREDICTED BY IDOCK:   -7.67 KCAL/MOL
REMARK 924 INTRA-LIGAND FREE ENERGY PREDICTED BY IDOCK:   -0.90 KCAL/MOL
REMARK 927      BINDING AFFINITY PREDICTED BY RF-SCORE:    0.00 PKD
ROOT
HETATM    1  O   UNL     1      -8.862   8.440  65.070  1.00  0.00    -0.116 OA 
HETATM    2  C   UNL     1      -8.677   9.753  64.800  1.00  0.00    -0.192 C  
HETATM    3  O   UNL     1      -7.715  10.166  64.170  1.00  0.00    -0.145 OA 
HETATM    4  C   UNL     1      -9.817  10.637  65.294  1.00  0.00    -0.275 C  
ENDROOT
BRANCH   4   5
HETATM    5  N   UNL     1     -10.471  10.142  66.572  1.00  0.00    -0.199 NA 
BRANCH   5   6
HETATM    6  C   UNL     1      -9.579  10.563  67.720  1.00  0.00    -0.156 C  
HETATM    7  O   UNL     1     -10.487   8.620  68.840  1.00  0.00    -0.215 OA 
HETATM    8  C   UNL     1      -9.802   9.773  69.008  1.00  0.00    -0.181 C  
HETATM    9  O   UNL     1      -9.348  10.114  70.091  1.00  0.00    -0.127 OA 
ENDBRANCH   5   6
BRANCH   5  10
HETATM   10  C   UNL     1     -11.780  10.903  66.683  1.00  0.00     0.905 C  
BRANCH  10  11
HETATM   11  C   UNL     1     -11.696  12.340  66.190  1.00  0.00    -0.440 A  
HETATM   12  C   UNL     1     -10.923  13.261  66.898  1.00  0.00    -0.298 A  
HETATM   13  C   UNL     1     -10.894  14.631  66.556  1.00  0.00    -0.315 A  
HETATM   14  C   UNL     1     -11.531  15.063  65.398  1.00  0.00    -0.287 A  
HETATM   15  C   UNL     1     -12.273  14.145  64.644  1.00  0.00    -0.465 A  
HETATM   16  O   UNL     1     -11.468  16.365  64.939  1.00  0.00    -0.156 OA 
HETATM   17  C   UNL     1     -10.769  17.304  65.674  1.00  0.00    -0.120 A  
HETATM   18  C   UNL     1     -12.368  12.805  65.056  1.00  0.00    -0.499 A  
HETATM   19  O   UNL     1     -13.138  11.922  64.354  1.00  0.00    -0.535 OA 
HETATM   20  C   UNL     1     -10.631  18.588  65.127  1.00  0.00     0.858 A  
HETATM   21  C   UNL     1      -9.945  19.595  65.832  1.00  0.00    -0.346 A  
HETATM   22  H   UNL     1     -13.595  12.238  63.583  1.00  0.00     0.000 HD 
HETATM   23  C   UNL     1      -9.424  19.355  67.105  1.00  0.00    -0.398 A  
HETATM   24  O   UNL     1      -9.760  20.829  65.271  1.00  0.00    -0.150 OA 
HETATM   25  C   UNL     1     -10.789  15.568  68.862  1.00  0.00    -0.254 A  
HETATM   26  H   UNL     1      -9.297  21.509  65.747  1.00  0.00     0.000 HD 
HETATM   27  C   UNL     1      -9.586  18.068  67.637  1.00  0.00    -0.271 A  
HETATM   28  C   UNL     1     -12.028  15.948  69.357  1.00  0.00    -0.268 A  
HETATM   29  C   UNL     1     -10.211  17.029  66.919  1.00  0.00    -0.305 A  
HETATM   30  C   UNL     1     -10.235  15.630  67.473  1.00  0.00    -0.263 C  
HETATM   31  C   UNL     1     -12.267  15.779  70.723  1.00  0.00    -0.441 A  
HETATM   32  C   UNL     1     -11.283  15.227  71.561  1.00  0.00    -0.369 A  
HETATM   33  O   UNL     1      -8.862  15.192  67.655  1.00  0.00    -0.166 OA 
HETATM   34  C   UNL     1     -10.046  14.836  71.048  1.00  0.00     1.425 A  
HETATM   35  O   UNL     1      -7.651  14.141  69.309  1.00  0.00    -0.064 OA 
HETATM   36  C   UNL     1      -8.638  14.729  68.918  1.00  0.00    -0.160 C  
HETATM   37  C   UNL     1      -9.830  15.031  69.698  1.00  0.00    -0.095 A  
BRANCH  23  38
HETATM   38  C   UNL     1      -8.546  20.318  67.884  1.00  0.00    -0.139 C  
BRANCH  38  39
HETATM   39  N   UNL     1      -7.068  20.258  67.659  1.00  0.00    -0.276 NA 
BRANCH  39  40
HETATM   40  C   UNL     1      -6.736  21.158  66.503  1.00  0.00    -0.172 C  
HETATM   41  O   UNL     1      -5.228  20.739  64.637  1.00  0.00    -0.177 OA 
HETATM   42  C   UNL     1      -6.172  20.374  65.324  1.00  0.00    -0.257 C  
HETATM   43  O   UNL     1      -6.849  19.218  65.103  1.00  0.00    -0.439 OA 
ENDBRANCH  39  40
BRANCH  39  44
HETATM   44  C   UNL     1      -6.396  20.843  68.885  1.00  0.00    -0.005 C  
HETATM   45  C   UNL     1      -6.370  19.875  70.067  1.00  0.00    -0.346 C  
HETATM   46  O   UNL     1      -6.332  20.227  71.236  1.00  0.00    -0.514 OA 
HETATM   47  O   UNL     1      -6.339  18.570  69.690  1.00  0.00    -0.262 OA 
ENDBRANCH  39  44
ENDBRANCH  38  39
ENDBRANCH  23  38
ENDBRANCH  10  11
ENDBRANCH   5  10
ENDBRANCH   4   5
TORSDOF 8
ENDMDL
MODEL      108
REMARK 921   NORMALIZED FREE ENERGY PREDICTED BY IDOCK:   -4.29 KCAL/MOL
REMARK 922        TOTAL FREE ENERGY PREDICTED BY IDOCK:   -8.56 KCAL/MOL
REMARK 923 INTER-LIGAND FREE ENERGY PREDICTED BY IDOCK:   -8.26 KCAL/MOL
REMARK 924 INTRA-LIGAND FREE ENERGY PREDICTED BY IDOCK:   -0.30 KCAL/MOL
REMARK 927      BINDING AFFINITY PREDICTED BY RF-SCORE:    0.00 PKD
ROOT
HETATM    1  O   UNL     1     -11.222  17.426  64.915  1.00  0.00    -0.744 OA 
HETATM    2  C   UNL     1     -10.262  17.917  65.732  1.00  0.00    -0.129 C  
HETATM    3  O   UNL     1      -9.620  18.922  65.465  1.00  0.00    -0.199 OA 
HETATM    4  C   UNL     1     -10.121  17.136  67.034  1.00  0.00    -0.297 C  
ENDROOT
BRANCH   4   5
HETATM    5  N   UNL     1     -10.407  15.652  66.896  1.00  0.00    -0.286 NA 
BRANCH   5   6
HETATM    6  C   UNL     1      -9.968  15.241  65.506  1.00  0.00    -0.348 C  
HETATM    7  O   UNL     1     -11.984  13.903  65.512  1.00  0.00    -0.347 OA 
HETATM    8  C   UNL     1     -10.801  14.116  64.894  1.00  0.00    -0.411 C  
HETATM    9  O   UNL     1     -10.464  13.501  63.893  1.00  0.00    -0.196 OA 
ENDBRANCH   5   6
BRANCH   5  10
HETATM   10  C   UNL     1      -9.502  14.965  67.903  1.00  0.00    -0.200 C  
BRANCH  10  11
HETATM   11  C   UNL     1     -10.047  13.638  68.409  1.00  0.00    -0.241 A  
HETATM   12  C   UNL     1      -9.176  12.561  68.578  1.00  0.00    -0.071 A  
HETATM   13  C   UNL     1      -9.638  11.276  68.937  1.00  0.00    -0.119 A  
HETATM   14  C   UNL     1     -10.976  11.097  69.275  1.00  0.00    -0.247 A  
HETATM   15  C   UNL     1     -11.859  12.177  69.159  1.00  0.00    -0.361 A  
HETATM   16  O   UNL     1     -11.487   9.898  69.732  1.00  0.00    -0.221 OA 
HETATM   17  C   UNL     1     -10.649   8.803  69.831  1.00  0.00    -0.224 A  
HETATM   18  C   UNL     1     -11.395  13.425  68.708  1.00  0.00    -0.292 A  
HETATM   19  O   UNL     1     -12.267  14.462  68.539  1.00  0.00    -0.555 OA 
HETATM   20  C   UNL     1     -11.172   7.632  70.400  1.00  0.00    -0.258 A  
HETATM   21  C   UNL     1     -10.376   6.476  70.514  1.00  0.00    -0.201 A  
HETATM   22  H   UNL     1     -13.184  14.317  68.742  1.00  0.00     0.000 HD 
HETATM   23  C   UNL     1      -9.067   6.453  70.028  1.00  0.00    -0.150 A  
HETATM   24  O   UNL     1     -10.868   5.355  71.123  1.00  0.00    -0.210 OA 
HETATM   25  C   UNL     1      -8.066   9.934  67.545  1.00  0.00    -0.110 A  
HETATM   26  H   UNL     1     -10.331   4.575  71.201  1.00  0.00     0.000 HD 
HETATM   27  C   UNL     1      -8.571   7.631  69.451  1.00  0.00    -0.136 A  
HETATM   28  C   UNL     1      -8.606   9.544  66.328  1.00  0.00    -0.141 A  
HETATM   29  C   UNL     1      -9.330   8.816  69.388  1.00  0.00    -0.157 A  
HETATM   30  C   UNL     1      -8.706  10.092  68.889  1.00  0.00    -0.146 C  
HETATM   31  C   UNL     1      -7.753   9.478  65.224  1.00  0.00    -0.111 A  
HETATM   32  C   UNL     1      -6.394   9.813  65.346  1.00  0.00    -0.082 A  
HETATM   33  O   UNL     1      -7.578  10.410  69.747  1.00  0.00    -0.155 OA 
HETATM   34  C   UNL     1      -5.866  10.218  66.573  1.00  0.00    -0.063 A  
HETATM   35  O   UNL     1      -5.392  11.074  69.451  1.00  0.00    -0.041 OA 
HETATM   36  C   UNL     1      -6.438  10.624  69.030  1.00  0.00    -0.052 C  
HETATM   37  C   UNL     1      -6.728  10.256  67.652  1.00  0.00    -0.074 A  
BRANCH  23  38
HETATM   38  C   UNL     1      -8.080   5.316  70.232  1.00  0.00    -0.091 C  
BRANCH  38  39
HETATM   39  N   UNL     1      -7.865   4.816  71.624  1.00  0.00    -0.095 NA 
BRANCH  39  40
HETATM   40  C   UNL     1      -7.037   3.565  71.549  1.00  0.00    -0.032 C  
HETATM   41  O   UNL     1      -5.828   2.657  69.639  1.00  0.00    -0.021 OA 
HETATM   42  C   UNL     1      -6.064   3.605  70.376  1.00  0.00    -0.019 C  
HETATM   43  O   UNL     1      -5.466   4.816  70.244  1.00  0.00    -0.010 OA 
ENDBRANCH  39  40
BRANCH  39  44
HETATM   44  C   UNL     1      -7.039   5.852  72.359  1.00  0.00    -0.085 C  
HETATM   45  C   UNL     1      -7.832   6.591  73.435  1.00  0.00    -0.091 C  
HETATM   46  O   UNL     1      -7.576   7.723  73.816  1.00  0.00    -0.118 OA 
HETATM   47  O   UNL     1      -8.828   5.841  73.976  1.00  0.00    -0.123 OA 
ENDBRANCH  39  44
ENDBRANCH  38  39
ENDBRANCH  23  38
ENDBRANCH  10  11
ENDBRANCH   5  10
ENDBRANCH   4   5
TORSDOF 8
ENDMDL
MODEL      109
REMARK 921   NORMALIZED FREE ENERGY PREDICTED BY IDOCK:   -4.27 KCAL/MOL
REMARK 922        TOTAL FREE ENERGY PREDICTED BY IDOCK:   -8.54 KCAL/MOL
REMARK 923 INTER-LIGAND FREE ENERGY PREDICTED BY IDOCK:   -9.35 KCAL/MOL
REMARK 924 INTRA-LIGAND FREE ENERGY PREDICTED BY IDOCK:    0.81 KCAL/MOL
REMARK 927      BINDING AFFINITY PREDICTED BY RF-SCORE:    0.00 PKD
ROOT
HETATM    1  O   UNL     1      -7.721   6.706  69.131  1.00  0.00    -0.101 OA 
HETATM    2  C   UNL     1      -8.321   5.932  68.198  1.00  0.00    -0.115 C  
HETATM    3  O   UNL     1      -9.332   5.286  68.430  1.00  0.00    -0.111 OA 
HETATM    4  C   UNL     1      -7.654   6.010  66.829  1.00  0.00    -0.095 C  
ENDROOT
BRANCH   4   5
HETATM    5  N   UNL     1      -6.151   6.216  66.887  1.00  0.00    -0.024 NA 
BRANCH   5   6
HETATM    6  C   UNL     1      -5.522   4.852  67.078  1.00  0.00    -0.013 C  
HETATM    7  O   UNL     1      -6.750   4.258  65.080  1.00  0.00    -0.046 OA 
HETATM    8  C   UNL     1      -6.067   3.775  66.141  1.00  0.00    -0.028 C  
HETATM    9  O   UNL     1      -5.853   2.582  66.296  1.00  0.00    -0.021 OA 
ENDBRANCH   5   6
BRANCH   5  10
HETATM   10  C   UNL     1      -5.755   6.735  65.517  1.00  0.00    -0.030 C  
BRANCH  10  11
HETATM   11  C   UNL     1      -6.777   7.681  64.904  1.00  0.00    -0.050 A  
HETATM   12  C   UNL     1      -7.226   8.775  65.643  1.00  0.00    -0.084 A  
HETATM   13  C   UNL     1      -8.253   9.623  65.174  1.00  0.00    -0.134 A  
HETATM   14  C   UNL     1      -8.740   9.462  63.881  1.00  0.00    -0.202 A  
HETATM   15  C   UNL     1      -8.267   8.398  63.102  1.00  0.00    -0.127 A  
HETATM   16  O   UNL     1      -9.670  10.309  63.311  1.00  0.00    -0.301 OA 
HETATM   17  C   UNL     1     -10.179  11.352  64.061  1.00  0.00    -0.346 A  
HETATM   18  C   UNL     1      -7.314   7.508  63.624  1.00  0.00    -0.094 A  
HETATM   19  O   UNL     1      -6.896   6.437  62.888  1.00  0.00    -0.039 OA 
HETATM   20  C   UNL     1     -11.039  12.257  63.420  1.00  0.00    -0.487 A  
HETATM   21  C   UNL     1     -11.604  13.332  64.132  1.00  0.00    -0.405 A  
HETATM   22  H   UNL     1      -7.261   6.320  62.018  1.00  0.00     0.000 HD 
HETATM   23  C   UNL     1     -11.360  13.499  65.497  1.00  0.00    -0.310 A  
HETATM   24  O   UNL     1     -12.394  14.247  63.491  1.00  0.00    -1.080 OA 
HETATM   25  C   UNL     1      -9.388  10.042  67.352  1.00  0.00    -0.167 A  
HETATM   26  H   UNL     1     -12.776  14.972  63.972  1.00  0.00     0.000 HD 
HETATM   27  C   UNL     1     -10.509  12.574  66.119  1.00  0.00    -0.272 A  
HETATM   28  C   UNL     1     -10.479   9.213  67.571  1.00  0.00    -0.335 A  
HETATM   29  C   UNL     1      -9.882  11.532  65.409  1.00  0.00    -0.271 A  
HETATM   30  C   UNL     1      -8.867  10.652  66.089  1.00  0.00    -0.168 C  
HETATM   31  C   UNL     1     -10.733   8.797  68.880  1.00  0.00    -0.114 A  
HETATM   32  C   UNL     1      -9.896   9.198  69.936  1.00  0.00    -0.206 A  
HETATM   33  O   UNL     1      -7.783  11.494  66.563  1.00  0.00    -0.134 OA 
HETATM   34  C   UNL     1      -8.794  10.020  69.700  1.00  0.00    -0.217 A  
HETATM   35  O   UNL     1      -6.570  11.717  68.509  1.00  0.00    -0.055 OA 
HETATM   36  C   UNL     1      -7.522  11.293  67.886  1.00  0.00    -0.094 C  
HETATM   37  C   UNL     1      -8.577  10.432  68.400  1.00  0.00    -0.128 A  
BRANCH  23  38
HETATM   38  C   UNL     1     -11.797  14.697  66.321  1.00  0.00    -0.291 C  
BRANCH  38  39
HETATM   39  N   UNL     1     -10.750  15.439  67.090  1.00  0.00    -0.310 NA 
BRANCH  39  40
HETATM   40  C   UNL     1      -9.701  14.454  67.519  1.00  0.00    -0.215 C  
HETATM   41  O   UNL     1      -7.431  14.891  68.288  1.00  0.00    -0.103 OA 
HETATM   42  C   UNL     1      -8.631  15.112  68.383  1.00  0.00    -0.159 C  
HETATM   43  O   UNL     1      -9.158  15.971  69.291  1.00  0.00    -0.246 OA 
ENDBRANCH  39  40
BRANCH  39  44
HETATM   44  C   UNL     1     -10.084  16.409  66.135  1.00  0.00    -0.346 C  
HETATM   45  C   UNL     1     -10.505  17.859  66.372  1.00  0.00    -0.317 C  
HETATM   46  O   UNL     1     -10.502  18.721  65.506  1.00  0.00    -0.569 OA 
HETATM   47  O   UNL     1     -10.834  18.116  67.665  1.00  0.00    -0.392 OA 
ENDBRANCH  39  44
ENDBRANCH  38  39
ENDBRANCH  23  38
ENDBRANCH  10  11
ENDBRANCH   5  10
ENDBRANCH   4   5
TORSDOF 8
ENDMDL
MODEL      110
REMARK 921   NORMALIZED FREE ENERGY PREDICTED BY IDOCK:   -4.23 KCAL/MOL
REMARK 922        TOTAL FREE ENERGY PREDICTED BY IDOCK:   -8.48 KCAL/MOL
REMARK 923 INTER-LIGAND FREE ENERGY PREDICTED BY IDOCK:   -8.32 KCAL/MOL
REMARK 924 INTRA-LIGAND FREE ENERGY PREDICTED BY IDOCK:   -0.16 KCAL/MOL
REMARK 927      BINDING AFFINITY PREDICTED BY RF-SCORE:    0.00 PKD
ROOT
HETATM    1  O   UNL     1     -10.732  17.737  65.350  1.00  0.00    -0.626 OA 
HETATM    2  C   UNL     1     -10.601  18.827  66.141  1.00  0.00    -0.377 C  
HETATM    3  O   UNL     1     -10.257  19.917  65.709  1.00  0.00    -0.464 OA 
HETATM    4  C   UNL     1     -10.994  18.569  67.591  1.00  0.00    -0.137 C  
ENDROOT
BRANCH   4   5
HETATM    5  N   UNL     1     -10.692  17.161  68.071  1.00  0.00    -0.383 NA 
BRANCH   5   6
HETATM    6  C   UNL     1      -9.562  17.264  69.072  1.00  0.00    -0.171 C  
HETATM    7  O   UNL     1      -8.152  16.663  67.200  1.00  0.00    -0.163 OA 
HETATM    8  C   UNL     1      -8.213  16.778  68.545  1.00  0.00    -0.242 C  
HETATM    9  O   UNL     1      -7.247  16.570  69.266  1.00  0.00    -0.229 OA 
ENDBRANCH   5   6
BRANCH   5  10
HETATM   10  C   UNL     1     -11.939  16.703  68.806  1.00  0.00     0.631 C  
BRANCH  10  11
HETATM   11  C   UNL     1     -11.869  15.262  69.288  1.00  0.00    -0.353 A  
HETATM   12  C   UNL     1     -10.971  14.381  68.683  1.00  0.00    -0.264 A  
HETATM   13  C   UNL     1     -10.937  13.008  69.009  1.00  0.00    -0.242 A  
HETATM   14  C   UNL     1     -11.712  12.532  70.062  1.00  0.00    -0.221 A  
HETATM   15  C   UNL     1     -12.586  13.410  70.716  1.00  0.00    -0.369 A  
HETATM   16  O   UNL     1     -11.664  11.226  70.508  1.00  0.00    -0.329 OA 
HETATM   17  C   UNL     1     -10.834  10.326  69.866  1.00  0.00    -0.302 A  
HETATM   18  C   UNL     1     -12.674  14.753  70.312  1.00  0.00    -0.276 A  
HETATM   19  O   UNL     1     -13.567  15.594  70.910  1.00  0.00    -0.780 OA 
HETATM   20  C   UNL     1     -10.725   9.038  70.411  1.00  0.00    -0.267 A  
HETATM   21  C   UNL     1      -9.909   8.069  69.796  1.00  0.00    -0.183 A  
HETATM   22  H   UNL     1     -14.115  15.248  71.606  1.00  0.00     0.000 HD 
HETATM   23  C   UNL     1      -9.226   8.350  68.611  1.00  0.00    -0.143 A  
HETATM   24  O   UNL     1      -9.758   6.833  70.362  1.00  0.00    -0.175 OA 
HETATM   25  C   UNL     1     -10.477  12.116  66.728  1.00  0.00    -0.245 A  
HETATM   26  H   UNL     1      -9.207   6.179  69.946  1.00  0.00     0.000 HD 
HETATM   27  C   UNL     1      -9.362   9.640  68.078  1.00  0.00    -0.142 A  
HETATM   28  C   UNL     1     -11.620  11.700  66.061  1.00  0.00    -0.101 A  
HETATM   29  C   UNL     1     -10.119  10.642  68.714  1.00  0.00    -0.203 A  
HETATM   30  C   UNL     1     -10.119  12.050  68.180  1.00  0.00    -0.200 C  
HETATM   31  C   UNL     1     -11.673  11.885  64.677  1.00  0.00    -0.306 A  
HETATM   32  C   UNL     1     -10.605  12.487  63.991  1.00  0.00    -0.451 A  
HETATM   33  O   UNL     1      -8.752  12.540  68.197  1.00  0.00    -0.180 OA 
HETATM   34  C   UNL     1      -9.467  12.913  64.677  1.00  0.00     0.469 A  
HETATM   35  O   UNL     1      -7.365  13.663  66.741  1.00  0.00     0.329 OA 
HETATM   36  C   UNL     1      -8.373  13.033  66.984  1.00  0.00    -0.095 C  
HETATM   37  C   UNL     1      -9.432  12.702  66.042  1.00  0.00    -0.140 A  
BRANCH  23  38
HETATM   38  C   UNL     1      -8.212   7.434  67.950  1.00  0.00    -0.120 C  
BRANCH  38  39
HETATM   39  N   UNL     1      -8.638   6.039  67.619  1.00  0.00    -0.107 NA 
BRANCH  39  40
HETATM   40  C   UNL     1      -9.973   6.108  66.934  1.00  0.00    -0.168 C  
HETATM   41  O   UNL     1     -10.982   4.501  65.407  1.00  0.00    -0.256 OA 
HETATM   42  C   UNL     1     -10.446   4.732  66.482  1.00  0.00    -0.204 C  
HETATM   43  O   UNL     1     -10.221   3.777  67.420  1.00  0.00     0.224 OA 
ENDBRANCH  39  40
BRANCH  39  44
HETATM   44  C   UNL     1      -7.650   5.487  66.612  1.00  0.00    -0.088 C  
HETATM   45  C   UNL     1      -7.713   6.202  65.264  1.00  0.00    -0.095 C  
HETATM   46  O   UNL     1      -7.399   5.685  64.201  1.00  0.00    -0.056 OA 
HETATM   47  O   UNL     1      -8.104   7.499  65.363  1.00  0.00    -0.120 OA 
ENDBRANCH  39  44
ENDBRANCH  38  39
ENDBRANCH  23  38
ENDBRANCH  10  11
ENDBRANCH   5  10
ENDBRANCH   4   5
TORSDOF 8
ENDMDL
MODEL      111
REMARK 921   NORMALIZED FREE ENERGY PREDICTED BY IDOCK:   -4.06 KCAL/MOL
REMARK 922        TOTAL FREE ENERGY PREDICTED BY IDOCK:   -8.22 KCAL/MOL
REMARK 923 INTER-LIGAND FREE ENERGY PREDICTED BY IDOCK:   -7.27 KCAL/MOL
REMARK 924 INTRA-LIGAND FREE ENERGY PREDICTED BY IDOCK:   -0.95 KCAL/MOL
REMARK 927      BINDING AFFINITY PREDICTED BY RF-SCORE:    0.00 PKD
ROOT
HETATM    1  O   UNL     1      -7.669   3.097  64.160  1.00  0.00    -0.074 OA 
HETATM    2  C   UNL     1      -6.395   2.838  64.534  1.00  0.00    -0.023 C  
HETATM    3  O   UNL     1      -5.851   1.764  64.322  1.00  0.00    -0.012 OA 
HETATM    4  C   UNL     1      -5.699   4.035  65.171  1.00  0.00    -0.018 C  
ENDROOT
BRANCH   4   5
HETATM    5  N   UNL     1      -6.625   4.935  65.969  1.00  0.00    -0.044 NA 
BRANCH   5   6
HETATM    6  C   UNL     1      -6.556   4.478  67.411  1.00  0.00    -0.047 C  
HETATM    7  O   UNL     1      -8.898   5.083  67.477  1.00  0.00    -0.104 OA 
HETATM    8  C   UNL     1      -7.813   4.782  68.225  1.00  0.00    -0.081 C  
HETATM    9  O   UNL     1      -7.858   4.699  69.443  1.00  0.00    -0.062 OA 
ENDBRANCH   5   6
BRANCH   5  10
HETATM   10  C   UNL     1      -6.023   6.325  65.881  1.00  0.00    -0.025 C  
BRANCH  10  11
HETATM   11  C   UNL     1      -7.048   7.420  65.625  1.00  0.00    -0.065 A  
HETATM   12  C   UNL     1      -7.541   8.159  66.701  1.00  0.00    -0.093 A  
HETATM   13  C   UNL     1      -8.574   9.110  66.543  1.00  0.00    -0.136 A  
HETATM   14  C   UNL     1      -9.020   9.433  65.266  1.00  0.00    -0.204 A  
HETATM   15  C   UNL     1      -8.503   8.737  64.166  1.00  0.00    -0.123 A  
HETATM   16  O   UNL     1      -9.953  10.421  65.017  1.00  0.00    -0.294 OA 
HETATM   17  C   UNL     1     -10.505  11.108  66.081  1.00  0.00    -0.253 A  
HETATM   18  C   UNL     1      -7.545   7.727  64.355  1.00  0.00    -0.110 A  
HETATM   19  O   UNL     1      -7.084   7.008  63.290  1.00  0.00    -0.057 OA 
HETATM   20  C   UNL     1     -11.367  12.177  65.791  1.00  0.00    -0.402 A  
HETATM   21  C   UNL     1     -11.975  12.907  66.829  1.00  0.00    -0.350 A  
HETATM   22  H   UNL     1      -7.422   7.216  62.427  1.00  0.00     0.000 HD 
HETATM   23  C   UNL     1     -11.773  12.561  68.167  1.00  0.00    -0.400 A  
HETATM   24  O   UNL     1     -12.766  13.986  66.545  1.00  0.00    -0.498 OA 
HETATM   25  C   UNL     1      -9.777   8.683  68.682  1.00  0.00    -0.171 A  
HETATM   26  H   UNL     1     -13.177  14.478  67.246  1.00  0.00     0.000 HD 
HETATM   27  C   UNL     1     -10.919  11.480  68.432  1.00  0.00    -0.267 A  
HETATM   28  C   UNL     1     -10.855   7.820  68.543  1.00  0.00     0.012 A  
HETATM   29  C   UNL     1     -10.249  10.780  67.410  1.00  0.00    -0.241 A  
HETATM   30  C   UNL     1      -9.235   9.722  67.752  1.00  0.00    -0.130 C  
HETATM   31  C   UNL     1     -11.136   6.948  69.597  1.00  0.00    -0.302 A  
HETATM   32  C   UNL     1     -10.339   6.939  70.753  1.00  0.00    -0.223 A  
HETATM   33  O   UNL     1      -8.183  10.341  68.539  1.00  0.00    -0.103 OA 
HETATM   34  C   UNL     1      -9.249   7.801  70.875  1.00  0.00    -0.155 A  
HETATM   35  O   UNL     1      -7.031   9.841  70.470  1.00  0.00    -0.120 OA 
HETATM   36  C   UNL     1      -7.955   9.667  69.703  1.00  0.00    -0.137 C  
HETATM   37  C   UNL     1      -9.005   8.666  69.826  1.00  0.00    -0.145 A  
BRANCH  23  38
HETATM   38  C   UNL     1     -12.258  13.365  69.360  1.00  0.00    -0.195 C  
BRANCH  38  39
HETATM   39  N   UNL     1     -11.866  12.900  70.726  1.00  0.00    -0.010 NA 
BRANCH  39  40
HETATM   40  C   UNL     1     -11.690  14.110  71.598  1.00  0.00     0.390 C  
HETATM   41  O   UNL     1     -12.482  16.383  71.223  1.00  0.00    -0.003 OA 
HETATM   42  C   UNL     1     -12.725  15.185  71.286  1.00  0.00    -0.369 C  
HETATM   43  O   UNL     1     -13.965  14.666  71.098  1.00  0.00    -0.367 OA 
ENDBRANCH  39  40
BRANCH  39  44
HETATM   44  C   UNL     1     -13.029  12.111  71.290  1.00  0.00    -0.207 C  
HETATM   45  C   UNL     1     -12.776  10.605  71.301  1.00  0.00    -0.433 C  
HETATM   46  O   UNL     1     -13.661   9.762  71.250  1.00  0.00    -0.344 OA 
HETATM   47  O   UNL     1     -11.461  10.283  71.429  1.00  0.00    -0.278 OA 
ENDBRANCH  39  44
ENDBRANCH  38  39
ENDBRANCH  23  38
ENDBRANCH  10  11
ENDBRANCH   5  10
ENDBRANCH   4   5
TORSDOF 8
ENDMDL
MODEL      112
REMARK 921   NORMALIZED FREE ENERGY PREDICTED BY IDOCK:   -4.05 KCAL/MOL
REMARK 922        TOTAL FREE ENERGY PREDICTED BY IDOCK:   -8.21 KCAL/MOL
REMARK 923 INTER-LIGAND FREE ENERGY PREDICTED BY IDOCK:   -8.08 KCAL/MOL
REMARK 924 INTRA-LIGAND FREE ENERGY PREDICTED BY IDOCK:   -0.12 KCAL/MOL
REMARK 927      BINDING AFFINITY PREDICTED BY RF-SCORE:    0.00 PKD
ROOT
HETATM    1  O   UNL     1      -8.615   2.651  66.598  1.00  0.00    -0.099 OA 
HETATM    2  C   UNL     1      -9.422   3.047  67.609  1.00  0.00    -0.138 C  
HETATM    3  O   UNL     1      -9.876   2.268  68.433  1.00  0.00    -0.017 OA 
HETATM    4  C   UNL     1      -9.641   4.555  67.650  1.00  0.00    -0.165 C  
ENDROOT
BRANCH   4   5
HETATM    5  N   UNL     1      -9.648   5.215  66.283  1.00  0.00    -0.154 NA 
BRANCH   5   6
HETATM    6  C   UNL     1     -10.600   4.424  65.412  1.00  0.00    -0.161 C  
HETATM    7  O   UNL     1      -8.693   4.178  63.944  1.00  0.00    -0.108 OA 
HETATM    8  C   UNL     1     -10.035   4.056  64.041  1.00  0.00    -0.154 C  
HETATM    9  O   UNL     1     -10.723   3.627  63.126  1.00  0.00    -0.224 OA 
ENDBRANCH   5   6
BRANCH   5  10
HETATM   10  C   UNL     1     -10.238   6.597  66.498  1.00  0.00    -0.059 C  
BRANCH  10  11
HETATM   11  C   UNL     1      -9.191   7.684  66.696  1.00  0.00    -0.211 A  
HETATM   12  C   UNL     1      -9.602   8.981  67.006  1.00  0.00    -0.231 A  
HETATM   13  C   UNL     1      -8.688  10.054  67.091  1.00  0.00    -0.132 A  
HETATM   14  C   UNL     1      -7.322   9.800  67.012  1.00  0.00    -0.091 A  
HETATM   15  C   UNL     1      -6.885   8.496  66.750  1.00  0.00    -0.069 A  
HETATM   16  O   UNL     1      -6.360  10.776  67.185  1.00  0.00    -0.065 OA 
HETATM   17  C   UNL     1      -6.757  12.079  67.416  1.00  0.00    -0.131 A  
HETATM   18  C   UNL     1      -7.817   7.459  66.573  1.00  0.00    -0.098 A  
HETATM   19  O   UNL     1      -7.394   6.199  66.260  1.00  0.00    -0.081 OA 
HETATM   20  C   UNL     1      -5.759  13.025  67.695  1.00  0.00    -0.118 A  
HETATM   21  C   UNL     1      -6.095  14.372  67.923  1.00  0.00    -0.150 A  
HETATM   22  H   UNL     1      -6.459   6.047  66.175  1.00  0.00     0.000 HD 
HETATM   23  C   UNL     1      -7.418  14.809  67.835  1.00  0.00    -0.156 A  
HETATM   24  O   UNL     1      -5.127  15.280  68.254  1.00  0.00    -0.094 OA 
HETATM   25  C   UNL     1     -10.126  11.824  66.090  1.00  0.00    -0.255 A  
HETATM   26  H   UNL     1      -5.354  16.190  68.408  1.00  0.00     0.000 HD 
HETATM   27  C   UNL     1      -8.397  13.849  67.540  1.00  0.00    -0.202 A  
HETATM   28  C   UNL     1      -9.889  12.024  64.737  1.00  0.00    -0.186 A  
HETATM   29  C   UNL     1      -8.088  12.485  67.374  1.00  0.00    -0.180 A  
HETATM   30  C   UNL     1      -9.188  11.472  67.201  1.00  0.00    -0.169 C  
HETATM   31  C   UNL     1     -10.976  12.357  63.925  1.00  0.00    -0.467 A  
HETATM   32  C   UNL     1     -12.268  12.470  64.464  1.00  0.00    -0.528 A  
HETATM   33  O   UNL     1     -10.043  11.527  68.374  1.00  0.00    -0.192 OA 
HETATM   34  C   UNL     1     -12.495  12.252  65.824  1.00  0.00     0.301 A  
HETATM   35  O   UNL     1     -12.308  11.589  68.785  1.00  0.00    -0.425 OA 
HETATM   36  C   UNL     1     -11.355  11.685  68.040  1.00  0.00    -0.296 C  
HETATM   37  C   UNL     1     -11.401  11.943  66.608  1.00  0.00    -0.400 A  
BRANCH  23  38
HETATM   38  C   UNL     1      -7.905  16.199  68.204  1.00  0.00    -0.146 C  
BRANCH  38  39
HETATM   39  N   UNL     1      -8.178  17.164  67.094  1.00  0.00    -0.186 NA 
BRANCH  39  40
HETATM   40  C   UNL     1      -6.863  17.559  66.485  1.00  0.00    -0.247 C  
HETATM   41  O   UNL     1      -6.384  19.407  64.972  1.00  0.00    -0.262 OA 
HETATM   42  C   UNL     1      -6.871  19.012  66.023  1.00  0.00    -0.248 C  
HETATM   43  O   UNL     1      -7.469  19.834  66.921  1.00  0.00    -0.227 OA 
ENDBRANCH  39  40
BRANCH  39  44
HETATM   44  C   UNL     1      -8.958  16.424  66.027  1.00  0.00    -0.272 C  
HETATM   45  C   UNL     1     -10.438  16.801  66.002  1.00  0.00    -0.293 C  
HETATM   46  O   UNL     1     -11.325  16.061  65.604  1.00  0.00    -0.016 OA 
HETATM   47  O   UNL     1     -10.673  18.074  66.419  1.00  0.00    -0.284 OA 
ENDBRANCH  39  44
ENDBRANCH  38  39
ENDBRANCH  23  38
ENDBRANCH  10  11
ENDBRANCH   5  10
ENDBRANCH   4   5
TORSDOF 8
ENDMDL
MODEL      113
REMARK 921   NORMALIZED FREE ENERGY PREDICTED BY IDOCK:   -3.97 KCAL/MOL
REMARK 922        TOTAL FREE ENERGY PREDICTED BY IDOCK:   -8.10 KCAL/MOL
REMARK 923 INTER-LIGAND FREE ENERGY PREDICTED BY IDOCK:   -6.58 KCAL/MOL
REMARK 924 INTRA-LIGAND FREE ENERGY PREDICTED BY IDOCK:   -1.51 KCAL/MOL
REMARK 927      BINDING AFFINITY PREDICTED BY RF-SCORE:    0.00 PKD
ROOT
HETATM    1  O   UNL     1      -8.788   2.549  65.202  1.00  0.00    -0.110 OA 
HETATM    2  C   UNL     1      -9.778   3.166  64.516  1.00  0.00    -0.143 C  
HETATM    3  O   UNL     1     -10.322   2.660  63.546  1.00  0.00    -0.160 OA 
HETATM    4  C   UNL     1     -10.183   4.507  65.119  1.00  0.00    -0.119 C  
ENDROOT
BRANCH   4   5
HETATM    5  N   UNL     1      -9.038   5.260  65.772  1.00  0.00    -0.156 NA 
BRANCH   5   6
HETATM    6  C   UNL     1      -8.497   6.229  64.742  1.00  0.00     0.017 C  
HETATM    7  O   UNL     1      -6.556   4.785  64.736  1.00  0.00    -0.041 OA 
HETATM    8  C   UNL     1      -7.033   5.995  64.371  1.00  0.00    -0.051 C  
HETATM    9  O   UNL     1      -6.365   6.802  63.741  1.00  0.00    -0.040 OA 
ENDBRANCH   5   6
BRANCH   5  10
HETATM   10  C   UNL     1      -9.666   6.063  66.897  1.00  0.00    -0.148 C  
BRANCH  10  11
HETATM   11  C   UNL     1      -8.735   7.109  67.494  1.00  0.00    -0.121 A  
HETATM   12  C   UNL     1      -9.190   8.419  67.650  1.00  0.00    -0.147 A  
HETATM   13  C   UNL     1      -8.340   9.457  68.092  1.00  0.00    -0.119 A  
HETATM   14  C   UNL     1      -7.054   9.154  68.526  1.00  0.00    -0.072 A  
HETATM   15  C   UNL     1      -6.593   7.835  68.423  1.00  0.00    -0.054 A  
HETATM   16  O   UNL     1      -6.196  10.092  69.065  1.00  0.00    -0.044 OA 
HETATM   17  C   UNL     1      -6.608  11.408  69.154  1.00  0.00    -0.095 A  
HETATM   18  C   UNL     1      -7.423   6.835  67.890  1.00  0.00    -0.098 A  
HETATM   19  O   UNL     1      -6.955   5.562  67.736  1.00  0.00    -0.062 OA 
HETATM   20  C   UNL     1      -5.757  12.315  69.805  1.00  0.00    -0.112 A  
HETATM   21  C   UNL     1      -6.111  13.673  69.915  1.00  0.00    -0.135 A  
HETATM   22  H   UNL     1      -6.062   5.375  68.005  1.00  0.00     0.000 HD 
HETATM   23  C   UNL     1      -7.289  14.158  69.345  1.00  0.00     0.033 A  
HETATM   24  O   UNL     1      -5.309  14.542  70.602  1.00  0.00    -0.114 OA 
HETATM   25  C   UNL     1      -9.239  11.284  66.657  1.00  0.00    -0.191 A  
HETATM   26  H   UNL     1      -5.547  15.459  70.676  1.00  0.00     0.000 HD 
HETATM   27  C   UNL     1      -8.116  13.236  68.687  1.00  0.00    -0.028 A  
HETATM   28  C   UNL     1      -8.505  11.482  65.496  1.00  0.00     0.259 A  
HETATM   29  C   UNL     1      -7.812  11.863  68.624  1.00  0.00    -0.104 A  
HETATM   30  C   UNL     1      -8.798  10.892  68.032  1.00  0.00    -0.135 C  
HETATM   31  C   UNL     1      -9.195  11.859  64.341  1.00  0.00     0.315 A  
HETATM   32  C   UNL     1     -10.592  12.017  64.359  1.00  0.00    -0.361 A  
HETATM   33  O   UNL     1     -10.029  10.973  68.799  1.00  0.00    -0.195 OA 
HETATM   34  C   UNL     1     -11.319  11.801  65.529  1.00  0.00    -0.283 A  
HETATM   35  O   UNL     1     -12.280  11.117  68.332  1.00  0.00    -0.610 OA 
HETATM   36  C   UNL     1     -11.114  11.181  68.000  1.00  0.00    -0.276 C  
HETATM   37  C   UNL     1     -10.610  11.447  66.661  1.00  0.00    -0.302 A  
BRANCH  23  38
HETATM   38  C   UNL     1      -7.833  15.564  69.530  1.00  0.00    -0.194 C  
BRANCH  38  39
HETATM   39  N   UNL     1      -8.595  16.176  68.397  1.00  0.00    -0.182 NA 
BRANCH  39  40
HETATM   40  C   UNL     1      -9.801  16.868  68.965  1.00  0.00    -0.247 C  
HETATM   41  O   UNL     1     -12.156  16.375  68.583  1.00  0.00     0.037 OA 
HETATM   42  C   UNL     1     -11.040  15.983  68.900  1.00  0.00    -0.331 C  
HETATM   43  O   UNL     1     -10.775  14.699  69.250  1.00  0.00    -0.244 OA 
ENDBRANCH  39  40
BRANCH  39  44
HETATM   44  C   UNL     1      -7.716  17.246  67.783  1.00  0.00    -0.190 C  
HETATM   45  C   UNL     1      -7.923  17.394  66.277  1.00  0.00    -0.279 C  
HETATM   46  O   UNL     1      -7.069  17.805  65.506  1.00  0.00    -0.446 OA 
HETATM   47  O   UNL     1      -9.182  17.071  65.875  1.00  0.00    -0.504 OA 
ENDBRANCH  39  44
ENDBRANCH  38  39
ENDBRANCH  23  38
ENDBRANCH  10  11
ENDBRANCH   5  10
ENDBRANCH   4   5
TORSDOF 8
ENDMDL
MODEL      114
REMARK 921   NORMALIZED FREE ENERGY PREDICTED BY IDOCK:   -3.94 KCAL/MOL
REMARK 922        TOTAL FREE ENERGY PREDICTED BY IDOCK:   -8.06 KCAL/MOL
REMARK 923 INTER-LIGAND FREE ENERGY PREDICTED BY IDOCK:   -9.33 KCAL/MOL
REMARK 924 INTRA-LIGAND FREE ENERGY PREDICTED BY IDOCK:    1.27 KCAL/MOL
REMARK 927      BINDING AFFINITY PREDICTED BY RF-SCORE:    0.00 PKD
ROOT
HETATM    1  O   UNL     1     -11.352  15.346  72.555  1.00  0.00    -0.431 OA 
HETATM    2  C   UNL     1     -12.662  15.399  72.221  1.00  0.00    -0.379 C  
HETATM    3  O   UNL     1     -13.551  15.499  73.053  1.00  0.00    -0.518 OA 
HETATM    4  C   UNL     1     -12.900  15.397  70.715  1.00  0.00    -0.466 C  
ENDROOT
BRANCH   4   5
HETATM    5  N   UNL     1     -11.882  14.589  69.931  1.00  0.00    -0.298 NA 
BRANCH   5   6
HETATM    6  C   UNL     1     -10.526  15.212  70.187  1.00  0.00    -0.167 C  
HETATM    7  O   UNL     1     -10.926  16.384  68.108  1.00  0.00    -0.337 OA 
HETATM    8  C   UNL     1      -9.991  16.045  69.023  1.00  0.00    -0.242 C  
HETATM    9  O   UNL     1      -8.833  16.431  68.952  1.00  0.00    -0.241 OA 
ENDBRANCH   5   6
BRANCH   5  10
HETATM   10  C   UNL     1     -11.893  13.203  70.552  1.00  0.00    -0.101 C  
BRANCH  10  11
HETATM   11  C   UNL     1     -11.622  12.086  69.556  1.00  0.00    -0.389 A  
HETATM   12  C   UNL     1     -11.432  10.785  70.023  1.00  0.00    -0.412 A  
HETATM   13  C   UNL     1     -11.067   9.727  69.161  1.00  0.00    -0.158 A  
HETATM   14  C   UNL     1     -11.034   9.941  67.787  1.00  0.00    -0.217 A  
HETATM   15  C   UNL     1     -11.270  11.230  67.292  1.00  0.00    -0.364 A  
HETATM   16  O   UNL     1     -10.786   8.939  66.870  1.00  0.00    -0.230 OA 
HETATM   17  C   UNL     1     -10.520   7.661  67.325  1.00  0.00    -0.326 A  
HETATM   18  C   UNL     1     -11.537  12.290  68.176  1.00  0.00    -0.339 A  
HETATM   19  O   UNL     1     -11.708  13.557  67.698  1.00  0.00    -0.321 OA 
HETATM   20  C   UNL     1     -10.380   6.644  66.369  1.00  0.00    -0.002 A  
HETATM   21  C   UNL     1     -10.093   5.325  66.766  1.00  0.00    -0.224 A  
HETATM   22  H   UNL     1     -11.651  13.696  66.759  1.00  0.00     0.000 HD 
HETATM   23  C   UNL     1      -9.899   5.004  68.111  1.00  0.00    -0.203 A  
HETATM   24  O   UNL     1     -10.016   4.324  65.836  1.00  0.00    -0.207 OA 
HETATM   25  C   UNL     1      -9.528   8.525  70.708  1.00  0.00    -0.213 A  
HETATM   26  H   UNL     1      -9.822   3.433  66.104  1.00  0.00     0.000 HD 
HETATM   27  C   UNL     1     -10.030   6.039  69.047  1.00  0.00    -0.199 A  
HETATM   28  C   UNL     1      -8.192   8.847  70.513  1.00  0.00    -0.160 A  
HETATM   29  C   UNL     1     -10.382   7.351  68.675  1.00  0.00    -0.215 A  
HETATM   30  C   UNL     1     -10.651   8.393  69.728  1.00  0.00    -0.221 C  
HETATM   31  C   UNL     1      -7.359   8.889  71.633  1.00  0.00    -0.053 A  
HETATM   32  C   UNL     1      -7.867   8.627  72.917  1.00  0.00     0.035 A  
HETATM   33  O   UNL     1     -11.748   7.927  70.557  1.00  0.00    -0.213 OA 
HETATM   34  C   UNL     1      -9.215   8.319  73.101  1.00  0.00    -0.293 A  
HETATM   35  O   UNL     1     -12.197   7.797  72.813  1.00  0.00    -0.156 OA 
HETATM   36  C   UNL     1     -11.432   7.957  71.883  1.00  0.00    -0.280 C  
HETATM   37  C   UNL     1     -10.013   8.266  71.975  1.00  0.00    -0.327 A  
BRANCH  23  38
HETATM   38  C   UNL     1      -9.732   3.597  68.657  1.00  0.00     0.009 C  
BRANCH  38  39
HETATM   39  N   UNL     1      -8.432   2.900  68.414  1.00  0.00    -0.073 NA 
BRANCH  39  40
HETATM   40  C   UNL     1      -8.608   1.976  67.243  1.00  0.00    -0.097 C  
HETATM   41  O   UNL     1      -7.365   1.924  65.149  1.00  0.00    -0.058 OA 
HETATM   42  C   UNL     1      -7.358   1.926  66.373  1.00  0.00    -0.060 C  
HETATM   43  O   UNL     1      -6.219   1.868  67.109  1.00  0.00    -0.020 OA 
ENDBRANCH  39  40
BRANCH  39  44
HETATM   44  C   UNL     1      -7.421   3.951  68.003  1.00  0.00    -0.066 C  
HETATM   45  C   UNL     1      -6.651   4.531  69.188  1.00  0.00    -0.041 C  
HETATM   46  O   UNL     1      -6.163   5.651  69.203  1.00  0.00    -0.026 OA 
HETATM   47  O   UNL     1      -6.512   3.654  70.218  1.00  0.00    -0.030 OA 
ENDBRANCH  39  44
ENDBRANCH  38  39
ENDBRANCH  23  38
ENDBRANCH  10  11
ENDBRANCH   5  10
ENDBRANCH   4   5
TORSDOF 8
ENDMDL
MODEL      115
REMARK 921   NORMALIZED FREE ENERGY PREDICTED BY IDOCK:   -3.85 KCAL/MOL
REMARK 922        TOTAL FREE ENERGY PREDICTED BY IDOCK:   -7.92 KCAL/MOL
REMARK 923 INTER-LIGAND FREE ENERGY PREDICTED BY IDOCK:   -8.71 KCAL/MOL
REMARK 924 INTRA-LIGAND FREE ENERGY PREDICTED BY IDOCK:    0.79 KCAL/MOL
REMARK 927      BINDING AFFINITY PREDICTED BY RF-SCORE:    0.00 PKD
ROOT
HETATM    1  O   UNL     1     -10.137   4.674  70.579  1.00  0.00    -0.225 OA 
HETATM    2  C   UNL     1      -8.832   4.465  70.290  1.00  0.00    -0.080 C  
HETATM    3  O   UNL     1      -8.466   3.895  69.273  1.00  0.00    -0.067 OA 
HETATM    4  C   UNL     1      -7.883   5.071  71.317  1.00  0.00    -0.101 C  
ENDROOT
BRANCH   4   5
HETATM    5  N   UNL     1      -8.424   5.067  72.735  1.00  0.00    -0.115 NA 
BRANCH   5   6
HETATM    6  C   UNL     1      -8.058   3.732  73.348  1.00  0.00    -0.087 C  
HETATM    7  O   UNL     1     -10.440   3.313  73.303  1.00  0.00    -0.144 OA 
HETATM    8  C   UNL     1      -9.257   2.905  73.811  1.00  0.00    -0.081 C  
HETATM    9  O   UNL     1      -9.154   1.919  74.527  1.00  0.00    -0.060 OA 
ENDBRANCH   5   6
BRANCH   5  10
HETATM   10  C   UNL     1      -7.659   6.153  73.470  1.00  0.00    -0.095 C  
BRANCH  10  11
HETATM   11  C   UNL     1      -7.373   7.380  72.618  1.00  0.00    -0.082 A  
HETATM   12  C   UNL     1      -8.376   7.887  71.790  1.00  0.00    -0.144 A  
HETATM   13  C   UNL     1      -8.138   8.953  70.895  1.00  0.00    -0.196 A  
HETATM   14  C   UNL     1      -6.918   9.621  70.931  1.00  0.00    -0.029 A  
HETATM   15  C   UNL     1      -5.913   9.159  71.790  1.00  0.00    -0.067 A  
HETATM   16  O   UNL     1      -6.641  10.734  70.161  1.00  0.00    -0.149 OA 
HETATM   17  C   UNL     1      -7.600  11.199  69.281  1.00  0.00    -0.055 A  
HETATM   18  C   UNL     1      -6.139   8.036  72.604  1.00  0.00    -0.056 A  
HETATM   19  O   UNL     1      -5.140   7.550  73.398  1.00  0.00    -0.041 OA 
HETATM   20  C   UNL     1      -7.330  12.392  68.594  1.00  0.00    -0.102 A  
HETATM   21  C   UNL     1      -8.258  12.911  67.672  1.00  0.00    -0.177 A  
HETATM   22  H   UNL     1      -4.301   7.996  73.389  1.00  0.00     0.000 HD 
HETATM   23  C   UNL     1      -9.445  12.233  67.386  1.00  0.00    -0.181 A  
HETATM   24  O   UNL     1      -8.020  14.105  67.049  1.00  0.00    -0.355 OA 
HETATM   25  C   UNL     1      -9.557   8.154  69.009  1.00  0.00    -0.156 A  
HETATM   26  H   UNL     1      -8.647  14.456  66.426  1.00  0.00     0.000 HD 
HETATM   27  C   UNL     1      -9.686  11.035  68.074  1.00  0.00    -0.181 A  
HETATM   28  C   UNL     1      -8.842   7.472  68.035  1.00  0.00    -0.127 A  
HETATM   29  C   UNL     1      -8.801  10.535  69.049  1.00  0.00    -0.174 A  
HETATM   30  C   UNL     1      -9.171   9.323  69.861  1.00  0.00    -0.195 C  
HETATM   31  C   UNL     1      -9.472   6.406  67.388  1.00  0.00    -0.123 A  
HETATM   32  C   UNL     1     -10.783   6.032  67.728  1.00  0.00    -0.369 A  
HETATM   33  O   UNL     1     -10.399   9.616  70.579  1.00  0.00    -0.263 OA 
HETATM   34  C   UNL     1     -11.486   6.718  68.719  1.00  0.00     0.014 A  
HETATM   35  O   UNL     1     -12.399   8.545  70.971  1.00  0.00    -0.250 OA 
HETATM   36  C   UNL     1     -11.350   8.662  70.372  1.00  0.00    -0.187 C  
HETATM   37  C   UNL     1     -10.847   7.779  69.330  1.00  0.00    -0.121 A  
BRANCH  23  38
HETATM   38  C   UNL     1     -10.573  12.773  66.525  1.00  0.00    -0.254 C  
BRANCH  38  39
HETATM   39  N   UNL     1     -10.247  13.841  65.530  1.00  0.00    -0.313 NA 
BRANCH  39  40
HETATM   40  C   UNL     1     -10.605  13.332  64.164  1.00  0.00    -0.309 C  
HETATM   41  O   UNL     1     -12.775  12.596  63.337  1.00  0.00    -0.705 OA 
HETATM   42  C   UNL     1     -12.100  13.453  63.892  1.00  0.00    -0.455 C  
HETATM   43  O   UNL     1     -12.608  14.635  64.323  1.00  0.00    -0.688 OA 
ENDBRANCH  39  40
BRANCH  39  44
HETATM   44  C   UNL     1     -11.151  15.023  65.816  1.00  0.00    -0.346 C  
HETATM   45  C   UNL     1     -10.380  16.322  66.040  1.00  0.00    -0.349 C  
HETATM   46  O   UNL     1     -10.792  17.252  66.717  1.00  0.00    -0.147 OA 
HETATM   47  O   UNL     1      -9.202  16.368  65.364  1.00  0.00    -0.326 OA 
ENDBRANCH  39  44
ENDBRANCH  38  39
ENDBRANCH  23  38
ENDBRANCH  10  11
ENDBRANCH   5  10
ENDBRANCH   4   5
TORSDOF 8
ENDMDL
MODEL      116
REMARK 921   NORMALIZED FREE ENERGY PREDICTED BY IDOCK:   -3.80 KCAL/MOL
REMARK 922        TOTAL FREE ENERGY PREDICTED BY IDOCK:   -7.85 KCAL/MOL
REMARK 923 INTER-LIGAND FREE ENERGY PREDICTED BY IDOCK:   -7.46 KCAL/MOL
REMARK 924 INTRA-LIGAND FREE ENERGY PREDICTED BY IDOCK:   -0.39 KCAL/MOL
REMARK 927      BINDING AFFINITY PREDICTED BY RF-SCORE:    0.00 PKD
ROOT
HETATM    1  O   UNL     1      -7.375   3.423  62.903  1.00  0.00    -0.050 OA 
HETATM    2  C   UNL     1      -6.412   2.595  63.370  1.00  0.00    -0.022 C  
HETATM    3  O   UNL     1      -6.237   1.471  62.924  1.00  0.00    -0.008 OA 
HETATM    4  C   UNL     1      -5.538   3.233  64.444  1.00  0.00    -0.010 C  
ENDROOT
BRANCH   4   5
HETATM    5  N   UNL     1      -6.273   4.225  65.328  1.00  0.00    -0.027 NA 
BRANCH   5   6
HETATM    6  C   UNL     1      -6.004   3.827  66.763  1.00  0.00    -0.024 C  
HETATM    7  O   UNL     1      -7.300   1.857  66.221  1.00  0.00    -0.058 OA 
HETATM    8  C   UNL     1      -6.779   2.594  67.227  1.00  0.00    -0.040 C  
HETATM    9  O   UNL     1      -6.870   2.262  68.400  1.00  0.00    -0.039 OA 
ENDBRANCH   5   6
BRANCH   5  10
HETATM   10  C   UNL     1      -5.611   5.568  65.074  1.00  0.00    -0.017 C  
BRANCH  10  11
HETATM   11  C   UNL     1      -6.598   6.701  64.841  1.00  0.00    -0.042 A  
HETATM   12  C   UNL     1      -7.148   7.366  65.938  1.00  0.00    -0.065 A  
HETATM   13  C   UNL     1      -8.151   8.348  65.791  1.00  0.00    -0.117 A  
HETATM   14  C   UNL     1      -8.507   8.780  64.517  1.00  0.00    -0.140 A  
HETATM   15  C   UNL     1      -7.931   8.160  63.401  1.00  0.00    -0.147 A  
HETATM   16  O   UNL     1      -9.405   9.805  64.289  1.00  0.00    -0.261 OA 
HETATM   17  C   UNL     1     -10.014  10.419  65.367  1.00  0.00    -0.295 A  
HETATM   18  C   UNL     1      -7.005   7.117  63.570  1.00  0.00    -0.061 A  
HETATM   19  O   UNL     1      -6.488   6.474  62.483  1.00  0.00    -0.034 OA 
HETATM   20  C   UNL     1     -10.836  11.526  65.107  1.00  0.00    -0.326 A  
HETATM   21  C   UNL     1     -11.499  12.186  66.159  1.00  0.00    -0.371 A  
HETATM   22  H   UNL     1      -6.765   6.756  61.619  1.00  0.00     0.000 HD 
HETATM   23  C   UNL     1     -11.390  11.732  67.476  1.00  0.00    -0.377 A  
HETATM   24  O   UNL     1     -12.251  13.301  65.911  1.00  0.00    -0.418 OA 
HETATM   25  C   UNL     1      -9.500   7.782  67.808  1.00  0.00    -0.163 A  
HETATM   26  H   UNL     1     -12.698  13.747  66.621  1.00  0.00     0.000 HD 
HETATM   27  C   UNL     1     -10.575  10.615  67.708  1.00  0.00    -0.275 A  
HETATM   28  C   UNL     1     -10.581   6.957  67.532  1.00  0.00    -0.351 A  
HETATM   29  C   UNL     1      -9.851   9.983  66.678  1.00  0.00    -0.259 A  
HETATM   30  C   UNL     1      -8.880   8.879  66.999  1.00  0.00    -0.126 C  
HETATM   31  C   UNL     1     -10.945   6.012  68.493  1.00  0.00    -0.350 A  
HETATM   32  C   UNL     1     -10.225   5.895  69.694  1.00  0.00    -0.281 A  
HETATM   33  O   UNL     1      -7.871   9.410  67.899  1.00  0.00    -0.091 OA 
HETATM   34  C   UNL     1      -9.131   6.721  69.953  1.00  0.00    -0.144 A  
HETATM   35  O   UNL     1      -6.857   8.736  69.854  1.00  0.00    -0.041 OA 
HETATM   36  C   UNL     1      -7.732   8.644  69.018  1.00  0.00    -0.095 C  
HETATM   37  C   UNL     1      -8.804   7.659  68.994  1.00  0.00    -0.135 A  
BRANCH  23  38
HETATM   38  C   UNL     1     -11.939  12.452  68.695  1.00  0.00    -0.225 C  
BRANCH  38  39
HETATM   39  N   UNL     1     -11.239  13.692  69.151  1.00  0.00    -0.263 NA 
BRANCH  39  40
HETATM   40  C   UNL     1     -10.451  14.236  67.994  1.00  0.00    -0.235 C  
HETATM   41  O   UNL     1      -8.741  15.971  68.002  1.00  0.00    -0.168 OA 
HETATM   42  C   UNL     1      -9.170  14.919  68.458  1.00  0.00    -0.192 C  
HETATM   43  O   UNL     1      -8.536  14.218  69.432  1.00  0.00     0.149 OA 
ENDBRANCH  39  40
BRANCH  39  44
HETATM   44  C   UNL     1     -12.302  14.718  69.486  1.00  0.00    -0.179 C  
HETATM   45  C   UNL     1     -12.276  15.144  70.953  1.00  0.00    -0.342 C  
HETATM   46  O   UNL     1     -13.252  15.557  71.563  1.00  0.00    -0.458 OA 
HETATM   47  O   UNL     1     -11.038  15.071  71.510  1.00  0.00    -0.283 OA 
ENDBRANCH  39  44
ENDBRANCH  38  39
ENDBRANCH  23  38
ENDBRANCH  10  11
ENDBRANCH   5  10
ENDBRANCH   4   5
TORSDOF 8
ENDMDL
MODEL      117
REMARK 921   NORMALIZED FREE ENERGY PREDICTED BY IDOCK:   -3.77 KCAL/MOL
REMARK 922        TOTAL FREE ENERGY PREDICTED BY IDOCK:   -7.80 KCAL/MOL
REMARK 923 INTER-LIGAND FREE ENERGY PREDICTED BY IDOCK:   -8.20 KCAL/MOL
REMARK 924 INTRA-LIGAND FREE ENERGY PREDICTED BY IDOCK:    0.40 KCAL/MOL
REMARK 927      BINDING AFFINITY PREDICTED BY RF-SCORE:    0.00 PKD
ROOT
HETATM    1  O   UNL     1      -7.119  20.311  65.655  1.00  0.00    -0.294 OA 
HETATM    2  C   UNL     1      -6.948  20.470  66.987  1.00  0.00    -0.293 C  
HETATM    3  O   UNL     1      -6.052  21.152  67.460  1.00  0.00    -0.290 OA 
HETATM    4  C   UNL     1      -8.022  19.777  67.819  1.00  0.00    -0.299 C  
ENDROOT
BRANCH   4   5
HETATM    5  N   UNL     1      -8.546  18.493  67.202  1.00  0.00    -0.264 NA 
BRANCH   5   6
HETATM    6  C   UNL     1      -9.448  18.887  66.052  1.00  0.00    -0.081 C  
HETATM    7  O   UNL     1     -10.762  16.970  66.722  1.00  0.00    -0.234 OA 
HETATM    8  C   UNL     1     -10.544  17.870  65.739  1.00  0.00    -0.174 C  
HETATM    9  O   UNL     1     -11.214  17.901  64.717  1.00  0.00    -0.695 OA 
ENDBRANCH   5   6
BRANCH   5  10
HETATM   10  C   UNL     1      -7.330  17.785  66.632  1.00  0.00    -0.227 C  
BRANCH  10  11
HETATM   11  C   UNL     1      -6.950  16.520  67.387  1.00  0.00    -0.186 A  
HETATM   12  C   UNL     1      -7.683  15.352  67.176  1.00  0.00    -0.246 A  
HETATM   13  C   UNL     1      -7.451  14.178  67.926  1.00  0.00    -0.158 A  
HETATM   14  C   UNL     1      -6.371  14.125  68.801  1.00  0.00    -0.088 A  
HETATM   15  C   UNL     1      -5.591  15.273  68.993  1.00  0.00    -0.098 A  
HETATM   16  O   UNL     1      -6.016  12.986  69.497  1.00  0.00    -0.095 OA 
HETATM   17  C   UNL     1      -6.781  11.844  69.354  1.00  0.00    -0.081 A  
HETATM   18  C   UNL     1      -5.899  16.460  68.306  1.00  0.00    -0.108 A  
HETATM   19  O   UNL     1      -5.176  17.595  68.537  1.00  0.00    -0.143 OA 
HETATM   20  C   UNL     1      -6.332  10.675  69.987  1.00  0.00    -0.126 A  
HETATM   21  C   UNL     1      -7.073   9.483  69.894  1.00  0.00    -0.084 A  
HETATM   22  H   UNL     1      -4.461  17.553  69.162  1.00  0.00     0.000 HD 
HETATM   23  C   UNL     1      -8.290   9.443  69.210  1.00  0.00    -0.131 A  
HETATM   24  O   UNL     1      -6.604   8.330  70.462  1.00  0.00    -0.036 OA 
HETATM   25  C   UNL     1      -9.815  13.417  68.131  1.00  0.00    -0.234 A  
HETATM   26  H   UNL     1      -7.104   7.525  70.400  1.00  0.00     0.000 HD 
HETATM   27  C   UNL     1      -8.725  10.626  68.597  1.00  0.00    -0.148 A  
HETATM   28  C   UNL     1     -10.411  13.795  69.325  1.00  0.00     0.040 A  
HETATM   29  C   UNL     1      -7.965  11.812  68.623  1.00  0.00    -0.116 A  
HETATM   30  C   UNL     1      -8.405  13.014  67.832  1.00  0.00    -0.170 C  
HETATM   31  C   UNL     1     -11.771  14.115  69.305  1.00  0.00    -0.368 A  
HETATM   32  C   UNL     1     -12.502  14.068  68.106  1.00  0.00     0.229 A  
HETATM   33  O   UNL     1      -8.469  12.636  66.431  1.00  0.00     0.038 OA 
HETATM   34  C   UNL     1     -11.886  13.700  66.909  1.00  0.00    -0.451 A  
HETATM   35  O   UNL     1      -9.958  12.910  64.695  1.00  0.00    -0.235 OA 
HETATM   36  C   UNL     1      -9.675  12.944  65.875  1.00  0.00    -0.184 C  
HETATM   37  C   UNL     1     -10.546  13.371  66.961  1.00  0.00    -0.264 A  
BRANCH  23  38
HETATM   38  C   UNL     1      -9.091   8.184  68.926  1.00  0.00    -0.147 C  
BRANCH  38  39
HETATM   39  N   UNL     1     -10.583   8.287  68.925  1.00  0.00    -0.184 NA 
BRANCH  39  40
HETATM   40  C   UNL     1     -11.112   7.401  67.834  1.00  0.00     0.132 C  
HETATM   41  O   UNL     1     -10.022   5.512  66.749  1.00  0.00    -0.149 OA 
HETATM   42  C   UNL     1     -10.370   6.071  67.781  1.00  0.00    -0.204 C  
HETATM   43  O   UNL     1     -10.147   5.555  69.016  1.00  0.00    -0.170 OA 
ENDBRANCH  39  40
BRANCH  39  44
HETATM   44  C   UNL     1     -11.080   7.720  70.239  1.00  0.00    -0.234 C  
HETATM   45  C   UNL     1     -11.304   8.793  71.303  1.00  0.00    -0.291 C  
HETATM   46  O   UNL     1     -11.239   8.587  72.506  1.00  0.00    -0.357 OA 
HETATM   47  O   UNL     1     -11.641  10.002  70.781  1.00  0.00    -0.304 OA 
ENDBRANCH  39  44
ENDBRANCH  38  39
ENDBRANCH  23  38
ENDBRANCH  10  11
ENDBRANCH   5  10
ENDBRANCH   4   5
TORSDOF 8
ENDMDL
MODEL      118
REMARK 921   NORMALIZED FREE ENERGY PREDICTED BY IDOCK:   -3.74 KCAL/MOL
REMARK 922        TOTAL FREE ENERGY PREDICTED BY IDOCK:   -7.76 KCAL/MOL
REMARK 923 INTER-LIGAND FREE ENERGY PREDICTED BY IDOCK:   -7.70 KCAL/MOL
REMARK 924 INTRA-LIGAND FREE ENERGY PREDICTED BY IDOCK:   -0.05 KCAL/MOL
REMARK 927      BINDING AFFINITY PREDICTED BY RF-SCORE:    0.00 PKD
ROOT
HETATM    1  O   UNL     1      -5.901   3.112  71.523  1.00  0.00    -0.012 OA 
HETATM    2  C   UNL     1      -6.221   4.392  71.824  1.00  0.00    -0.018 C  
HETATM    3  O   UNL     1      -6.551   4.742  72.947  1.00  0.00    -0.047 OA 
HETATM    4  C   UNL     1      -6.058   5.347  70.646  1.00  0.00    -0.022 C  
ENDROOT
BRANCH   4   5
HETATM    5  N   UNL     1      -6.355   4.718  69.297  1.00  0.00    -0.030 NA 
BRANCH   5   6
HETATM    6  C   UNL     1      -7.816   4.977  68.996  1.00  0.00    -0.080 C  
HETATM    7  O   UNL     1      -7.991   2.565  68.911  1.00  0.00    -0.052 OA 
HETATM    8  C   UNL     1      -8.604   3.729  68.602  1.00  0.00    -0.094 C  
HETATM    9  O   UNL     1      -9.722   3.771  68.108  1.00  0.00    -0.146 OA 
ENDBRANCH   5   6
BRANCH   5  10
HETATM   10  C   UNL     1      -5.518   5.490  68.292  1.00  0.00    -0.008 C  
BRANCH  10  11
HETATM   11  C   UNL     1      -6.342   6.340  67.337  1.00  0.00    -0.037 A  
HETATM   12  C   UNL     1      -6.968   7.492  67.813  1.00  0.00    -0.080 A  
HETATM   13  C   UNL     1      -7.835   8.260  67.005  1.00  0.00    -0.096 A  
HETATM   14  C   UNL     1      -7.964   7.955  65.654  1.00  0.00    -0.116 A  
HETATM   15  C   UNL     1      -7.305   6.830  65.143  1.00  0.00    -0.085 A  
HETATM   16  O   UNL     1      -8.711   8.714  64.775  1.00  0.00    -0.159 OA 
HETATM   17  C   UNL     1      -9.399   9.815  65.251  1.00  0.00    -0.255 A  
HETATM   18  C   UNL     1      -6.523   6.024  65.987  1.00  0.00    -0.046 A  
HETATM   19  O   UNL     1      -5.928   4.895  65.503  1.00  0.00    -0.021 OA 
HETATM   20  C   UNL     1     -10.059  10.626  64.316  1.00  0.00    -0.411 A  
HETATM   21  C   UNL     1     -10.790  11.752  64.738  1.00  0.00    -0.302 A  
HETATM   22  H   UNL     1      -6.051   4.680  64.585  1.00  0.00     0.000 HD 
HETATM   23  C   UNL     1     -10.913  12.065  66.094  1.00  0.00    -0.343 A  
HETATM   24  O   UNL     1     -11.382  12.576  63.820  1.00  0.00    -0.395 OA 
HETATM   25  C   UNL     1      -9.502   8.868  68.754  1.00  0.00    -0.144 A  
HETATM   26  H   UNL     1     -11.876  13.336  64.105  1.00  0.00     0.000 HD 
HETATM   27  C   UNL     1     -10.257  11.231  67.010  1.00  0.00    -0.250 A  
HETATM   28  C   UNL     1     -10.613   8.037  68.766  1.00  0.00    -0.145 A  
HETATM   29  C   UNL     1      -9.466  10.139  66.603  1.00  0.00    -0.211 A  
HETATM   30  C   UNL     1      -8.667   9.360  67.614  1.00  0.00    -0.116 C  
HETATM   31  C   UNL     1     -11.203   7.750  69.999  1.00  0.00    -0.126 A  
HETATM   32  C   UNL     1     -10.673   8.279  71.189  1.00  0.00    -0.270 A  
HETATM   33  O   UNL     1      -7.744  10.275  68.264  1.00  0.00    -0.090 OA 
HETATM   34  C   UNL     1      -9.547   9.102  71.164  1.00  0.00    -0.347 A  
HETATM   35  O   UNL     1      -7.086  10.727  70.424  1.00  0.00    -0.202 OA 
HETATM   36  C   UNL     1      -7.841  10.217  69.622  1.00  0.00    -0.175 C  
HETATM   37  C   UNL     1      -8.995   9.384  69.930  1.00  0.00    -0.215 A  
BRANCH  23  38
HETATM   38  C   UNL     1     -11.550  13.328  66.644  1.00  0.00    -0.365 C  
BRANCH  38  39
HETATM   39  N   UNL     1     -10.883  14.003  67.800  1.00  0.00    -0.245 NA 
BRANCH  39  40
HETATM   40  C   UNL     1     -11.481  13.460  69.066  1.00  0.00    -0.301 C  
HETATM   41  O   UNL     1     -11.559  14.488  71.273  1.00  0.00    -0.276 OA 
HETATM   42  C   UNL     1     -11.774  14.568  70.071  1.00  0.00    -0.301 C  
HETATM   43  O   UNL     1     -12.321  15.663  69.485  1.00  0.00    -0.294 OA 
ENDBRANCH  39  40
BRANCH  39  44
HETATM   44  C   UNL     1      -9.424  13.596  67.787  1.00  0.00    -0.221 C  
HETATM   45  C   UNL     1      -8.474  14.788  67.690  1.00  0.00    -0.177 C  
HETATM   46  O   UNL     1      -7.353  14.731  67.206  1.00  0.00    -0.195 OA 
HETATM   47  O   UNL     1      -8.978  15.921  68.248  1.00  0.00    -0.179 OA 
ENDBRANCH  39  44
ENDBRANCH  38  39
ENDBRANCH  23  38
ENDBRANCH  10  11
ENDBRANCH   5  10
ENDBRANCH   4   5
TORSDOF 8
ENDMDL
MODEL      119
REMARK 921   NORMALIZED FREE ENERGY PREDICTED BY IDOCK:   -3.71 KCAL/MOL
REMARK 922        TOTAL FREE ENERGY PREDICTED BY IDOCK:   -7.71 KCAL/MOL
REMARK 923 INTER-LIGAND FREE ENERGY PREDICTED BY IDOCK:   -8.38 KCAL/MOL
REMARK 924 INTRA-LIGAND FREE ENERGY PREDICTED BY IDOCK:    0.66 KCAL/MOL
REMARK 927      BINDING AFFINITY PREDICTED BY RF-SCORE:    0.00 PKD
ROOT
HETATM    1  O   UNL     1      -7.315  17.376  69.141  1.00  0.00    -0.232 OA 
HETATM    2  C   UNL     1      -7.465  16.031  69.160  1.00  0.00    -0.216 C  
HETATM    3  O   UNL     1      -6.516  15.264  69.223  1.00  0.00    -0.115 OA 
HETATM    4  C   UNL     1      -8.923  15.588  69.170  1.00  0.00    -0.256 C  
ENDROOT
BRANCH   4   5
HETATM    5  N   UNL     1      -9.853  16.510  68.402  1.00  0.00    -0.229 NA 
BRANCH   5   6
HETATM    6  C   UNL     1      -9.135  16.909  67.131  1.00  0.00    -0.217 C  
HETATM    7  O   UNL     1      -9.451  19.170  67.932  1.00  0.00    -0.303 OA 
HETATM    8  C   UNL     1      -9.133  18.413  66.859  1.00  0.00    -0.286 C  
HETATM    9  O   UNL     1      -8.810  18.899  65.785  1.00  0.00    -0.399 OA 
ENDBRANCH   5   6
BRANCH   5  10
HETATM   10  C   UNL     1     -11.053  15.660  68.024  1.00  0.00    -0.335 C  
BRANCH  10  11
HETATM   11  C   UNL     1     -10.770  14.667  66.908  1.00  0.00    -0.294 A  
HETATM   12  C   UNL     1     -10.237  13.416  67.223  1.00  0.00    -0.241 A  
HETATM   13  C   UNL     1      -9.849  12.496  66.225  1.00  0.00    -0.260 A  
HETATM   14  C   UNL     1     -10.135  12.769  64.891  1.00  0.00    -0.213 A  
HETATM   15  C   UNL     1     -10.715  13.998  64.556  1.00  0.00    -0.355 A  
HETATM   16  O   UNL     1      -9.880  11.880  63.865  1.00  0.00    -0.292 OA 
HETATM   17  C   UNL     1      -9.281  10.669  64.157  1.00  0.00    -0.236 A  
HETATM   18  C   UNL     1     -11.005  14.941  65.557  1.00  0.00    -0.350 A  
HETATM   19  O   UNL     1     -11.516  16.162  65.225  1.00  0.00     0.008 OA 
HETATM   20  C   UNL     1      -9.136   9.745  63.111  1.00  0.00    -0.270 A  
HETATM   21  C   UNL     1      -8.520   8.500  63.338  1.00  0.00    -0.035 A  
HETATM   22  H   UNL     1     -11.675  16.349  64.307  1.00  0.00     0.000 HD 
HETATM   23  C   UNL     1      -8.001   8.171  64.593  1.00  0.00    -0.149 A  
HETATM   24  O   UNL     1      -8.433   7.577  62.333  1.00  0.00    -0.347 OA 
HETATM   25  C   UNL     1      -7.825  11.582  67.354  1.00  0.00    -0.143 A  
HETATM   26  H   UNL     1      -8.017   6.737  62.486  1.00  0.00     0.000 HD 
HETATM   27  C   UNL     1      -8.146   9.116  65.619  1.00  0.00    -0.113 A  
HETATM   28  C   UNL     1      -6.646  12.185  66.940  1.00  0.00    -0.006 A  
HETATM   29  C   UNL     1      -8.818  10.339  65.428  1.00  0.00    -0.192 A  
HETATM   30  C   UNL     1      -9.072  11.257  66.593  1.00  0.00    -0.179 C  
HETATM   31  C   UNL     1      -5.631  12.355  67.884  1.00  0.00    -0.085 A  
HETATM   32  C   UNL     1      -5.810  11.939  69.214  1.00  0.00    -0.072 A  
HETATM   33  O   UNL     1      -9.867  10.537  67.572  1.00  0.00    -0.163 OA 
HETATM   34  C   UNL     1      -7.006  11.347  69.621  1.00  0.00    -0.022 A  
HETATM   35  O   UNL     1      -9.821  10.222  69.853  1.00  0.00    -0.211 OA 
HETATM   36  C   UNL     1      -9.305  10.577  68.813  1.00  0.00    -0.180 C  
HETATM   37  C   UNL     1      -7.986  11.174  68.663  1.00  0.00    -0.145 A  
BRANCH  23  38
HETATM   38  C   UNL     1      -7.453   6.810  64.982  1.00  0.00    -0.092 C  
BRANCH  38  39
HETATM   39  N   UNL     1      -8.061   6.120  66.162  1.00  0.00    -0.111 NA 
BRANCH  39  40
HETATM   40  C   UNL     1      -8.042   7.074  67.321  1.00  0.00    -0.115 C  
HETATM   41  O   UNL     1      -9.134   6.856  69.487  1.00  0.00    -0.142 OA 
HETATM   42  C   UNL     1      -8.404   6.379  68.628  1.00  0.00    -0.121 C  
HETATM   43  O   UNL     1      -7.810   5.165  68.748  1.00  0.00    -0.078 OA 
ENDBRANCH  39  40
BRANCH  39  44
HETATM   44  C   UNL     1      -9.515   5.849  65.833  1.00  0.00    -0.005 C  
HETATM   45  C   UNL     1      -9.773   4.398  65.432  1.00  0.00    -0.197 C  
HETATM   46  O   UNL     1     -10.687   4.043  64.702  1.00  0.00    -0.260 OA 
HETATM   47  O   UNL     1      -8.913   3.520  66.013  1.00  0.00    -0.127 OA 
ENDBRANCH  39  44
ENDBRANCH  38  39
ENDBRANCH  23  38
ENDBRANCH  10  11
ENDBRANCH   5  10
ENDBRANCH   4   5
TORSDOF 8
ENDMDL
MODEL      120
REMARK 921   NORMALIZED FREE ENERGY PREDICTED BY IDOCK:   -3.71 KCAL/MOL
REMARK 922        TOTAL FREE ENERGY PREDICTED BY IDOCK:   -7.71 KCAL/MOL
REMARK 923 INTER-LIGAND FREE ENERGY PREDICTED BY IDOCK:   -9.13 KCAL/MOL
REMARK 924 INTRA-LIGAND FREE ENERGY PREDICTED BY IDOCK:    1.42 KCAL/MOL
REMARK 927      BINDING AFFINITY PREDICTED BY RF-SCORE:    0.00 PKD
ROOT
HETATM    1  O   UNL     1     -10.321   5.234  65.601  1.00  0.00    -0.015 OA 
HETATM    2  C   UNL     1      -9.298   4.712  66.315  1.00  0.00    -0.151 C  
HETATM    3  O   UNL     1      -9.348   3.600  66.821  1.00  0.00    -0.171 OA 
HETATM    4  C   UNL     1      -8.070   5.614  66.358  1.00  0.00    -0.106 C  
ENDROOT
BRANCH   4   5
HETATM    5  N   UNL     1      -8.394   7.097  66.345  1.00  0.00    -0.119 NA 
BRANCH   5   6
HETATM    6  C   UNL     1      -7.453   7.767  67.325  1.00  0.00    -0.093 C  
HETATM    7  O   UNL     1      -8.899   6.815  69.015  1.00  0.00    -0.130 OA 
HETATM    8  C   UNL     1      -7.925   7.721  68.777  1.00  0.00    -0.125 C  
HETATM    9  O   UNL     1      -7.426   8.395  69.665  1.00  0.00    -0.070 OA 
ENDBRANCH   5   6
BRANCH   5  10
HETATM   10  C   UNL     1      -8.049   7.580  64.948  1.00  0.00    -0.121 C  
BRANCH  10  11
HETATM   11  C   UNL     1      -8.597   8.962  64.626  1.00  0.00    -0.169 A  
HETATM   12  C   UNL     1      -8.586   9.948  65.613  1.00  0.00    -0.157 A  
HETATM   13  C   UNL     1      -9.181  11.213  65.412  1.00  0.00    -0.225 A  
HETATM   14  C   UNL     1      -9.667  11.551  64.152  1.00  0.00    -0.211 A  
HETATM   15  C   UNL     1      -9.644  10.591  63.133  1.00  0.00    -0.375 A  
HETATM   16  O   UNL     1     -10.172  12.799  63.846  1.00  0.00    -0.402 OA 
HETATM   17  C   UNL     1     -10.237  13.761  64.836  1.00  0.00    -0.348 A  
HETATM   18  C   UNL     1      -9.134   9.305  63.382  1.00  0.00     0.092 A  
HETATM   19  O   UNL     1      -9.165   8.352  62.406  1.00  0.00    -0.443 OA 
HETATM   20  C   UNL     1     -10.652  15.049  64.467  1.00  0.00     0.009 A  
HETATM   21  C   UNL     1     -10.755  16.070  65.431  1.00  0.00    -0.383 A  
HETATM   22  H   UNL     1      -9.530   8.585  61.560  1.00  0.00     0.000 HD 
HETATM   23  C   UNL     1     -10.490  15.817  66.778  1.00  0.00    -0.305 A  
HETATM   24  O   UNL     1     -11.102  17.340  65.059  1.00  0.00    -0.614 OA 
HETATM   25  C   UNL     1     -10.095  11.543  67.706  1.00  0.00    -0.198 A  
HETATM   26  H   UNL     1     -11.172  18.029  65.710  1.00  0.00     0.000 HD 
HETATM   27  C   UNL     1     -10.090  14.519  67.125  1.00  0.00    -0.252 A  
HETATM   28  C   UNL     1     -11.430  11.182  67.822  1.00  0.00    -0.349 A  
HETATM   29  C   UNL     1      -9.917  13.502  66.166  1.00  0.00    -0.310 A  
HETATM   30  C   UNL     1      -9.351  12.166  66.567  1.00  0.00    -0.228 C  
HETATM   31  C   UNL     1     -11.853  10.617  69.027  1.00  0.00    -0.256 A  
HETATM   32  C   UNL     1     -10.946  10.409  70.080  1.00  0.00    -0.365 A  
HETATM   33  O   UNL     1      -8.030  12.386  67.129  1.00  0.00    -0.174 OA 
HETATM   34  C   UNL     1      -9.603  10.763  69.945  1.00  0.00     0.458 A  
HETATM   35  O   UNL     1      -6.866  11.671  68.984  1.00  0.00    -0.090 OA 
HETATM   36  C   UNL     1      -7.896  11.807  68.356  1.00  0.00    -0.141 C  
HETATM   37  C   UNL     1      -9.216  11.337  68.750  1.00  0.00    -0.133 A  
BRANCH  23  38
HETATM   38  C   UNL     1     -10.428  16.872  67.868  1.00  0.00    -0.344 C  
BRANCH  38  39
HETATM   39  N   UNL     1      -9.084  17.238  68.415  1.00  0.00    -0.258 NA 
BRANCH  39  40
HETATM   40  C   UNL     1      -8.048  16.434  67.684  1.00  0.00    -0.156 C  
HETATM   41  O   UNL     1      -5.631  16.734  67.659  1.00  0.00    -0.120 OA 
HETATM   42  C   UNL     1      -6.665  16.604  68.301  1.00  0.00    -0.142 C  
HETATM   43  O   UNL     1      -6.700  16.581  69.657  1.00  0.00    -0.218 OA 
ENDBRANCH  39  40
BRANCH  39  44
HETATM   44  C   UNL     1      -8.836  18.694  68.078  1.00  0.00    -0.306 C  
HETATM   45  C   UNL     1     -10.057  19.379  67.465  1.00  0.00    -0.398 C  
HETATM   46  O   UNL     1      -9.994  20.337  66.708  1.00  0.00    -0.442 OA 
HETATM   47  O   UNL     1     -11.236  18.851  67.888  1.00  0.00    -0.073 OA 
ENDBRANCH  39  44
ENDBRANCH  38  39
ENDBRANCH  23  38
ENDBRANCH  10  11
ENDBRANCH   5  10
ENDBRANCH   4   5
TORSDOF 8
ENDMDL
MODEL      121
REMARK 921   NORMALIZED FREE ENERGY PREDICTED BY IDOCK:   -3.69 KCAL/MOL
REMARK 922        TOTAL FREE ENERGY PREDICTED BY IDOCK:   -7.68 KCAL/MOL
REMARK 923 INTER-LIGAND FREE ENERGY PREDICTED BY IDOCK:   -7.02 KCAL/MOL
REMARK 924 INTRA-LIGAND FREE ENERGY PREDICTED BY IDOCK:   -0.66 KCAL/MOL
REMARK 927      BINDING AFFINITY PREDICTED BY RF-SCORE:    0.00 PKD
ROOT
HETATM    1  O   UNL     1      -8.143   7.445  68.430  1.00  0.00    -0.121 OA 
HETATM    2  C   UNL     1      -8.688   6.530  67.597  1.00  0.00    -0.114 C  
HETATM    3  O   UNL     1      -9.674   5.873  67.895  1.00  0.00    -0.113 OA 
HETATM    4  C   UNL     1      -7.994   6.460  66.242  1.00  0.00    -0.111 C  
ENDROOT
BRANCH   4   5
HETATM    5  N   UNL     1      -6.503   6.739  66.297  1.00  0.00    -0.045 NA 
BRANCH   5   6
HETATM    6  C   UNL     1      -5.799   5.399  66.322  1.00  0.00    -0.018 C  
HETATM    7  O   UNL     1      -7.006   4.982  64.267  1.00  0.00    -0.047 OA 
HETATM    8  C   UNL     1      -6.290   4.414  65.263  1.00  0.00    -0.035 C  
HETATM    9  O   UNL     1      -6.010   3.224  65.273  1.00  0.00    -0.018 OA 
ENDBRANCH   5   6
BRANCH   5  10
HETATM   10  C   UNL     1      -6.166   7.429  64.987  1.00  0.00    -0.038 C  
BRANCH  10  11
HETATM   11  C   UNL     1      -7.145   8.530  64.607  1.00  0.00    -0.080 A  
HETATM   12  C   UNL     1      -7.321   9.615  65.467  1.00  0.00    -0.106 A  
HETATM   13  C   UNL     1      -8.294  10.610  65.226  1.00  0.00    -0.127 A  
HETATM   14  C   UNL     1      -9.003  10.600  64.029  1.00  0.00    -0.196 A  
HETATM   15  C   UNL     1      -8.807   9.546  63.128  1.00  0.00    -0.239 A  
HETATM   16  O   UNL     1      -9.899  11.589  63.672  1.00  0.00    -0.298 OA 
HETATM   17  C   UNL     1     -10.138  12.629  64.550  1.00  0.00    -0.246 A  
HETATM   18  C   UNL     1      -7.903   8.514  63.433  1.00  0.00    -0.150 A  
HETATM   19  O   UNL     1      -7.755   7.456  62.582  1.00  0.00    -0.107 OA 
HETATM   20  C   UNL     1     -10.968  13.673  64.114  1.00  0.00    -0.211 A  
HETATM   21  C   UNL     1     -11.265  14.754  64.965  1.00  0.00    -0.395 A  
HETATM   22  H   UNL     1      -8.270   7.445  61.784  1.00  0.00     0.000 HD 
HETATM   23  C   UNL     1     -10.779  14.793  66.274  1.00  0.00    -0.313 A  
HETATM   24  O   UNL     1     -12.024  15.799  64.517  1.00  0.00    -0.244 OA 
HETATM   25  C   UNL     1      -8.990  11.003  67.585  1.00  0.00    -0.142 A  
HETATM   26  H   UNL     1     -12.225  16.529  65.092  1.00  0.00     0.000 HD 
HETATM   27  C   UNL     1      -9.964  13.732  66.692  1.00  0.00    -0.279 A  
HETATM   28  C   UNL     1     -10.128  10.295  67.947  1.00  0.00    -0.200 A  
HETATM   29  C   UNL     1      -9.601  12.676  65.834  1.00  0.00    -0.158 A  
HETATM   30  C   UNL     1      -8.611  11.636  66.284  1.00  0.00    -0.103 C  
HETATM   31  C   UNL     1     -10.213   9.820  69.258  1.00  0.00    -0.216 A  
HETATM   32  C   UNL     1      -9.170  10.043  70.173  1.00  0.00    -0.078 A  
HETATM   33  O   UNL     1      -7.364  12.308  66.605  1.00  0.00     0.061 OA 
HETATM   34  C   UNL     1      -8.025  10.744  69.792  1.00  0.00     0.185 A  
HETATM   35  O   UNL     1      -5.829  12.246  68.321  1.00  0.00    -0.053 OA 
HETATM   36  C   UNL     1      -6.917  11.983  67.851  1.00  0.00    -0.095 C  
HETATM   37  C   UNL     1      -7.974  11.218  68.495  1.00  0.00    -0.145 A  
BRANCH  23  38
HETATM   38  C   UNL     1     -10.916  15.973  67.220  1.00  0.00    -0.207 C  
BRANCH  38  39
HETATM   39  N   UNL     1      -9.694  16.787  67.507  1.00  0.00    -0.248 NA 
BRANCH  39  40
HETATM   40  C   UNL     1     -10.053  18.237  67.355  1.00  0.00    -0.352 C  
HETATM   41  O   UNL     1      -8.567  20.156  67.143  1.00  0.00    -0.321 OA 
HETATM   42  C   UNL     1      -8.903  19.042  66.762  1.00  0.00    -0.310 C  
HETATM   43  O   UNL     1      -8.290  18.390  65.741  1.00  0.00    -0.478 OA 
ENDBRANCH  39  40
BRANCH  39  44
HETATM   44  C   UNL     1      -9.333  16.569  68.963  1.00  0.00    -0.239 C  
HETATM   45  C   UNL     1      -8.110  15.672  69.144  1.00  0.00    -0.238 C  
HETATM   46  O   UNL     1      -7.907  14.986  70.135  1.00  0.00     0.080 OA 
HETATM   47  O   UNL     1      -7.231  15.748  68.109  1.00  0.00    -0.111 OA 
ENDBRANCH  39  44
ENDBRANCH  38  39
ENDBRANCH  23  38
ENDBRANCH  10  11
ENDBRANCH   5  10
ENDBRANCH   4   5
TORSDOF 8
ENDMDL
MODEL      122
REMARK 921   NORMALIZED FREE ENERGY PREDICTED BY IDOCK:   -3.65 KCAL/MOL
REMARK 922        TOTAL FREE ENERGY PREDICTED BY IDOCK:   -7.63 KCAL/MOL
REMARK 923 INTER-LIGAND FREE ENERGY PREDICTED BY IDOCK:   -6.53 KCAL/MOL
REMARK 924 INTRA-LIGAND FREE ENERGY PREDICTED BY IDOCK:   -1.10 KCAL/MOL
REMARK 927      BINDING AFFINITY PREDICTED BY RF-SCORE:    0.00 PKD
ROOT
HETATM    1  O   UNL     1     -11.844  15.688  64.720  1.00  0.00    -0.185 OA 
HETATM    2  C   UNL     1     -11.224  14.503  64.921  1.00  0.00    -0.391 C  
HETATM    3  O   UNL     1     -11.741  13.433  64.637  1.00  0.00    -0.343 OA 
HETATM    4  C   UNL     1      -9.806  14.648  65.462  1.00  0.00    -0.292 C  
ENDROOT
BRANCH   4   5
HETATM    5  N   UNL     1      -9.615  15.844  66.377  1.00  0.00    -0.264 NA 
BRANCH   5   6
HETATM    6  C   UNL     1     -10.208  15.476  67.721  1.00  0.00    -0.243 C  
HETATM    7  O   UNL     1     -10.880  17.799  67.805  1.00  0.00    -0.371 OA 
HETATM    8  C   UNL     1     -10.716  16.669  68.528  1.00  0.00    -0.351 C  
HETATM    9  O   UNL     1     -11.013  16.599  69.712  1.00  0.00    -0.330 OA 
ENDBRANCH   5   6
BRANCH   5  10
HETATM   10  C   UNL     1      -8.113  15.995  66.546  1.00  0.00    -0.269 C  
BRANCH  10  11
HETATM   11  C   UNL     1      -7.502  14.987  67.508  1.00  0.00    -0.226 A  
HETATM   12  C   UNL     1      -7.847  13.640  67.396  1.00  0.00    -0.162 A  
HETATM   13  C   UNL     1      -7.402  12.675  68.326  1.00  0.00    -0.116 A  
HETATM   14  C   UNL     1      -6.477  13.037  69.301  1.00  0.00    -0.103 A  
HETATM   15  C   UNL     1      -6.079  14.376  69.400  1.00  0.00    -0.107 A  
HETATM   16  O   UNL     1      -5.916  12.135  70.184  1.00  0.00    -0.148 OA 
HETATM   17  C   UNL     1      -6.308  10.811  70.133  1.00  0.00    -0.147 A  
HETATM   18  C   UNL     1      -6.609  15.338  68.524  1.00  0.00    -0.109 A  
HETATM   19  O   UNL     1      -6.266  16.653  68.658  1.00  0.00    -0.135 OA 
HETATM   20  C   UNL     1      -5.642   9.901  70.968  1.00  0.00    -0.081 A  
HETATM   21  C   UNL     1      -6.004   8.541  70.976  1.00  0.00    -0.036 A  
HETATM   22  H   UNL     1      -5.659  16.892  69.349  1.00  0.00     0.000 HD 
HETATM   23  C   UNL     1      -7.059   8.072  70.190  1.00  0.00    -0.049 A  
HETATM   24  O   UNL     1      -5.314   7.646  71.746  1.00  0.00    -0.035 OA 
HETATM   25  C   UNL     1      -9.467  11.284  68.408  1.00  0.00    -0.192 A  
HETATM   26  H   UNL     1      -5.558   6.728  71.752  1.00  0.00     0.000 HD 
HETATM   27  C   UNL     1      -7.719   9.002  69.374  1.00  0.00    -0.083 A  
HETATM   28  C   UNL     1     -10.299  11.599  69.473  1.00  0.00     0.278 A  
HETATM   29  C   UNL     1      -7.328  10.353  69.303  1.00  0.00    -0.106 A  
HETATM   30  C   UNL     1      -7.974  11.281  68.308  1.00  0.00    -0.134 C  
HETATM   31  C   UNL     1     -11.679  11.503  69.275  1.00  0.00    -0.397 A  
HETATM   32  C   UNL     1     -12.201  11.113  68.030  1.00  0.00     0.437 A  
HETATM   33  O   UNL     1      -7.742  10.748  66.977  1.00  0.00    -0.112 OA 
HETATM   34  C   UNL     1     -11.353  10.813  66.964  1.00  0.00    -0.046 A  
HETATM   35  O   UNL     1      -9.002  10.383  65.084  1.00  0.00    -0.170 OA 
HETATM   36  C   UNL     1      -8.901  10.628  66.268  1.00  0.00    -0.161 C  
HETATM   37  C   UNL     1      -9.993  10.898  67.192  1.00  0.00    -0.221 A  
BRANCH  23  38
HETATM   38  C   UNL     1      -7.433   6.611  70.013  1.00  0.00    -0.094 C  
BRANCH  38  39
HETATM   39  N   UNL     1      -8.103   5.916  71.155  1.00  0.00    -0.119 NA 
BRANCH  39  40
HETATM   40  C   UNL     1      -8.997   6.906  71.845  1.00  0.00    -0.137 C  
HETATM   41  O   UNL     1      -9.739   6.925  74.165  1.00  0.00    -0.254 OA 
HETATM   42  C   UNL     1      -8.821   6.865  73.358  1.00  0.00    -0.130 C  
HETATM   43  O   UNL     1      -7.517   6.771  73.722  1.00  0.00    -0.083 OA 
ENDBRANCH  39  40
BRANCH  39  44
HETATM   44  C   UNL     1      -8.996   4.840  70.573  1.00  0.00    -0.116 C  
HETATM   45  C   UNL     1      -8.615   3.435  71.037  1.00  0.00    -0.072 C  
HETATM   46  O   UNL     1      -8.836   2.420  70.394  1.00  0.00    -0.062 OA 
HETATM   47  O   UNL     1      -8.047   3.415  72.272  1.00  0.00    -0.065 OA 
ENDBRANCH  39  44
ENDBRANCH  38  39
ENDBRANCH  23  38
ENDBRANCH  10  11
ENDBRANCH   5  10
ENDBRANCH   4   5
TORSDOF 8
ENDMDL
MODEL      123
REMARK 921   NORMALIZED FREE ENERGY PREDICTED BY IDOCK:   -3.64 KCAL/MOL
REMARK 922        TOTAL FREE ENERGY PREDICTED BY IDOCK:   -7.61 KCAL/MOL
REMARK 923 INTER-LIGAND FREE ENERGY PREDICTED BY IDOCK:   -9.87 KCAL/MOL
REMARK 924 INTRA-LIGAND FREE ENERGY PREDICTED BY IDOCK:    2.26 KCAL/MOL
REMARK 927      BINDING AFFINITY PREDICTED BY RF-SCORE:    0.00 PKD
ROOT
HETATM    1  O   UNL     1     -11.349  15.166  65.701  1.00  0.00    -0.332 OA 
HETATM    2  C   UNL     1     -11.181  16.454  65.320  1.00  0.00     0.006 C  
HETATM    3  O   UNL     1     -11.299  16.817  64.159  1.00  0.00    -1.194 OA 
HETATM    4  C   UNL     1     -10.908  17.397  66.486  1.00  0.00     0.050 C  
ENDROOT
BRANCH   4   5
HETATM    5  N   UNL     1     -10.122  16.764  67.620  1.00  0.00    -0.267 NA 
BRANCH   5   6
HETATM    6  C   UNL     1      -8.965  17.690  67.930  1.00  0.00    -0.250 C  
HETATM    7  O   UNL     1     -10.584  19.456  67.591  1.00  0.00    -0.436 OA 
HETATM    8  C   UNL     1      -9.268  19.170  67.697  1.00  0.00    -0.300 C  
HETATM    9  O   UNL     1      -8.404  20.034  67.671  1.00  0.00    -0.313 OA 
ENDBRANCH   5   6
BRANCH   5  10
HETATM   10  C   UNL     1     -11.059  16.756  68.814  1.00  0.00    -0.220 C  
BRANCH  10  11
HETATM   11  C   UNL     1     -11.362  15.363  69.344  1.00  0.00    -0.315 A  
HETATM   12  C   UNL     1     -10.664  14.269  68.829  1.00  0.00    -0.262 A  
HETATM   13  C   UNL     1     -10.977  12.943  69.198  1.00  0.00    -0.184 A  
HETATM   14  C   UNL     1     -11.904  12.711  70.209  1.00  0.00    -0.214 A  
HETATM   15  C   UNL     1     -12.582  13.799  70.775  1.00  0.00    -0.410 A  
HETATM   16  O   UNL     1     -12.193  11.453  70.698  1.00  0.00    -0.358 OA 
HETATM   17  C   UNL     1     -11.564  10.354  70.143  1.00  0.00    -0.312 A  
HETATM   18  C   UNL     1     -12.324  15.105  70.324  1.00  0.00    -0.352 A  
HETATM   19  O   UNL     1     -13.026  16.159  70.834  1.00  0.00    -0.508 OA 
HETATM   20  C   UNL     1     -11.796   9.103  70.733  1.00  0.00    -0.280 A  
HETATM   21  C   UNL     1     -11.199   7.942  70.206  1.00  0.00    -0.200 A  
HETATM   22  H   UNL     1     -13.681  15.984  71.500  1.00  0.00     0.000 HD 
HETATM   23  C   UNL     1     -10.399   8.000  69.062  1.00  0.00    -0.228 A  
HETATM   24  O   UNL     1     -11.379   6.733  70.818  1.00  0.00    -0.284 OA 
HETATM   25  C   UNL     1     -10.606  11.863  66.983  1.00  0.00    -0.260 A  
HETATM   26  H   UNL     1     -10.976   5.949  70.462  1.00  0.00     0.000 HD 
HETATM   27  C   UNL     1     -10.193   9.260  68.482  1.00  0.00    -0.225 A  
HETATM   28  C   UNL     1     -11.773  11.697  66.252  1.00  0.00     0.012 A  
HETATM   29  C   UNL     1     -10.728  10.440  69.034  1.00  0.00    -0.260 A  
HETATM   30  C   UNL     1     -10.362  11.782  68.458  1.00  0.00    -0.217 C  
HETATM   31  C   UNL     1     -11.699  11.825  64.863  1.00  0.00    -0.187 A  
HETATM   32  C   UNL     1     -10.479  12.127  64.234  1.00  0.00    -0.373 A  
HETATM   33  O   UNL     1      -8.921  11.938  68.553  1.00  0.00    -0.176 OA 
HETATM   34  C   UNL     1      -9.316  12.306  64.983  1.00  0.00     0.259 A  
HETATM   35  O   UNL     1      -7.222  12.636  67.163  1.00  0.00    -0.128 OA 
HETATM   36  C   UNL     1      -8.364  12.271  67.354  1.00  0.00    -0.177 C  
HETATM   37  C   UNL     1      -9.414  12.156  66.352  1.00  0.00    -0.238 A  
BRANCH  23  38
HETATM   38  C   UNL     1      -9.594   6.842  68.501  1.00  0.00    -0.130 C  
BRANCH  38  39
HETATM   39  N   UNL     1      -8.131   6.792  68.807  1.00  0.00    -0.119 NA 
BRANCH  39  40
HETATM   40  C   UNL     1      -7.408   7.597  67.766  1.00  0.00    -0.099 C  
HETATM   41  O   UNL     1      -5.449   6.981  66.456  1.00  0.00    -0.021 OA 
HETATM   42  C   UNL     1      -6.578   6.712  66.844  1.00  0.00    -0.048 C  
HETATM   43  O   UNL     1      -7.240   5.584  66.481  1.00  0.00    -0.074 OA 
ENDBRANCH  39  40
BRANCH  39  44
HETATM   44  C   UNL     1      -7.918   7.489  70.135  1.00  0.00    -0.111 C  
HETATM   45  C   UNL     1      -6.826   8.555  70.079  1.00  0.00    -0.042 C  
HETATM   46  O   UNL     1      -6.160   8.903  71.043  1.00  0.00    -0.038 OA 
HETATM   47  O   UNL     1      -6.697   9.126  68.852  1.00  0.00    -0.051 OA 
ENDBRANCH  39  44
ENDBRANCH  38  39
ENDBRANCH  23  38
ENDBRANCH  10  11
ENDBRANCH   5  10
ENDBRANCH   4   5
TORSDOF 8
ENDMDL
MODEL      124
REMARK 921   NORMALIZED FREE ENERGY PREDICTED BY IDOCK:   -3.60 KCAL/MOL
REMARK 922        TOTAL FREE ENERGY PREDICTED BY IDOCK:   -7.55 KCAL/MOL
REMARK 923 INTER-LIGAND FREE ENERGY PREDICTED BY IDOCK:   -9.01 KCAL/MOL
REMARK 924 INTRA-LIGAND FREE ENERGY PREDICTED BY IDOCK:    1.46 KCAL/MOL
REMARK 927      BINDING AFFINITY PREDICTED BY RF-SCORE:    0.00 PKD
ROOT
HETATM    1  O   UNL     1     -12.913  10.409  72.684  1.00  0.00     0.088 OA 
HETATM    2  C   UNL     1     -13.136   9.247  72.030  1.00  0.00    -0.436 C  
HETATM    3  O   UNL     1     -14.253   8.772  71.892  1.00  0.00    -0.410 OA 
HETATM    4  C   UNL     1     -11.871   8.641  71.430  1.00  0.00    -0.297 C  
ENDROOT
BRANCH   4   5
HETATM    5  N   UNL     1     -10.617   8.902  72.244  1.00  0.00    -0.263 NA 
BRANCH   5   6
HETATM    6  C   UNL     1     -10.285   7.618  72.975  1.00  0.00    -0.320 C  
HETATM    7  O   UNL     1      -8.559   8.937  74.040  1.00  0.00    -0.046 OA 
HETATM    8  C   UNL     1      -9.003   7.683  73.804  1.00  0.00    -0.261 C  
HETATM    9  O   UNL     1      -8.457   6.695  74.271  1.00  0.00    -0.129 OA 
ENDBRANCH   5   6
BRANCH   5  10
HETATM   10  C   UNL     1      -9.519   9.169  71.230  1.00  0.00    -0.243 C  
BRANCH  10  11
HETATM   11  C   UNL     1     -10.036   9.659  69.886  1.00  0.00    -0.273 A  
HETATM   12  C   UNL     1      -9.936  11.013  69.567  1.00  0.00     0.074 A  
HETATM   13  C   UNL     1     -10.496  11.546  68.385  1.00  0.00    -0.226 A  
HETATM   14  C   UNL     1     -11.038  10.688  67.434  1.00  0.00    -0.272 A  
HETATM   15  C   UNL     1     -11.104   9.317  67.713  1.00  0.00     0.083 A  
HETATM   16  O   UNL     1     -11.515  11.116  66.211  1.00  0.00    -0.201 OA 
HETATM   17  C   UNL     1     -11.492  12.466  65.915  1.00  0.00    -0.374 A  
HETATM   18  C   UNL     1     -10.627   8.819  68.937  1.00  0.00    -0.155 A  
HETATM   19  O   UNL     1     -10.745   7.492  69.233  1.00  0.00    -0.262 OA 
HETATM   20  C   UNL     1     -11.881  12.858  64.626  1.00  0.00    -0.422 A  
HETATM   21  C   UNL     1     -11.896  14.219  64.266  1.00  0.00    -0.379 A  
HETATM   22  H   UNL     1     -11.147   6.921  68.589  1.00  0.00     0.000 HD 
HETATM   23  C   UNL     1     -11.566  15.211  65.191  1.00  0.00    -0.245 A  
HETATM   24  O   UNL     1     -12.218  14.593  62.991  1.00  0.00    -0.286 OA 
HETATM   25  C   UNL     1     -11.272  13.725  69.313  1.00  0.00    -0.291 A  
HETATM   26  H   UNL     1     -12.228  15.512  62.748  1.00  0.00     0.000 HD 
HETATM   27  C   UNL     1     -11.194  14.797  66.478  1.00  0.00    -0.342 A  
HETATM   28  C   UNL     1     -12.610  13.720  69.679  1.00  0.00    -0.020 A  
HETATM   29  C   UNL     1     -11.109  13.437  66.837  1.00  0.00    -0.309 A  
HETATM   30  C   UNL     1     -10.569  13.039  68.184  1.00  0.00    -0.245 C  
HETATM   31  C   UNL     1     -12.986  14.473  70.794  1.00  0.00    -0.403 A  
HETATM   32  C   UNL     1     -12.031  15.198  71.527  1.00  0.00    -0.421 A  
HETATM   33  O   UNL     1      -9.212  13.545  68.295  1.00  0.00    -0.197 OA 
HETATM   34  C   UNL     1     -10.685  15.183  71.156  1.00  0.00     0.063 A  
HETATM   35  O   UNL     1      -7.974  14.667  69.880  1.00  0.00     0.107 OA 
HETATM   36  C   UNL     1      -9.032  14.272  69.433  1.00  0.00     0.424 C  
HETATM   37  C   UNL     1     -10.344  14.445  70.039  1.00  0.00     0.411 A  
BRANCH  23  38
HETATM   38  C   UNL     1     -11.408  16.687  64.869  1.00  0.00     0.048 C  
BRANCH  38  39
HETATM   39  N   UNL     1     -10.319  17.443  65.561  1.00  0.00    -0.644 NA 
BRANCH  39  40
HETATM   40  C   UNL     1     -10.955  18.390  66.538  1.00  0.00     0.181 C  
HETATM   41  O   UNL     1     -10.114  20.525  67.353  1.00  0.00    -0.410 OA 
HETATM   42  C   UNL     1     -10.388  19.798  66.407  1.00  0.00    -0.508 C  
HETATM   43  O   UNL     1     -10.233  20.173  65.112  1.00  0.00    -0.124 OA 
ENDBRANCH  39  40
BRANCH  39  44
HETATM   44  C   UNL     1      -9.514  16.445  66.370  1.00  0.00    -0.293 C  
HETATM   45  C   UNL     1      -8.006  16.629  66.209  1.00  0.00    -0.305 C  
HETATM   46  O   UNL     1      -7.190  15.729  66.347  1.00  0.00     0.012 OA 
HETATM   47  O   UNL     1      -7.647  17.914  65.948  1.00  0.00    -0.487 OA 
ENDBRANCH  39  44
ENDBRANCH  38  39
ENDBRANCH  23  38
ENDBRANCH  10  11
ENDBRANCH   5  10
ENDBRANCH   4   5
TORSDOF 8
ENDMDL
MODEL      125
REMARK 921   NORMALIZED FREE ENERGY PREDICTED BY IDOCK:   -3.58 KCAL/MOL
REMARK 922        TOTAL FREE ENERGY PREDICTED BY IDOCK:   -7.53 KCAL/MOL
REMARK 923 INTER-LIGAND FREE ENERGY PREDICTED BY IDOCK:   -7.12 KCAL/MOL
REMARK 924 INTRA-LIGAND FREE ENERGY PREDICTED BY IDOCK:   -0.41 KCAL/MOL
REMARK 927      BINDING AFFINITY PREDICTED BY RF-SCORE:    0.00 PKD
ROOT
HETATM    1  O   UNL     1      -6.817   3.093  62.876  1.00  0.00    -0.029 OA 
HETATM    2  C   UNL     1      -6.043   2.842  63.957  1.00  0.00    -0.014 C  
HETATM    3  O   UNL     1      -5.580   1.736  64.192  1.00  0.00    -0.008 OA 
HETATM    4  C   UNL     1      -5.754   4.083  64.794  1.00  0.00    -0.014 C  
ENDROOT
BRANCH   4   5
HETATM    5  N   UNL     1      -6.887   5.093  64.808  1.00  0.00    -0.048 NA 
BRANCH   5   6
HETATM    6  C   UNL     1      -7.888   4.625  65.843  1.00  0.00    -0.095 C  
HETATM    7  O   UNL     1      -9.383   4.382  63.957  1.00  0.00    -0.153 OA 
HETATM    8  C   UNL     1      -9.306   4.441  65.304  1.00  0.00    -0.164 C  
HETATM    9  O   UNL     1     -10.282   4.293  66.025  1.00  0.00    -0.224 OA 
ENDBRANCH   5   6
BRANCH   5  10
HETATM   10  C   UNL     1      -6.271   6.393  65.296  1.00  0.00    -0.031 C  
BRANCH  10  11
HETATM   11  C   UNL     1      -7.094   7.625  64.952  1.00  0.00    -0.063 A  
HETATM   12  C   UNL     1      -7.342   8.579  65.939  1.00  0.00    -0.077 A  
HETATM   13  C   UNL     1      -8.189   9.686  65.713  1.00  0.00    -0.120 A  
HETATM   14  C   UNL     1      -8.681   9.924  64.433  1.00  0.00    -0.202 A  
HETATM   15  C   UNL     1      -8.404   9.004  63.414  1.00  0.00    -0.187 A  
HETATM   16  O   UNL     1      -9.432  11.036  64.106  1.00  0.00    -0.225 OA 
HETATM   17  C   UNL     1      -9.749  11.949  65.093  1.00  0.00    -0.176 A  
HETATM   18  C   UNL     1      -7.637   7.858  63.685  1.00  0.00    -0.130 A  
HETATM   19  O   UNL     1      -7.416   6.931  62.707  1.00  0.00    -0.072 OA 
HETATM   20  C   UNL     1     -10.419  13.120  64.708  1.00  0.00    -0.390 A  
HETATM   21  C   UNL     1     -10.784  14.083  65.667  1.00  0.00    -0.303 A  
HETATM   22  H   UNL     1      -7.786   7.089  61.846  1.00  0.00     0.000 HD 
HETATM   23  C   UNL     1     -10.530  13.879  67.025  1.00  0.00    -0.278 A  
HETATM   24  O   UNL     1     -11.383  15.250  65.282  1.00  0.00    -0.338 OA 
HETATM   25  C   UNL     1      -9.253   9.783  67.963  1.00  0.00    -0.131 A  
HETATM   26  H   UNL     1     -11.630  15.901  65.930  1.00  0.00     0.000 HD 
HETATM   27  C   UNL     1      -9.872  12.695  67.388  1.00  0.00    -0.205 A  
HETATM   28  C   UNL     1     -10.481   9.139  68.018  1.00  0.00    -0.276 A  
HETATM   29  C   UNL     1      -9.439  11.751  66.436  1.00  0.00    -0.234 A  
HETATM   30  C   UNL     1      -8.613  10.567  66.861  1.00  0.00    -0.125 C  
HETATM   31  C   UNL     1     -10.822   8.482  69.202  1.00  0.00    -0.049 A  
HETATM   32  C   UNL     1      -9.939   8.465  70.295  1.00  0.00    -0.193 A  
HETATM   33  O   UNL     1      -7.397  11.062  67.482  1.00  0.00    -0.094 OA 
HETATM   34  C   UNL     1      -8.702   9.104  70.222  1.00  0.00    -0.223 A  
HETATM   35  O   UNL     1      -6.188  10.598  69.387  1.00  0.00    -0.043 OA 
HETATM   36  C   UNL     1      -7.195  10.513  68.713  1.00  0.00    -0.084 C  
HETATM   37  C   UNL     1      -8.396   9.762  69.046  1.00  0.00    -0.127 A  
BRANCH  23  38
HETATM   38  C   UNL     1     -10.747  14.910  68.119  1.00  0.00    -0.251 C  
BRANCH  38  39
HETATM   39  N   UNL     1      -9.546  15.601  68.680  1.00  0.00    -0.195 NA 
BRANCH  39  40
HETATM   40  C   UNL     1      -8.419  14.610  68.733  1.00  0.00    -0.161 C  
HETATM   41  O   UNL     1      -6.065  14.955  68.207  1.00  0.00    -0.102 OA 
HETATM   42  C   UNL     1      -7.064  15.303  68.824  1.00  0.00    -0.117 C  
HETATM   43  O   UNL     1      -7.078  16.351  69.686  1.00  0.00    -0.190 OA 
ENDBRANCH  39  40
BRANCH  39  44
HETATM   44  C   UNL     1      -9.141  16.682  67.697  1.00  0.00    -0.207 C  
HETATM   45  C   UNL     1     -10.309  17.575  67.283  1.00  0.00    -0.337 C  
HETATM   46  O   UNL     1     -10.369  18.169  66.216  1.00  0.00    -0.388 OA 
HETATM   47  O   UNL     1     -11.262  17.692  68.245  1.00  0.00    -0.045 OA 
ENDBRANCH  39  44
ENDBRANCH  38  39
ENDBRANCH  23  38
ENDBRANCH  10  11
ENDBRANCH   5  10
ENDBRANCH   4   5
TORSDOF 8
ENDMDL
MODEL      126
REMARK 921   NORMALIZED FREE ENERGY PREDICTED BY IDOCK:   -3.56 KCAL/MOL
REMARK 922        TOTAL FREE ENERGY PREDICTED BY IDOCK:   -7.50 KCAL/MOL
REMARK 923 INTER-LIGAND FREE ENERGY PREDICTED BY IDOCK:   -8.46 KCAL/MOL
REMARK 924 INTRA-LIGAND FREE ENERGY PREDICTED BY IDOCK:    0.97 KCAL/MOL
REMARK 927      BINDING AFFINITY PREDICTED BY RF-SCORE:    0.00 PKD
ROOT
HETATM    1  O   UNL     1      -9.783  17.830  67.425  1.00  0.00    -0.272 OA 
HETATM    2  C   UNL     1      -9.884  17.136  66.268  1.00  0.00    -0.291 C  
HETATM    3  O   UNL     1     -10.551  17.525  65.322  1.00  0.00    -0.664 OA 
HETATM    4  C   UNL     1      -9.030  15.873  66.248  1.00  0.00    -0.346 C  
ENDROOT
BRANCH   4   5
HETATM    5  N   UNL     1      -8.888  15.202  67.602  1.00  0.00    -0.169 NA 
BRANCH   5   6
HETATM    6  C   UNL     1      -8.004  16.093  68.449  1.00  0.00    -0.162 C  
HETATM    7  O   UNL     1      -6.543  14.166  68.544  1.00  0.00    -0.084 OA 
HETATM    8  C   UNL     1      -6.820  15.370  69.091  1.00  0.00    -0.144 C  
HETATM    9  O   UNL     1      -6.138  15.861  69.979  1.00  0.00    -0.168 OA 
ENDBRANCH   5   6
BRANCH   5  10
HETATM   10  C   UNL     1     -10.281  15.202  68.207  1.00  0.00    -0.223 C  
BRANCH  10  11
HETATM   11  C   UNL     1     -10.715  13.844  68.739  1.00  0.00    -0.278 A  
HETATM   12  C   UNL     1      -9.875  12.743  68.569  1.00  0.00    -0.147 A  
HETATM   13  C   UNL     1     -10.269  11.439  68.941  1.00  0.00    -0.184 A  
HETATM   14  C   UNL     1     -11.464  11.252  69.629  1.00  0.00    -0.309 A  
HETATM   15  C   UNL     1     -12.300  12.352  69.853  1.00  0.00    -0.117 A  
HETATM   16  O   UNL     1     -11.874  10.026  70.114  1.00  0.00    -0.238 OA 
HETATM   17  C   UNL     1     -11.086   8.913  69.885  1.00  0.00    -0.136 A  
HETATM   18  C   UNL     1     -11.933  13.627  69.390  1.00  0.00    -0.342 A  
HETATM   19  O   UNL     1     -12.774  14.689  69.557  1.00  0.00    -0.576 OA 
HETATM   20  C   UNL     1     -11.475   7.705  70.483  1.00  0.00    -0.236 A  
HETATM   21  C   UNL     1     -10.725   6.532  70.276  1.00  0.00    -0.255 A  
HETATM   22  H   UNL     1     -13.603  14.541  69.999  1.00  0.00     0.000 HD 
HETATM   23  C   UNL     1      -9.607   6.530  69.439  1.00  0.00    -0.149 A  
HETATM   24  O   UNL     1     -11.071   5.369  70.909  1.00  0.00    -0.130 OA 
HETATM   25  C   UNL     1      -9.205  10.199  67.059  1.00  0.00    -0.166 A  
HETATM   26  H   UNL     1     -10.565   4.577  70.768  1.00  0.00     0.000 HD 
HETATM   27  C   UNL     1      -9.247   7.746  68.841  1.00  0.00    -0.140 A  
HETATM   28  C   UNL     1     -10.080   9.925  66.018  1.00  0.00    -0.314 A  
HETATM   29  C   UNL     1      -9.945   8.944  69.089  1.00  0.00    -0.192 A  
HETATM   30  C   UNL     1      -9.436  10.249  68.537  1.00  0.00    -0.158 C  
HETATM   31  C   UNL     1      -9.575   9.943  64.716  1.00  0.00    -0.339 A  
HETATM   32  C   UNL     1      -8.223  10.244  64.475  1.00  0.00    -0.158 A  
HETATM   33  O   UNL     1      -8.100  10.472  69.063  1.00  0.00    -0.124 OA 
HETATM   34  C   UNL     1      -7.357  10.531  65.530  1.00  0.00    -0.106 A  
HETATM   35  O   UNL     1      -6.061  11.125  68.215  1.00  0.00    -0.046 OA 
HETATM   36  C   UNL     1      -7.200  10.730  68.073  1.00  0.00    -0.086 C  
HETATM   37  C   UNL     1      -7.879  10.489  66.808  1.00  0.00    -0.121 A  
BRANCH  23  38
HETATM   38  C   UNL     1      -8.650   5.365  69.264  1.00  0.00    -0.102 C  
BRANCH  38  39
HETATM   39  N   UNL     1      -7.777   5.350  68.050  1.00  0.00    -0.090 NA 
BRANCH  39  40
HETATM   40  C   UNL     1      -6.891   4.140  68.126  1.00  0.00    -0.048 C  
HETATM   41  O   UNL     1      -5.244   3.359  66.510  1.00  0.00    -0.011 OA 
HETATM   42  C   UNL     1      -5.685   4.267  67.202  1.00  0.00    -0.022 C  
HETATM   43  O   UNL     1      -5.134   5.506  67.241  1.00  0.00    -0.004 OA 
ENDBRANCH  39  40
BRANCH  39  44
HETATM   44  C   UNL     1      -8.676   5.167  66.844  1.00  0.00    -0.107 C  
HETATM   45  C   UNL     1      -9.280   3.767  66.760  1.00  0.00    -0.177 C  
HETATM   46  O   UNL     1      -9.623   3.232  65.716  1.00  0.00    -0.129 OA 
HETATM   47  O   UNL     1      -9.453   3.184  67.976  1.00  0.00    -0.200 OA 
ENDBRANCH  39  44
ENDBRANCH  38  39
ENDBRANCH  23  38
ENDBRANCH  10  11
ENDBRANCH   5  10
ENDBRANCH   4   5
TORSDOF 8
ENDMDL
MODEL      127
REMARK 921   NORMALIZED FREE ENERGY PREDICTED BY IDOCK:   -3.56 KCAL/MOL
REMARK 922        TOTAL FREE ENERGY PREDICTED BY IDOCK:   -7.49 KCAL/MOL
REMARK 923 INTER-LIGAND FREE ENERGY PREDICTED BY IDOCK:   -8.73 KCAL/MOL
REMARK 924 INTRA-LIGAND FREE ENERGY PREDICTED BY IDOCK:    1.23 KCAL/MOL
REMARK 927      BINDING AFFINITY PREDICTED BY RF-SCORE:    0.00 PKD
ROOT
HETATM    1  O   UNL     1      -7.545  17.691  67.248  1.00  0.00    -0.192 OA 
HETATM    2  C   UNL     1      -8.297  18.233  68.233  1.00  0.00    -0.302 C  
HETATM    3  O   UNL     1      -7.978  19.258  68.817  1.00  0.00    -0.351 OA 
HETATM    4  C   UNL     1      -9.600  17.481  68.480  1.00  0.00    -0.305 C  
ENDROOT
BRANCH   4   5
HETATM    5  N   UNL     1      -9.500  15.984  68.247  1.00  0.00    -0.204 NA 
BRANCH   5   6
HETATM    6  C   UNL     1      -9.229  15.780  66.772  1.00  0.00    -0.243 C  
HETATM    7  O   UNL     1     -11.496  14.938  66.703  1.00  0.00    -0.349 OA 
HETATM    8  C   UNL     1     -10.324  15.011  66.034  1.00  0.00    -0.312 C  
HETATM    9  O   UNL     1     -10.181  14.555  64.909  1.00  0.00    -0.405 OA 
ENDBRANCH   5   6
BRANCH   5  10
HETATM   10  C   UNL     1      -8.278  15.529  69.023  1.00  0.00    -0.227 C  
BRANCH  10  11
HETATM   11  C   UNL     1      -7.634  14.269  68.464  1.00  0.00    -0.127 A  
HETATM   12  C   UNL     1      -8.444  13.200  68.080  1.00  0.00    -0.181 A  
HETATM   13  C   UNL     1      -7.903  11.965  67.660  1.00  0.00    -0.142 A  
HETATM   14  C   UNL     1      -6.528  11.843  67.481  1.00  0.00    -0.111 A  
HETATM   15  C   UNL     1      -5.699  12.922  67.815  1.00  0.00    -0.135 A  
HETATM   16  O   UNL     1      -5.928  10.705  66.979  1.00  0.00    -0.053 OA 
HETATM   17  C   UNL     1      -6.714   9.612  66.666  1.00  0.00    -0.079 A  
HETATM   18  C   UNL     1      -6.252  14.109  68.322  1.00  0.00    -0.117 A  
HETATM   19  O   UNL     1      -5.440  15.139  68.703  1.00  0.00    -0.086 OA 
HETATM   20  C   UNL     1      -6.089   8.513  66.058  1.00  0.00    -0.048 A  
HETATM   21  C   UNL     1      -6.830   7.362  65.729  1.00  0.00    -0.056 A  
HETATM   22  H   UNL     1      -4.501  15.030  68.606  1.00  0.00     0.000 HD 
HETATM   23  C   UNL     1      -8.189   7.268  66.038  1.00  0.00    -0.138 A  
HETATM   24  O   UNL     1      -6.232   6.316  65.082  1.00  0.00    -0.029 OA 
HETATM   25  C   UNL     1      -9.598  10.464  68.699  1.00  0.00    -0.166 A  
HETATM   26  H   UNL     1      -6.731   5.539  64.860  1.00  0.00     0.000 HD 
HETATM   27  C   UNL     1      -8.788   8.373  66.658  1.00  0.00    -0.164 A  
HETATM   28  C   UNL     1      -9.204   9.962  69.932  1.00  0.00    -0.245 A  
HETATM   29  C   UNL     1      -8.079   9.558  66.935  1.00  0.00    -0.109 A  
HETATM   30  C   UNL     1      -8.798  10.767  67.471  1.00  0.00    -0.128 C  
HETATM   31  C   UNL     1     -10.188   9.771  70.905  1.00  0.00    -0.195 A  
HETATM   32  C   UNL     1     -11.530  10.093  70.642  1.00  0.00    -0.432 A  
HETATM   33  O   UNL     1      -9.817  11.150  66.510  1.00  0.00    -0.199 OA 
HETATM   34  C   UNL     1     -11.910  10.611  69.403  1.00  0.00    -0.325 A  
HETATM   35  O   UNL     1     -12.041  11.745  66.585  1.00  0.00    -0.527 OA 
HETATM   36  C   UNL     1     -11.044  11.272  67.091  1.00  0.00    -0.301 C  
HETATM   37  C   UNL     1     -10.921  10.772  68.453  1.00  0.00    -0.299 A  
BRANCH  23  38
HETATM   38  C   UNL     1      -9.107   6.141  65.599  1.00  0.00     0.013 C  
BRANCH  38  39
HETATM   39  N   UNL     1      -8.688   4.737  65.900  1.00  0.00    -0.121 NA 
BRANCH  39  40
HETATM   40  C   UNL     1      -9.700   4.139  66.835  1.00  0.00    -0.205 C  
HETATM   41  O   UNL     1      -9.365   2.451  68.559  1.00  0.00    -0.175 OA 
HETATM   42  C   UNL     1      -9.038   3.520  68.060  1.00  0.00    -0.156 C  
HETATM   43  O   UNL     1      -8.043   4.298  68.556  1.00  0.00    -0.077 OA 
ENDBRANCH  39  40
BRANCH  39  44
HETATM   44  C   UNL     1      -8.759   3.952  64.606  1.00  0.00    -0.116 C  
HETATM   45  C   UNL     1     -10.160   3.419  64.310  1.00  0.00    -0.176 C  
HETATM   46  O   UNL     1     -10.384   2.421  63.641  1.00  0.00    -0.154 OA 
HETATM   47  O   UNL     1     -11.149   4.199  64.822  1.00  0.00    -0.278 OA 
ENDBRANCH  39  44
ENDBRANCH  38  39
ENDBRANCH  23  38
ENDBRANCH  10  11
ENDBRANCH   5  10
ENDBRANCH   4   5
TORSDOF 8
ENDMDL
MODEL      128
REMARK 921   NORMALIZED FREE ENERGY PREDICTED BY IDOCK:   -3.24 KCAL/MOL
REMARK 922        TOTAL FREE ENERGY PREDICTED BY IDOCK:   -7.03 KCAL/MOL
REMARK 923 INTER-LIGAND FREE ENERGY PREDICTED BY IDOCK:   -7.34 KCAL/MOL
REMARK 924 INTRA-LIGAND FREE ENERGY PREDICTED BY IDOCK:    0.31 KCAL/MOL
REMARK 927      BINDING AFFINITY PREDICTED BY RF-SCORE:    0.00 PKD
ROOT
HETATM    1  O   UNL     1     -11.218   3.613  73.698  1.00  0.00    -0.234 OA 
HETATM    2  C   UNL     1     -11.349   4.877  73.234  1.00  0.00    -0.327 C  
HETATM    3  O   UNL     1     -12.417   5.330  72.848  1.00  0.00     0.016 OA 
HETATM    4  C   UNL     1     -10.059   5.686  73.314  1.00  0.00    -0.186 C  
ENDROOT
BRANCH   4   5
HETATM    5  N   UNL     1      -8.801   4.861  73.113  1.00  0.00    -0.112 NA 
BRANCH   5   6
HETATM    6  C   UNL     1      -8.590   4.728  71.620  1.00  0.00    -0.122 C  
HETATM    7  O   UNL     1      -6.986   3.021  72.228  1.00  0.00    -0.026 OA 
HETATM    8  C   UNL     1      -7.422   3.822  71.231  1.00  0.00    -0.044 C  
HETATM    9  O   UNL     1      -6.958   3.775  70.101  1.00  0.00    -0.037 OA 
ENDBRANCH   5   6
BRANCH   5  10
HETATM   10  C   UNL     1      -7.668   5.696  73.681  1.00  0.00    -0.101 C  
BRANCH  10  11
HETATM   11  C   UNL     1      -7.409   6.981  72.909  1.00  0.00    -0.073 A  
HETATM   12  C   UNL     1      -8.215   7.294  71.813  1.00  0.00    -0.105 A  
HETATM   13  C   UNL     1      -7.956   8.412  70.991  1.00  0.00    -0.116 A  
HETATM   14  C   UNL     1      -6.963   9.316  71.353  1.00  0.00     0.043 A  
HETATM   15  C   UNL     1      -6.174   9.047  72.479  1.00  0.00     0.049 A  
HETATM   16  O   UNL     1      -6.713  10.484  70.661  1.00  0.00    -0.333 OA 
HETATM   17  C   UNL     1      -7.454  10.767  69.529  1.00  0.00    -0.110 A  
HETATM   18  C   UNL     1      -6.386   7.878  73.229  1.00  0.00    -0.072 A  
HETATM   19  O   UNL     1      -5.579   7.585  74.290  1.00  0.00    -0.063 OA 
HETATM   20  C   UNL     1      -7.252  12.011  68.911  1.00  0.00    -0.089 A  
HETATM   21  C   UNL     1      -7.963  12.354  67.746  1.00  0.00    -0.156 A  
HETATM   22  H   UNL     1      -4.883   8.195  74.508  1.00  0.00     0.000 HD 
HETATM   23  C   UNL     1      -8.851  11.453  67.153  1.00  0.00    -0.156 A  
HETATM   24  O   UNL     1      -7.808  13.589  67.180  1.00  0.00    -0.324 OA 
HETATM   25  C   UNL     1      -8.578   7.393  68.804  1.00  0.00    -0.129 A  
HETATM   26  H   UNL     1      -8.288  13.821  66.393  1.00  0.00     0.000 HD 
HETATM   27  C   UNL     1      -9.026  10.212  67.780  1.00  0.00    -0.129 A  
HETATM   28  C   UNL     1      -7.490   6.903  68.097  1.00  0.00    -0.099 A  
HETATM   29  C   UNL     1      -8.374   9.877  68.983  1.00  0.00    -0.130 A  
HETATM   30  C   UNL     1      -8.702   8.590  69.693  1.00  0.00    -0.133 C  
HETATM   31  C   UNL     1      -7.673   5.750  67.330  1.00  0.00    -0.097 A  
HETATM   32  C   UNL     1      -8.920   5.103  67.292  1.00  0.00    -0.112 A  
HETATM   33  O   UNL     1     -10.118   8.602  70.020  1.00  0.00    -0.182 OA 
HETATM   34  C   UNL     1     -10.003   5.599  68.019  1.00  0.00    -0.178 A  
HETATM   35  O   UNL     1     -11.880   7.129  69.856  1.00  0.00    -0.071 OA 
HETATM   36  C   UNL     1     -10.751   7.478  69.580  1.00  0.00    -0.217 C  
HETATM   37  C   UNL     1      -9.799   6.750  68.754  1.00  0.00    -0.143 A  
BRANCH  23  38
HETATM   38  C   UNL     1      -9.771  11.774  65.989  1.00  0.00    -0.232 C  
BRANCH  38  39
HETATM   39  N   UNL     1     -11.041  12.510  66.280  1.00  0.00    -0.283 NA 
BRANCH  39  40
HETATM   40  C   UNL     1     -11.869  12.526  65.028  1.00  0.00    -0.396 C  
HETATM   41  O   UNL     1     -13.004  14.410  63.981  1.00  0.00    -0.417 OA 
HETATM   42  C   UNL     1     -11.978  13.929  64.443  1.00  0.00    -0.450 C  
HETATM   43  O   UNL     1     -10.794  14.593  64.474  1.00  0.00    -0.338 OA 
ENDBRANCH  39  40
BRANCH  39  44
HETATM   44  C   UNL     1     -11.807  11.706  67.311  1.00  0.00    -0.053 C  
HETATM   45  C   UNL     1     -11.993  12.453  68.630  1.00  0.00    -0.225 C  
HETATM   46  O   UNL     1     -12.134  11.904  69.712  1.00  0.00    -0.290 OA 
HETATM   47  O   UNL     1     -12.042  13.803  68.478  1.00  0.00    -0.363 OA 
ENDBRANCH  39  44
ENDBRANCH  38  39
ENDBRANCH  23  38
ENDBRANCH  10  11
ENDBRANCH   5  10
ENDBRANCH   4   5
TORSDOF 8
ENDMDL
MODEL      129
REMARK 921   NORMALIZED FREE ENERGY PREDICTED BY IDOCK:   -3.16 KCAL/MOL
REMARK 922        TOTAL FREE ENERGY PREDICTED BY IDOCK:   -6.91 KCAL/MOL
REMARK 923 INTER-LIGAND FREE ENERGY PREDICTED BY IDOCK:   -5.00 KCAL/MOL
REMARK 924 INTRA-LIGAND FREE ENERGY PREDICTED BY IDOCK:   -1.91 KCAL/MOL
REMARK 927      BINDING AFFINITY PREDICTED BY RF-SCORE:    0.00 PKD
ROOT
HETATM    1  O   UNL     1     -11.062  16.980  68.700  1.00  0.00    -0.272 OA 
HETATM    2  C   UNL     1     -10.607  17.510  67.542  1.00  0.00    -0.333 C  
HETATM    3  O   UNL     1     -10.780  18.681  67.240  1.00  0.00    -0.424 OA 
HETATM    4  C   UNL     1      -9.804  16.523  66.702  1.00  0.00    -0.268 C  
ENDROOT
BRANCH   4   5
HETATM    5  N   UNL     1     -10.276  15.085  66.821  1.00  0.00    -0.256 NA 
BRANCH   5   6
HETATM    6  C   UNL     1     -11.489  14.939  65.928  1.00  0.00    -0.276 C  
HETATM    7  O   UNL     1     -11.876  12.900  67.171  1.00  0.00    -0.365 OA 
HETATM    8  C   UNL     1     -12.207  13.597  66.062  1.00  0.00    -0.449 C  
HETATM    9  O   UNL     1     -13.055  13.209  65.271  1.00  0.00    -0.678 OA 
ENDBRANCH   5   6
BRANCH   5  10
HETATM   10  C   UNL     1      -9.156  14.237  66.244  1.00  0.00    -0.068 C  
BRANCH  10  11
HETATM   11  C   UNL     1      -8.363  13.475  67.295  1.00  0.00    -0.188 A  
HETATM   12  C   UNL     1      -8.748  12.178  67.634  1.00  0.00    -0.172 A  
HETATM   13  C   UNL     1      -8.123  11.462  68.679  1.00  0.00    -0.141 A  
HETATM   14  C   UNL     1      -6.997  11.995  69.299  1.00  0.00    -0.028 A  
HETATM   15  C   UNL     1      -6.564  13.277  68.939  1.00  0.00    -0.107 A  
HETATM   16  O   UNL     1      -6.269  11.318  70.258  1.00  0.00    -0.151 OA 
HETATM   17  C   UNL     1      -6.686  10.062  70.657  1.00  0.00    -0.068 A  
HETATM   18  C   UNL     1      -7.259  14.012  67.964  1.00  0.00    -0.144 A  
HETATM   19  O   UNL     1      -6.872  15.284  67.656  1.00  0.00    -0.151 OA 
HETATM   20  C   UNL     1      -5.866   9.357  71.551  1.00  0.00    -0.068 A  
HETATM   21  C   UNL     1      -6.241   8.080  72.009  1.00  0.00    -0.045 A  
HETATM   22  H   UNL     1      -6.122  15.649  68.110  1.00  0.00     0.000 HD 
HETATM   23  C   UNL     1      -7.453   7.503  71.622  1.00  0.00    -0.083 A  
HETATM   24  O   UNL     1      -5.412   7.369  72.832  1.00  0.00    -0.037 OA 
HETATM   25  C   UNL     1     -10.141  10.307  69.573  1.00  0.00    -0.260 A  
HETATM   26  H   UNL     1      -5.665   6.507  73.142  1.00  0.00     0.000 HD 
HETATM   27  C   UNL     1      -8.262   8.233  70.739  1.00  0.00    -0.115 A  
HETATM   28  C   UNL     1     -10.709  10.957  70.659  1.00  0.00     0.805 A  
HETATM   29  C   UNL     1      -7.873   9.483  70.218  1.00  0.00    -0.180 A  
HETATM   30  C   UNL     1      -8.709  10.161  69.166  1.00  0.00    -0.170 C  
HETATM   31  C   UNL     1     -12.099  10.920  70.790  1.00  0.00    -0.469 A  
HETATM   32  C   UNL     1     -12.893  10.257  69.840  1.00  0.00     0.201 A  
HETATM   33  O   UNL     1      -8.790   9.279  68.015  1.00  0.00    -0.128 OA 
HETATM   34  C   UNL     1     -12.310   9.619  68.744  1.00  0.00     2.278 A  
HETATM   35  O   UNL     1     -10.448   8.525  66.604  1.00  0.00    -0.289 OA 
HETATM   36  C   UNL     1     -10.080   9.066  67.627  1.00  0.00    -0.216 C  
HETATM   37  C   UNL     1     -10.933   9.655  68.648  1.00  0.00    -0.152 A  
BRANCH  23  38
HETATM   38  C   UNL     1      -7.883   6.082  71.937  1.00  0.00    -0.106 C  
BRANCH  38  39
HETATM   39  N   UNL     1      -9.109   5.554  71.263  1.00  0.00    -0.141 NA 
BRANCH  39  40
HETATM   40  C   UNL     1      -8.974   4.063  71.147  1.00  0.00    -0.107 C  
HETATM   41  O   UNL     1      -9.944   2.575  69.480  1.00  0.00     0.233 OA 
HETATM   42  C   UNL     1      -9.291   3.577  69.737  1.00  0.00    -0.174 C  
HETATM   43  O   UNL     1      -8.751   4.377  68.783  1.00  0.00    -0.090 OA 
ENDBRANCH  39  40
BRANCH  39  44
HETATM   44  C   UNL     1     -10.285   5.824  72.179  1.00  0.00    -0.199 C  
HETATM   45  C   UNL     1     -11.384   6.647  71.510  1.00  0.00    -0.281 C  
HETATM   46  O   UNL     1     -12.162   7.369  72.117  1.00  0.00    -0.285 OA 
HETATM   47  O   UNL     1     -11.452   6.459  70.166  1.00  0.00    -0.385 OA 
ENDBRANCH  39  44
ENDBRANCH  38  39
ENDBRANCH  23  38
ENDBRANCH  10  11
ENDBRANCH   5  10
ENDBRANCH   4   5
TORSDOF 8
ENDMDL
MODEL      130
REMARK 921   NORMALIZED FREE ENERGY PREDICTED BY IDOCK:   -3.14 KCAL/MOL
REMARK 922        TOTAL FREE ENERGY PREDICTED BY IDOCK:   -6.88 KCAL/MOL
REMARK 923 INTER-LIGAND FREE ENERGY PREDICTED BY IDOCK:   -7.23 KCAL/MOL
REMARK 924 INTRA-LIGAND FREE ENERGY PREDICTED BY IDOCK:    0.35 KCAL/MOL
REMARK 927      BINDING AFFINITY PREDICTED BY RF-SCORE:    0.00 PKD
ROOT
HETATM    1  O   UNL     1     -11.747   5.800  70.330  1.00  0.00     0.084 OA 
HETATM    2  C   UNL     1     -11.872   6.869  71.149  1.00  0.00    -0.349 C  
HETATM    3  O   UNL     1     -12.954   7.263  71.558  1.00  0.00    -0.365 OA 
HETATM    4  C   UNL     1     -10.534   7.475  71.559  1.00  0.00    -0.204 C  
ENDROOT
BRANCH   4   5
HETATM    5  N   UNL     1      -9.460   7.375  70.490  1.00  0.00    -0.162 NA 
BRANCH   5   6
HETATM    6  C   UNL     1      -9.474   5.952  69.976  1.00  0.00    -0.159 C  
HETATM    7  O   UNL     1      -7.487   5.683  71.330  1.00  0.00    -0.089 OA 
HETATM    8  C   UNL     1      -8.230   5.142  70.339  1.00  0.00    -0.098 C  
HETATM    9  O   UNL     1      -7.958   4.066  69.827  1.00  0.00    -0.055 OA 
ENDBRANCH   5   6
BRANCH   5  10
HETATM   10  C   UNL     1      -9.912   8.292  69.368  1.00  0.00    -0.188 C  
BRANCH  10  11
HETATM   11  C   UNL     1      -8.913   9.389  69.034  1.00  0.00    -0.141 A  
HETATM   12  C   UNL     1      -9.371  10.689  68.819  1.00  0.00    -0.183 A  
HETATM   13  C   UNL     1      -8.509  11.725  68.398  1.00  0.00    -0.155 A  
HETATM   14  C   UNL     1      -7.138  11.494  68.332  1.00  0.00    -0.081 A  
HETATM   15  C   UNL     1      -6.651  10.207  68.592  1.00  0.00    -0.053 A  
HETATM   16  O   UNL     1      -6.219  12.478  68.027  1.00  0.00    -0.069 OA 
HETATM   17  C   UNL     1      -6.667  13.752  67.737  1.00  0.00    -0.172 A  
HETATM   18  C   UNL     1      -7.538   9.166  68.916  1.00  0.00    -0.076 A  
HETATM   19  O   UNL     1      -7.069   7.899  69.111  1.00  0.00    -0.065 OA 
HETATM   20  C   UNL     1      -5.705  14.753  67.538  1.00  0.00     0.118 A  
HETATM   21  C   UNL     1      -6.095  16.068  67.223  1.00  0.00    -0.097 A  
HETATM   22  H   UNL     1      -6.134   7.748  69.031  1.00  0.00     0.000 HD 
HETATM   23  C   UNL     1      -7.442  16.399  67.058  1.00  0.00    -0.250 A  
HETATM   24  O   UNL     1      -5.158  17.055  67.089  1.00  0.00    -0.124 OA 
HETATM   25  C   UNL     1     -10.087  12.899  66.869  1.00  0.00    -0.241 A  
HETATM   26  H   UNL     1      -5.421  17.943  66.876  1.00  0.00     0.000 HD 
HETATM   27  C   UNL     1      -8.385  15.379  67.248  1.00  0.00    -0.224 A  
HETATM   28  C   UNL     1      -9.935  12.535  65.538  1.00  0.00    -0.248 A  
HETATM   29  C   UNL     1      -8.018  14.074  67.628  1.00  0.00    -0.186 A  
HETATM   30  C   UNL     1      -9.073  13.052  67.958  1.00  0.00    -0.210 C  
HETATM   31  C   UNL     1     -11.079  12.482  64.739  1.00  0.00    -0.338 A  
HETATM   32  C   UNL     1     -12.345  12.774  65.277  1.00  0.00    -0.546 A  
HETATM   33  O   UNL     1      -9.864  13.561  69.065  1.00  0.00    -0.010 OA 
HETATM   34  C   UNL     1     -12.486  13.124  66.620  1.00  0.00    -0.031 A  
HETATM   35  O   UNL     1     -12.104  13.731  69.574  1.00  0.00    -0.324 OA 
HETATM   36  C   UNL     1     -11.199  13.537  68.789  1.00  0.00    -0.274 C  
HETATM   37  C   UNL     1     -11.336  13.187  67.383  1.00  0.00    -0.344 A  
BRANCH  23  38
HETATM   38  C   UNL     1      -7.977  17.807  66.866  1.00  0.00    -0.226 C  
BRANCH  38  39
HETATM   39  N   UNL     1      -8.188  18.650  68.083  1.00  0.00    -0.293 NA 
BRANCH  39  40
HETATM   40  C   UNL     1      -9.654  18.643  68.408  1.00  0.00    -0.359 C  
HETATM   41  O   UNL     1     -10.936  20.278  69.680  1.00  0.00     0.673 OA 
HETATM   42  C   UNL     1     -10.157  20.036  68.767  1.00  0.00    -0.308 C  
HETATM   43  O   UNL     1      -9.656  20.993  67.945  1.00  0.00    -0.104 OA 
ENDBRANCH  39  40
BRANCH  39  44
HETATM   44  C   UNL     1      -7.474  17.973  69.235  1.00  0.00     0.023 C  
HETATM   45  C   UNL     1      -6.169  18.669  69.618  1.00  0.00    -0.240 C  
HETATM   46  O   UNL     1      -5.222  18.104  70.144  1.00  0.00    -0.200 OA 
HETATM   47  O   UNL     1      -6.181  20.005  69.364  1.00  0.00    -0.290 OA 
ENDBRANCH  39  44
ENDBRANCH  38  39
ENDBRANCH  23  38
ENDBRANCH  10  11
ENDBRANCH   5  10
ENDBRANCH   4   5
TORSDOF 8
ENDMDL
MODEL      131
REMARK 921   NORMALIZED FREE ENERGY PREDICTED BY IDOCK:   -3.12 KCAL/MOL
REMARK 922        TOTAL FREE ENERGY PREDICTED BY IDOCK:   -6.84 KCAL/MOL
REMARK 923 INTER-LIGAND FREE ENERGY PREDICTED BY IDOCK:   -7.44 KCAL/MOL
REMARK 924 INTRA-LIGAND FREE ENERGY PREDICTED BY IDOCK:    0.60 KCAL/MOL
REMARK 927      BINDING AFFINITY PREDICTED BY RF-SCORE:    0.00 PKD
ROOT
HETATM    1  O   UNL     1     -10.966  14.944  70.403  1.00  0.00    -0.213 OA 
HETATM    2  C   UNL     1     -11.770  15.362  69.399  1.00  0.00    -0.351 C  
HETATM    3  O   UNL     1     -12.894  15.799  69.593  1.00  0.00    -0.001 OA 
HETATM    4  C   UNL     1     -11.105  15.297  68.028  1.00  0.00    -0.312 C  
ENDROOT
BRANCH   4   5
HETATM    5  N   UNL     1     -10.120  14.152  67.874  1.00  0.00    -0.231 NA 
BRANCH   5   6
HETATM    6  C   UNL     1      -8.814  14.602  68.494  1.00  0.00    -0.182 C  
HETATM    7  O   UNL     1      -8.314  15.439  66.280  1.00  0.00    -0.166 OA 
HETATM    8  C   UNL     1      -7.793  15.131  67.487  1.00  0.00    -0.181 C  
HETATM    9  O   UNL     1      -6.617  15.321  67.763  1.00  0.00    -0.134 OA 
ENDBRANCH   5   6
BRANCH   5  10
HETATM   10  C   UNL     1     -10.678  13.016  68.712  1.00  0.00    -0.221 C  
BRANCH  10  11
HETATM   11  C   UNL     1     -10.502  11.645  68.077  1.00  0.00    -0.217 A  
HETATM   12  C   UNL     1     -10.516  10.509  68.887  1.00  0.00    -0.226 A  
HETATM   13  C   UNL     1     -10.247   9.222  68.374  1.00  0.00    -0.231 A  
HETATM   14  C   UNL     1     -10.106   9.046  67.001  1.00  0.00    -0.250 A  
HETATM   15  C   UNL     1     -10.136  10.168  66.163  1.00  0.00    -0.314 A  
HETATM   16  O   UNL     1      -9.941   7.809  66.409  1.00  0.00    -0.197 OA 
HETATM   17  C   UNL     1      -9.877   6.683  67.209  1.00  0.00    -0.146 A  
HETATM   18  C   UNL     1     -10.310  11.452  66.706  1.00  0.00    -0.234 A  
HETATM   19  O   UNL     1     -10.281  12.551  65.896  1.00  0.00    -0.251 OA 
HETATM   20  C   UNL     1      -9.819   5.434  66.572  1.00  0.00    -0.195 A  
HETATM   21  C   UNL     1      -9.736   4.250  67.329  1.00  0.00    -0.175 A  
HETATM   22  H   UNL     1     -10.150  12.419  64.964  1.00  0.00     0.000 HD 
HETATM   23  C   UNL     1      -9.665   4.290  68.723  1.00  0.00    -0.184 A  
HETATM   24  O   UNL     1      -9.739   3.031  66.709  1.00  0.00    -0.412 OA 
HETATM   25  C   UNL     1      -8.977   8.323  70.319  1.00  0.00    -0.142 A  
HETATM   26  H   UNL     1      -9.683   2.232  67.219  1.00  0.00     0.000 HD 
HETATM   27  C   UNL     1      -9.711   5.551  69.336  1.00  0.00    -0.216 A  
HETATM   28  C   UNL     1      -7.601   8.425  70.171  1.00  0.00    -0.070 A  
HETATM   29  C   UNL     1      -9.861   6.742  68.599  1.00  0.00    -0.142 A  
HETATM   30  C   UNL     1     -10.048   8.056  69.309  1.00  0.00    -0.198 C  
HETATM   31  C   UNL     1      -6.836   8.678  71.312  1.00  0.00    -0.075 A  
HETATM   32  C   UNL     1      -7.449   8.837  72.566  1.00  0.00     0.093 A  
HETATM   33  O   UNL     1     -11.245   7.963  70.126  1.00  0.00    -0.242 OA 
HETATM   34  C   UNL     1      -8.835   8.746  72.700  1.00  0.00     0.085 A  
HETATM   35  O   UNL     1     -11.838   8.508  72.284  1.00  0.00    -0.358 OA 
HETATM   36  C   UNL     1     -11.006   8.319  71.421  1.00  0.00    -0.249 C  
HETATM   37  C   UNL     1      -9.566   8.478  71.558  1.00  0.00    -0.297 A  
BRANCH  23  38
HETATM   38  C   UNL     1      -9.722   3.078  69.635  1.00  0.00     0.111 C  
BRANCH  38  39
HETATM   39  N   UNL     1      -8.759   3.013  70.777  1.00  0.00    -0.071 NA 
BRANCH  39  40
HETATM   40  C   UNL     1      -7.369   3.159  70.226  1.00  0.00    -0.040 C  
HETATM   41  O   UNL     1      -5.293   3.582  71.428  1.00  0.00    -0.003 OA 
HETATM   42  C   UNL     1      -6.311   2.915  71.295  1.00  0.00    -0.019 C  
HETATM   43  O   UNL     1      -6.612   1.853  72.085  1.00  0.00    -0.014 OA 
ENDBRANCH  39  40
BRANCH  39  44
HETATM   44  C   UNL     1      -9.015   4.219  71.659  1.00  0.00    -0.120 C  
HETATM   45  C   UNL     1      -9.971   3.920  72.812  1.00  0.00    -0.151 C  
HETATM   46  O   UNL     1     -10.681   4.759  73.347  1.00  0.00    -0.202 OA 
HETATM   47  O   UNL     1      -9.918   2.627  73.229  1.00  0.00    -0.098 OA 
ENDBRANCH  39  44
ENDBRANCH  38  39
ENDBRANCH  23  38
ENDBRANCH  10  11
ENDBRANCH   5  10
ENDBRANCH   4   5
TORSDOF 8
ENDMDL
MODEL      132
REMARK 921   NORMALIZED FREE ENERGY PREDICTED BY IDOCK:   -3.08 KCAL/MOL
REMARK 922        TOTAL FREE ENERGY PREDICTED BY IDOCK:   -6.79 KCAL/MOL
REMARK 923 INTER-LIGAND FREE ENERGY PREDICTED BY IDOCK:   -5.33 KCAL/MOL
REMARK 924 INTRA-LIGAND FREE ENERGY PREDICTED BY IDOCK:   -1.46 KCAL/MOL
REMARK 927      BINDING AFFINITY PREDICTED BY RF-SCORE:    0.00 PKD
ROOT
HETATM    1  O   UNL     1      -6.991  15.831  70.848  1.00  0.00     1.051 OA 
HETATM    2  C   UNL     1      -6.194  15.076  70.057  1.00  0.00    -0.157 C  
HETATM    3  O   UNL     1      -5.130  14.614  70.443  1.00  0.00    -0.100 OA 
HETATM    4  C   UNL     1      -6.792  14.807  68.681  1.00  0.00    -0.103 C  
ENDROOT
BRANCH   4   5
HETATM    5  N   UNL     1      -7.645  15.943  68.146  1.00  0.00    -0.128 NA 
BRANCH   5   6
HETATM    6  C   UNL     1      -6.715  16.899  67.429  1.00  0.00    -0.159 C  
HETATM    7  O   UNL     1      -7.872  18.611  68.688  1.00  0.00    -0.314 OA 
HETATM    8  C   UNL     1      -7.047  18.375  67.644  1.00  0.00    -0.209 C  
HETATM    9  O   UNL     1      -6.562  19.275  66.974  1.00  0.00    -0.192 OA 
ENDBRANCH   5   6
BRANCH   5  10
HETATM   10  C   UNL     1      -8.567  15.314  67.118  1.00  0.00    -0.211 C  
BRANCH  10  11
HETATM   11  C   UNL     1      -9.231  14.032  67.596  1.00  0.00    -0.194 A  
HETATM   12  C   UNL     1      -8.698  12.801  67.212  1.00  0.00    -0.200 A  
HETATM   13  C   UNL     1      -9.332  11.580  67.530  1.00  0.00    -0.166 A  
HETATM   14  C   UNL     1     -10.439  11.580  68.372  1.00  0.00    -0.207 A  
HETATM   15  C   UNL     1     -10.963  12.803  68.810  1.00  0.00    -0.289 A  
HETATM   16  O   UNL     1     -11.056  10.425  68.811  1.00  0.00    -0.231 OA 
HETATM   17  C   UNL     1     -10.583   9.202  68.375  1.00  0.00    -0.172 A  
HETATM   18  C   UNL     1     -10.373  14.011  68.402  1.00  0.00    -0.251 A  
HETATM   19  O   UNL     1     -10.918  15.205  68.781  1.00  0.00    -0.236 OA 
HETATM   20  C   UNL     1     -11.161   8.047  68.924  1.00  0.00     0.246 A  
HETATM   21  C   UNL     1     -10.736   6.770  68.511  1.00  0.00    -0.231 A  
HETATM   22  H   UNL     1     -11.694  15.191  69.330  1.00  0.00     0.000 HD 
HETATM   23  C   UNL     1      -9.765   6.621  67.518  1.00  0.00    -0.149 A  
HETATM   24  O   UNL     1     -11.257   5.646  69.090  1.00  0.00    -0.174 OA 
HETATM   25  C   UNL     1      -8.834  10.362  65.414  1.00  0.00    -0.197 A  
HETATM   26  H   UNL     1     -10.970   4.784  68.811  1.00  0.00     0.000 HD 
HETATM   27  C   UNL     1      -9.213   7.790  66.974  1.00  0.00    -0.176 A  
HETATM   28  C   UNL     1      -9.875  10.405  64.497  1.00  0.00    -0.405 A  
HETATM   29  C   UNL     1      -9.577   9.074  67.422  1.00  0.00    -0.195 A  
HETATM   30  C   UNL     1      -8.855  10.291  66.909  1.00  0.00    -0.132 C  
HETATM   31  C   UNL     1      -9.550  10.461  63.140  1.00  0.00    -0.346 A  
HETATM   32  C   UNL     1      -8.208  10.487  62.723  1.00  0.00    -0.171 A  
HETATM   33  O   UNL     1      -7.448  10.158  67.244  1.00  0.00    -0.090 OA 
HETATM   34  C   UNL     1      -7.171  10.457  63.656  1.00  0.00    -0.002 A  
HETATM   35  O   UNL     1      -5.439  10.444  66.155  1.00  0.00    -0.052 OA 
HETATM   36  C   UNL     1      -6.647  10.325  66.154  1.00  0.00    -0.105 C  
HETATM   37  C   UNL     1      -7.520  10.383  64.991  1.00  0.00    -0.079 A  
BRANCH  23  38
HETATM   38  C   UNL     1      -9.134   5.303  67.105  1.00  0.00    -0.112 C  
BRANCH  38  39
HETATM   39  N   UNL     1      -7.653   5.157  67.257  1.00  0.00    -0.090 NA 
BRANCH  39  40
HETATM   40  C   UNL     1      -7.367   4.735  68.669  1.00  0.00    -0.065 C  
HETATM   41  O   UNL     1      -5.355   5.111  69.990  1.00  0.00    -0.003 OA 
HETATM   42  C   UNL     1      -6.250   5.566  69.289  1.00  0.00    -0.029 C  
HETATM   43  O   UNL     1      -6.363   6.885  68.992  1.00  0.00    -0.026 OA 
ENDBRANCH  39  40
BRANCH  39  44
HETATM   44  C   UNL     1      -7.212   4.021  66.356  1.00  0.00    -0.068 C  
HETATM   45  C   UNL     1      -7.392   4.336  64.872  1.00  0.00    -0.072 C  
HETATM   46  O   UNL     1      -7.564   3.487  64.010  1.00  0.00    -0.072 OA 
HETATM   47  O   UNL     1      -7.287   5.661  64.589  1.00  0.00    -0.063 OA 
ENDBRANCH  39  44
ENDBRANCH  38  39
ENDBRANCH  23  38
ENDBRANCH  10  11
ENDBRANCH   5  10
ENDBRANCH   4   5
TORSDOF 8
ENDMDL
MODEL      133
REMARK 921   NORMALIZED FREE ENERGY PREDICTED BY IDOCK:   -3.07 KCAL/MOL
REMARK 922        TOTAL FREE ENERGY PREDICTED BY IDOCK:   -6.77 KCAL/MOL
REMARK 923 INTER-LIGAND FREE ENERGY PREDICTED BY IDOCK:   -6.73 KCAL/MOL
REMARK 924 INTRA-LIGAND FREE ENERGY PREDICTED BY IDOCK:   -0.05 KCAL/MOL
REMARK 927      BINDING AFFINITY PREDICTED BY RF-SCORE:    0.00 PKD
ROOT
HETATM    1  O   UNL     1      -8.942  16.349  69.168  1.00  0.00    -0.250 OA 
HETATM    2  C   UNL     1      -8.444  15.300  68.474  1.00  0.00    -0.162 C  
HETATM    3  O   UNL     1      -7.251  15.037  68.444  1.00  0.00    -0.104 OA 
HETATM    4  C   UNL     1      -9.520  14.454  67.804  1.00  0.00    -0.211 C  
ENDROOT
BRANCH   4   5
HETATM    5  N   UNL     1     -10.730  15.246  67.343  1.00  0.00    -0.287 NA 
BRANCH   5   6
HETATM    6  C   UNL     1     -10.305  16.043  66.128  1.00  0.00    -0.328 C  
HETATM    7  O   UNL     1     -10.787  17.972  67.505  1.00  0.00    -0.379 OA 
HETATM    8  C   UNL     1     -10.557  17.545  66.244  1.00  0.00    -0.198 C  
HETATM    9  O   UNL     1     -10.495  18.310  65.293  1.00  0.00    -0.492 OA 
ENDBRANCH   5   6
BRANCH   5  10
HETATM   10  C   UNL     1     -11.753  14.215  66.902  1.00  0.00    -0.414 C  
BRANCH  10  11
HETATM   11  C   UNL     1     -11.145  13.026  66.173  1.00  0.00    -0.311 A  
HETATM   12  C   UNL     1     -10.562  11.996  66.912  1.00  0.00    -0.260 A  
HETATM   13  C   UNL     1      -9.884  10.923  66.293  1.00  0.00    -0.261 A  
HETATM   14  C   UNL     1      -9.916  10.799  64.907  1.00  0.00    -0.312 A  
HETATM   15  C   UNL     1     -10.538  11.797  64.147  1.00  0.00    -0.403 A  
HETATM   16  O   UNL     1      -9.365   9.729  64.230  1.00  0.00    -0.261 OA 
HETATM   17  C   UNL     1      -8.718   8.740  64.947  1.00  0.00    -0.125 A  
HETATM   18  C   UNL     1     -11.123  12.907  64.780  1.00  0.00    -0.309 A  
HETATM   19  O   UNL     1     -11.679  13.909  64.038  1.00  0.00    -0.578 OA 
HETATM   20  C   UNL     1      -8.265   7.614  64.242  1.00  0.00    -0.009 A  
HETATM   21  C   UNL     1      -7.584   6.579  64.910  1.00  0.00    -0.097 A  
HETATM   22  H   UNL     1     -11.664  13.828  63.091  1.00  0.00     0.000 HD 
HETATM   23  C   UNL     1      -7.304   6.666  66.276  1.00  0.00    -0.073 A  
HETATM   24  O   UNL     1      -7.197   5.456  64.233  1.00  0.00    -0.052 OA 
HETATM   25  C   UNL     1      -8.053  10.652  67.960  1.00  0.00    -0.112 A  
HETATM   26  H   UNL     1      -6.737   4.757  64.683  1.00  0.00     0.000 HD 
HETATM   27  C   UNL     1      -7.753   7.807  66.955  1.00  0.00    -0.104 A  
HETATM   28  C   UNL     1      -6.882  11.305  67.600  1.00  0.00    -0.077 A  
HETATM   29  C   UNL     1      -8.494   8.821  66.318  1.00  0.00    -0.130 A  
HETATM   30  C   UNL     1      -9.076   9.955  67.119  1.00  0.00    -0.138 C  
HETATM   31  C   UNL     1      -6.107  11.866  68.618  1.00  0.00    -0.052 A  
HETATM   32  C   UNL     1      -6.512  11.780  69.960  1.00  0.00    -0.022 A  
HETATM   33  O   UNL     1      -9.977   9.394  68.110  1.00  0.00    -0.162 OA 
HETATM   34  C   UNL     1      -7.699  11.132  70.307  1.00  0.00     1.522 A  
HETATM   35  O   UNL     1     -10.370   9.681  70.361  1.00  0.00    -0.254 OA 
HETATM   36  C   UNL     1      -9.690   9.836  69.367  1.00  0.00    -0.202 C  
HETATM   37  C   UNL     1      -8.437  10.571  69.283  1.00  0.00    -0.138 A  
BRANCH  23  38
HETATM   38  C   UNL     1      -6.711   5.550  67.117  1.00  0.00    -0.059 C  
BRANCH  38  39
HETATM   39  N   UNL     1      -7.605   4.859  68.097  1.00  0.00    -0.081 NA 
BRANCH  39  40
HETATM   40  C   UNL     1      -6.906   4.828  69.426  1.00  0.00    -0.049 C  
HETATM   41  O   UNL     1      -7.745   4.022  71.566  1.00  0.00    -0.061 OA 
HETATM   42  C   UNL     1      -7.546   3.822  70.375  1.00  0.00    -0.044 C  
HETATM   43  O   UNL     1      -7.860   2.657  69.754  1.00  0.00    -0.043 OA 
ENDBRANCH  39  40
BRANCH  39  44
HETATM   44  C   UNL     1      -8.844   5.715  68.266  1.00  0.00    -0.108 C  
HETATM   45  C   UNL     1     -10.053   5.166  67.511  1.00  0.00    -0.167 C  
HETATM   46  O   UNL     1     -10.975   5.857  67.104  1.00  0.00    -0.295 OA 
HETATM   47  O   UNL     1     -10.034   3.813  67.380  1.00  0.00    -0.075 OA 
ENDBRANCH  39  44
ENDBRANCH  38  39
ENDBRANCH  23  38
ENDBRANCH  10  11
ENDBRANCH   5  10
ENDBRANCH   4   5
TORSDOF 8
ENDMDL
MODEL      134
REMARK 921   NORMALIZED FREE ENERGY PREDICTED BY IDOCK:   -3.03 KCAL/MOL
REMARK 922        TOTAL FREE ENERGY PREDICTED BY IDOCK:   -6.71 KCAL/MOL
REMARK 923 INTER-LIGAND FREE ENERGY PREDICTED BY IDOCK:   -6.23 KCAL/MOL
REMARK 924 INTRA-LIGAND FREE ENERGY PREDICTED BY IDOCK:   -0.48 KCAL/MOL
REMARK 927      BINDING AFFINITY PREDICTED BY RF-SCORE:    0.00 PKD
ROOT
HETATM    1  O   UNL     1      -9.741   2.573  71.438  1.00  0.00    -0.149 OA 
HETATM    2  C   UNL     1      -8.547   2.654  72.068  1.00  0.00    -0.069 C  
HETATM    3  O   UNL     1      -8.321   2.089  73.127  1.00  0.00    -0.059 OA 
HETATM    4  C   UNL     1      -7.509   3.455  71.290  1.00  0.00    -0.037 C  
ENDROOT
BRANCH   4   5
HETATM    5  N   UNL     1      -8.092   4.597  70.478  1.00  0.00    -0.067 NA 
BRANCH   5   6
HETATM    6  C   UNL     1      -8.530   5.663  71.460  1.00  0.00    -0.128 C  
HETATM    7  O   UNL     1     -10.749   5.219  70.604  1.00  0.00    -0.230 OA 
HETATM    8  C   UNL     1      -9.993   6.081  71.319  1.00  0.00    -0.184 C  
HETATM    9  O   UNL     1     -10.461   7.074  71.858  1.00  0.00    -0.201 OA 
ENDBRANCH   5   6
BRANCH   5  10
HETATM   10  C   UNL     1      -6.939   5.149  69.659  1.00  0.00    -0.054 C  
BRANCH  10  11
HETATM   11  C   UNL     1      -6.740   6.649  69.819  1.00  0.00    -0.050 A  
HETATM   12  C   UNL     1      -7.395   7.521  68.950  1.00  0.00    -0.094 A  
HETATM   13  C   UNL     1      -7.164   8.914  68.975  1.00  0.00    -0.072 A  
HETATM   14  C   UNL     1      -6.376   9.462  69.982  1.00  0.00    -0.047 A  
HETATM   15  C   UNL     1      -5.747   8.607  70.896  1.00  0.00    -0.033 A  
HETATM   16  O   UNL     1      -6.182  10.820  70.137  1.00  0.00    -0.105 OA 
HETATM   17  C   UNL     1      -6.764  11.691  69.236  1.00  0.00    -0.115 A  
HETATM   18  C   UNL     1      -5.914   7.215  70.793  1.00  0.00    -0.031 A  
HETATM   19  O   UNL     1      -5.254   6.379  71.647  1.00  0.00    -0.024 OA 
HETATM   20  C   UNL     1      -6.639  13.066  69.484  1.00  0.00    -0.030 A  
HETATM   21  C   UNL     1      -7.195  14.006  68.595  1.00  0.00    -0.114 A  
HETATM   22  H   UNL     1      -4.692   6.764  72.310  1.00  0.00     0.000 HD 
HETATM   23  C   UNL     1      -7.845  13.597  67.429  1.00  0.00    -0.162 A  
HETATM   24  O   UNL     1      -7.123  15.344  68.870  1.00  0.00    -0.116 OA 
HETATM   25  C   UNL     1      -7.284   9.337  66.522  1.00  0.00    -0.086 A  
HETATM   26  H   UNL     1      -7.498  15.978  68.270  1.00  0.00     0.000 HD 
HETATM   27  C   UNL     1      -7.945  12.218  67.196  1.00  0.00    -0.161 A  
HETATM   28  C   UNL     1      -6.039   9.368  65.909  1.00  0.00    -0.056 A  
HETATM   29  C   UNL     1      -7.454  11.262  68.105  1.00  0.00    -0.091 A  
HETATM   30  C   UNL     1      -7.712   9.796  67.881  1.00  0.00    -0.087 C  
HETATM   31  C   UNL     1      -5.937   8.868  64.609  1.00  0.00    -0.065 A  
HETATM   32  C   UNL     1      -7.061   8.338  63.953  1.00  0.00    -0.087 A  
HETATM   33  O   UNL     1      -9.149   9.588  67.852  1.00  0.00    -0.126 OA 
HETATM   34  C   UNL     1      -8.304   8.299  64.586  1.00  0.00    -0.115 A  
HETATM   35  O   UNL     1     -10.643   8.446  66.523  1.00  0.00    -0.204 OA 
HETATM   36  C   UNL     1      -9.543   8.914  66.735  1.00  0.00    -0.202 C  
HETATM   37  C   UNL     1      -8.381   8.817  65.865  1.00  0.00    -0.131 A  
BRANCH  23  38
HETATM   38  C   UNL     1      -8.603  14.514  66.485  1.00  0.00     0.057 C  
BRANCH  38  39
HETATM   39  N   UNL     1      -9.794  15.242  67.021  1.00  0.00    -0.227 NA 
BRANCH  39  40
HETATM   40  C   UNL     1     -10.310  16.151  65.943  1.00  0.00    -0.367 C  
HETATM   41  O   UNL     1      -9.951  18.545  65.672  1.00  0.00    -0.462 OA 
HETATM   42  C   UNL     1      -9.482  17.426  65.838  1.00  0.00     0.007 C  
HETATM   43  O   UNL     1      -8.150  17.185  65.933  1.00  0.00    -0.516 OA 
ENDBRANCH  39  40
BRANCH  39  44
HETATM   44  C   UNL     1     -10.874  14.214  67.291  1.00  0.00    -0.285 C  
HETATM   45  C   UNL     1     -11.405  14.271  68.722  1.00  0.00    -0.275 C  
HETATM   46  O   UNL     1     -11.891  13.315  69.309  1.00  0.00    -0.302 OA 
HETATM   47  O   UNL     1     -11.336  15.513  69.269  1.00  0.00    -0.279 OA 
ENDBRANCH  39  44
ENDBRANCH  38  39
ENDBRANCH  23  38
ENDBRANCH  10  11
ENDBRANCH   5  10
ENDBRANCH   4   5
TORSDOF 8
ENDMDL
MODEL      135
REMARK 921   NORMALIZED FREE ENERGY PREDICTED BY IDOCK:   -2.90 KCAL/MOL
REMARK 922        TOTAL FREE ENERGY PREDICTED BY IDOCK:   -6.53 KCAL/MOL
REMARK 923 INTER-LIGAND FREE ENERGY PREDICTED BY IDOCK:   -7.14 KCAL/MOL
REMARK 924 INTRA-LIGAND FREE ENERGY PREDICTED BY IDOCK:    0.61 KCAL/MOL
REMARK 927      BINDING AFFINITY PREDICTED BY RF-SCORE:    0.00 PKD
ROOT
HETATM    1  O   UNL     1     -11.284  15.586  66.557  1.00  0.00    -0.243 OA 
HETATM    2  C   UNL     1     -10.398  15.039  65.694  1.00  0.00    -0.353 C  
HETATM    3  O   UNL     1     -10.694  14.129  64.934  1.00  0.00    -0.382 OA 
HETATM    4  C   UNL     1      -9.033  15.718  65.721  1.00  0.00    -0.037 C  
ENDROOT
BRANCH   4   5
HETATM    5  N   UNL     1      -8.634  16.248  67.087  1.00  0.00    -0.175 NA 
BRANCH   5   6
HETATM    6  C   UNL     1      -9.341  15.395  68.119  1.00  0.00    -0.197 C  
HETATM    7  O   UNL     1     -10.147  17.508  68.980  1.00  0.00    -0.326 OA 
HETATM    8  C   UNL     1      -9.996  16.192  69.247  1.00  0.00    -0.253 C  
HETATM    9  O   UNL     1     -10.408  15.679  70.277  1.00  0.00    -0.307 OA 
ENDBRANCH   5   6
BRANCH   5  10
HETATM   10  C   UNL     1      -7.142  15.997  67.204  1.00  0.00    -0.213 C  
BRANCH  10  11
HETATM   11  C   UNL     1      -6.785  14.872  68.164  1.00  0.00    -0.136 A  
HETATM   12  C   UNL     1      -7.109  13.557  67.828  1.00  0.00    -0.163 A  
HETATM   13  C   UNL     1      -6.905  12.485  68.724  1.00  0.00    -0.096 A  
HETATM   14  C   UNL     1      -6.232  12.708  69.921  1.00  0.00    -0.088 A  
HETATM   15  C   UNL     1      -5.854  14.015  70.257  1.00  0.00    -0.148 A  
HETATM   16  O   UNL     1      -5.905  11.699  70.805  1.00  0.00    -0.301 OA 
HETATM   17  C   UNL     1      -6.288  10.403  70.518  1.00  0.00    -0.101 A  
HETATM   18  C   UNL     1      -6.152  15.082  69.393  1.00  0.00    -0.110 A  
HETATM   19  O   UNL     1      -5.837  16.362  69.747  1.00  0.00    -0.169 OA 
HETATM   20  C   UNL     1      -5.847   9.387  71.380  1.00  0.00    -0.075 A  
HETATM   21  C   UNL     1      -6.216   8.048  71.154  1.00  0.00    -0.034 A  
HETATM   22  H   UNL     1      -5.407  16.505  70.583  1.00  0.00     0.000 HD 
HETATM   23  C   UNL     1      -7.060   7.703  70.096  1.00  0.00    -0.059 A  
HETATM   24  O   UNL     1      -5.736   7.053  71.960  1.00  0.00    -0.037 OA 
HETATM   25  C   UNL     1      -8.947  11.169  68.169  1.00  0.00    -0.159 A  
HETATM   26  H   UNL     1      -5.985   6.148  71.807  1.00  0.00     0.000 HD 
HETATM   27  C   UNL     1      -7.500   8.737  69.257  1.00  0.00    -0.078 A  
HETATM   28  C   UNL     1     -10.003  11.401  69.038  1.00  0.00    -0.087 A  
HETATM   29  C   UNL     1      -7.088  10.072  69.428  1.00  0.00    -0.074 A  
HETATM   30  C   UNL     1      -7.472  11.122  68.419  1.00  0.00    -0.102 C  
HETATM   31  C   UNL     1     -11.298  11.377  68.515  1.00  0.00    -0.333 A  
HETATM   32  C   UNL     1     -11.516  11.138  67.148  1.00  0.00    -0.163 A  
HETATM   33  O   UNL     1      -6.939  10.724  67.128  1.00  0.00    -0.082 OA 
HETATM   34  C   UNL     1     -10.444  10.920  66.282  1.00  0.00    -0.304 A  
HETATM   35  O   UNL     1      -7.722  10.604  64.965  1.00  0.00    -0.087 OA 
HETATM   36  C   UNL     1      -7.899  10.720  66.160  1.00  0.00    -0.155 C  
HETATM   37  C   UNL     1      -9.175  10.931  66.828  1.00  0.00    -0.174 A  
BRANCH  23  38
HETATM   38  C   UNL     1      -7.399   6.283  69.677  1.00  0.00    -0.080 C  
BRANCH  38  39
HETATM   39  N   UNL     1      -8.415   5.537  70.483  1.00  0.00    -0.121 NA 
BRANCH  39  40
HETATM   40  C   UNL     1      -7.770   4.286  71.006  1.00  0.00    -0.066 C  
HETATM   41  O   UNL     1      -8.804   2.423  72.185  1.00  0.00    -0.068 OA 
HETATM   42  C   UNL     1      -8.790   3.174  71.219  1.00  0.00    -0.082 C  
HETATM   43  O   UNL     1      -9.685   3.094  70.203  1.00  0.00    -0.139 OA 
ENDBRANCH  39  40
BRANCH  39  44
HETATM   44  C   UNL     1      -8.763   6.394  71.683  1.00  0.00    -0.133 C  
HETATM   45  C   UNL     1     -10.030   7.221  71.476  1.00  0.00    -0.182 C  
HETATM   46  O   UNL     1     -10.253   8.281  72.043  1.00  0.00    -0.220 OA 
HETATM   47  O   UNL     1     -10.921   6.635  70.633  1.00  0.00    -0.247 OA 
ENDBRANCH  39  44
ENDBRANCH  38  39
ENDBRANCH  23  38
ENDBRANCH  10  11
ENDBRANCH   5  10
ENDBRANCH   4   5
TORSDOF 8
ENDMDL
MODEL      136
REMARK 921   NORMALIZED FREE ENERGY PREDICTED BY IDOCK:   -2.85 KCAL/MOL
REMARK 922        TOTAL FREE ENERGY PREDICTED BY IDOCK:   -6.45 KCAL/MOL
REMARK 923 INTER-LIGAND FREE ENERGY PREDICTED BY IDOCK:   -8.18 KCAL/MOL
REMARK 924 INTRA-LIGAND FREE ENERGY PREDICTED BY IDOCK:    1.73 KCAL/MOL
REMARK 927      BINDING AFFINITY PREDICTED BY RF-SCORE:    0.00 PKD
ROOT
HETATM    1  O   UNL     1      -8.845   9.344  69.679  1.00  0.00    -0.146 OA 
HETATM    2  C   UNL     1      -8.427  10.483  69.080  1.00  0.00    -0.157 C  
HETATM    3  O   UNL     1      -7.376  11.033  69.371  1.00  0.00    -0.124 OA 
HETATM    4  C   UNL     1      -9.358  10.956  67.969  1.00  0.00    -0.160 C  
ENDROOT
BRANCH   4   5
HETATM    5  N   UNL     1     -10.823  10.646  68.219  1.00  0.00    -0.221 NA 
BRANCH   5   6
HETATM    6  C   UNL     1     -11.341  11.690  69.185  1.00  0.00    -0.283 C  
HETATM    7  O   UNL     1     -11.783   9.802  70.633  1.00  0.00    -0.272 OA 
HETATM    8  C   UNL     1     -12.036  11.112  70.418  1.00  0.00    -0.378 C  
HETATM    9  O   UNL     1     -12.711  11.785  71.183  1.00  0.00    -0.378 OA 
ENDBRANCH   5   6
BRANCH   5  10
HETATM   10  C   UNL     1     -11.518  10.847  66.884  1.00  0.00     0.208 C  
BRANCH  10  11
HETATM   11  C   UNL     1     -11.456  12.278  66.373  1.00  0.00    -0.434 A  
HETATM   12  C   UNL     1     -10.785  13.244  67.124  1.00  0.00    -0.264 A  
HETATM   13  C   UNL     1     -10.788  14.608  66.760  1.00  0.00    -0.312 A  
HETATM   14  C   UNL     1     -11.348  14.994  65.546  1.00  0.00    -0.312 A  
HETATM   15  C   UNL     1     -11.985  14.032  64.753  1.00  0.00    -0.432 A  
HETATM   16  O   UNL     1     -11.304  16.290  65.070  1.00  0.00    -0.211 OA 
HETATM   17  C   UNL     1     -10.709  17.271  65.841  1.00  0.00    -0.126 A  
HETATM   18  C   UNL     1     -12.054  12.695  65.180  1.00  0.00    -0.455 A  
HETATM   19  O   UNL     1     -12.726  11.769  64.436  1.00  0.00    -0.235 OA 
HETATM   20  C   UNL     1     -10.584  18.552  65.283  1.00  0.00     0.496 A  
HETATM   21  C   UNL     1     -10.002  19.599  66.022  1.00  0.00    -0.422 A  
HETATM   22  H   UNL     1     -13.133  12.053  63.625  1.00  0.00     0.000 HD 
HETATM   23  C   UNL     1      -9.575  19.402  67.338  1.00  0.00    -0.411 A  
HETATM   24  O   UNL     1      -9.826  20.831  65.455  1.00  0.00    -0.328 OA 
HETATM   25  C   UNL     1     -10.911  15.584  69.049  1.00  0.00    -0.249 A  
HETATM   26  H   UNL     1      -9.433  21.538  65.954  1.00  0.00     0.000 HD 
HETATM   27  C   UNL     1      -9.723  18.116  67.878  1.00  0.00    -0.302 A  
HETATM   28  C   UNL     1     -12.201  15.915  69.436  1.00  0.00    -0.080 A  
HETATM   29  C   UNL     1     -10.242  17.040  67.132  1.00  0.00    -0.306 A  
HETATM   30  C   UNL     1     -10.249  15.649  67.708  1.00  0.00    -0.252 C  
HETATM   31  C   UNL     1     -12.542  15.756  70.781  1.00  0.00    -0.405 A  
HETATM   32  C   UNL     1     -11.607  15.261  71.706  1.00  0.00    -0.498 A  
HETATM   33  O   UNL     1      -8.878  15.276  68.008  1.00  0.00    -0.166 OA 
HETATM   34  C   UNL     1     -10.317  14.918  71.300  1.00  0.00     1.090 A  
HETATM   35  O   UNL     1      -7.760  14.306  69.772  1.00  0.00     0.179 OA 
HETATM   36  C   UNL     1      -8.737  14.844  69.293  1.00  0.00    -0.097 C  
HETATM   37  C   UNL     1     -10.000  15.103  69.969  1.00  0.00    -0.052 A  
BRANCH  23  38
HETATM   38  C   UNL     1      -8.806  20.414  68.167  1.00  0.00     0.092 C  
BRANCH  38  39
HETATM   39  N   UNL     1      -7.335  20.206  68.340  1.00  0.00    -0.251 NA 
BRANCH  39  40
HETATM   40  C   UNL     1      -6.966  18.906  67.685  1.00  0.00    -0.206 C  
HETATM   41  O   UNL     1      -5.221  17.328  68.314  1.00  0.00    -0.128 OA 
HETATM   42  C   UNL     1      -6.195  17.996  68.633  1.00  0.00    -0.206 C  
HETATM   43  O   UNL     1      -6.721  17.992  69.884  1.00  0.00    -0.005 OA 
ENDBRANCH  39  40
BRANCH  39  44
HETATM   44  C   UNL     1      -6.625  21.306  67.577  1.00  0.00    -0.296 C  
HETATM   45  C   UNL     1      -6.086  20.839  66.226  1.00  0.00    -0.233 C  
HETATM   46  O   UNL     1      -5.125  21.343  65.663  1.00  0.00    -0.192 OA 
HETATM   47  O   UNL     1      -6.818  19.834  65.675  1.00  0.00    -0.260 OA 
ENDBRANCH  39  44
ENDBRANCH  38  39
ENDBRANCH  23  38
ENDBRANCH  10  11
ENDBRANCH   5  10
ENDBRANCH   4   5
TORSDOF 8
ENDMDL
MODEL      137
REMARK 921   NORMALIZED FREE ENERGY PREDICTED BY IDOCK:   -2.72 KCAL/MOL
REMARK 922        TOTAL FREE ENERGY PREDICTED BY IDOCK:   -6.26 KCAL/MOL
REMARK 923 INTER-LIGAND FREE ENERGY PREDICTED BY IDOCK:   -6.87 KCAL/MOL
REMARK 924 INTRA-LIGAND FREE ENERGY PREDICTED BY IDOCK:    0.61 KCAL/MOL
REMARK 927      BINDING AFFINITY PREDICTED BY RF-SCORE:    0.00 PKD
ROOT
HETATM    1  O   UNL     1     -11.274   3.551  73.762  1.00  0.00    -0.219 OA 
HETATM    2  C   UNL     1     -11.311   4.848  73.377  1.00  0.00    -0.298 C  
HETATM    3  O   UNL     1     -12.356   5.438  73.149  1.00  0.00     0.154 OA 
HETATM    4  C   UNL     1      -9.934   5.502  73.331  1.00  0.00    -0.176 C  
ENDROOT
BRANCH   4   5
HETATM    5  N   UNL     1      -8.815   4.555  72.935  1.00  0.00    -0.115 NA 
BRANCH   5   6
HETATM    6  C   UNL     1      -8.728   4.575  71.424  1.00  0.00    -0.117 C  
HETATM    7  O   UNL     1      -8.155   2.235  71.654  1.00  0.00    -0.050 OA 
HETATM    8  C   UNL     1      -8.163   3.293  70.813  1.00  0.00    -0.056 C  
HETATM    9  O   UNL     1      -7.807   3.208  69.647  1.00  0.00    -0.046 OA 
ENDBRANCH   5   6
BRANCH   5  10
HETATM   10  C   UNL     1      -7.543   5.169  73.493  1.00  0.00    -0.095 C  
BRANCH  10  11
HETATM   11  C   UNL     1      -7.178   6.501  72.855  1.00  0.00    -0.082 A  
HETATM   12  C   UNL     1      -8.038   7.067  71.914  1.00  0.00    -0.098 A  
HETATM   13  C   UNL     1      -7.702   8.242  71.206  1.00  0.00    -0.106 A  
HETATM   14  C   UNL     1      -6.551   8.945  71.550  1.00  0.00    -0.080 A  
HETATM   15  C   UNL     1      -5.697   8.420  72.527  1.00  0.00    -0.055 A  
HETATM   16  O   UNL     1      -6.203  10.153  70.977  1.00  0.00    -0.253 OA 
HETATM   17  C   UNL     1      -7.008  10.686  69.988  1.00  0.00    -0.126 A  
HETATM   18  C   UNL     1      -6.003   7.198  73.151  1.00  0.00    -0.056 A  
HETATM   19  O   UNL     1      -5.141   6.656  74.061  1.00  0.00    -0.040 OA 
HETATM   20  C   UNL     1      -6.687  11.963  69.505  1.00  0.00    -0.054 A  
HETATM   21  C   UNL     1      -7.457  12.556  68.486  1.00  0.00    -0.122 A  
HETATM   22  H   UNL     1      -4.343   7.131  74.263  1.00  0.00     0.000 HD 
HETATM   23  C   UNL     1      -8.528  11.875  67.904  1.00  0.00    -0.154 A  
HETATM   24  O   UNL     1      -7.179  13.825  68.059  1.00  0.00    -0.104 OA 
HETATM   25  C   UNL     1      -8.697   7.627  69.007  1.00  0.00    -0.136 A  
HETATM   26  H   UNL     1      -7.699  14.225  67.371  1.00  0.00     0.000 HD 
HETATM   27  C   UNL     1      -8.821  10.594  68.394  1.00  0.00    -0.145 A  
HETATM   28  C   UNL     1      -7.775   7.095  68.116  1.00  0.00    -0.117 A  
HETATM   29  C   UNL     1      -8.104  10.012  69.457  1.00  0.00    -0.166 A  
HETATM   30  C   UNL     1      -8.545   8.697  70.042  1.00  0.00    -0.132 C  
HETATM   31  C   UNL     1      -8.210   6.094  67.245  1.00  0.00    -0.106 A  
HETATM   32  C   UNL     1      -9.537   5.633  67.284  1.00  0.00    -0.125 A  
HETATM   33  O   UNL     1      -9.900   8.855  70.541  1.00  0.00    -0.177 OA 
HETATM   34  C   UNL     1     -10.450   6.167  68.194  1.00  0.00    -0.284 A  
HETATM   35  O   UNL     1     -11.872   7.671  70.421  1.00  0.00    -0.148 OA 
HETATM   36  C   UNL     1     -10.739   7.899  70.051  1.00  0.00    -0.244 C  
HETATM   37  C   UNL     1      -9.999   7.169  69.032  1.00  0.00    -0.174 A  
BRANCH  23  38
HETATM   38  C   UNL     1      -9.507  12.474  66.911  1.00  0.00    -0.219 C  
BRANCH  38  39
HETATM   39  N   UNL     1      -9.788  11.711  65.655  1.00  0.00    -0.234 NA 
BRANCH  39  40
HETATM   40  C   UNL     1      -9.052  10.404  65.729  1.00  0.00    -0.168 C  
HETATM   41  O   UNL     1      -8.719   8.747  63.975  1.00  0.00    -0.119 OA 
HETATM   42  C   UNL     1      -8.642   9.910  64.346  1.00  0.00    -0.185 C  
HETATM   43  O   UNL     1      -8.159  10.910  63.565  1.00  0.00     0.035 OA 
ENDBRANCH  39  40
BRANCH  39  44
HETATM   44  C   UNL     1     -11.268  11.387  65.639  1.00  0.00    -0.076 C  
HETATM   45  C   UNL     1     -12.046  12.215  64.618  1.00  0.00    -0.311 C  
HETATM   46  O   UNL     1     -13.232  12.490  64.723  1.00  0.00    -0.839 OA 
HETATM   47  O   UNL     1     -11.300  12.576  63.541  1.00  0.00    -0.453 OA 
ENDBRANCH  39  44
ENDBRANCH  38  39
ENDBRANCH  23  38
ENDBRANCH  10  11
ENDBRANCH   5  10
ENDBRANCH   4   5
TORSDOF 8
ENDMDL
MODEL      138
REMARK 921   NORMALIZED FREE ENERGY PREDICTED BY IDOCK:   -2.70 KCAL/MOL
REMARK 922        TOTAL FREE ENERGY PREDICTED BY IDOCK:   -6.23 KCAL/MOL
REMARK 923 INTER-LIGAND FREE ENERGY PREDICTED BY IDOCK:   -6.62 KCAL/MOL
REMARK 924 INTRA-LIGAND FREE ENERGY PREDICTED BY IDOCK:    0.38 KCAL/MOL
REMARK 927      BINDING AFFINITY PREDICTED BY RF-SCORE:    0.00 PKD
ROOT
HETATM    1  O   UNL     1      -5.205   3.518  68.154  1.00  0.00    -0.011 OA 
HETATM    2  C   UNL     1      -5.782   2.854  67.126  1.00  0.00    -0.022 C  
HETATM    3  O   UNL     1      -5.133   2.257  66.280  1.00  0.00    -0.004 OA 
HETATM    4  C   UNL     1      -7.305   2.869  67.178  1.00  0.00    -0.062 C  
ENDROOT
BRANCH   4   5
HETATM    5  N   UNL     1      -7.890   4.138  67.771  1.00  0.00    -0.086 NA 
BRANCH   5   6
HETATM    6  C   UNL     1      -7.792   4.013  69.276  1.00  0.00    -0.056 C  
HETATM    7  O   UNL     1      -9.390   2.217  69.003  1.00  0.00    -0.140 OA 
HETATM    8  C   UNL     1      -8.809   3.053  69.892  1.00  0.00    -0.091 C  
HETATM    9  O   UNL     1      -9.035   2.995  71.092  1.00  0.00    -0.084 OA 
ENDBRANCH   5   6
BRANCH   5  10
HETATM   10  C   UNL     1      -6.968   5.260  67.326  1.00  0.00    -0.065 C  
BRANCH  10  11
HETATM   11  C   UNL     1      -7.692   6.411  66.645  1.00  0.00    -0.099 A  
HETATM   12  C   UNL     1      -7.922   7.590  67.355  1.00  0.00    -0.116 A  
HETATM   13  C   UNL     1      -8.684   8.650  66.818  1.00  0.00    -0.135 A  
HETATM   14  C   UNL     1      -9.101   8.592  65.491  1.00  0.00    -0.131 A  
HETATM   15  C   UNL     1      -8.838   7.437  64.744  1.00  0.00     0.461 A  
HETATM   16  O   UNL     1      -9.763   9.627  64.860  1.00  0.00    -0.267 OA 
HETATM   17  C   UNL     1     -10.064  10.770  65.577  1.00  0.00    -0.274 A  
HETATM   18  C   UNL     1      -8.161   6.354  65.329  1.00  0.00    -0.133 A  
HETATM   19  O   UNL     1      -7.956   5.206  64.619  1.00  0.00    -0.090 OA 
HETATM   20  C   UNL     1     -10.638  11.844  64.880  1.00  0.00    -0.333 A  
HETATM   21  C   UNL     1     -10.984  13.030  65.554  1.00  0.00    -0.274 A  
HETATM   22  H   UNL     1      -8.275   5.167  63.725  1.00  0.00     0.000 HD 
HETATM   23  C   UNL     1     -10.806  13.152  66.934  1.00  0.00    -0.278 A  
HETATM   24  O   UNL     1     -11.488  14.097  64.862  1.00  0.00    -0.335 OA 
HETATM   25  C   UNL     1      -9.842   9.350  68.910  1.00  0.00    -0.176 A  
HETATM   26  H   UNL     1     -11.722  14.898  65.318  1.00  0.00     0.000 HD 
HETATM   27  C   UNL     1     -10.244  12.060  67.611  1.00  0.00    -0.210 A  
HETATM   28  C   UNL     1     -11.110   8.803  69.045  1.00  0.00     0.164 A  
HETATM   29  C   UNL     1      -9.830  10.891  66.943  1.00  0.00    -0.222 A  
HETATM   30  C   UNL     1      -9.103   9.805  67.691  1.00  0.00    -0.131 C  
HETATM   31  C   UNL     1     -11.548   8.475  70.330  1.00  0.00     0.004 A  
HETATM   32  C   UNL     1     -10.719   8.681  71.446  1.00  0.00    -0.338 A  
HETATM   33  O   UNL     1      -7.887  10.374  68.246  1.00  0.00    -0.101 OA 
HETATM   34  C   UNL     1      -9.440   9.218  71.294  1.00  0.00    -0.245 A  
HETATM   35  O   UNL     1      -6.800  10.329  70.276  1.00  0.00    -0.141 OA 
HETATM   36  C   UNL     1      -7.777  10.134  69.584  1.00  0.00    -0.163 C  
HETATM   37  C   UNL     1      -9.039   9.551  70.015  1.00  0.00    -0.255 A  
BRANCH  23  38
HETATM   38  C   UNL     1     -11.006  14.429  67.730  1.00  0.00    -0.274 C  
BRANCH  38  39
HETATM   39  N   UNL     1      -9.907  15.443  67.717  1.00  0.00    -0.220 NA 
BRANCH  39  40
HETATM   40  C   UNL     1      -8.729  14.846  67.002  1.00  0.00    -0.238 C  
HETATM   41  O   UNL     1      -6.582  15.875  66.488  1.00  0.00    -0.061 OA 
HETATM   42  C   UNL     1      -7.440  15.598  67.315  1.00  0.00    -0.222 C  
HETATM   43  O   UNL     1      -7.337  15.918  68.629  1.00  0.00    -0.128 OA 
ENDBRANCH  39  40
BRANCH  39  44
HETATM   44  C   UNL     1     -10.381  16.618  66.887  1.00  0.00    -0.299 C  
HETATM   45  C   UNL     1     -10.608  17.880  67.718  1.00  0.00    -0.389 C  
HETATM   46  O   UNL     1     -11.394  18.765  67.415  1.00  0.00    -0.004 OA 
HETATM   47  O   UNL     1      -9.805  17.952  68.812  1.00  0.00    -0.344 OA 
ENDBRANCH  39  44
ENDBRANCH  38  39
ENDBRANCH  23  38
ENDBRANCH  10  11
ENDBRANCH   5  10
ENDBRANCH   4   5
TORSDOF 8
ENDMDL
MODEL      139
REMARK 921   NORMALIZED FREE ENERGY PREDICTED BY IDOCK:   -2.68 KCAL/MOL
REMARK 922        TOTAL FREE ENERGY PREDICTED BY IDOCK:   -6.20 KCAL/MOL
REMARK 923 INTER-LIGAND FREE ENERGY PREDICTED BY IDOCK:   -6.49 KCAL/MOL
REMARK 924 INTRA-LIGAND FREE ENERGY PREDICTED BY IDOCK:    0.30 KCAL/MOL
REMARK 927      BINDING AFFINITY PREDICTED BY RF-SCORE:    0.00 PKD
ROOT
HETATM    1  O   UNL     1      -6.499   1.754  67.429  1.00  0.00    -0.024 OA 
HETATM    2  C   UNL     1      -6.762   2.891  68.112  1.00  0.00    -0.040 C  
HETATM    3  O   UNL     1      -7.231   2.888  69.241  1.00  0.00    -0.044 OA 
HETATM    4  C   UNL     1      -6.350   4.153  67.364  1.00  0.00    -0.037 C  
ENDROOT
BRANCH   4   5
HETATM    5  N   UNL     1      -6.485   4.048  65.855  1.00  0.00    -0.033 NA 
BRANCH   5   6
HETATM    6  C   UNL     1      -7.960   4.161  65.532  1.00  0.00    -0.097 C  
HETATM    7  O   UNL     1      -7.618   2.102  64.308  1.00  0.00    -0.058 OA 
HETATM    8  C   UNL     1      -8.456   3.144  64.505  1.00  0.00    -0.094 C  
HETATM    9  O   UNL     1      -9.544   3.224  63.954  1.00  0.00    -0.121 OA 
ENDBRANCH   5   6
BRANCH   5  10
HETATM   10  C   UNL     1      -5.780   5.269  65.294  1.00  0.00    -0.014 C  
BRANCH  10  11
HETATM   11  C   UNL     1      -6.719   6.418  64.961  1.00  0.00    -0.039 A  
HETATM   12  C   UNL     1      -7.152   7.265  65.982  1.00  0.00    -0.066 A  
HETATM   13  C   UNL     1      -8.109   8.278  65.757  1.00  0.00    -0.109 A  
HETATM   14  C   UNL     1      -8.534   8.546  64.459  1.00  0.00    -0.090 A  
HETATM   15  C   UNL     1      -8.075   7.738  63.411  1.00  0.00    -0.062 A  
HETATM   16  O   UNL     1      -9.390   9.582  64.141  1.00  0.00    -0.184 OA 
HETATM   17  C   UNL     1      -9.885  10.381  65.154  1.00  0.00    -0.313 A  
HETATM   18  C   UNL     1      -7.195   6.673  63.672  1.00  0.00    -0.065 A  
HETATM   19  O   UNL     1      -6.794   5.849  62.660  1.00  0.00    -0.038 OA 
HETATM   20  C   UNL     1     -10.663  11.490  64.788  1.00  0.00    -0.366 A  
HETATM   21  C   UNL     1     -11.211  12.334  65.773  1.00  0.00    -0.337 A  
HETATM   22  H   UNL     1      -7.118   6.023  61.783  1.00  0.00     0.000 HD 
HETATM   23  C   UNL     1     -11.031  12.066  67.132  1.00  0.00    -0.320 A  
HETATM   24  O   UNL     1     -11.919  13.447  65.413  1.00  0.00    -0.347 OA 
HETATM   25  C   UNL     1      -9.335   8.093  67.917  1.00  0.00    -0.145 A  
HETATM   26  H   UNL     1     -12.289  14.017  66.077  1.00  0.00     0.000 HD 
HETATM   27  C   UNL     1     -10.262  10.945  67.472  1.00  0.00    -0.224 A  
HETATM   28  C   UNL     1     -10.476   7.307  67.835  1.00  0.00    -0.267 A  
HETATM   29  C   UNL     1      -9.650  10.127  66.502  1.00  0.00    -0.236 A  
HETATM   30  C   UNL     1      -8.718   9.021  66.919  1.00  0.00    -0.123 C  
HETATM   31  C   UNL     1     -10.819   6.533  68.947  1.00  0.00    -0.354 A  
HETATM   32  C   UNL     1     -10.021   6.544  70.103  1.00  0.00    -0.190 A  
HETATM   33  O   UNL     1      -7.620   9.611  67.664  1.00  0.00    -0.090 OA 
HETATM   34  C   UNL     1      -8.868   7.327  70.167  1.00  0.00    -0.145 A  
HETATM   35  O   UNL     1      -6.503   9.159  69.626  1.00  0.00    -0.041 OA 
HETATM   36  C   UNL     1      -7.440   9.004  68.871  1.00  0.00    -0.075 C  
HETATM   37  C   UNL     1      -8.562   8.097  69.061  1.00  0.00    -0.133 A  
BRANCH  23  38
HETATM   38  C   UNL     1     -11.451  12.986  68.265  1.00  0.00    -0.312 C  
BRANCH  38  39
HETATM   39  N   UNL     1     -11.063  14.428  68.178  1.00  0.00    -0.255 NA 
BRANCH  39  40
HETATM   40  C   UNL     1     -12.273  15.257  68.496  1.00  0.00     0.059 C  
HETATM   41  O   UNL     1     -12.980  16.151  70.650  1.00  0.00    -0.172 OA 
HETATM   42  C   UNL     1     -12.104  16.021  69.804  1.00  0.00    -0.107 C  
HETATM   43  O   UNL     1     -10.867  16.564  69.927  1.00  0.00    -0.344 OA 
ENDBRANCH  39  40
BRANCH  39  44
HETATM   44  C   UNL     1     -10.044  14.692  69.267  1.00  0.00    -0.115 C  
HETATM   45  C   UNL     1      -8.603  14.608  68.767  1.00  0.00    -0.160 C  
HETATM   46  O   UNL     1      -7.650  14.316  69.475  1.00  0.00    -0.005 OA 
HETATM   47  O   UNL     1      -8.470  14.943  67.456  1.00  0.00    -0.162 OA 
ENDBRANCH  39  44
ENDBRANCH  38  39
ENDBRANCH  23  38
ENDBRANCH  10  11
ENDBRANCH   5  10
ENDBRANCH   4   5
TORSDOF 8
ENDMDL
MODEL      140
REMARK 921   NORMALIZED FREE ENERGY PREDICTED BY IDOCK:   -2.66 KCAL/MOL
REMARK 922        TOTAL FREE ENERGY PREDICTED BY IDOCK:   -6.18 KCAL/MOL
REMARK 923 INTER-LIGAND FREE ENERGY PREDICTED BY IDOCK:   -7.93 KCAL/MOL
REMARK 924 INTRA-LIGAND FREE ENERGY PREDICTED BY IDOCK:    1.76 KCAL/MOL
REMARK 927      BINDING AFFINITY PREDICTED BY RF-SCORE:    0.00 PKD
ROOT
HETATM    1  O   UNL     1      -7.845  17.595  68.143  1.00  0.00    -0.239 OA 
HETATM    2  C   UNL     1      -7.901  16.248  68.247  1.00  0.00    -0.164 C  
HETATM    3  O   UNL     1      -6.923  15.533  68.083  1.00  0.00    -0.109 OA 
HETATM    4  C   UNL     1      -9.276  15.731  68.657  1.00  0.00    -0.207 C  
ENDROOT
BRANCH   4   5
HETATM    5  N   UNL     1     -10.430  16.565  68.131  1.00  0.00    -0.298 NA 
BRANCH   5   6
HETATM    6  C   UNL     1      -9.956  17.226  66.854  1.00  0.00    -0.294 C  
HETATM    7  O   UNL     1     -10.824  19.253  67.848  1.00  0.00    -0.367 OA 
HETATM    8  C   UNL     1     -10.395  18.682  66.702  1.00  0.00    -0.415 C  
HETATM    9  O   UNL     1     -10.308  19.301  65.652  1.00  0.00    -0.489 OA 
ENDBRANCH   5   6
BRANCH   5  10
HETATM   10  C   UNL     1     -11.524  15.574  67.777  1.00  0.00    -0.243 C  
BRANCH  10  11
HETATM   11  C   UNL     1     -11.125  14.587  66.690  1.00  0.00    -0.333 A  
HETATM   12  C   UNL     1     -10.681  13.315  67.052  1.00  0.00    -0.263 A  
HETATM   13  C   UNL     1     -10.192  12.395  66.098  1.00  0.00    -0.262 A  
HETATM   14  C   UNL     1     -10.286  12.696  64.743  1.00  0.00    -0.283 A  
HETATM   15  C   UNL     1     -10.775  13.950  64.355  1.00  0.00    -0.286 A  
HETATM   16  O   UNL     1      -9.924  11.813  63.745  1.00  0.00    -0.315 OA 
HETATM   17  C   UNL     1      -9.410  10.578  64.092  1.00  0.00    -0.267 A  
HETATM   18  C   UNL     1     -11.166  14.888  65.326  1.00  0.00    -0.369 A  
HETATM   19  O   UNL     1     -11.587  16.131  64.950  1.00  0.00    -0.116 OA 
HETATM   20  C   UNL     1      -9.155   9.664  63.059  1.00  0.00    -0.235 A  
HETATM   21  C   UNL     1      -8.616   8.395  63.344  1.00  0.00     0.110 A  
HETATM   22  H   UNL     1     -11.615  16.335  64.022  1.00  0.00     0.000 HD 
HETATM   23  C   UNL     1      -8.284   8.032  64.651  1.00  0.00    -0.109 A  
HETATM   24  O   UNL     1      -8.425   7.484  62.343  1.00  0.00    -0.347 OA 
HETATM   25  C   UNL     1      -8.370  11.396  67.473  1.00  0.00    -0.137 A  
HETATM   26  H   UNL     1      -8.061   6.627  62.535  1.00  0.00     0.000 HD 
HETATM   27  C   UNL     1      -8.534   8.967  65.665  1.00  0.00    -0.171 A  
HETATM   28  C   UNL     1      -7.127  11.963  67.232  1.00  0.00    -0.143 A  
HETATM   29  C   UNL     1      -9.134  10.215  65.408  1.00  0.00    -0.227 A  
HETATM   30  C   UNL     1      -9.513  11.125  66.545  1.00  0.00    -0.193 C  
HETATM   31  C   UNL     1      -6.244  12.084  68.308  1.00  0.00    -0.051 A  
HETATM   32  C   UNL     1      -6.615  11.657  69.594  1.00  0.00    -0.096 A  
HETATM   33  O   UNL     1     -10.457  10.420  67.394  1.00  0.00    -0.216 OA 
HETATM   34  C   UNL     1      -7.874  11.101  69.825  1.00  0.00     0.482 A  
HETATM   35  O   UNL     1     -10.730  10.072  69.655  1.00  0.00    -0.220 OA 
HETATM   36  C   UNL     1     -10.067  10.424  68.701  1.00  0.00    -0.176 C  
HETATM   37  C   UNL     1      -8.721  10.976  68.740  1.00  0.00    -0.146 A  
BRANCH  23  38
HETATM   38  C   UNL     1      -7.838   6.646  65.085  1.00  0.00    -0.115 C  
BRANCH  38  39
HETATM   39  N   UNL     1      -8.558   6.005  66.228  1.00  0.00    -0.132 NA 
BRANCH  39  40
HETATM   40  C   UNL     1      -9.758   5.287  65.682  1.00  0.00    -0.007 C  
HETATM   41  O   UNL     1     -10.110   4.406  63.438  1.00  0.00    -0.035 OA 
HETATM   42  C   UNL     1      -9.410   4.474  64.440  1.00  0.00    -0.098 C  
HETATM   43  O   UNL     1      -8.233   3.812  64.571  1.00  0.00    -0.092 OA 
ENDBRANCH  39  40
BRANCH  39  44
HETATM   44  C   UNL     1      -7.638   4.952  66.813  1.00  0.00    -0.088 C  
HETATM   45  C   UNL     1      -6.931   5.419  68.084  1.00  0.00    -0.061 C  
HETATM   46  O   UNL     1      -5.850   4.991  68.461  1.00  0.00    -0.019 OA 
HETATM   47  O   UNL     1      -7.651   6.328  68.794  1.00  0.00    -0.089 OA 
ENDBRANCH  39  44
ENDBRANCH  38  39
ENDBRANCH  23  38
ENDBRANCH  10  11
ENDBRANCH   5  10
ENDBRANCH   4   5
TORSDOF 8
ENDMDL
MODEL      141
REMARK 921   NORMALIZED FREE ENERGY PREDICTED BY IDOCK:   -2.54 KCAL/MOL
REMARK 922        TOTAL FREE ENERGY PREDICTED BY IDOCK:   -5.99 KCAL/MOL
REMARK 923 INTER-LIGAND FREE ENERGY PREDICTED BY IDOCK:   -7.12 KCAL/MOL
REMARK 924 INTRA-LIGAND FREE ENERGY PREDICTED BY IDOCK:    1.13 KCAL/MOL
REMARK 927      BINDING AFFINITY PREDICTED BY RF-SCORE:    0.00 PKD
ROOT
HETATM    1  O   UNL     1     -10.360   1.694  72.735  1.00  0.00    -0.117 OA 
HETATM    2  C   UNL     1      -9.953   2.749  73.477  1.00  0.00    -0.105 C  
HETATM    3  O   UNL     1     -10.451   3.025  74.558  1.00  0.00    -0.166 OA 
HETATM    4  C   UNL     1      -8.778   3.502  72.863  1.00  0.00    -0.089 C  
ENDROOT
BRANCH   4   5
HETATM    5  N   UNL     1      -8.779   3.512  71.345  1.00  0.00    -0.082 NA 
BRANCH   5   6
HETATM    6  C   UNL     1     -10.025   4.251  70.905  1.00  0.00    -0.155 C  
HETATM    7  O   UNL     1      -9.273   5.967  72.437  1.00  0.00    -0.144 OA 
HETATM    8  C   UNL     1     -10.319   5.516  71.711  1.00  0.00    -0.216 C  
HETATM    9  O   UNL     1     -11.386   6.110  71.658  1.00  0.00    -0.278 OA 
ENDBRANCH   5   6
BRANCH   5  10
HETATM   10  C   UNL     1      -7.569   4.336  70.940  1.00  0.00    -0.052 C  
BRANCH  10  11
HETATM   11  C   UNL     1      -7.705   4.989  69.573  1.00  0.00    -0.067 A  
HETATM   12  C   UNL     1      -7.854   6.374  69.489  1.00  0.00    -0.101 A  
HETATM   13  C   UNL     1      -8.096   7.026  68.260  1.00  0.00    -0.123 A  
HETATM   14  C   UNL     1      -8.043   6.299  67.074  1.00  0.00    -0.109 A  
HETATM   15  C   UNL     1      -7.845   4.914  67.133  1.00  0.00    -0.095 A  
HETATM   16  O   UNL     1      -8.169   6.877  65.826  1.00  0.00    -0.119 OA 
HETATM   17  C   UNL     1      -8.393   8.237  65.733  1.00  0.00    -0.137 A  
HETATM   18  C   UNL     1      -7.703   4.271  68.374  1.00  0.00    -0.070 A  
HETATM   19  O   UNL     1      -7.569   2.914  68.434  1.00  0.00    -0.052 OA 
HETATM   20  C   UNL     1      -8.408   8.810  64.452  1.00  0.00    -0.165 A  
HETATM   21  C   UNL     1      -8.648  10.187  64.288  1.00  0.00    -0.193 A  
HETATM   22  H   UNL     1      -7.567   2.425  67.618  1.00  0.00     0.000 HD 
HETATM   23  C   UNL     1      -8.919  11.006  65.386  1.00  0.00    -0.192 A  
HETATM   24  O   UNL     1      -8.602  10.753  63.044  1.00  0.00    -0.211 OA 
HETATM   25  C   UNL     1      -9.673   8.769  69.089  1.00  0.00    -0.175 A  
HETATM   26  H   UNL     1      -8.764  11.683  62.933  1.00  0.00     0.000 HD 
HETATM   27  C   UNL     1      -8.913  10.409  66.654  1.00  0.00    -0.155 A  
HETATM   28  C   UNL     1     -11.007   8.429  68.915  1.00  0.00     0.115 A  
HETATM   29  C   UNL     1      -8.610   9.047  66.845  1.00  0.00    -0.128 A  
HETATM   30  C   UNL     1      -8.477   8.485  68.235  1.00  0.00    -0.135 C  
HETATM   31  C   UNL     1     -11.919   8.843  69.888  1.00  0.00     0.582 A  
HETATM   32  C   UNL     1     -11.490   9.567  71.013  1.00  0.00    -0.420 A  
HETATM   33  O   UNL     1      -7.417   9.208  68.916  1.00  0.00    -0.073 OA 
HETATM   34  C   UNL     1     -10.143   9.890  71.183  1.00  0.00     0.310 A  
HETATM   35  O   UNL     1      -7.124  10.187  70.980  1.00  0.00    -0.286 OA 
HETATM   36  C   UNL     1      -7.828   9.699  70.119  1.00  0.00    -0.174 C  
HETATM   37  C   UNL     1      -9.265   9.485  70.197  1.00  0.00    -0.281 A  
BRANCH  23  38
HETATM   38  C   UNL     1      -9.045  12.519  65.336  1.00  0.00     0.512 C  
BRANCH  38  39
HETATM   39  N   UNL     1     -10.381  13.101  65.002  1.00  0.00    -0.329 NA 
BRANCH  39  40
HETATM   40  C   UNL     1     -10.869  12.455  63.736  1.00  0.00    -0.454 C  
HETATM   41  O   UNL     1     -13.162  12.144  62.975  1.00  0.00    -0.415 OA 
HETATM   42  C   UNL     1     -12.288  12.892  63.392  1.00  0.00    -0.410 C  
HETATM   43  O   UNL     1     -12.478  14.222  63.585  1.00  0.00    -0.816 OA 
ENDBRANCH  39  40
BRANCH  39  44
HETATM   44  C   UNL     1     -11.341  12.700  66.104  1.00  0.00    -0.330 C  
HETATM   45  C   UNL     1     -11.525  13.790  67.158  1.00  0.00    -0.340 C  
HETATM   46  O   UNL     1     -11.834  13.572  68.320  1.00  0.00    -0.337 OA 
HETATM   47  O   UNL     1     -11.362  15.046  66.663  1.00  0.00    -0.344 OA 
ENDBRANCH  39  44
ENDBRANCH  38  39
ENDBRANCH  23  38
ENDBRANCH  10  11
ENDBRANCH   5  10
ENDBRANCH   4   5
TORSDOF 8
ENDMDL
MODEL      142
REMARK 921   NORMALIZED FREE ENERGY PREDICTED BY IDOCK:   -2.38 KCAL/MOL
REMARK 922        TOTAL FREE ENERGY PREDICTED BY IDOCK:   -5.76 KCAL/MOL
REMARK 923 INTER-LIGAND FREE ENERGY PREDICTED BY IDOCK:   -6.95 KCAL/MOL
REMARK 924 INTRA-LIGAND FREE ENERGY PREDICTED BY IDOCK:    1.20 KCAL/MOL
REMARK 927      BINDING AFFINITY PREDICTED BY RF-SCORE:    0.00 PKD
ROOT
HETATM    1  O   UNL     1     -10.775  17.650  68.597  1.00  0.00    -0.289 OA 
HETATM    2  C   UNL     1     -10.961  16.351  68.269  1.00  0.00    -0.355 C  
HETATM    3  O   UNL     1     -11.866  15.676  68.737  1.00  0.00    -0.370 OA 
HETATM    4  C   UNL     1      -9.980  15.849  67.215  1.00  0.00    -0.240 C  
ENDROOT
BRANCH   4   5
HETATM    5  N   UNL     1      -8.607  16.491  67.296  1.00  0.00    -0.180 NA 
BRANCH   5   6
HETATM    6  C   UNL     1      -8.812  17.990  67.246  1.00  0.00    -0.247 C  
HETATM    7  O   UNL     1      -7.176  17.927  65.465  1.00  0.00    -0.510 OA 
HETATM    8  C   UNL     1      -7.831  18.727  66.336  1.00  0.00    -0.278 C  
HETATM    9  O   UNL     1      -7.692  19.941  66.343  1.00  0.00    -0.277 OA 
ENDBRANCH   5   6
BRANCH   5  10
HETATM   10  C   UNL     1      -8.066  16.130  68.668  1.00  0.00    -0.203 C  
BRANCH  10  11
HETATM   11  C   UNL     1      -7.348  14.790  68.707  1.00  0.00    -0.129 A  
HETATM   12  C   UNL     1      -7.930  13.683  68.089  1.00  0.00    -0.148 A  
HETATM   13  C   UNL     1      -7.369  12.391  68.187  1.00  0.00    -0.111 A  
HETATM   14  C   UNL     1      -6.126  12.226  68.789  1.00  0.00    -0.068 A  
HETATM   15  C   UNL     1      -5.499  13.334  69.374  1.00  0.00    -0.079 A  
HETATM   16  O   UNL     1      -5.463  11.016  68.837  1.00  0.00    -0.041 OA 
HETATM   17  C   UNL     1      -6.065   9.896  68.295  1.00  0.00    -0.046 A  
HETATM   18  C   UNL     1      -6.121  14.593  69.349  1.00  0.00    -0.109 A  
HETATM   19  O   UNL     1      -5.539  15.660  69.970  1.00  0.00    -0.128 OA 
HETATM   20  C   UNL     1      -5.321   8.707  68.263  1.00  0.00    -0.034 A  
HETATM   21  C   UNL     1      -5.882   7.527  67.739  1.00  0.00    -0.035 A  
HETATM   22  H   UNL     1      -4.705  15.527  70.407  1.00  0.00     0.000 HD 
HETATM   23  C   UNL     1      -7.201   7.499  67.280  1.00  0.00    -0.086 A  
HETATM   24  O   UNL     1      -5.135   6.385  67.653  1.00  0.00    -0.004 OA 
HETATM   25  C   UNL     1      -9.491  11.094  68.338  1.00  0.00    -0.189 A  
HETATM   26  H   UNL     1      -5.514   5.588  67.299  1.00  0.00     0.000 HD 
HETATM   27  C   UNL     1      -7.930   8.696  67.336  1.00  0.00    -0.102 A  
HETATM   28  C   UNL     1      -9.857  10.790  69.641  1.00  0.00     0.041 A  
HETATM   29  C   UNL     1      -7.364   9.902  67.795  1.00  0.00    -0.089 A  
HETATM   30  C   UNL     1      -8.139  11.189  67.703  1.00  0.00    -0.117 C  
HETATM   31  C   UNL     1     -11.219  10.768  69.951  1.00  0.00    -0.371 A  
HETATM   32  C   UNL     1     -12.183  11.060  68.971  1.00  0.00    -0.167 A  
HETATM   33  O   UNL     1      -8.457  11.427  66.306  1.00  0.00    -0.177 OA 
HETATM   34  C   UNL     1     -11.801  11.379  67.667  1.00  0.00    -0.157 A  
HETATM   35  O   UNL     1     -10.317  12.052  65.100  1.00  0.00    -0.258 OA 
HETATM   36  C   UNL     1      -9.788  11.654  66.117  1.00  0.00    -0.223 C  
HETATM   37  C   UNL     1     -10.449  11.375  67.384  1.00  0.00    -0.239 A  
BRANCH  23  38
HETATM   38  C   UNL     1      -7.852   6.328  66.566  1.00  0.00    -0.104 C  
BRANCH  38  39
HETATM   39  N   UNL     1      -7.203   5.818  65.319  1.00  0.00    -0.068 NA 
BRANCH  39  40
HETATM   40  C   UNL     1      -7.438   4.337  65.242  1.00  0.00    -0.073 C  
HETATM   41  O   UNL     1      -8.824   2.942  66.679  1.00  0.00    -0.131 OA 
HETATM   42  C   UNL     1      -8.715   3.932  65.968  1.00  0.00    -0.115 C  
HETATM   43  O   UNL     1      -9.740   4.788  65.726  1.00  0.00    -0.167 OA 
ENDBRANCH  39  40
BRANCH  39  44
HETATM   44  C   UNL     1      -7.921   6.445  64.142  1.00  0.00    -0.096 C  
HETATM   45  C   UNL     1      -6.972   7.139  63.167  1.00  0.00    -0.058 C  
HETATM   46  O   UNL     1      -7.294   8.072  62.446  1.00  0.00    -0.092 OA 
HETATM   47  O   UNL     1      -5.733   6.580  63.136  1.00  0.00    -0.032 OA 
ENDBRANCH  39  44
ENDBRANCH  38  39
ENDBRANCH  23  38
ENDBRANCH  10  11
ENDBRANCH   5  10
ENDBRANCH   4   5
TORSDOF 8
ENDMDL
MODEL      143
REMARK 921   NORMALIZED FREE ENERGY PREDICTED BY IDOCK:   -2.34 KCAL/MOL
REMARK 922        TOTAL FREE ENERGY PREDICTED BY IDOCK:   -5.70 KCAL/MOL
REMARK 923 INTER-LIGAND FREE ENERGY PREDICTED BY IDOCK:   -4.81 KCAL/MOL
REMARK 924 INTRA-LIGAND FREE ENERGY PREDICTED BY IDOCK:   -0.89 KCAL/MOL
REMARK 927      BINDING AFFINITY PREDICTED BY RF-SCORE:    0.00 PKD
ROOT
HETATM    1  O   UNL     1      -6.983  15.830  70.840  1.00  0.00     1.051 OA 
HETATM    2  C   UNL     1      -6.188  15.077  70.046  1.00  0.00    -0.157 C  
HETATM    3  O   UNL     1      -5.126  14.611  70.430  1.00  0.00    -0.100 OA 
HETATM    4  C   UNL     1      -6.786  14.816  68.668  1.00  0.00    -0.103 C  
ENDROOT
BRANCH   4   5
HETATM    5  N   UNL     1      -7.636  15.957  68.139  1.00  0.00    -0.128 NA 
BRANCH   5   6
HETATM    6  C   UNL     1      -6.705  16.912  67.422  1.00  0.00    -0.159 C  
HETATM    7  O   UNL     1      -7.981  18.637  68.540  1.00  0.00    -0.319 OA 
HETATM    8  C   UNL     1      -7.097  18.383  67.550  1.00  0.00    -0.205 C  
HETATM    9  O   UNL     1      -6.610  19.268  66.862  1.00  0.00    -0.195 OA 
ENDBRANCH   5   6
BRANCH   5  10
HETATM   10  C   UNL     1      -8.563  15.335  67.110  1.00  0.00    -0.211 C  
BRANCH  10  11
HETATM   11  C   UNL     1      -9.223  14.048  67.583  1.00  0.00    -0.194 A  
HETATM   12  C   UNL     1      -8.788  12.827  67.067  1.00  0.00    -0.213 A  
HETATM   13  C   UNL     1      -9.433  11.610  67.380  1.00  0.00    -0.171 A  
HETATM   14  C   UNL     1     -10.439  11.594  68.341  1.00  0.00    -0.213 A  
HETATM   15  C   UNL     1     -10.859  12.804  68.908  1.00  0.00    -0.236 A  
HETATM   16  O   UNL     1     -11.051  10.436  68.777  1.00  0.00    -0.231 OA 
HETATM   17  C   UNL     1     -10.681   9.227  68.218  1.00  0.00    -0.145 A  
HETATM   18  C   UNL     1     -10.268  14.015  68.510  1.00  0.00    -0.237 A  
HETATM   19  O   UNL     1     -10.718  15.200  69.019  1.00  0.00    -0.222 OA 
HETATM   20  C   UNL     1     -11.242   8.060  68.757  1.00  0.00     0.453 A  
HETATM   21  C   UNL     1     -10.919   6.799  68.223  1.00  0.00    -0.197 A  
HETATM   22  H   UNL     1     -11.429  15.178  69.650  1.00  0.00     0.000 HD 
HETATM   23  C   UNL     1     -10.071   6.681  67.119  1.00  0.00    -0.230 A  
HETATM   24  O   UNL     1     -11.419   5.659  68.789  1.00  0.00     0.307 OA 
HETATM   25  C   UNL     1      -9.223  10.515  65.153  1.00  0.00    -0.243 A  
HETATM   26  H   UNL     1     -11.201   4.807  68.427  1.00  0.00     0.000 HD 
HETATM   27  C   UNL     1      -9.534   7.862  66.588  1.00  0.00    -0.270 A  
HETATM   28  C   UNL     1     -10.356  10.653  64.364  1.00  0.00    -0.347 A  
HETATM   29  C   UNL     1      -9.793   9.127  67.150  1.00  0.00    -0.253 A  
HETATM   30  C   UNL     1      -9.082  10.349  66.633  1.00  0.00    -0.151 C  
HETATM   31  C   UNL     1     -10.181  10.785  62.984  1.00  0.00    -0.103 A  
HETATM   32  C   UNL     1      -8.894  10.791  62.421  1.00  0.00    -0.341 A  
HETATM   33  O   UNL     1      -7.653  10.145  66.799  1.00  0.00    -0.101 OA 
HETATM   34  C   UNL     1      -7.762  10.665  63.227  1.00  0.00     0.055 A  
HETATM   35  O   UNL     1      -5.766  10.431  65.509  1.00  0.00    -0.090 OA 
HETATM   36  C   UNL     1      -6.971  10.354  65.637  1.00  0.00    -0.132 C  
HETATM   37  C   UNL     1      -7.964  10.518  64.586  1.00  0.00    -0.037 A  
BRANCH  23  38
HETATM   38  C   UNL     1      -9.544   5.371  66.560  1.00  0.00    -0.156 C  
BRANCH  38  39
HETATM   39  N   UNL     1      -8.121   5.009  66.842  1.00  0.00    -0.107 NA 
BRANCH  39  40
HETATM   40  C   UNL     1      -7.280   5.486  65.693  1.00  0.00    -0.068 C  
HETATM   41  O   UNL     1      -5.637   4.244  64.394  1.00  0.00    -0.013 OA 
HETATM   42  C   UNL     1      -6.770   4.325  64.849  1.00  0.00    -0.048 C  
HETATM   43  O   UNL     1      -7.725   3.384  64.637  1.00  0.00    -0.076 OA 
ENDBRANCH  39  40
BRANCH  39  44
HETATM   44  C   UNL     1      -7.687   5.791  68.066  1.00  0.00    -0.096 C  
HETATM   45  C   UNL     1      -7.434   4.900  69.281  1.00  0.00    -0.057 C  
HETATM   46  O   UNL     1      -7.539   5.278  70.438  1.00  0.00    -0.071 OA 
HETATM   47  O   UNL     1      -7.022   3.648  68.951  1.00  0.00    -0.045 OA 
ENDBRANCH  39  44
ENDBRANCH  38  39
ENDBRANCH  23  38
ENDBRANCH  10  11
ENDBRANCH   5  10
ENDBRANCH   4   5
TORSDOF 8
ENDMDL
MODEL      144
REMARK 921   NORMALIZED FREE ENERGY PREDICTED BY IDOCK:   -2.30 KCAL/MOL
REMARK 922        TOTAL FREE ENERGY PREDICTED BY IDOCK:   -5.64 KCAL/MOL
REMARK 923 INTER-LIGAND FREE ENERGY PREDICTED BY IDOCK:   -5.84 KCAL/MOL
REMARK 924 INTRA-LIGAND FREE ENERGY PREDICTED BY IDOCK:    0.20 KCAL/MOL
REMARK 927      BINDING AFFINITY PREDICTED BY RF-SCORE:    0.00 PKD
ROOT
HETATM    1  O   UNL     1      -8.303   2.946  66.373  1.00  0.00    -0.089 OA 
HETATM    2  C   UNL     1      -7.717   2.582  67.537  1.00  0.00    -0.061 C  
HETATM    3  O   UNL     1      -7.245   1.470  67.717  1.00  0.00    -0.038 OA 
HETATM    4  C   UNL     1      -7.647   3.714  68.557  1.00  0.00    -0.053 C  
ENDROOT
BRANCH   4   5
HETATM    5  N   UNL     1      -8.818   4.678  68.489  1.00  0.00    -0.098 NA 
BRANCH   5   6
HETATM    6  C   UNL     1      -8.766   5.530  69.739  1.00  0.00    -0.116 C  
HETATM    7  O   UNL     1      -8.903   3.417  70.910  1.00  0.00    -0.075 OA 
HETATM    8  C   UNL     1      -9.019   4.757  71.033  1.00  0.00    -0.126 C  
HETATM    9  O   UNL     1      -9.243   5.301  72.105  1.00  0.00    -0.139 OA 
ENDBRANCH   5   6
BRANCH   5  10
HETATM   10  C   UNL     1      -8.543   5.572  67.293  1.00  0.00    -0.108 C  
BRANCH  10  11
HETATM   11  C   UNL     1      -9.396   6.831  67.263  1.00  0.00    -0.148 A  
HETATM   12  C   UNL     1      -8.820   8.038  66.864  1.00  0.00    -0.146 A  
HETATM   13  C   UNL     1      -9.528   9.258  66.922  1.00  0.00    -0.211 A  
HETATM   14  C   UNL     1     -10.881   9.253  67.245  1.00  0.00    -0.069 A  
HETATM   15  C   UNL     1     -11.492   8.044  67.601  1.00  0.00     1.275 A  
HETATM   16  O   UNL     1     -11.668  10.388  67.227  1.00  0.00    -0.097 OA 
HETATM   17  C   UNL     1     -11.091  11.602  66.908  1.00  0.00    -0.308 A  
HETATM   18  C   UNL     1     -10.745   6.855  67.630  1.00  0.00    -0.274 A  
HETATM   19  O   UNL     1     -11.326   5.687  68.034  1.00  0.00     0.071 OA 
HETATM   20  C   UNL     1     -11.937  12.716  66.792  1.00  0.00    -0.362 A  
HETATM   21  C   UNL     1     -11.410  13.985  66.485  1.00  0.00    -0.336 A  
HETATM   22  H   UNL     1     -12.243   5.704  68.283  1.00  0.00     0.000 HD 
HETATM   23  C   UNL     1     -10.035  14.175  66.333  1.00  0.00    -0.302 A  
HETATM   24  O   UNL     1     -12.242  15.056  66.314  1.00  0.00     0.004 OA 
HETATM   25  C   UNL     1      -7.642  10.727  67.626  1.00  0.00    -0.096 A  
HETATM   26  H   UNL     1     -11.886  15.913  66.107  1.00  0.00     0.000 HD 
HETATM   27  C   UNL     1      -9.208  13.051  66.467  1.00  0.00    -0.187 A  
HETATM   28  C   UNL     1      -7.598  10.946  68.995  1.00  0.00    -0.135 A  
HETATM   29  C   UNL     1      -9.723  11.762  66.708  1.00  0.00    -0.213 A  
HETATM   30  C   UNL     1      -8.809  10.565  66.703  1.00  0.00    -0.136 C  
HETATM   31  C   UNL     1      -6.344  11.066  69.598  1.00  0.00    -0.106 A  
HETATM   32  C   UNL     1      -5.167  10.953  68.839  1.00  0.00    -0.041 A  
HETATM   33  O   UNL     1      -8.177  10.484  65.397  1.00  0.00    -0.158 OA 
HETATM   34  C   UNL     1      -5.226  10.719  67.464  1.00  0.00    -0.036 A  
HETATM   35  O   UNL     1      -6.046  10.144  64.594  1.00  0.00    -0.112 OA 
HETATM   36  C   UNL     1      -6.820  10.399  65.493  1.00  0.00    -0.125 C  
HETATM   37  C   UNL     1      -6.478  10.622  66.890  1.00  0.00    -0.084 A  
BRANCH  23  38
HETATM   38  C   UNL     1      -9.379  15.461  65.860  1.00  0.00    -0.294 C  
BRANCH  38  39
HETATM   39  N   UNL     1      -8.886  16.419  66.898  1.00  0.00    -0.192 NA 
BRANCH  39  40
HETATM   40  C   UNL     1      -7.518  15.975  67.331  1.00  0.00    -0.178 C  
HETATM   41  O   UNL     1      -6.385  16.389  69.447  1.00  0.00    -0.175 OA 
HETATM   42  C   UNL     1      -7.375  15.991  68.848  1.00  0.00    -0.176 C  
HETATM   43  O   UNL     1      -8.472  15.494  69.474  1.00  0.00    -0.256 OA 
ENDBRANCH  39  40
BRANCH  39  44
HETATM   44  C   UNL     1      -8.724  17.770  66.231  1.00  0.00    -0.176 C  
HETATM   45  C   UNL     1      -9.804  18.769  66.642  1.00  0.00    -0.356 C  
HETATM   46  O   UNL     1     -10.174  19.701  65.944  1.00  0.00    -0.453 OA 
HETATM   47  O   UNL     1     -10.283  18.553  67.896  1.00  0.00    -0.347 OA 
ENDBRANCH  39  44
ENDBRANCH  38  39
ENDBRANCH  23  38
ENDBRANCH  10  11
ENDBRANCH   5  10
ENDBRANCH   4   5
TORSDOF 8
ENDMDL
MODEL      145
REMARK 921   NORMALIZED FREE ENERGY PREDICTED BY IDOCK:   -2.10 KCAL/MOL
REMARK 922        TOTAL FREE ENERGY PREDICTED BY IDOCK:   -5.35 KCAL/MOL
REMARK 923 INTER-LIGAND FREE ENERGY PREDICTED BY IDOCK:   -7.40 KCAL/MOL
REMARK 924 INTRA-LIGAND FREE ENERGY PREDICTED BY IDOCK:    2.05 KCAL/MOL
REMARK 927      BINDING AFFINITY PREDICTED BY RF-SCORE:    0.00 PKD
ROOT
HETATM    1  O   UNL     1     -11.534  15.413  72.081  1.00  0.00    -0.442 OA 
HETATM    2  C   UNL     1     -12.741  15.596  71.499  1.00  0.00    -0.457 C  
HETATM    3  O   UNL     1     -13.787  15.573  72.130  1.00  0.00    -0.478 OA 
HETATM    4  C   UNL     1     -12.650  15.903  70.008  1.00  0.00     0.105 C  
ENDROOT
BRANCH   4   5
HETATM    5  N   UNL     1     -11.492  15.217  69.307  1.00  0.00    -0.290 NA 
BRANCH   5   6
HETATM    6  C   UNL     1     -10.224  15.903  69.765  1.00  0.00    -0.268 C  
HETATM    7  O   UNL     1      -9.384  15.318  67.573  1.00  0.00    -0.201 OA 
HETATM    8  C   UNL     1      -9.042  15.737  68.811  1.00  0.00    -0.213 C  
HETATM    9  O   UNL     1      -7.891  16.018  69.114  1.00  0.00    -0.213 OA 
ENDBRANCH   5   6
BRANCH   5  10
HETATM   10  C   UNL     1     -11.480  13.793  69.834  1.00  0.00    -0.160 C  
BRANCH  10  11
HETATM   11  C   UNL     1     -11.186  12.749  68.767  1.00  0.00    -0.327 A  
HETATM   12  C   UNL     1     -10.297  11.712  69.051  1.00  0.00    -0.119 A  
HETATM   13  C   UNL     1      -9.898  10.779  68.069  1.00  0.00    -0.180 A  
HETATM   14  C   UNL     1     -10.510  10.794  66.819  1.00  0.00    -0.251 A  
HETATM   15  C   UNL     1     -11.442  11.798  66.528  1.00  0.00    -0.325 A  
HETATM   16  O   UNL     1     -10.250   9.857  65.839  1.00  0.00    -0.261 OA 
HETATM   17  C   UNL     1      -9.315   8.869  66.082  1.00  0.00    -0.239 A  
HETATM   18  C   UNL     1     -11.753  12.775  67.489  1.00  0.00    -0.364 A  
HETATM   19  O   UNL     1     -12.617  13.787  67.185  1.00  0.00    -0.389 OA 
HETATM   20  C   UNL     1      -9.153   7.870  65.110  1.00  0.00     0.345 A  
HETATM   21  C   UNL     1      -8.206   6.845  65.290  1.00  0.00    -0.129 A  
HETATM   22  H   UNL     1     -13.002  13.805  66.317  1.00  0.00     0.000 HD 
HETATM   23  C   UNL     1      -7.376   6.820  66.413  1.00  0.00    -0.073 A  
HETATM   24  O   UNL     1      -8.092   5.839  64.370  1.00  0.00    -0.127 OA 
HETATM   25  C   UNL     1      -7.521  10.522  68.770  1.00  0.00    -0.097 A  
HETATM   26  H   UNL     1      -7.452   5.147  64.491  1.00  0.00     0.000 HD 
HETATM   27  C   UNL     1      -7.546   7.836  67.364  1.00  0.00    -0.105 A  
HETATM   28  C   UNL     1      -6.646  11.320  68.047  1.00  0.00    -0.058 A  
HETATM   29  C   UNL     1      -8.534   8.832  67.234  1.00  0.00    -0.111 A  
HETATM   30  C   UNL     1      -8.772   9.817  68.347  1.00  0.00    -0.120 C  
HETATM   31  C   UNL     1      -5.539  11.848  68.714  1.00  0.00    -0.049 A  
HETATM   32  C   UNL     1      -5.330  11.588  70.079  1.00  0.00    -0.084 A  
HETATM   33  O   UNL     1      -9.139   9.072  69.539  1.00  0.00    -0.144 OA 
HETATM   34  C   UNL     1      -6.226  10.795  70.798  1.00  0.00     0.045 A  
HETATM   35  O   UNL     1      -8.550   9.091  71.766  1.00  0.00    -0.353 OA 
HETATM   36  C   UNL     1      -8.365   9.411  70.609  1.00  0.00    -0.175 C  
HETATM   37  C   UNL     1      -7.303  10.271  70.110  1.00  0.00    -0.115 A  
BRANCH  23  38
HETATM   38  C   UNL     1      -6.430   5.688  66.774  1.00  0.00    -0.050 C  
BRANCH  38  39
HETATM   39  N   UNL     1      -6.965   4.566  67.606  1.00  0.00    -0.059 NA 
BRANCH  39  40
HETATM   40  C   UNL     1      -8.249   5.023  68.237  1.00  0.00    -0.089 C  
HETATM   41  O   UNL     1      -8.797   5.210  70.604  1.00  0.00    -0.123 OA 
HETATM   42  C   UNL     1      -8.039   5.471  69.679  1.00  0.00    -0.101 C  
HETATM   43  O   UNL     1      -6.915   6.217  69.827  1.00  0.00    -0.065 OA 
ENDBRANCH  39  40
BRANCH  39  44
HETATM   44  C   UNL     1      -7.312   3.428  66.668  1.00  0.00    -0.075 C  
HETATM   45  C   UNL     1      -8.802   3.095  66.662  1.00  0.00    -0.145 C  
HETATM   46  O   UNL     1      -9.255   1.992  66.392  1.00  0.00    -0.080 OA 
HETATM   47  O   UNL     1      -9.592   4.167  66.937  1.00  0.00    -0.185 OA 
ENDBRANCH  39  44
ENDBRANCH  38  39
ENDBRANCH  23  38
ENDBRANCH  10  11
ENDBRANCH   5  10
ENDBRANCH   4   5
TORSDOF 8
ENDMDL
MODEL      146
REMARK 921   NORMALIZED FREE ENERGY PREDICTED BY IDOCK:   -1.96 KCAL/MOL
REMARK 922        TOTAL FREE ENERGY PREDICTED BY IDOCK:   -5.14 KCAL/MOL
REMARK 923 INTER-LIGAND FREE ENERGY PREDICTED BY IDOCK:   -6.14 KCAL/MOL
REMARK 924 INTRA-LIGAND FREE ENERGY PREDICTED BY IDOCK:    1.00 KCAL/MOL
REMARK 927      BINDING AFFINITY PREDICTED BY RF-SCORE:    0.00 PKD
ROOT
HETATM    1  O   UNL     1     -11.080   5.823  72.095  1.00  0.00    -0.255 OA 
HETATM    2  C   UNL     1     -10.839   6.051  70.783  1.00  0.00    -0.292 C  
HETATM    3  O   UNL     1     -11.729   6.285  69.981  1.00  0.00    -0.408 OA 
HETATM    4  C   UNL     1      -9.354   6.056  70.436  1.00  0.00    -0.160 C  
ENDROOT
BRANCH   4   5
HETATM    5  N   UNL     1      -8.521   5.103  71.274  1.00  0.00    -0.121 NA 
BRANCH   5   6
HETATM    6  C   UNL     1      -7.347   4.670  70.422  1.00  0.00    -0.050 C  
HETATM    7  O   UNL     1      -8.809   2.874  69.722  1.00  0.00    -0.068 OA 
HETATM    8  C   UNL     1      -7.531   3.312  69.746  1.00  0.00    -0.044 C  
HETATM    9  O   UNL     1      -6.617   2.699  69.215  1.00  0.00    -0.032 OA 
ENDBRANCH   5   6
BRANCH   5  10
HETATM   10  C   UNL     1      -7.990   5.931  72.430  1.00  0.00    -0.103 C  
BRANCH  10  11
HETATM   11  C   UNL     1      -7.288   7.208  71.994  1.00  0.00    -0.081 A  
HETATM   12  C   UNL     1      -7.946   8.093  71.139  1.00  0.00    -0.103 A  
HETATM   13  C   UNL     1      -7.307   9.236  70.611  1.00  0.00    -0.129 A  
HETATM   14  C   UNL     1      -6.036   9.582  71.061  1.00  0.00    -0.080 A  
HETATM   15  C   UNL     1      -5.376   8.733  71.958  1.00  0.00    -0.048 A  
HETATM   16  O   UNL     1      -5.384  10.735  70.671  1.00  0.00    -0.074 OA 
HETATM   17  C   UNL     1      -5.994  11.581  69.765  1.00  0.00    -0.116 A  
HETATM   18  C   UNL     1      -5.993   7.549  72.396  1.00  0.00    -0.040 A  
HETATM   19  O   UNL     1      -5.327   6.692  73.224  1.00  0.00    -0.037 OA 
HETATM   20  C   UNL     1      -5.355  12.795  69.473  1.00  0.00    -0.079 A  
HETATM   21  C   UNL     1      -5.916  13.694  68.546  1.00  0.00    -0.092 A  
HETATM   22  H   UNL     1      -4.446   6.924  73.498  1.00  0.00     0.000 HD 
HETATM   23  C   UNL     1      -7.094  13.382  67.865  1.00  0.00    -0.137 A  
HETATM   24  O   UNL     1      -5.322  14.903  68.309  1.00  0.00    -0.098 OA 
HETATM   25  C   UNL     1      -8.328   9.194  68.339  1.00  0.00    -0.120 A  
HETATM   26  H   UNL     1      -5.701  15.509  67.683  1.00  0.00     0.000 HD 
HETATM   27  C   UNL     1      -7.707  12.157  68.162  1.00  0.00    -0.129 A  
HETATM   28  C   UNL     1      -7.525   8.582  67.387  1.00  0.00    -0.093 A  
HETATM   29  C   UNL     1      -7.197  11.275  69.134  1.00  0.00    -0.115 A  
HETATM   30  C   UNL     1      -7.967  10.040  69.520  1.00  0.00    -0.158 C  
HETATM   31  C   UNL     1      -8.151   7.848  66.377  1.00  0.00    -0.108 A  
HETATM   32  C   UNL     1      -9.551   7.726  66.340  1.00  0.00    -0.235 A  
HETATM   33  O   UNL     1      -9.263  10.455  70.027  1.00  0.00     0.002 OA 
HETATM   34  C   UNL     1     -10.346   8.335  67.311  1.00  0.00    -0.372 A  
HETATM   35  O   UNL     1     -11.455   9.817  69.723  1.00  0.00    -0.201 OA 
HETATM   36  C   UNL     1     -10.286   9.810  69.398  1.00  0.00    -0.210 C  
HETATM   37  C   UNL     1      -9.702   9.070  68.288  1.00  0.00    -0.169 A  
BRANCH  23  38
HETATM   38  C   UNL     1      -7.857  14.335  66.961  1.00  0.00     0.079 C  
BRANCH  38  39
HETATM   39  N   UNL     1      -7.799  15.796  67.274  1.00  0.00    -0.175 NA 
BRANCH  39  40
HETATM   40  C   UNL     1      -7.889  16.554  65.981  1.00  0.00     0.115 C  
HETATM   41  O   UNL     1      -8.680  18.827  65.604  1.00  0.00    -0.303 OA 
HETATM   42  C   UNL     1      -7.948  18.059  66.214  1.00  0.00    -0.241 C  
HETATM   43  O   UNL     1      -7.078  18.467  67.172  1.00  0.00    -0.197 OA 
ENDBRANCH  39  40
BRANCH  39  44
HETATM   44  C   UNL     1      -9.036  16.141  68.078  1.00  0.00    -0.185 C  
HETATM   45  C   UNL     1     -10.324  15.636  67.432  1.00  0.00    -0.275 C  
HETATM   46  O   UNL     1     -11.419  16.153  67.597  1.00  0.00    -0.143 OA 
HETATM   47  O   UNL     1     -10.147  14.511  66.690  1.00  0.00    -0.260 OA 
ENDBRANCH  39  44
ENDBRANCH  38  39
ENDBRANCH  23  38
ENDBRANCH  10  11
ENDBRANCH   5  10
ENDBRANCH   4   5
TORSDOF 8
ENDMDL
MODEL      147
REMARK 921   NORMALIZED FREE ENERGY PREDICTED BY IDOCK:   -1.93 KCAL/MOL
REMARK 922        TOTAL FREE ENERGY PREDICTED BY IDOCK:   -5.10 KCAL/MOL
REMARK 923 INTER-LIGAND FREE ENERGY PREDICTED BY IDOCK:   -4.04 KCAL/MOL
REMARK 924 INTRA-LIGAND FREE ENERGY PREDICTED BY IDOCK:   -1.06 KCAL/MOL
REMARK 927      BINDING AFFINITY PREDICTED BY RF-SCORE:    0.00 PKD
ROOT
HETATM    1  O   UNL     1     -10.192  13.080  64.278  1.00  0.00    -0.389 OA 
HETATM    2  C   UNL     1     -11.085  12.412  65.043  1.00  0.00    -0.304 C  
HETATM    3  O   UNL     1     -12.075  11.867  64.577  1.00  0.00    -0.274 OA 
HETATM    4  C   UNL     1     -10.691  12.350  66.515  1.00  0.00    -0.236 C  
ENDROOT
BRANCH   4   5
HETATM    5  N   UNL     1      -9.941  13.576  67.004  1.00  0.00    -0.243 NA 
BRANCH   5   6
HETATM    6  C   UNL     1     -10.168  13.671  68.498  1.00  0.00    -0.234 C  
HETATM    7  O   UNL     1     -10.032  16.059  68.138  1.00  0.00    -0.223 OA 
HETATM    8  C   UNL     1     -10.006  15.079  69.067  1.00  0.00    -0.246 C  
HETATM    9  O   UNL     1      -9.924  15.312  70.265  1.00  0.00    -0.170 OA 
ENDBRANCH   5   6
BRANCH   5  10
HETATM   10  C   UNL     1      -8.471  13.279  66.764  1.00  0.00     0.028 C  
BRANCH  10  11
HETATM   11  C   UNL     1      -7.771  12.655  67.962  1.00  0.00    -0.139 A  
HETATM   12  C   UNL     1      -8.107  11.358  68.351  1.00  0.00    -0.145 A  
HETATM   13  C   UNL     1      -7.575  10.767  69.518  1.00  0.00    -0.094 A  
HETATM   14  C   UNL     1      -6.578  11.427  70.229  1.00  0.00     0.176 A  
HETATM   15  C   UNL     1      -6.190  12.711  69.827  1.00  0.00    -0.111 A  
HETATM   16  O   UNL     1      -5.936  10.876  71.321  1.00  0.00    -0.351 OA 
HETATM   17  C   UNL     1      -6.314   9.622  71.762  1.00  0.00     0.267 A  
HETATM   18  C   UNL     1      -6.802  13.320  68.719  1.00  0.00    -0.102 A  
HETATM   19  O   UNL     1      -6.466  14.595  68.362  1.00  0.00    -0.090 OA 
HETATM   20  C   UNL     1      -5.571   9.045  72.803  1.00  0.00    -0.078 A  
HETATM   21  C   UNL     1      -5.914   7.778  73.309  1.00  0.00    -0.061 A  
HETATM   22  H   UNL     1      -5.807  15.047  68.877  1.00  0.00     0.000 HD 
HETATM   23  C   UNL     1      -7.024   7.084  72.821  1.00  0.00    -0.069 A  
HETATM   24  O   UNL     1      -5.152   7.192  74.283  1.00  0.00    -0.042 OA 
HETATM   25  C   UNL     1      -9.609   9.523  70.242  1.00  0.00    -0.314 A  
HETATM   26  H   UNL     1      -5.384   6.337  74.625  1.00  0.00     0.000 HD 
HETATM   27  C   UNL     1      -7.760   7.687  71.791  1.00  0.00    -0.089 A  
HETATM   28  C   UNL     1     -10.356  10.200  71.196  1.00  0.00     0.657 A  
HETATM   29  C   UNL     1      -7.393   8.923  71.226  1.00  0.00    -0.115 A  
HETATM   30  C   UNL     1      -8.129   9.461  70.029  1.00  0.00    -0.152 C  
HETATM   31  C   UNL     1     -11.746  10.065  71.156  1.00  0.00    -0.472 A  
HETATM   32  C   UNL     1     -12.363   9.278  70.169  1.00  0.00     0.461 A  
HETATM   33  O   UNL     1      -8.001   8.498  68.949  1.00  0.00    -0.113 OA 
HETATM   34  C   UNL     1     -11.601   8.614  69.207  1.00  0.00     0.763 A  
HETATM   35  O   UNL     1      -9.407   7.523  67.407  1.00  0.00    -0.136 OA 
HETATM   36  C   UNL     1      -9.212   8.160  68.422  1.00  0.00    -0.135 C  
HETATM   37  C   UNL     1     -10.228   8.750  69.280  1.00  0.00    -0.215 A  
BRANCH  23  38
HETATM   38  C   UNL     1      -7.393   5.659  73.191  1.00  0.00    -0.095 C  
BRANCH  38  39
HETATM   39  N   UNL     1      -8.072   4.819  72.156  1.00  0.00    -0.105 NA 
BRANCH  39  40
HETATM   40  C   UNL     1      -7.012   4.156  71.324  1.00  0.00    -0.035 C  
HETATM   41  O   UNL     1      -7.273   2.887  69.261  1.00  0.00    -0.044 OA 
HETATM   42  C   UNL     1      -7.489   3.910  69.897  1.00  0.00    -0.048 C  
HETATM   43  O   UNL     1      -8.174   4.968  69.394  1.00  0.00    -0.081 OA 
ENDBRANCH  39  40
BRANCH  39  44
HETATM   44  C   UNL     1      -8.822   3.720  72.880  1.00  0.00    -0.094 C  
HETATM   45  C   UNL     1     -10.284   4.073  73.147  1.00  0.00    -0.155 C  
HETATM   46  O   UNL     1     -10.940   3.614  74.071  1.00  0.00    -0.208 OA 
HETATM   47  O   UNL     1     -10.809   4.914  72.218  1.00  0.00    -0.188 OA 
ENDBRANCH  39  44
ENDBRANCH  38  39
ENDBRANCH  23  38
ENDBRANCH  10  11
ENDBRANCH   5  10
ENDBRANCH   4   5
TORSDOF 8
ENDMDL
MODEL      148
REMARK 921   NORMALIZED FREE ENERGY PREDICTED BY IDOCK:   -1.84 KCAL/MOL
REMARK 922        TOTAL FREE ENERGY PREDICTED BY IDOCK:   -4.97 KCAL/MOL
REMARK 923 INTER-LIGAND FREE ENERGY PREDICTED BY IDOCK:   -6.09 KCAL/MOL
REMARK 924 INTRA-LIGAND FREE ENERGY PREDICTED BY IDOCK:    1.11 KCAL/MOL
REMARK 927      BINDING AFFINITY PREDICTED BY RF-SCORE:    0.00 PKD
ROOT
HETATM    1  O   UNL     1      -7.788   1.467  70.825  1.00  0.00    -0.035 OA 
HETATM    2  C   UNL     1      -7.229   2.111  71.874  1.00  0.00    -0.038 C  
HETATM    3  O   UNL     1      -7.187   1.630  72.997  1.00  0.00    -0.026 OA 
HETATM    4  C   UNL     1      -6.601   3.448  71.496  1.00  0.00    -0.022 C  
ENDROOT
BRANCH   4   5
HETATM    5  N   UNL     1      -7.322   4.173  70.374  1.00  0.00    -0.044 NA 
BRANCH   5   6
HETATM    6  C   UNL     1      -8.169   5.253  71.014  1.00  0.00    -0.116 C  
HETATM    7  O   UNL     1      -6.135   5.839  72.184  1.00  0.00    -0.037 OA 
HETATM    8  C   UNL     1      -7.475   6.001  72.151  1.00  0.00    -0.095 C  
HETATM    9  O   UNL     1      -8.067   6.737  72.927  1.00  0.00    -0.105 OA 
ENDBRANCH   5   6
BRANCH   5  10
HETATM   10  C   UNL     1      -6.235   4.844  69.554  1.00  0.00    -0.026 C  
BRANCH  10  11
HETATM   11  C   UNL     1      -6.760   5.583  68.333  1.00  0.00    -0.054 A  
HETATM   12  C   UNL     1      -7.212   6.896  68.469  1.00  0.00    -0.084 A  
HETATM   13  C   UNL     1      -7.813   7.594  67.399  1.00  0.00    -0.118 A  
HETATM   14  C   UNL     1      -7.830   7.024  66.130  1.00  0.00    -0.102 A  
HETATM   15  C   UNL     1      -7.336   5.725  65.960  1.00  0.00    -0.077 A  
HETATM   16  O   UNL     1      -8.306   7.680  65.012  1.00  0.00    -0.135 OA 
HETATM   17  C   UNL     1      -8.828   8.952  65.149  1.00  0.00    -0.166 A  
HETATM   18  C   UNL     1      -6.830   5.011  67.059  1.00  0.00    -0.060 A  
HETATM   19  O   UNL     1      -6.403   3.723  66.905  1.00  0.00    -0.034 OA 
HETATM   20  C   UNL     1      -9.203   9.633  63.980  1.00  0.00    -0.202 A  
HETATM   21  C   UNL     1      -9.755  10.925  64.052  1.00  0.00    -0.301 A  
HETATM   22  H   UNL     1      -6.450   3.334  66.039  1.00  0.00     0.000 HD 
HETATM   23  C   UNL     1      -9.984  11.543  65.284  1.00  0.00    -0.302 A  
HETATM   24  O   UNL     1     -10.065  11.610  62.909  1.00  0.00    -0.612 OA 
HETATM   25  C   UNL     1      -9.539   8.827  68.706  1.00  0.00    -0.160 A  
HETATM   26  H   UNL     1     -10.438  12.482  62.958  1.00  0.00     0.000 HD 
HETATM   27  C   UNL     1      -9.614  10.838  66.438  1.00  0.00    -0.226 A  
HETATM   28  C   UNL     1     -10.779   8.206  68.702  1.00  0.00    -0.065 A  
HETATM   29  C   UNL     1      -8.999   9.572  66.383  1.00  0.00    -0.182 A  
HETATM   30  C   UNL     1      -8.491   8.919  67.641  1.00  0.00    -0.121 C  
HETATM   31  C   UNL     1     -11.559   8.294  69.857  1.00  0.00     0.291 A  
HETATM   32  C   UNL     1     -11.090   8.980  70.990  1.00  0.00    -0.356 A  
HETATM   33  O   UNL     1      -7.500   9.796  68.239  1.00  0.00    -0.079 OA 
HETATM   34  C   UNL     1      -9.835   9.589  70.986  1.00  0.00    -0.236 A  
HETATM   35  O   UNL     1      -7.040  10.602  70.347  1.00  0.00    -0.249 OA 
HETATM   36  C   UNL     1      -7.773  10.054  69.550  1.00  0.00    -0.146 C  
HETATM   37  C   UNL     1      -9.092   9.503  69.825  1.00  0.00    -0.219 A  
BRANCH  23  38
HETATM   38  C   UNL     1     -10.434  12.981  65.468  1.00  0.00    -0.285 C  
BRANCH  38  39
HETATM   39  N   UNL     1      -9.737  13.808  66.501  1.00  0.00    -0.286 NA 
BRANCH  39  40
HETATM   40  C   UNL     1      -8.346  13.267  66.671  1.00  0.00     0.236 C  
HETATM   41  O   UNL     1      -6.836  13.525  68.565  1.00  0.00    -0.083 OA 
HETATM   42  C   UNL     1      -7.940  13.211  68.139  1.00  0.00    -0.154 C  
HETATM   43  O   UNL     1      -8.940  12.753  68.933  1.00  0.00     0.118 OA 
ENDBRANCH  39  40
BRANCH  39  44
HETATM   44  C   UNL     1      -9.603  15.212  65.948  1.00  0.00    -0.338 C  
HETATM   45  C   UNL     1     -10.312  16.258  66.806  1.00  0.00    -0.296 C  
HETATM   46  O   UNL     1     -10.748  17.315  66.373  1.00  0.00    -0.216 OA 
HETATM   47  O   UNL     1     -10.366  15.925  68.122  1.00  0.00    -0.244 OA 
ENDBRANCH  39  44
ENDBRANCH  38  39
ENDBRANCH  23  38
ENDBRANCH  10  11
ENDBRANCH   5  10
ENDBRANCH   4   5
TORSDOF 8
ENDMDL
MODEL      149
REMARK 921   NORMALIZED FREE ENERGY PREDICTED BY IDOCK:   -1.84 KCAL/MOL
REMARK 922        TOTAL FREE ENERGY PREDICTED BY IDOCK:   -4.97 KCAL/MOL
REMARK 923 INTER-LIGAND FREE ENERGY PREDICTED BY IDOCK:   -6.77 KCAL/MOL
REMARK 924 INTRA-LIGAND FREE ENERGY PREDICTED BY IDOCK:    1.80 KCAL/MOL
REMARK 927      BINDING AFFINITY PREDICTED BY RF-SCORE:    0.00 PKD
ROOT
HETATM    1  O   UNL     1     -10.018  17.055  68.807  1.00  0.00    -0.264 OA 
HETATM    2  C   UNL     1      -9.825  15.745  69.082  1.00  0.00    -0.247 C  
HETATM    3  O   UNL     1      -9.946  15.284  70.207  1.00  0.00    -0.170 OA 
HETATM    4  C   UNL     1      -9.519  14.908  67.846  1.00  0.00    -0.200 C  
ENDROOT
BRANCH   4   5
HETATM    5  N   UNL     1      -8.735  15.649  66.778  1.00  0.00    -0.247 NA 
BRANCH   5   6
HETATM    6  C   UNL     1      -9.221  17.083  66.784  1.00  0.00    -0.252 C  
HETATM    7  O   UNL     1     -10.689  16.353  65.004  1.00  0.00    -0.638 OA 
HETATM    8  C   UNL     1     -10.164  17.428  65.632  1.00  0.00    -0.101 C  
HETATM    9  O   UNL     1     -10.473  18.575  65.341  1.00  0.00    -0.538 OA 
ENDBRANCH   5   6
BRANCH   5  10
HETATM   10  C   UNL     1      -7.290  15.635  67.246  1.00  0.00    -0.220 C  
BRANCH  10  11
HETATM   11  C   UNL     1      -6.927  14.407  68.067  1.00  0.00    -0.149 A  
HETATM   12  C   UNL     1      -7.081  13.139  67.507  1.00  0.00    -0.156 A  
HETATM   13  C   UNL     1      -6.867  11.960  68.255  1.00  0.00    -0.066 A  
HETATM   14  C   UNL     1      -6.349  12.049  69.543  1.00  0.00    -0.123 A  
HETATM   15  C   UNL     1      -6.141  13.313  70.109  1.00  0.00    -0.107 A  
HETATM   16  O   UNL     1      -6.019  10.945  70.304  1.00  0.00    -0.100 OA 
HETATM   17  C   UNL     1      -6.238   9.682  69.788  1.00  0.00    -0.045 A  
HETATM   18  C   UNL     1      -6.451  14.474  69.380  1.00  0.00    -0.132 A  
HETATM   19  O   UNL     1      -6.304  15.705  69.952  1.00  0.00    -0.165 OA 
HETATM   20  C   UNL     1      -5.792   8.584  70.539  1.00  0.00    -0.027 A  
HETATM   21  C   UNL     1      -5.999   7.270  70.077  1.00  0.00    -0.024 A  
HETATM   22  H   UNL     1      -5.981  15.750  70.845  1.00  0.00     0.000 HD 
HETATM   23  C   UNL     1      -6.689   7.026  68.887  1.00  0.00    -0.060 A  
HETATM   24  O   UNL     1      -5.510   6.205  70.781  1.00  0.00    -0.017 OA 
HETATM   25  C   UNL     1      -8.697  10.583  67.274  1.00  0.00    -0.126 A  
HETATM   26  H   UNL     1      -5.650   5.318  70.469  1.00  0.00     0.000 HD 
HETATM   27  C   UNL     1      -7.138   8.138  68.161  1.00  0.00    -0.082 A  
HETATM   28  C   UNL     1      -9.857  10.589  68.035  1.00  0.00    -0.166 A  
HETATM   29  C   UNL     1      -6.882   9.461  68.573  1.00  0.00    -0.062 A  
HETATM   30  C   UNL     1      -7.260  10.619  67.689  1.00  0.00    -0.089 C  
HETATM   31  C   UNL     1     -11.081  10.540  67.364  1.00  0.00    -0.322 A  
HETATM   32  C   UNL     1     -11.129  10.501  65.960  1.00  0.00     0.241 A  
HETATM   33  O   UNL     1      -6.557  10.473  66.427  1.00  0.00    -0.090 OA 
HETATM   34  C   UNL     1      -9.955  10.510  65.206  1.00  0.00    -0.364 A  
HETATM   35  O   UNL     1      -7.091  10.628  64.192  1.00  0.00     0.062 OA 
HETATM   36  C   UNL     1      -7.404  10.541  65.361  1.00  0.00    -0.084 C  
HETATM   37  C   UNL     1      -8.758  10.540  65.895  1.00  0.00    -0.178 A  
BRANCH  23  38
HETATM   38  C   UNL     1      -6.838   5.666  68.229  1.00  0.00    -0.063 C  
BRANCH  38  39
HETATM   39  N   UNL     1      -7.987   5.462  67.293  1.00  0.00    -0.101 NA 
BRANCH  39  40
HETATM   40  C   UNL     1      -9.220   6.028  67.936  1.00  0.00    -0.111 C  
HETATM   41  O   UNL     1     -11.270   6.801  66.873  1.00  0.00    -0.375 OA 
HETATM   42  C   UNL     1     -10.433   5.921  67.020  1.00  0.00    -0.278 C  
HETATM   43  O   UNL     1     -10.495   4.723  66.386  1.00  0.00    -0.282 OA 
ENDBRANCH  39  40
BRANCH  39  44
HETATM   44  C   UNL     1      -7.715   6.287  66.051  1.00  0.00    -0.092 C  
HETATM   45  C   UNL     1      -7.136   5.461  64.904  1.00  0.00    -0.058 C  
HETATM   46  O   UNL     1      -6.423   5.920  64.024  1.00  0.00    -0.031 OA 
HETATM   47  O   UNL     1      -7.537   4.163  64.923  1.00  0.00    -0.075 OA 
ENDBRANCH  39  44
ENDBRANCH  38  39
ENDBRANCH  23  38
ENDBRANCH  10  11
ENDBRANCH   5  10
ENDBRANCH   4   5
TORSDOF 8
ENDMDL
MODEL      150
REMARK 921   NORMALIZED FREE ENERGY PREDICTED BY IDOCK:   -1.76 KCAL/MOL
REMARK 922        TOTAL FREE ENERGY PREDICTED BY IDOCK:   -4.86 KCAL/MOL
REMARK 923 INTER-LIGAND FREE ENERGY PREDICTED BY IDOCK:   -6.07 KCAL/MOL
REMARK 924 INTRA-LIGAND FREE ENERGY PREDICTED BY IDOCK:    1.21 KCAL/MOL
REMARK 927      BINDING AFFINITY PREDICTED BY RF-SCORE:    0.00 PKD
ROOT
HETATM    1  O   UNL     1     -11.161   6.874  68.609  1.00  0.00    -0.129 OA 
HETATM    2  C   UNL     1     -11.077   6.921  69.958  1.00  0.00    -0.299 C  
HETATM    3  O   UNL     1     -11.280   5.946  70.665  1.00  0.00    -0.294 OA 
HETATM    4  C   UNL     1     -10.638   8.282  70.487  1.00  0.00    -0.219 C  
ENDROOT
BRANCH   4   5
HETATM    5  N   UNL     1     -11.118   9.453  69.649  1.00  0.00    -0.190 NA 
BRANCH   5   6
HETATM    6  C   UNL     1     -11.449  10.579  70.606  1.00  0.00    -0.327 C  
HETATM    7  O   UNL     1     -13.626   9.532  70.727  1.00  0.00    -0.141 OA 
HETATM    8  C   UNL     1     -12.923  10.653  70.999  1.00  0.00    -0.363 C  
HETATM    9  O   UNL     1     -13.417  11.615  71.569  1.00  0.00    -0.142 OA 
ENDBRANCH   5   6
BRANCH   5  10
HETATM   10  C   UNL     1      -9.923   9.875  68.813  1.00  0.00    -0.173 C  
BRANCH  10  11
HETATM   11  C   UNL     1     -10.210  11.045  67.884  1.00  0.00    -0.207 A  
HETATM   12  C   UNL     1      -9.925  12.343  68.310  1.00  0.00    -0.224 A  
HETATM   13  C   UNL     1     -10.272  13.475  67.541  1.00  0.00    -0.234 A  
HETATM   14  C   UNL     1     -10.779  13.304  66.257  1.00  0.00    -0.286 A  
HETATM   15  C   UNL     1     -11.027  12.007  65.790  1.00  0.00    -0.351 A  
HETATM   16  O   UNL     1     -11.049  14.355  65.404  1.00  0.00    -0.305 OA 
HETATM   17  C   UNL     1     -10.843  15.649  65.843  1.00  0.00    -0.293 A  
HETATM   18  C   UNL     1     -10.765  10.897  66.610  1.00  0.00    -0.230 A  
HETATM   19  O   UNL     1     -11.062   9.637  66.177  1.00  0.00     0.456 OA 
HETATM   20  C   UNL     1     -11.023  16.689  64.918  1.00  0.00    -0.162 A  
HETATM   21  C   UNL     1     -10.845  18.030  65.306  1.00  0.00     0.404 A  
HETATM   22  H   UNL     1     -11.439   9.536  65.310  1.00  0.00     0.000 HD 
HETATM   23  C   UNL     1     -10.529  18.361  66.626  1.00  0.00    -0.415 A  
HETATM   24  O   UNL     1     -10.961  19.037  64.388  1.00  0.00     0.752 OA 
HETATM   25  C   UNL     1     -10.918  14.989  69.412  1.00  0.00    -0.275 A  
HETATM   26  H   UNL     1     -10.841  19.943  64.650  1.00  0.00     0.000 HD 
HETATM   27  C   UNL     1     -10.369  17.307  67.535  1.00  0.00    -0.346 A  
HETATM   28  C   UNL     1     -12.284  15.012  69.652  1.00  0.00    -0.293 A  
HETATM   29  C   UNL     1     -10.477  15.956  67.151  1.00  0.00    -0.313 A  
HETATM   30  C   UNL     1     -10.157  14.859  68.130  1.00  0.00    -0.222 C  
HETATM   31  C   UNL     1     -12.714  15.155  70.973  1.00  0.00    -0.458 A  
HETATM   32  C   UNL     1     -11.786  15.257  72.023  1.00  0.00    -0.529 A  
HETATM   33  O   UNL     1      -8.778  15.021  68.557  1.00  0.00    -0.161 OA 
HETATM   34  C   UNL     1     -10.414  15.218  71.770  1.00  0.00     1.004 A  
HETATM   35  O   UNL     1      -7.636  14.990  70.556  1.00  0.00     0.412 OA 
HETATM   36  C   UNL     1      -8.665  15.044  69.915  1.00  0.00     0.276 C  
HETATM   37  C   UNL     1     -10.017  15.094  70.452  1.00  0.00     0.255 A  
BRANCH  23  38
HETATM   38  C   UNL     1     -10.173  19.754  67.114  1.00  0.00    -0.444 C  
BRANCH  38  39
HETATM   39  N   UNL     1      -8.871  19.936  67.827  1.00  0.00    -0.323 NA 
BRANCH  39  40
HETATM   40  C   UNL     1      -8.059  18.686  67.642  1.00  0.00    -0.247 C  
HETATM   41  O   UNL     1      -5.749  18.264  68.291  1.00  0.00    -0.170 OA 
HETATM   42  C   UNL     1      -6.873  18.638  68.599  1.00  0.00    -0.275 C  
HETATM   43  O   UNL     1      -7.205  19.045  69.850  1.00  0.00     0.101 OA 
ENDBRANCH  39  40
BRANCH  39  44
HETATM   44  C   UNL     1      -8.124  21.058  67.134  1.00  0.00     0.056 C  
HETATM   45  C   UNL     1      -7.250  20.567  65.982  1.00  0.00    -0.129 C  
HETATM   46  O   UNL     1      -6.243  21.143  65.595  1.00  0.00    -0.244 OA 
HETATM   47  O   UNL     1      -7.731  19.445  65.384  1.00  0.00    -0.370 OA 
ENDBRANCH  39  44
ENDBRANCH  38  39
ENDBRANCH  23  38
ENDBRANCH  10  11
ENDBRANCH   5  10
ENDBRANCH   4   5
TORSDOF 8
ENDMDL
MODEL      151
REMARK 921   NORMALIZED FREE ENERGY PREDICTED BY IDOCK:   -1.71 KCAL/MOL
REMARK 922        TOTAL FREE ENERGY PREDICTED BY IDOCK:   -4.78 KCAL/MOL
REMARK 923 INTER-LIGAND FREE ENERGY PREDICTED BY IDOCK:   -5.64 KCAL/MOL
REMARK 924 INTRA-LIGAND FREE ENERGY PREDICTED BY IDOCK:    0.85 KCAL/MOL
REMARK 927      BINDING AFFINITY PREDICTED BY RF-SCORE:    0.00 PKD
ROOT
HETATM    1  O   UNL     1      -7.322  18.656  67.331  1.00  0.00    -0.216 OA 
HETATM    2  C   UNL     1      -7.092  18.591  68.663  1.00  0.00    -0.280 C  
HETATM    3  O   UNL     1      -6.326  19.351  69.237  1.00  0.00    -0.274 OA 
HETATM    4  C   UNL     1      -7.933  17.534  69.369  1.00  0.00     0.324 C  
ENDROOT
BRANCH   4   5
HETATM    5  N   UNL     1      -8.221  16.308  68.521  1.00  0.00    -0.185 NA 
BRANCH   5   6
HETATM    6  C   UNL     1      -8.838  16.795  67.228  1.00  0.00    -0.204 C  
HETATM    7  O   UNL     1     -10.677  15.339  67.821  1.00  0.00    -0.271 OA 
HETATM    8  C   UNL     1     -10.112  16.054  66.824  1.00  0.00    -0.268 C  
HETATM    9  O   UNL     1     -10.618  16.146  65.714  1.00  0.00    -0.340 OA 
ENDBRANCH   5   6
BRANCH   5  10
HETATM   10  C   UNL     1      -6.865  15.703  68.203  1.00  0.00    -0.122 C  
BRANCH  10  11
HETATM   11  C   UNL     1      -6.584  14.408  68.949  1.00  0.00    -0.094 A  
HETATM   12  C   UNL     1      -6.904  13.189  68.350  1.00  0.00    -0.098 A  
HETATM   13  C   UNL     1      -6.772  11.961  69.034  1.00  0.00    -0.099 A  
HETATM   14  C   UNL     1      -6.170  11.936  70.289  1.00  0.00    -0.026 A  
HETATM   15  C   UNL     1      -5.795  13.145  70.889  1.00  0.00    -0.070 A  
HETATM   16  O   UNL     1      -5.912  10.770  70.981  1.00  0.00    -0.324 OA 
HETATM   17  C   UNL     1      -6.294   9.561  70.430  1.00  0.00    -0.073 A  
HETATM   18  C   UNL     1      -6.025  14.364  70.230  1.00  0.00    -0.160 A  
HETATM   19  O   UNL     1      -5.714  15.545  70.840  1.00  0.00    -0.067 OA 
HETATM   20  C   UNL     1      -5.921   8.390  71.106  1.00  0.00    -0.035 A  
HETATM   21  C   UNL     1      -6.294   7.127  70.607  1.00  0.00    -0.039 A  
HETATM   22  H   UNL     1      -5.334  15.516  71.710  1.00  0.00     0.000 HD 
HETATM   23  C   UNL     1      -7.077   7.011  69.456  1.00  0.00    -0.071 A  
HETATM   24  O   UNL     1      -5.878   5.985  71.234  1.00  0.00    -0.024 OA 
HETATM   25  C   UNL     1      -8.793  10.827  68.121  1.00  0.00    -0.133 A  
HETATM   26  H   UNL     1      -6.130   5.133  70.897  1.00  0.00     0.000 HD 
HETATM   27  C   UNL     1      -7.450   8.196  68.806  1.00  0.00    -0.090 A  
HETATM   28  C   UNL     1      -9.897  10.916  68.956  1.00  0.00    -0.196 A  
HETATM   29  C   UNL     1      -7.031   9.464  69.253  1.00  0.00    -0.053 A  
HETATM   30  C   UNL     1      -7.337  10.695  68.443  1.00  0.00    -0.091 C  
HETATM   31  C   UNL     1     -11.158  11.025  68.365  1.00  0.00    -0.308 A  
HETATM   32  C   UNL     1     -11.295  11.056  66.967  1.00  0.00    -0.164 A  
HETATM   33  O   UNL     1      -6.732  10.537  67.132  1.00  0.00    -0.074 OA 
HETATM   34  C   UNL     1     -10.175  10.980  66.138  1.00  0.00    -0.298 A  
HETATM   35  O   UNL     1      -7.382  10.850  64.945  1.00  0.00     0.156 OA 
HETATM   36  C   UNL     1      -7.631  10.741  66.128  1.00  0.00    -0.139 C  
HETATM   37  C   UNL     1      -8.942  10.854  66.749  1.00  0.00    -0.158 A  
BRANCH  23  38
HETATM   38  C   UNL     1      -7.409   5.706  68.755  1.00  0.00    -0.083 C  
BRANCH  38  39
HETATM   39  N   UNL     1      -8.806   5.186  68.865  1.00  0.00    -0.092 NA 
BRANCH  39  40
HETATM   40  C   UNL     1      -9.035   4.218  67.740  1.00  0.00    -0.118 C  
HETATM   41  O   UNL     1      -7.388   3.123  66.318  1.00  0.00    -0.069 OA 
HETATM   42  C   UNL     1      -7.788   3.395  67.443  1.00  0.00    -0.078 C  
HETATM   43  O   UNL     1      -7.167   2.974  68.574  1.00  0.00    -0.049 OA 
ENDBRANCH  39  40
BRANCH  39  44
HETATM   44  C   UNL     1      -8.899   4.396  70.155  1.00  0.00    -0.080 C  
HETATM   45  C   UNL     1      -9.543   5.188  71.292  1.00  0.00    -0.162 C  
HETATM   46  O   UNL     1      -9.318   4.988  72.476  1.00  0.00    -0.131 OA 
HETATM   47  O   UNL     1     -10.441   6.112  70.859  1.00  0.00    -0.210 OA 
ENDBRANCH  39  44
ENDBRANCH  38  39
ENDBRANCH  23  38
ENDBRANCH  10  11
ENDBRANCH   5  10
ENDBRANCH   4   5
TORSDOF 8
ENDMDL
MODEL      152
REMARK 921   NORMALIZED FREE ENERGY PREDICTED BY IDOCK:   -1.58 KCAL/MOL
REMARK 922        TOTAL FREE ENERGY PREDICTED BY IDOCK:   -4.58 KCAL/MOL
REMARK 923 INTER-LIGAND FREE ENERGY PREDICTED BY IDOCK:   -6.20 KCAL/MOL
REMARK 924 INTRA-LIGAND FREE ENERGY PREDICTED BY IDOCK:    1.61 KCAL/MOL
REMARK 927      BINDING AFFINITY PREDICTED BY RF-SCORE:    0.00 PKD
ROOT
HETATM    1  O   UNL     1      -9.223   3.094  68.246  1.00  0.00    -0.157 OA 
HETATM    2  C   UNL     1      -8.608   4.297  68.172  1.00  0.00    -0.095 C  
HETATM    3  O   UNL     1      -8.243   4.786  67.113  1.00  0.00    -0.106 OA 
HETATM    4  C   UNL     1      -8.488   4.997  69.521  1.00  0.00    -0.088 C  
ENDROOT
BRANCH   4   5
HETATM    5  N   UNL     1      -8.308   4.049  70.693  1.00  0.00    -0.069 NA 
BRANCH   5   6
HETATM    6  C   UNL     1      -6.973   3.359  70.506  1.00  0.00    -0.034 C  
HETATM    7  O   UNL     1      -7.798   1.810  72.172  1.00  0.00    -0.043 OA 
HETATM    8  C   UNL     1      -6.701   2.241  71.512  1.00  0.00    -0.023 C  
HETATM    9  O   UNL     1      -5.601   1.731  71.664  1.00  0.00    -0.007 OA 
ENDBRANCH   5   6
BRANCH   5  10
HETATM   10  C   UNL     1      -8.218   4.933  71.924  1.00  0.00    -0.115 C  
BRANCH  10  11
HETATM   11  C   UNL     1      -7.522   6.262  71.672  1.00  0.00    -0.094 A  
HETATM   12  C   UNL     1      -8.215   7.284  71.023  1.00  0.00    -0.107 A  
HETATM   13  C   UNL     1      -7.591   8.498  70.662  1.00  0.00    -0.076 A  
HETATM   14  C   UNL     1      -6.291   8.755  71.086  1.00  0.00    -0.054 A  
HETATM   15  C   UNL     1      -5.593   7.761  71.783  1.00  0.00    -0.035 A  
HETATM   16  O   UNL     1      -5.644   9.954  70.861  1.00  0.00    -0.064 OA 
HETATM   17  C   UNL     1      -6.294  10.947  70.152  1.00  0.00    -0.149 A  
HETATM   18  C   UNL     1      -6.201   6.523  72.048  1.00  0.00    -0.042 A  
HETATM   19  O   UNL     1      -5.501   5.532  72.675  1.00  0.00    -0.017 OA 
HETATM   20  C   UNL     1      -5.654  12.190  70.035  1.00  0.00    -0.124 A  
HETATM   21  C   UNL     1      -6.254  13.237  69.312  1.00  0.00    -0.104 A  
HETATM   22  H   UNL     1      -4.602   5.709  72.930  1.00  0.00     0.000 HD 
HETATM   23  C   UNL     1      -7.475  13.054  68.659  1.00  0.00    -0.093 A  
HETATM   24  O   UNL     1      -5.657  14.466  69.249  1.00  0.00    -0.088 OA 
HETATM   25  C   UNL     1      -8.744   8.853  68.482  1.00  0.00    -0.134 A  
HETATM   26  H   UNL     1      -6.062  15.174  68.761  1.00  0.00     0.000 HD 
HETATM   27  C   UNL     1      -8.089  11.799  68.778  1.00  0.00    -0.047 A  
HETATM   28  C   UNL     1      -8.008   8.410  67.393  1.00  0.00    -0.106 A  
HETATM   29  C   UNL     1      -7.536  10.760  69.552  1.00  0.00    -0.094 A  
HETATM   30  C   UNL     1      -8.301   9.482  69.766  1.00  0.00    -0.164 C  
HETATM   31  C   UNL     1      -8.703   7.864  66.311  1.00  0.00    -0.174 A  
HETATM   32  C   UNL     1     -10.104   7.757  66.338  1.00  0.00    -0.124 A  
HETATM   33  O   UNL     1      -9.559   9.809  70.414  1.00  0.00    -0.252 OA 
HETATM   34  C   UNL     1     -10.832   8.194  67.446  1.00  0.00    -0.125 A  
HETATM   35  O   UNL     1     -11.775   9.244  70.139  1.00  0.00    -0.136 OA 
HETATM   36  C   UNL     1     -10.627   9.288  69.746  1.00  0.00    -0.231 C  
HETATM   37  C   UNL     1     -10.121   8.746  68.494  1.00  0.00    -0.210 A  
BRANCH  23  38
HETATM   38  C   UNL     1      -8.276  14.152  67.980  1.00  0.00    -0.152 C  
BRANCH  38  39
HETATM   39  N   UNL     1      -9.745  14.219  68.252  1.00  0.00    -0.215 NA 
BRANCH  39  40
HETATM   40  C   UNL     1     -10.197  15.633  68.031  1.00  0.00    -0.227 C  
HETATM   41  O   UNL     1      -8.905  17.689  68.228  1.00  0.00    -0.260 OA 
HETATM   42  C   UNL     1      -9.021  16.564  67.760  1.00  0.00    -0.202 C  
HETATM   43  O   UNL     1      -8.109  16.012  66.921  1.00  0.00    -0.197 OA 
ENDBRANCH  39  40
BRANCH  39  44
HETATM   44  C   UNL     1     -10.440  13.363  67.212  1.00  0.00    -0.248 C  
HETATM   45  C   UNL     1     -11.293  12.256  67.828  1.00  0.00    -0.301 C  
HETATM   46  O   UNL     1     -11.552  11.201  67.267  1.00  0.00    -0.514 OA 
HETATM   47  O   UNL     1     -11.789  12.579  69.051  1.00  0.00    -0.299 OA 
ENDBRANCH  39  44
ENDBRANCH  38  39
ENDBRANCH  23  38
ENDBRANCH  10  11
ENDBRANCH   5  10
ENDBRANCH   4   5
TORSDOF 8
ENDMDL
MODEL      153
REMARK 921   NORMALIZED FREE ENERGY PREDICTED BY IDOCK:   -1.44 KCAL/MOL
REMARK 922        TOTAL FREE ENERGY PREDICTED BY IDOCK:   -4.38 KCAL/MOL
REMARK 923 INTER-LIGAND FREE ENERGY PREDICTED BY IDOCK:   -5.73 KCAL/MOL
REMARK 924 INTRA-LIGAND FREE ENERGY PREDICTED BY IDOCK:    1.35 KCAL/MOL
REMARK 927      BINDING AFFINITY PREDICTED BY RF-SCORE:    0.00 PKD
ROOT
HETATM    1  O   UNL     1      -9.681  16.970  67.279  1.00  0.00    -0.244 OA 
HETATM    2  C   UNL     1      -9.568  15.792  67.933  1.00  0.00    -0.214 C  
HETATM    3  O   UNL     1     -10.264  15.503  68.895  1.00  0.00    -0.195 OA 
HETATM    4  C   UNL     1      -8.546  14.850  67.306  1.00  0.00    -0.213 C  
ENDROOT
BRANCH   4   5
HETATM    5  N   UNL     1      -7.362  15.558  66.673  1.00  0.00    -0.033 NA 
BRANCH   5   6
HETATM    6  C   UNL     1      -7.850  16.913  66.207  1.00  0.00    -0.311 C  
HETATM    7  O   UNL     1      -5.518  17.335  65.724  1.00  0.00    -0.245 OA 
HETATM    8  C   UNL     1      -6.733  17.903  65.883  1.00  0.00    -0.277 C  
HETATM    9  O   UNL     1      -6.925  19.099  65.716  1.00  0.00    -0.261 OA 
ENDBRANCH   5   6
BRANCH   5  10
HETATM   10  C   UNL     1      -6.364  15.772  67.797  1.00  0.00    -0.153 C  
BRANCH  10  11
HETATM   11  C   UNL     1      -6.174  14.553  68.686  1.00  0.00    -0.083 A  
HETATM   12  C   UNL     1      -6.206  13.280  68.116  1.00  0.00    -0.111 A  
HETATM   13  C   UNL     1      -6.147  12.108  68.902  1.00  0.00    -0.072 A  
HETATM   14  C   UNL     1      -5.905  12.208  70.268  1.00  0.00    -0.161 A  
HETATM   15  C   UNL     1      -5.821  13.478  70.854  1.00  0.00    -0.150 A  
HETATM   16  O   UNL     1      -5.735  11.111  71.089  1.00  0.00    -0.331 OA 
HETATM   17  C   UNL     1      -5.840   9.843  70.549  1.00  0.00    -0.071 A  
HETATM   18  C   UNL     1      -5.978  14.632  70.068  1.00  0.00    -0.141 A  
HETATM   19  O   UNL     1      -5.954  15.867  70.648  1.00  0.00    -0.030 OA 
HETATM   20  C   UNL     1      -5.555   8.753  71.385  1.00  0.00    -0.042 A  
HETATM   21  C   UNL     1      -5.659   7.435  70.901  1.00  0.00    -0.027 A  
HETATM   22  H   UNL     1      -5.822  15.921  71.587  1.00  0.00     0.000 HD 
HETATM   23  C   UNL     1      -6.090   7.179  69.598  1.00  0.00    -0.030 A  
HETATM   24  O   UNL     1      -5.323   6.377  71.699  1.00  0.00    -0.025 OA 
HETATM   25  C   UNL     1      -7.733  10.715  67.577  1.00  0.00    -0.101 A  
HETATM   26  H   UNL     1      -5.393   5.487  71.373  1.00  0.00     0.000 HD 
HETATM   27  C   UNL     1      -6.383   8.284  68.786  1.00  0.00    -0.049 A  
HETATM   28  C   UNL     1      -9.025  10.722  68.084  1.00  0.00    -0.140 A  
HETATM   29  C   UNL     1      -6.221   9.610  69.231  1.00  0.00    -0.040 A  
HETATM   30  C   UNL     1      -6.412  10.761  68.279  1.00  0.00    -0.058 C  
HETATM   31  C   UNL     1     -10.084  10.663  67.176  1.00  0.00    -0.248 A  
HETATM   32  C   UNL     1      -9.843  10.613  65.793  1.00  0.00    -0.296 A  
HETATM   33  O   UNL     1      -5.464  10.608  67.189  1.00  0.00    -0.040 OA 
HETATM   34  C   UNL     1      -8.539  10.621  65.296  1.00  0.00    -0.175 A  
HETATM   35  O   UNL     1      -5.528  10.744  64.890  1.00  0.00    -0.144 OA 
HETATM   36  C   UNL     1      -6.075  10.665  65.971  1.00  0.00    -0.131 C  
HETATM   37  C   UNL     1      -7.510  10.662  66.216  1.00  0.00    -0.137 A  
BRANCH  23  38
HETATM   38  C   UNL     1      -6.097   5.814  68.934  1.00  0.00    -0.025 C  
BRANCH  38  39
HETATM   39  N   UNL     1      -7.200   4.868  69.287  1.00  0.00    -0.055 NA 
BRANCH  39  40
HETATM   40  C   UNL     1      -8.201   4.879  68.168  1.00  0.00    -0.089 C  
HETATM   41  O   UNL     1      -9.499   3.022  67.271  1.00  0.00    -0.189 OA 
HETATM   42  C   UNL     1      -9.138   3.679  68.239  1.00  0.00    -0.148 C  
HETATM   43  O   UNL     1      -9.550   3.422  69.507  1.00  0.00    -0.169 OA 
ENDBRANCH  39  40
BRANCH  39  44
HETATM   44  C   UNL     1      -6.607   3.474  69.339  1.00  0.00    -0.034 C  
HETATM   45  C   UNL     1      -6.051   3.116  70.716  1.00  0.00    -0.018 C  
HETATM   46  O   UNL     1      -5.150   2.311  70.901  1.00  0.00    -0.003 OA 
HETATM   47  O   UNL     1      -6.698   3.742  71.734  1.00  0.00    -0.021 OA 
ENDBRANCH  39  44
ENDBRANCH  38  39
ENDBRANCH  23  38
ENDBRANCH  10  11
ENDBRANCH   5  10
ENDBRANCH   4   5
TORSDOF 8
ENDMDL
MODEL      154
REMARK 921   NORMALIZED FREE ENERGY PREDICTED BY IDOCK:   -1.24 KCAL/MOL
REMARK 922        TOTAL FREE ENERGY PREDICTED BY IDOCK:   -4.09 KCAL/MOL
REMARK 923 INTER-LIGAND FREE ENERGY PREDICTED BY IDOCK:   -7.29 KCAL/MOL
REMARK 924 INTRA-LIGAND FREE ENERGY PREDICTED BY IDOCK:    3.20 KCAL/MOL
REMARK 927      BINDING AFFINITY PREDICTED BY RF-SCORE:    0.00 PKD
ROOT
HETATM    1  O   UNL     1     -11.055   3.860  73.945  1.00  0.00    -0.220 OA 
HETATM    2  C   UNL     1     -11.160   5.068  73.347  1.00  0.00    -0.335 C  
HETATM    3  O   UNL     1     -12.101   5.367  72.627  1.00  0.00    -0.169 OA 
HETATM    4  C   UNL     1     -10.034   6.027  73.720  1.00  0.00    -0.209 C  
ENDROOT
BRANCH   4   5
HETATM    5  N   UNL     1      -8.702   5.344  73.971  1.00  0.00    -0.117 NA 
BRANCH   5   6
HETATM    6  C   UNL     1      -8.147   4.941  72.621  1.00  0.00    -0.104 C  
HETATM    7  O   UNL     1      -7.732   2.807  73.683  1.00  0.00    -0.050 OA 
HETATM    8  C   UNL     1      -7.451   3.581  72.612  1.00  0.00    -0.051 C  
HETATM    9  O   UNL     1      -6.751   3.193  71.688  1.00  0.00    -0.025 OA 
ENDBRANCH   5   6
BRANCH   5  10
HETATM   10  C   UNL     1      -7.797   6.414  74.557  1.00  0.00    -0.106 C  
BRANCH  10  11
HETATM   11  C   UNL     1      -7.350   7.457  73.544  1.00  0.00    -0.103 A  
HETATM   12  C   UNL     1      -8.241   7.876  72.555  1.00  0.00    -0.184 A  
HETATM   13  C   UNL     1      -7.851   8.756  71.522  1.00  0.00    -0.147 A  
HETATM   14  C   UNL     1      -6.591   9.344  71.560  1.00  0.00     0.083 A  
HETATM   15  C   UNL     1      -5.697   8.974  72.573  1.00  0.00    -0.068 A  
HETATM   16  O   UNL     1      -6.168  10.289  70.646  1.00  0.00    -0.108 OA 
HETATM   17  C   UNL     1      -7.015  10.655  69.616  1.00  0.00    -0.134 A  
HETATM   18  C   UNL     1      -6.072   8.023  73.536  1.00  0.00    -0.080 A  
HETATM   19  O   UNL     1      -5.181   7.620  74.489  1.00  0.00    -0.064 OA 
HETATM   20  C   UNL     1      -6.600  11.694  68.770  1.00  0.00    -0.072 A  
HETATM   21  C   UNL     1      -7.408  12.104  67.693  1.00  0.00    -0.122 A  
HETATM   22  H   UNL     1      -4.312   8.005  74.483  1.00  0.00     0.000 HD 
HETATM   23  C   UNL     1      -8.617  11.461  67.414  1.00  0.00    -0.142 A  
HETATM   24  O   UNL     1      -7.030  13.157  66.906  1.00  0.00    -0.391 OA 
HETATM   25  C   UNL     1      -9.171   7.735  69.671  1.00  0.00    -0.153 A  
HETATM   26  H   UNL     1      -7.576  13.433  66.178  1.00  0.00     0.000 HD 
HETATM   27  C   UNL     1      -9.003  10.416  68.265  1.00  0.00    -0.135 A  
HETATM   28  C   UNL     1      -8.434   6.853  68.894  1.00  0.00    -0.125 A  
HETATM   29  C   UNL     1      -8.240  10.036  69.387  1.00  0.00    -0.158 A  
HETATM   30  C   UNL     1      -8.766   9.006  70.350  1.00  0.00    -0.199 C  
HETATM   31  C   UNL     1      -9.089   5.734  68.376  1.00  0.00    -0.118 A  
HETATM   32  C   UNL     1     -10.448   5.506  68.650  1.00  0.00    -0.240 A  
HETATM   33  O   UNL     1     -10.022   9.494  70.894  1.00  0.00    -0.284 OA 
HETATM   34  C   UNL     1     -11.174   6.393  69.445  1.00  0.00    -0.459 A  
HETATM   35  O   UNL     1     -12.124   8.631  71.271  1.00  0.00    -0.290 OA 
HETATM   36  C   UNL     1     -11.024   8.579  70.760  1.00  0.00    -0.247 C  
HETATM   37  C   UNL     1     -10.507   7.501  69.930  1.00  0.00    -0.232 A  
BRANCH  23  38
HETATM   38  C   UNL     1      -9.627  11.915  66.376  1.00  0.00    -0.225 C  
BRANCH  38  39
HETATM   39  N   UNL     1     -10.307  10.867  65.554  1.00  0.00    -0.263 NA 
BRANCH  39  40
HETATM   40  C   UNL     1     -10.585  11.445  64.196  1.00  0.00    -0.369 C  
HETATM   41  O   UNL     1     -12.598  11.240  62.840  1.00  0.00     0.081 OA 
HETATM   42  C   UNL     1     -12.080  11.523  63.912  1.00  0.00    -0.017 C  
HETATM   43  O   UNL     1     -12.786  11.960  64.985  1.00  0.00    -0.230 OA 
ENDBRANCH  39  40
BRANCH  39  44
HETATM   44  C   UNL     1      -9.324   9.730  65.361  1.00  0.00    -0.252 C  
HETATM   45  C   UNL     1      -9.584   8.554  66.300  1.00  0.00    -0.236 C  
HETATM   46  O   UNL     1      -8.720   7.773  66.672  1.00  0.00    -0.128 OA 
HETATM   47  O   UNL     1     -10.892   8.423  66.647  1.00  0.00    -0.089 OA 
ENDBRANCH  39  44
ENDBRANCH  38  39
ENDBRANCH  23  38
ENDBRANCH  10  11
ENDBRANCH   5  10
ENDBRANCH   4   5
TORSDOF 8
ENDMDL
MODEL      155
REMARK 921   NORMALIZED FREE ENERGY PREDICTED BY IDOCK:   -1.17 KCAL/MOL
REMARK 922        TOTAL FREE ENERGY PREDICTED BY IDOCK:   -3.98 KCAL/MOL
REMARK 923 INTER-LIGAND FREE ENERGY PREDICTED BY IDOCK:   -4.95 KCAL/MOL
REMARK 924 INTRA-LIGAND FREE ENERGY PREDICTED BY IDOCK:    0.96 KCAL/MOL
REMARK 927      BINDING AFFINITY PREDICTED BY RF-SCORE:    0.00 PKD
ROOT
HETATM    1  O   UNL     1      -7.496   4.506  68.940  1.00  0.00    -0.056 OA 
HETATM    2  C   UNL     1      -8.731   4.162  69.369  1.00  0.00    -0.084 C  
HETATM    3  O   UNL     1      -8.917   3.330  70.244  1.00  0.00    -0.081 OA 
HETATM    4  C   UNL     1      -9.845   4.964  68.706  1.00  0.00    -0.161 C  
ENDROOT
BRANCH   4   5
HETATM    5  N   UNL     1      -9.551   5.356  67.269  1.00  0.00    -0.126 NA 
BRANCH   5   6
HETATM    6  C   UNL     1      -9.510   4.078  66.458  1.00  0.00    -0.194 C  
HETATM    7  O   UNL     1      -8.330   5.419  64.826  1.00  0.00    -0.137 OA 
HETATM    8  C   UNL     1      -8.988   4.257  65.034  1.00  0.00    -0.141 C  
HETATM    9  O   UNL     1      -9.095   3.400  64.168  1.00  0.00    -0.115 OA 
ENDBRANCH   5   6
BRANCH   5  10
HETATM   10  C   UNL     1     -10.749   6.170  66.813  1.00  0.00    -0.299 C  
BRANCH  10  11
HETATM   11  C   UNL     1     -10.902   7.495  67.545  1.00  0.00    -0.232 A  
HETATM   12  C   UNL     1     -10.302   8.640  67.019  1.00  0.00    -0.368 A  
HETATM   13  C   UNL     1     -10.314   9.872  67.708  1.00  0.00    -0.268 A  
HETATM   14  C   UNL     1     -11.062  10.001  68.874  1.00  0.00    -0.176 A  
HETATM   15  C   UNL     1     -11.713   8.875  69.394  1.00  0.00     0.761 A  
HETATM   16  O   UNL     1     -11.207  11.195  69.552  1.00  0.00    -0.244 OA 
HETATM   17  C   UNL     1     -10.555  12.320  69.083  1.00  0.00     0.018 A  
HETATM   18  C   UNL     1     -11.609   7.634  68.743  1.00  0.00     1.069 A  
HETATM   19  O   UNL     1     -12.194   6.524  69.281  1.00  0.00    -0.094 OA 
HETATM   20  C   UNL     1     -10.809  13.538  69.730  1.00  0.00     0.264 A  
HETATM   21  C   UNL     1     -10.165  14.717  69.312  1.00  0.00    -0.185 A  
HETATM   22  H   UNL     1     -12.675   6.619  70.095  1.00  0.00     0.000 HD 
HETATM   23  C   UNL     1      -9.228  14.697  68.276  1.00  0.00    -0.198 A  
HETATM   24  O   UNL     1     -10.459  15.914  69.905  1.00  0.00    -0.290 OA 
HETATM   25  C   UNL     1      -8.026  10.643  67.091  1.00  0.00    -0.121 A  
HETATM   26  H   UNL     1     -10.024  16.710  69.623  1.00  0.00     0.000 HD 
HETATM   27  C   UNL     1      -8.981  13.465  67.654  1.00  0.00    -0.202 A  
HETATM   28  C   UNL     1      -7.073  10.366  68.060  1.00  0.00    -0.082 A  
HETATM   29  C   UNL     1      -9.664  12.288  68.014  1.00  0.00    -0.205 A  
HETATM   30  C   UNL     1      -9.468  11.022  67.223  1.00  0.00    -0.164 C  
HETATM   31  C   UNL     1      -5.782  10.042  67.635  1.00  0.00    -0.042 A  
HETATM   32  C   UNL     1      -5.469   9.987  66.267  1.00  0.00    -0.046 A  
HETATM   33  O   UNL     1      -9.859  11.282  65.849  1.00  0.00    -0.214 OA 
HETATM   34  C   UNL     1      -6.441  10.254  65.302  1.00  0.00    -0.122 A  
HETATM   35  O   UNL     1      -8.989  10.861  63.758  1.00  0.00    -0.174 OA 
HETATM   36  C   UNL     1      -8.884  10.926  64.966  1.00  0.00    -0.139 C  
HETATM   37  C   UNL     1      -7.704  10.590  65.749  1.00  0.00    -0.145 A  
BRANCH  23  38
HETATM   38  C   UNL     1      -8.590  15.926  67.653  1.00  0.00    -0.163 C  
BRANCH  38  39
HETATM   39  N   UNL     1      -9.488  17.048  67.237  1.00  0.00    -0.237 NA 
BRANCH  39  40
HETATM   40  C   UNL     1      -9.241  18.209  68.157  1.00  0.00    -0.291 C  
HETATM   41  O   UNL     1      -9.743  20.565  67.799  1.00  0.00    -0.375 OA 
HETATM   42  C   UNL     1     -10.122  19.402  67.807  1.00  0.00    -0.401 C  
HETATM   43  O   UNL     1     -11.396  19.034  67.517  1.00  0.00    -0.098 OA 
ENDBRANCH  39  40
BRANCH  39  44
HETATM   44  C   UNL     1      -9.062  17.483  65.849  1.00  0.00     0.099 C  
HETATM   45  C   UNL     1      -7.608  17.947  65.792  1.00  0.00    -0.024 C  
HETATM   46  O   UNL     1      -7.178  18.748  64.975  1.00  0.00    -0.292 OA 
HETATM   47  O   UNL     1      -6.814  17.339  66.713  1.00  0.00    -0.172 OA 
ENDBRANCH  39  44
ENDBRANCH  38  39
ENDBRANCH  23  38
ENDBRANCH  10  11
ENDBRANCH   5  10
ENDBRANCH   4   5
TORSDOF 8
ENDMDL
MODEL      156
REMARK 921   NORMALIZED FREE ENERGY PREDICTED BY IDOCK:   -0.85 KCAL/MOL
REMARK 922        TOTAL FREE ENERGY PREDICTED BY IDOCK:   -3.51 KCAL/MOL
REMARK 923 INTER-LIGAND FREE ENERGY PREDICTED BY IDOCK:   -7.63 KCAL/MOL
REMARK 924 INTRA-LIGAND FREE ENERGY PREDICTED BY IDOCK:    4.11 KCAL/MOL
REMARK 927      BINDING AFFINITY PREDICTED BY RF-SCORE:    0.00 PKD
ROOT
HETATM    1  O   UNL     1      -8.483   5.159  68.696  1.00  0.00    -0.089 OA 
HETATM    2  C   UNL     1      -8.999   6.368  68.377  1.00  0.00    -0.120 C  
HETATM    3  O   UNL     1     -10.195   6.610  68.436  1.00  0.00    -0.152 OA 
HETATM    4  C   UNL     1      -7.938   7.399  68.011  1.00  0.00    -0.119 C  
ENDROOT
BRANCH   4   5
HETATM    5  N   UNL     1      -6.722   6.813  67.317  1.00  0.00    -0.064 NA 
BRANCH   5   6
HETATM    6  C   UNL     1      -6.505   5.429  67.892  1.00  0.00    -0.048 C  
HETATM    7  O   UNL     1      -5.804   6.614  69.882  1.00  0.00    -0.018 OA 
HETATM    8  C   UNL     1      -5.807   5.419  69.251  1.00  0.00    -0.019 C  
HETATM    9  O   UNL     1      -5.346   4.407  69.760  1.00  0.00    -0.007 OA 
ENDBRANCH   5   6
BRANCH   5  10
HETATM   10  C   UNL     1      -7.114   6.665  65.858  1.00  0.00    -0.062 C  
BRANCH  10  11
HETATM   11  C   UNL     1      -7.809   7.891  65.285  1.00  0.00    -0.111 A  
HETATM   12  C   UNL     1      -8.024   9.000  66.104  1.00  0.00    -0.103 A  
HETATM   13  C   UNL     1      -8.761  10.122  65.665  1.00  0.00    -0.173 A  
HETATM   14  C   UNL     1      -9.165  10.201  64.336  1.00  0.00    -0.258 A  
HETATM   15  C   UNL     1      -8.917   9.118  63.483  1.00  0.00     0.022 A  
HETATM   16  O   UNL     1      -9.801  11.304  63.803  1.00  0.00    -0.263 OA 
HETATM   17  C   UNL     1     -10.088  12.378  64.624  1.00  0.00    -0.240 A  
HETATM   18  C   UNL     1      -8.266   7.970  63.967  1.00  0.00    -0.046 A  
HETATM   19  O   UNL     1      -8.076   6.892  63.151  1.00  0.00    -0.237 OA 
HETATM   20  C   UNL     1     -10.635  13.526  64.029  1.00  0.00    -0.006 A  
HETATM   21  C   UNL     1     -10.964  14.648  64.812  1.00  0.00    -0.386 A  
HETATM   22  H   UNL     1      -8.387   6.946  62.254  1.00  0.00     0.000 HD 
HETATM   23  C   UNL     1     -10.797  14.633  66.198  1.00  0.00    -0.321 A  
HETATM   24  O   UNL     1     -11.441  15.786  64.223  1.00  0.00    -0.737 OA 
HETATM   25  C   UNL     1      -9.925  10.640  67.806  1.00  0.00    -0.192 A  
HETATM   26  H   UNL     1     -11.664  16.544  64.751  1.00  0.00     0.000 HD 
HETATM   27  C   UNL     1     -10.262  13.470  66.771  1.00  0.00    -0.264 A  
HETATM   28  C   UNL     1     -11.204  10.108  67.878  1.00  0.00    -0.234 A  
HETATM   29  C   UNL     1      -9.865  12.363  65.998  1.00  0.00    -0.268 A  
HETATM   30  C   UNL     1      -9.165  11.196  66.643  1.00  0.00    -0.175 C  
HETATM   31  C   UNL     1     -11.661   9.667  69.122  1.00  0.00     0.238 A  
HETATM   32  C   UNL     1     -10.839   9.747  70.259  1.00  0.00    -0.356 A  
HETATM   33  O   UNL     1      -7.945  11.685  67.260  1.00  0.00    -0.141 OA 
HETATM   34  C   UNL     1      -9.548  10.271  70.170  1.00  0.00     0.108 A  
HETATM   35  O   UNL     1      -6.878  11.423  69.284  1.00  0.00    -0.102 OA 
HETATM   36  C   UNL     1      -7.852  11.314  68.568  1.00  0.00    -0.138 C  
HETATM   37  C   UNL     1      -9.129  10.718  68.932  1.00  0.00    -0.170 A  
BRANCH  23  38
HETATM   38  C   UNL     1     -10.980  15.831  67.113  1.00  0.00    -0.244 C  
BRANCH  38  39
HETATM   39  N   UNL     1      -9.773  16.372  67.810  1.00  0.00    -0.233 NA 
BRANCH  39  40
HETATM   40  C   UNL     1      -9.486  15.496  68.995  1.00  0.00    -0.242 C  
HETATM   41  O   UNL     1     -10.548  15.509  71.188  1.00  0.00    -0.124 OA 
HETATM   42  C   UNL     1     -10.658  15.465  69.969  1.00  0.00    -0.303 C  
HETATM   43  O   UNL     1     -11.853  15.366  69.334  1.00  0.00    -0.322 OA 
ENDBRANCH  39  40
BRANCH  39  44
HETATM   44  C   UNL     1      -8.599  16.236  66.862  1.00  0.00    -0.215 C  
HETATM   45  C   UNL     1      -7.591  17.375  66.997  1.00  0.00    -0.205 C  
HETATM   46  O   UNL     1      -6.859  17.751  66.093  1.00  0.00    -0.242 OA 
HETATM   47  O   UNL     1      -7.544  17.903  68.249  1.00  0.00    -0.246 OA 
ENDBRANCH  39  44
ENDBRANCH  38  39
ENDBRANCH  23  38
ENDBRANCH  10  11
ENDBRANCH   5  10
ENDBRANCH   4   5
TORSDOF 8
ENDMDL
MODEL      157
REMARK 921   NORMALIZED FREE ENERGY PREDICTED BY IDOCK:   -0.55 KCAL/MOL
REMARK 922        TOTAL FREE ENERGY PREDICTED BY IDOCK:   -3.08 KCAL/MOL
REMARK 923 INTER-LIGAND FREE ENERGY PREDICTED BY IDOCK:   -6.36 KCAL/MOL
REMARK 924 INTRA-LIGAND FREE ENERGY PREDICTED BY IDOCK:    3.28 KCAL/MOL
REMARK 927      BINDING AFFINITY PREDICTED BY RF-SCORE:    0.00 PKD
ROOT
HETATM    1  O   UNL     1      -6.892  18.214  69.992  1.00  0.00     0.196 OA 
HETATM    2  C   UNL     1      -6.321  17.954  68.793  1.00  0.00    -0.217 C  
HETATM    3  O   UNL     1      -5.588  18.750  68.227  1.00  0.00    -0.187 OA 
HETATM    4  C   UNL     1      -6.628  16.555  68.270  1.00  0.00    -0.136 C  
ENDROOT
BRANCH   4   5
HETATM    5  N   UNL     1      -8.002  16.040  68.657  1.00  0.00    -0.162 NA 
BRANCH   5   6
HETATM    6  C   UNL     1      -8.720  15.675  67.375  1.00  0.00    -0.179 C  
HETATM    7  O   UNL     1      -9.565  17.940  67.471  1.00  0.00    -0.262 OA 
HETATM    8  C   UNL     1      -9.719  16.727  66.896  1.00  0.00    -0.257 C  
HETATM    9  O   UNL     1     -10.547  16.516  66.022  1.00  0.00    -0.315 OA 
ENDBRANCH   5   6
BRANCH   5  10
HETATM   10  C   UNL     1      -7.755  14.765  69.443  1.00  0.00    -0.104 C  
BRANCH  10  11
HETATM   11  C   UNL     1      -7.235  13.615  68.593  1.00  0.00    -0.110 A  
HETATM   12  C   UNL     1      -8.051  12.505  68.372  1.00  0.00    -0.136 A  
HETATM   13  C   UNL     1      -7.586  11.361  67.687  1.00  0.00    -0.108 A  
HETATM   14  C   UNL     1      -6.332  11.383  67.085  1.00  0.00    -0.109 A  
HETATM   15  C   UNL     1      -5.514  12.508  67.254  1.00  0.00    -0.052 A  
HETATM   16  O   UNL     1      -5.844  10.346  66.315  1.00  0.00    -0.062 OA 
HETATM   17  C   UNL     1      -6.612   9.209  66.152  1.00  0.00    -0.069 A  
HETATM   18  C   UNL     1      -5.960  13.598  68.021  1.00  0.00    -0.133 A  
HETATM   19  O   UNL     1      -5.141  14.669  68.234  1.00  0.00    -0.099 OA 
HETATM   20  C   UNL     1      -6.137   8.221  65.276  1.00  0.00    -0.045 A  
HETATM   21  C   UNL     1      -6.863   7.032  65.079  1.00  0.00    -0.051 A  
HETATM   22  H   UNL     1      -4.274  14.657  67.845  1.00  0.00     0.000 HD 
HETATM   23  C   UNL     1      -8.048   6.787  65.777  1.00  0.00    -0.123 A  
HETATM   24  O   UNL     1      -6.429   6.097  64.180  1.00  0.00    -0.032 OA 
HETATM   25  C   UNL     1      -8.765   9.635  69.043  1.00  0.00    -0.142 A  
HETATM   26  H   UNL     1      -6.919   5.294  64.046  1.00  0.00     0.000 HD 
HETATM   27  C   UNL     1      -8.496   7.783  66.657  1.00  0.00    -0.129 A  
HETATM   28  C   UNL     1      -7.973   9.084  70.040  1.00  0.00    -0.113 A  
HETATM   29  C   UNL     1      -7.817   9.007  66.818  1.00  0.00    -0.104 A  
HETATM   30  C   UNL     1      -8.412  10.100  67.665  1.00  0.00    -0.118 C  
HETATM   31  C   UNL     1      -8.588   8.731  71.244  1.00  0.00    -0.258 A  
HETATM   32  C   UNL     1      -9.964   8.943  71.437  1.00  0.00    -0.378 A  
HETATM   33  O   UNL     1      -9.705  10.454  67.104  1.00  0.00    -0.165 OA 
HETATM   34  C   UNL     1     -10.746   9.511  70.431  1.00  0.00    -0.341 A  
HETATM   35  O   UNL     1     -11.828  10.828  67.913  1.00  0.00    -0.553 OA 
HETATM   36  C   UNL     1     -10.694  10.417  68.042  1.00  0.00    -0.249 C  
HETATM   37  C   UNL     1     -10.117   9.834  69.244  1.00  0.00    -0.207 A  
BRANCH  23  38
HETATM   38  C   UNL     1      -8.979   5.614  65.532  1.00  0.00    -0.104 C  
BRANCH  38  39
HETATM   39  N   UNL     1      -8.471   4.240  65.833  1.00  0.00    -0.113 NA 
BRANCH  39  40
HETATM   40  C   UNL     1      -6.987   4.230  65.602  1.00  0.00    -0.062 C  
HETATM   41  O   UNL     1      -5.644   2.573  64.426  1.00  0.00    -0.009 OA 
HETATM   42  C   UNL     1      -6.606   3.330  64.433  1.00  0.00    -0.035 C  
HETATM   43  O   UNL     1      -7.448   3.470  63.379  1.00  0.00    -0.056 OA 
ENDBRANCH  39  40
BRANCH  39  44
HETATM   44  C   UNL     1      -8.693   3.986  67.310  1.00  0.00    -0.112 C  
HETATM   45  C   UNL     1      -9.896   4.742  67.870  1.00  0.00    -0.134 C  
HETATM   46  O   UNL     1     -10.007   5.081  69.039  1.00  0.00    -0.174 OA 
HETATM   47  O   UNL     1     -10.869   4.958  66.946  1.00  0.00    -0.053 OA 
ENDBRANCH  39  44
ENDBRANCH  38  39
ENDBRANCH  23  38
ENDBRANCH  10  11
ENDBRANCH   5  10
ENDBRANCH   4   5
TORSDOF 8
ENDMDL
MODEL      158
REMARK 921   NORMALIZED FREE ENERGY PREDICTED BY IDOCK:   -0.36 KCAL/MOL
REMARK 922        TOTAL FREE ENERGY PREDICTED BY IDOCK:   -2.80 KCAL/MOL
REMARK 923 INTER-LIGAND FREE ENERGY PREDICTED BY IDOCK:   -3.25 KCAL/MOL
REMARK 924 INTRA-LIGAND FREE ENERGY PREDICTED BY IDOCK:    0.46 KCAL/MOL
REMARK 927      BINDING AFFINITY PREDICTED BY RF-SCORE:    0.00 PKD
ROOT
HETATM    1  O   UNL     1     -13.280  11.033  72.753  1.00  0.00     0.452 OA 
HETATM    2  C   UNL     1     -13.667  10.144  71.810  1.00  0.00    -0.099 C  
HETATM    3  O   UNL     1     -14.410   9.205  72.055  1.00  0.00    -0.300 OA 
HETATM    4  C   UNL     1     -13.144  10.477  70.417  1.00  0.00    -0.054 C  
ENDROOT
BRANCH   4   5
HETATM    5  N   UNL     1     -11.779  11.141  70.413  1.00  0.00    -0.329 NA 
BRANCH   5   6
HETATM    6  C   UNL     1     -12.001  12.617  70.669  1.00  0.00    -0.106 C  
HETATM    7  O   UNL     1     -11.593  12.857  68.296  1.00  0.00    -0.291 OA 
HETATM    8  C   UNL     1     -11.683  13.514  69.474  1.00  0.00    -0.322 C  
HETATM    9  O   UNL     1     -11.581  14.729  69.557  1.00  0.00    -0.270 OA 
ENDBRANCH   5   6
BRANCH   5  10
HETATM   10  C   UNL     1     -11.037  10.559  71.603  1.00  0.00     1.586 C  
BRANCH  10  11
HETATM   11  C   UNL     1     -10.505   9.154  71.362  1.00  0.00    -0.414 A  
HETATM   12  C   UNL     1      -9.513   8.954  70.401  1.00  0.00    -0.227 A  
HETATM   13  C   UNL     1      -9.059   7.663  70.054  1.00  0.00    -0.151 A  
HETATM   14  C   UNL     1      -9.497   6.562  70.783  1.00  0.00    -0.172 A  
HETATM   15  C   UNL     1     -10.457   6.746  71.786  1.00  0.00    -0.228 A  
HETATM   16  O   UNL     1      -9.027   5.280  70.574  1.00  0.00    -0.131 OA 
HETATM   17  C   UNL     1      -8.100   5.058  69.573  1.00  0.00    -0.078 A  
HETATM   18  C   UNL     1     -10.966   8.029  72.050  1.00  0.00    -0.282 A  
HETATM   19  O   UNL     1     -11.945   8.200  72.987  1.00  0.00    -0.609 OA 
HETATM   20  C   UNL     1      -7.562   3.767  69.457  1.00  0.00    -0.052 A  
HETATM   21  C   UNL     1      -6.627   3.471  68.448  1.00  0.00    -0.041 A  
HETATM   22  H   UNL     1     -12.259   7.435  73.455  1.00  0.00     0.000 HD 
HETATM   23  C   UNL     1      -6.245   4.436  67.514  1.00  0.00    -0.036 A  
HETATM   24  O   UNL     1      -6.058   2.229  68.375  1.00  0.00    -0.024 OA 
HETATM   25  C   UNL     1      -8.750   8.042  67.611  1.00  0.00    -0.126 A  
HETATM   26  H   UNL     1      -5.427   2.029  67.694  1.00  0.00     0.000 HD 
HETATM   27  C   UNL     1      -6.807   5.715  67.641  1.00  0.00    -0.060 A  
HETATM   28  C   UNL     1      -9.831   7.622  66.850  1.00  0.00    -0.304 A  
HETATM   29  C   UNL     1      -7.693   6.048  68.683  1.00  0.00    -0.095 A  
HETATM   30  C   UNL     1      -8.158   7.469  68.861  1.00  0.00    -0.127 C  
HETATM   31  C   UNL     1     -10.155   8.362  65.710  1.00  0.00     0.611 A  
HETATM   32  C   UNL     1      -9.414   9.503  65.359  1.00  0.00    -0.336 A  
HETATM   33  O   UNL     1      -6.990   8.304  69.075  1.00  0.00    -0.058 OA 
HETATM   34  C   UNL     1      -8.337   9.922  66.141  1.00  0.00    -0.123 A  
HETATM   35  O   UNL     1      -6.209  10.319  68.276  1.00  0.00    -0.048 OA 
HETATM   36  C   UNL     1      -6.958   9.365  68.219  1.00  0.00    -0.071 C  
HETATM   37  C   UNL     1      -8.027   9.163  67.253  1.00  0.00    -0.102 A  
BRANCH  23  38
HETATM   38  C   UNL     1      -5.142   4.266  66.484  1.00  0.00    -0.008 C  
BRANCH  38  39
HETATM   39  N   UNL     1      -5.520   4.311  65.038  1.00  0.00    -0.013 NA 
BRANCH  39  40
HETATM   40  C   UNL     1      -6.755   3.476  64.852  1.00  0.00    -0.044 C  
HETATM   41  O   UNL     1      -7.436   2.184  62.903  1.00  0.00    -0.046 OA 
HETATM   42  C   UNL     1      -6.580   2.455  63.735  1.00  0.00    -0.030 C  
HETATM   43  O   UNL     1      -5.363   1.855  63.771  1.00  0.00    -0.007 OA 
ENDBRANCH  39  40
BRANCH  39  44
HETATM   44  C   UNL     1      -5.897   5.741  64.709  1.00  0.00    -0.024 C  
HETATM   45  C   UNL     1      -5.434   6.174  63.320  1.00  0.00    -0.018 C  
HETATM   46  O   UNL     1      -5.191   7.331  63.009  1.00  0.00    -0.032 OA 
HETATM   47  O   UNL     1      -5.369   5.146  62.433  1.00  0.00    -0.012 OA 
ENDBRANCH  39  44
ENDBRANCH  38  39
ENDBRANCH  23  38
ENDBRANCH  10  11
ENDBRANCH   5  10
ENDBRANCH   4   5
TORSDOF 8
ENDMDL
MODEL      159
REMARK 921   NORMALIZED FREE ENERGY PREDICTED BY IDOCK:    0.04 KCAL/MOL
REMARK 922        TOTAL FREE ENERGY PREDICTED BY IDOCK:   -2.22 KCAL/MOL
REMARK 923 INTER-LIGAND FREE ENERGY PREDICTED BY IDOCK:   -6.49 KCAL/MOL
REMARK 924 INTRA-LIGAND FREE ENERGY PREDICTED BY IDOCK:    4.27 KCAL/MOL
REMARK 927      BINDING AFFINITY PREDICTED BY RF-SCORE:    0.00 PKD
ROOT
HETATM    1  O   UNL     1      -9.613   8.642  64.206  1.00  0.00     1.009 OA 
HETATM    2  C   UNL     1      -8.263   8.715  64.237  1.00  0.00    -0.158 C  
HETATM    3  O   UNL     1      -7.595   8.989  63.252  1.00  0.00    -0.101 OA 
HETATM    4  C   UNL     1      -7.680   8.493  65.628  1.00  0.00    -0.095 C  
ENDROOT
BRANCH   4   5
HETATM    5  N   UNL     1      -8.473   7.520  66.482  1.00  0.00    -0.125 NA 
BRANCH   5   6
HETATM    6  C   UNL     1      -8.104   6.125  66.026  1.00  0.00    -0.118 C  
HETATM    7  O   UNL     1     -10.033   5.439  67.316  1.00  0.00    -0.143 OA 
HETATM    8  C   UNL     1      -8.909   5.013  66.699  1.00  0.00    -0.111 C  
HETATM    9  O   UNL     1      -8.603   3.832  66.634  1.00  0.00    -0.104 OA 
ENDBRANCH   5   6
BRANCH   5  10
HETATM   10  C   UNL     1      -7.963   7.708  67.899  1.00  0.00    -0.118 C  
BRANCH  10  11
HETATM   11  C   UNL     1      -7.473   9.118  68.190  1.00  0.00    -0.083 A  
HETATM   12  C   UNL     1      -8.398  10.159  68.282  1.00  0.00    -0.115 A  
HETATM   13  C   UNL     1      -7.997  11.504  68.438  1.00  0.00    -0.143 A  
HETATM   14  C   UNL     1      -6.655  11.800  68.654  1.00  0.00    -0.065 A  
HETATM   15  C   UNL     1      -5.713  10.763  68.614  1.00  0.00    -0.040 A  
HETATM   16  O   UNL     1      -6.193  13.075  68.914  1.00  0.00    -0.077 OA 
HETATM   17  C   UNL     1      -7.091  14.125  68.932  1.00  0.00    -0.110 A  
HETATM   18  C   UNL     1      -6.124   9.444  68.361  1.00  0.00    -0.044 A  
HETATM   19  O   UNL     1      -5.200   8.443  68.264  1.00  0.00    -0.032 OA 
HETATM   20  C   UNL     1      -6.609  15.389  69.307  1.00  0.00    -0.143 A  
HETATM   21  C   UNL     1      -7.468  16.503  69.329  1.00  0.00    -0.183 A  
HETATM   22  H   UNL     1      -4.283   8.664  68.380  1.00  0.00     0.000 HD 
HETATM   23  C   UNL     1      -8.805  16.390  68.940  1.00  0.00    -0.256 A  
HETATM   24  O   UNL     1      -7.011  17.721  69.752  1.00  0.00     0.033 OA 
HETATM   25  C   UNL     1      -9.738  12.560  67.003  1.00  0.00    -0.213 A  
HETATM   26  H   UNL     1      -7.591  18.473  69.767  1.00  0.00     0.000 HD 
HETATM   27  C   UNL     1      -9.260  15.120  68.556  1.00  0.00    -0.192 A  
HETATM   28  C   UNL     1      -9.303  12.815  65.710  1.00  0.00     0.075 A  
HETATM   29  C   UNL     1      -8.433  13.981  68.591  1.00  0.00    -0.103 A  
HETATM   30  C   UNL     1      -9.004  12.618  68.306  1.00  0.00    -0.176 C  
HETATM   31  C   UNL     1     -10.228  12.687  64.672  1.00  0.00    -0.319 A  
HETATM   32  C   UNL     1     -11.552  12.297  64.933  1.00  0.00    -0.395 A  
HETATM   33  O   UNL     1     -10.052  12.355  69.277  1.00  0.00     0.198 OA 
HETATM   34  C   UNL     1     -11.973  12.030  66.236  1.00  0.00    -0.098 A  
HETATM   35  O   UNL     1     -12.205  11.538  69.228  1.00  0.00    -0.283 OA 
HETATM   36  C   UNL     1     -11.220  11.985  68.678  1.00  0.00    -0.258 C  
HETATM   37  C   UNL     1     -11.043  12.182  67.247  1.00  0.00    -0.341 A  
BRANCH  23  38
HETATM   38  C   UNL     1      -9.846  17.487  69.066  1.00  0.00    -0.225 C  
BRANCH  38  39
HETATM   39  N   UNL     1      -9.596  18.778  68.353  1.00  0.00    -0.346 NA 
BRANCH  39  40
HETATM   40  C   UNL     1      -8.217  18.723  67.759  1.00  0.00    -0.263 C  
HETATM   41  O   UNL     1      -7.258  20.125  66.013  1.00  0.00    -0.278 OA 
HETATM   42  C   UNL     1      -7.843  20.038  67.085  1.00  0.00    -0.304 C  
HETATM   43  O   UNL     1      -8.217  21.117  67.817  1.00  0.00     0.026 OA 
ENDBRANCH  39  40
BRANCH  39  44
HETATM   44  C   UNL     1     -10.574  18.857  67.198  1.00  0.00    -0.458 C  
HETATM   45  C   UNL     1     -10.424  17.702  66.211  1.00  0.00    -0.292 C  
HETATM   46  O   UNL     1     -10.725  17.770  65.028  1.00  0.00    -0.664 OA 
HETATM   47  O   UNL     1      -9.968  16.559  66.789  1.00  0.00    -0.256 OA 
ENDBRANCH  39  44
ENDBRANCH  38  39
ENDBRANCH  23  38
ENDBRANCH  10  11
ENDBRANCH   5  10
ENDBRANCH   4   5
TORSDOF 8
ENDMDL
MODEL      160
REMARK 921   NORMALIZED FREE ENERGY PREDICTED BY IDOCK:    0.16 KCAL/MOL
REMARK 922        TOTAL FREE ENERGY PREDICTED BY IDOCK:   -2.03 KCAL/MOL
REMARK 923 INTER-LIGAND FREE ENERGY PREDICTED BY IDOCK:   -3.11 KCAL/MOL
REMARK 924 INTRA-LIGAND FREE ENERGY PREDICTED BY IDOCK:    1.08 KCAL/MOL
REMARK 927      BINDING AFFINITY PREDICTED BY RF-SCORE:    0.00 PKD
ROOT
HETATM    1  O   UNL     1      -8.908   3.023  68.360  1.00  0.00    -0.096 OA 
HETATM    2  C   UNL     1      -8.314   4.236  68.297  1.00  0.00    -0.092 C  
HETATM    3  O   UNL     1      -7.871   4.699  67.256  1.00  0.00    -0.089 OA 
HETATM    4  C   UNL     1      -8.323   4.982  69.626  1.00  0.00    -0.088 C  
ENDROOT
BRANCH   4   5
HETATM    5  N   UNL     1      -8.222   4.078  70.841  1.00  0.00    -0.066 NA 
BRANCH   5   6
HETATM    6  C   UNL     1      -6.904   3.340  70.739  1.00  0.00    -0.033 C  
HETATM    7  O   UNL     1      -7.574   2.319  72.828  1.00  0.00    -0.042 OA 
HETATM    8  C   UNL     1      -6.540   2.534  71.985  1.00  0.00    -0.015 C  
HETATM    9  O   UNL     1      -5.427   2.067  72.179  1.00  0.00    -0.003 OA 
ENDBRANCH   5   6
BRANCH   5  10
HETATM   10  C   UNL     1      -8.155   5.008  72.040  1.00  0.00    -0.112 C  
BRANCH  10  11
HETATM   11  C   UNL     1      -7.397   6.299  71.769  1.00  0.00    -0.093 A  
HETATM   12  C   UNL     1      -8.089   7.409  71.285  1.00  0.00    -0.100 A  
HETATM   13  C   UNL     1      -7.426   8.598  70.909  1.00  0.00    -0.083 A  
HETATM   14  C   UNL     1      -6.064   8.733  71.160  1.00  0.00    -0.048 A  
HETATM   15  C   UNL     1      -5.358   7.646  71.692  1.00  0.00    -0.035 A  
HETATM   16  O   UNL     1      -5.361   9.896  70.916  1.00  0.00    -0.048 OA 
HETATM   17  C   UNL     1      -6.021  10.978  70.364  1.00  0.00    -0.141 A  
HETATM   18  C   UNL     1      -6.021   6.439  71.969  1.00  0.00    -0.038 A  
HETATM   19  O   UNL     1      -5.322   5.361  72.432  1.00  0.00    -0.015 OA 
HETATM   20  C   UNL     1      -5.306  12.178  70.230  1.00  0.00    -0.120 A  
HETATM   21  C   UNL     1      -5.915  13.312  69.661  1.00  0.00    -0.117 A  
HETATM   22  H   UNL     1      -4.386   5.456  72.568  1.00  0.00     0.000 HD 
HETATM   23  C   UNL     1      -7.224  13.260  69.178  1.00  0.00     0.059 A  
HETATM   24  O   UNL     1      -5.236  14.497  69.586  1.00  0.00    -0.092 OA 
HETATM   25  C   UNL     1      -8.834   9.181  68.939  1.00  0.00    -0.139 A  
HETATM   26  H   UNL     1      -5.646  15.263  69.201  1.00  0.00     0.000 HD 
HETATM   27  C   UNL     1      -7.913  12.046  69.310  1.00  0.00     0.440 A  
HETATM   28  C   UNL     1      -8.291   8.763  67.733  1.00  0.00    -0.118 A  
HETATM   29  C   UNL     1      -7.344  10.921  69.936  1.00  0.00     0.076 A  
HETATM   30  C   UNL     1      -8.171   9.687  70.182  1.00  0.00    -0.187 C  
HETATM   31  C   UNL     1      -9.169   8.343  66.731  1.00  0.00    -0.214 A  
HETATM   32  C   UNL     1     -10.557   8.333  66.949  1.00  0.00    -0.302 A  
HETATM   33  O   UNL     1      -9.299  10.058  71.019  1.00  0.00     0.226 OA 
HETATM   34  C   UNL     1     -11.089   8.743  68.172  1.00  0.00     0.245 A  
HETATM   35  O   UNL     1     -11.569   9.671  71.027  1.00  0.00    -0.300 OA 
HETATM   36  C   UNL     1     -10.486   9.660  70.480  1.00  0.00    -0.303 C  
HETATM   37  C   UNL     1     -10.200   9.171  69.139  1.00  0.00    -0.215 A  
BRANCH  23  38
HETATM   38  C   UNL     1      -8.020  14.455  68.684  1.00  0.00    -0.145 C  
BRANCH  38  39
HETATM   39  N   UNL     1      -7.576  15.119  67.419  1.00  0.00    -0.189 NA 
BRANCH  39  40
HETATM   40  C   UNL     1      -8.271  14.446  66.270  1.00  0.00     0.971 C  
HETATM   41  O   UNL     1     -10.347  13.172  66.285  1.00  0.00    -0.276 OA 
HETATM   42  C   UNL     1      -9.744  14.199  66.570  1.00  0.00    -0.295 C  
HETATM   43  O   UNL     1     -10.330  15.259  67.181  1.00  0.00    -0.256 OA 
ENDBRANCH  39  40
BRANCH  39  44
HETATM   44  C   UNL     1      -8.068  16.551  67.458  1.00  0.00    -0.154 C  
HETATM   45  C   UNL     1      -7.084  17.536  66.830  1.00  0.00    -0.211 C  
HETATM   46  O   UNL     1      -7.008  18.716  67.138  1.00  0.00    -0.201 OA 
HETATM   47  O   UNL     1      -6.328  16.982  65.845  1.00  0.00    -0.057 OA 
ENDBRANCH  39  44
ENDBRANCH  38  39
ENDBRANCH  23  38
ENDBRANCH  10  11
ENDBRANCH   5  10
ENDBRANCH   4   5
TORSDOF 8
ENDMDL
MODEL      161
REMARK 921   NORMALIZED FREE ENERGY PREDICTED BY IDOCK:    0.43 KCAL/MOL
REMARK 922        TOTAL FREE ENERGY PREDICTED BY IDOCK:   -1.64 KCAL/MOL
REMARK 923 INTER-LIGAND FREE ENERGY PREDICTED BY IDOCK:   -5.24 KCAL/MOL
REMARK 924 INTRA-LIGAND FREE ENERGY PREDICTED BY IDOCK:    3.60 KCAL/MOL
REMARK 927      BINDING AFFINITY PREDICTED BY RF-SCORE:    0.00 PKD
ROOT
HETATM    1  O   UNL     1     -12.794  15.349  68.740  1.00  0.00     0.524 OA 
HETATM    2  C   UNL     1     -11.532  15.589  68.316  1.00  0.00    -0.353 C  
HETATM    3  O   UNL     1     -11.286  16.091  67.230  1.00  0.00    -0.196 OA 
HETATM    4  C   UNL     1     -10.470  15.238  69.354  1.00  0.00    -0.251 C  
ENDROOT
BRANCH   4   5
HETATM    5  N   UNL     1     -10.834  14.055  70.232  1.00  0.00     0.359 NA 
BRANCH   5   6
HETATM    6  C   UNL     1     -11.430  14.612  71.507  1.00  0.00    -0.003 C  
HETATM    7  O   UNL     1     -12.690  12.548  71.552  1.00  0.00    -0.317 OA 
HETATM    8  C   UNL     1     -12.595  13.795  72.063  1.00  0.00    -0.146 C  
HETATM    9  O   UNL     1     -13.341  14.204  72.941  1.00  0.00    -0.573 OA 
ENDBRANCH   5   6
BRANCH   5  10
HETATM   10  C   UNL     1     -11.925  13.309  69.484  1.00  0.00    -0.307 C  
BRANCH  10  11
HETATM   11  C   UNL     1     -11.400  12.413  68.372  1.00  0.00    -0.330 A  
HETATM   12  C   UNL     1     -10.518  11.379  68.686  1.00  0.00    -0.224 A  
HETATM   13  C   UNL     1      -9.910  10.585  67.689  1.00  0.00    -0.192 A  
HETATM   14  C   UNL     1     -10.302  10.732  66.362  1.00  0.00    -0.248 A  
HETATM   15  C   UNL     1     -11.223  11.733  66.029  1.00  0.00    -0.352 A  
HETATM   16  O   UNL     1      -9.832   9.930  65.340  1.00  0.00    -0.293 OA 
HETATM   17  C   UNL     1      -8.899   8.951  65.628  1.00  0.00    -0.191 A  
HETATM   18  C   UNL     1     -11.744  12.575  67.027  1.00  0.00    -0.367 A  
HETATM   19  O   UNL     1     -12.596  13.589  66.695  1.00  0.00    -0.271 OA 
HETATM   20  C   UNL     1      -8.524   8.084  64.591  1.00  0.00    -0.000 A  
HETATM   21  C   UNL     1      -7.567   7.076  64.815  1.00  0.00    -0.105 A  
HETATM   22  H   UNL     1     -12.830  13.699  65.781  1.00  0.00     0.000 HD 
HETATM   23  C   UNL     1      -6.938   6.942  66.055  1.00  0.00    -0.065 A  
HETATM   24  O   UNL     1      -7.247   6.194  63.820  1.00  0.00    -0.053 OA 
HETATM   25  C   UNL     1      -7.675  10.323  68.758  1.00  0.00    -0.096 A  
HETATM   26  H   UNL     1      -6.601   5.513  63.970  1.00  0.00     0.000 HD 
HETATM   27  C   UNL     1      -7.320   7.829  67.071  1.00  0.00    -0.091 A  
HETATM   28  C   UNL     1      -6.735  11.231  68.294  1.00  0.00    -0.059 A  
HETATM   29  C   UNL     1      -8.323   8.800  66.886  1.00  0.00    -0.108 A  
HETATM   30  C   UNL     1      -8.797   9.634  68.047  1.00  0.00    -0.119 C  
HETATM   31  C   UNL     1      -5.785  11.710  69.199  1.00  0.00    -0.053 A  
HETATM   32  C   UNL     1      -5.796  11.292  70.540  1.00  0.00    -0.135 A  
HETATM   33  O   UNL     1      -9.320   8.738  69.063  1.00  0.00    -0.144 OA 
HETATM   34  C   UNL     1      -6.757  10.389  70.998  1.00  0.00     0.503 A  
HETATM   35  O   UNL     1      -9.117   8.505  71.346  1.00  0.00    -0.166 OA 
HETATM   36  C   UNL     1      -8.757   8.969  70.283  1.00  0.00    -0.184 C  
HETATM   37  C   UNL     1      -7.673   9.918  70.078  1.00  0.00    -0.188 A  
BRANCH  23  38
HETATM   38  C   UNL     1      -6.009   5.806  66.443  1.00  0.00    -0.022 C  
BRANCH  38  39
HETATM   39  N   UNL     1      -6.257   5.110  67.744  1.00  0.00    -0.037 NA 
BRANCH  39  40
HETATM   40  C   UNL     1      -7.727   4.821  67.846  1.00  0.00    -0.082 C  
HETATM   41  O   UNL     1      -8.956   3.830  69.701  1.00  0.00    -0.086 OA 
HETATM   42  C   UNL     1      -8.173   4.679  69.296  1.00  0.00    -0.076 C  
HETATM   43  O   UNL     1      -7.616   5.619  70.101  1.00  0.00    -0.080 OA 
ENDBRANCH  39  40
BRANCH  39  44
HETATM   44  C   UNL     1      -5.544   3.774  67.689  1.00  0.00    -0.021 C  
HETATM   45  C   UNL     1      -5.528   3.165  66.288  1.00  0.00    -0.017 C  
HETATM   46  O   UNL     1      -5.458   1.966  66.065  1.00  0.00    -0.011 OA 
HETATM   47  O   UNL     1      -5.546   4.098  65.299  1.00  0.00    -0.013 OA 
ENDBRANCH  39  44
ENDBRANCH  38  39
ENDBRANCH  23  38
ENDBRANCH  10  11
ENDBRANCH   5  10
ENDBRANCH   4   5
TORSDOF 8
ENDMDL
MODEL      162
REMARK 921   NORMALIZED FREE ENERGY PREDICTED BY IDOCK:    0.65 KCAL/MOL
REMARK 922        TOTAL FREE ENERGY PREDICTED BY IDOCK:   -1.32 KCAL/MOL
REMARK 923 INTER-LIGAND FREE ENERGY PREDICTED BY IDOCK:   -4.70 KCAL/MOL
REMARK 924 INTRA-LIGAND FREE ENERGY PREDICTED BY IDOCK:    3.38 KCAL/MOL
REMARK 927      BINDING AFFINITY PREDICTED BY RF-SCORE:    0.00 PKD
ROOT
HETATM    1  O   UNL     1      -9.846   3.523  70.017  1.00  0.00    -0.138 OA 
HETATM    2  C   UNL     1      -8.939   2.820  69.301  1.00  0.00    -0.111 C  
HETATM    3  O   UNL     1      -9.148   2.447  68.157  1.00  0.00    -0.138 OA 
HETATM    4  C   UNL     1      -7.620   2.611  70.039  1.00  0.00    -0.043 C  
ENDROOT
BRANCH   4   5
HETATM    5  N   UNL     1      -7.771   2.472  71.543  1.00  0.00    -0.040 NA 
BRANCH   5   6
HETATM    6  C   UNL     1      -6.453   1.950  72.075  1.00  0.00    -0.014 C  
HETATM    7  O   UNL     1      -7.640   1.751  74.174  1.00  0.00    -0.031 OA 
HETATM    8  C   UNL     1      -6.421   1.762  73.591  1.00  0.00    -0.013 C  
HETATM    9  O   UNL     1      -5.391   1.573  74.222  1.00  0.00     0.000 OA 
ENDBRANCH   5   6
BRANCH   5  10
HETATM   10  C   UNL     1      -7.971   3.882  72.067  1.00  0.00    -0.076 C  
BRANCH  10  11
HETATM   11  C   UNL     1      -7.237   4.943  71.260  1.00  0.00    -0.060 A  
HETATM   12  C   UNL     1      -7.960   5.766  70.395  1.00  0.00    -0.105 A  
HETATM   13  C   UNL     1      -7.325   6.691  69.538  1.00  0.00    -0.091 A  
HETATM   14  C   UNL     1      -5.955   6.904  69.652  1.00  0.00    -0.023 A  
HETATM   15  C   UNL     1      -5.216   6.123  70.550  1.00  0.00    -0.013 A  
HETATM   16  O   UNL     1      -5.274   7.859  68.924  1.00  0.00    -0.022 OA 
HETATM   17  C   UNL     1      -5.967   8.628  68.008  1.00  0.00    -0.047 A  
HETATM   18  C   UNL     1      -5.855   5.140  71.325  1.00  0.00    -0.017 A  
HETATM   19  O   UNL     1      -5.127   4.339  72.157  1.00  0.00     0.000 OA 
HETATM   20  C   UNL     1      -5.270   9.662  67.365  1.00  0.00    -0.036 A  
HETATM   21  C   UNL     1      -5.913  10.470  66.409  1.00  0.00    -0.084 A  
HETATM   22  H   UNL     1      -4.187   4.472  72.201  1.00  0.00     0.000 HD 
HETATM   23  C   UNL     1      -7.242  10.238  66.047  1.00  0.00    -0.128 A  
HETATM   24  O   UNL     1      -5.249  11.515  65.827  1.00  0.00    -0.453 OA 
HETATM   25  C   UNL     1      -8.823   6.433  67.565  1.00  0.00    -0.111 A  
HETATM   26  H   UNL     1      -5.683  12.061  65.182  1.00  0.00     0.000 HD 
HETATM   27  C   UNL     1      -7.913   9.190  66.693  1.00  0.00    -0.104 A  
HETATM   28  C   UNL     1      -8.330   5.553  66.612  1.00  0.00    -0.109 A  
HETATM   29  C   UNL     1      -7.307   8.414  67.699  1.00  0.00    -0.093 A  
HETATM   30  C   UNL     1      -8.111   7.396  68.462  1.00  0.00    -0.125 C  
HETATM   31  C   UNL     1      -9.246   4.768  65.908  1.00  0.00    -0.149 A  
HETATM   32  C   UNL     1     -10.623   4.862  66.172  1.00  0.00    -0.322 A  
HETATM   33  O   UNL     1      -9.205   8.086  69.124  1.00  0.00    -0.151 OA 
HETATM   34  C   UNL     1     -11.106   5.741  67.143  1.00  0.00    -0.037 A  
HETATM   35  O   UNL     1     -11.469   7.758  69.389  1.00  0.00     0.190 OA 
HETATM   36  C   UNL     1     -10.410   7.514  68.847  1.00  0.00    -0.211 C  
HETATM   37  C   UNL     1     -10.179   6.518  67.811  1.00  0.00    -0.201 A  
BRANCH  23  38
HETATM   38  C   UNL     1      -8.069  11.135  65.143  1.00  0.00     0.325 C  
BRANCH  38  39
HETATM   39  N   UNL     1      -8.278  10.702  63.727  1.00  0.00    -0.061 NA 
BRANCH  39  40
HETATM   40  C   UNL     1      -8.775   9.285  63.739  1.00  0.00    -0.167 C  
HETATM   41  O   UNL     1      -7.914   7.361  62.518  1.00  0.00    -0.129 OA 
HETATM   42  C   UNL     1      -7.706   8.309  63.264  1.00  0.00    -0.142 C  
HETATM   43  O   UNL     1      -6.482   8.596  63.777  1.00  0.00    -0.079 OA 
ENDBRANCH  39  40
BRANCH  39  44
HETATM   44  C   UNL     1      -9.387  11.557  63.147  1.00  0.00    -0.249 C  
HETATM   45  C   UNL     1     -10.689  11.459  63.940  1.00  0.00    -0.397 C  
HETATM   46  O   UNL     1     -11.797  11.644  63.459  1.00  0.00    -0.431 OA 
HETATM   47  O   UNL     1     -10.494  11.197  65.259  1.00  0.00    -0.267 OA 
ENDBRANCH  39  44
ENDBRANCH  38  39
ENDBRANCH  23  38
ENDBRANCH  10  11
ENDBRANCH   5  10
ENDBRANCH   4   5
TORSDOF 8
ENDMDL
MODEL      163
REMARK 921   NORMALIZED FREE ENERGY PREDICTED BY IDOCK:    1.90 KCAL/MOL
REMARK 922        TOTAL FREE ENERGY PREDICTED BY IDOCK:    0.52 KCAL/MOL
REMARK 923 INTER-LIGAND FREE ENERGY PREDICTED BY IDOCK:   -5.35 KCAL/MOL
REMARK 924 INTRA-LIGAND FREE ENERGY PREDICTED BY IDOCK:    5.87 KCAL/MOL
REMARK 927      BINDING AFFINITY PREDICTED BY RF-SCORE:    0.00 PKD
ROOT
HETATM    1  O   UNL     1      -8.670   5.298  63.474  1.00  0.00    -0.098 OA 
HETATM    2  C   UNL     1      -9.368   4.323  62.848  1.00  0.00    -0.130 C  
HETATM    3  O   UNL     1     -10.475   4.511  62.366  1.00  0.00    -0.063 OA 
HETATM    4  C   UNL     1      -8.606   3.006  62.748  1.00  0.00    -0.078 C  
ENDROOT
BRANCH   4   5
HETATM    5  N   UNL     1      -7.684   2.736  63.923  1.00  0.00    -0.071 NA 
BRANCH   5   6
HETATM    6  C   UNL     1      -7.093   4.066  64.340  1.00  0.00    -0.054 C  
HETATM    7  O   UNL     1      -5.141   2.758  64.919  1.00  0.00    -0.007 OA 
HETATM    8  C   UNL     1      -5.752   3.955  65.064  1.00  0.00    -0.018 C  
HETATM    9  O   UNL     1      -5.239   4.884  65.671  1.00  0.00    -0.011 OA 
ENDBRANCH   5   6
BRANCH   5  10
HETATM   10  C   UNL     1      -8.583   2.243  65.043  1.00  0.00    -0.108 C  
BRANCH  10  11
HETATM   11  C   UNL     1      -9.279   3.361  65.804  1.00  0.00    -0.155 A  
HETATM   12  C   UNL     1      -8.664   3.907  66.931  1.00  0.00    -0.114 A  
HETATM   13  C   UNL     1      -9.308   4.867  67.743  1.00  0.00    -0.154 A  
HETATM   14  C   UNL     1     -10.529   5.398  67.340  1.00  0.00    -0.189 A  
HETATM   15  C   UNL     1     -11.142   4.898  66.185  1.00  0.00     0.302 A  
HETATM   16  O   UNL     1     -11.176   6.410  68.023  1.00  0.00    -0.311 OA 
HETATM   17  C   UNL     1     -10.613   6.906  69.183  1.00  0.00    -0.223 A  
HETATM   18  C   UNL     1     -10.528   3.875  65.444  1.00  0.00     0.099 A  
HETATM   19  O   UNL     1     -11.153   3.346  64.351  1.00  0.00    -0.612 OA 
HETATM   20  C   UNL     1     -11.237   8.005  69.792  1.00  0.00     0.019 A  
HETATM   21  C   UNL     1     -10.723   8.548  70.985  1.00  0.00    -0.228 A  
HETATM   22  H   UNL     1     -12.002   3.696  64.106  1.00  0.00     0.000 HD 
HETATM   23  C   UNL     1      -9.611   7.983  71.613  1.00  0.00    -0.218 A  
HETATM   24  O   UNL     1     -11.298   9.656  71.544  1.00  0.00    -0.381 OA 
HETATM   25  C   UNL     1      -8.467   4.081  69.953  1.00  0.00    -0.089 A  
HETATM   26  H   UNL     1     -10.951  10.022  72.350  1.00  0.00     0.000 HD 
HETATM   27  C   UNL     1      -9.013   6.876  70.993  1.00  0.00    -0.151 A  
HETATM   28  C   UNL     1      -9.359   3.250  70.616  1.00  0.00    -0.229 A  
HETATM   29  C   UNL     1      -9.472   6.361  69.765  1.00  0.00    -0.160 A  
HETATM   30  C   UNL     1      -8.711   5.264  69.069  1.00  0.00    -0.100 C  
HETATM   31  C   UNL     1      -8.835   2.212  71.389  1.00  0.00    -0.118 A  
HETATM   32  C   UNL     1      -7.447   2.012  71.477  1.00  0.00    -0.036 A  
HETATM   33  O   UNL     1      -7.368   5.746  68.799  1.00  0.00    -0.079 OA 
HETATM   34  C   UNL     1      -6.562   2.846  70.794  1.00  0.00    -0.032 A  
HETATM   35  O   UNL     1      -5.225   4.933  69.033  1.00  0.00     0.000 OA 
HETATM   36  C   UNL     1      -6.416   4.888  69.264  1.00  0.00    -0.036 C  
HETATM   37  C   UNL     1      -7.105   3.876  70.052  1.00  0.00    -0.042 A  
BRANCH  23  38
HETATM   38  C   UNL     1      -8.892   8.574  72.813  1.00  0.00    -0.127 C  
BRANCH  38  39
HETATM   39  N   UNL     1      -8.738   7.717  74.029  1.00  0.00    -0.257 NA 
BRANCH  39  40
HETATM   40  C   UNL     1     -10.068   7.087  74.329  1.00  0.00    -0.169 C  
HETATM   41  O   UNL     1     -10.943   4.947  73.562  1.00  0.00    -0.279 OA 
HETATM   42  C   UNL     1     -10.043   5.581  74.096  1.00  0.00    -0.242 C  
HETATM   43  O   UNL     1      -8.906   5.007  74.565  1.00  0.00    -0.111 OA 
ENDBRANCH  39  40
BRANCH  39  44
HETATM   44  C   UNL     1      -7.783   6.595  73.679  1.00  0.00    -0.089 C  
HETATM   45  C   UNL     1      -6.411   7.098  73.235  1.00  0.00    -0.065 C  
HETATM   46  O   UNL     1      -5.667   6.482  72.486  1.00  0.00    -0.037 OA 
HETATM   47  O   UNL     1      -6.068   8.286  73.799  1.00  0.00    -0.096 OA 
ENDBRANCH  39  44
ENDBRANCH  38  39
ENDBRANCH  23  38
ENDBRANCH  10  11
ENDBRANCH   5  10
ENDBRANCH   4   5
TORSDOF 8
ENDMDL
MODEL      164
REMARK 921   NORMALIZED FREE ENERGY PREDICTED BY IDOCK:    2.00 KCAL/MOL
REMARK 922        TOTAL FREE ENERGY PREDICTED BY IDOCK:    0.67 KCAL/MOL
REMARK 923 INTER-LIGAND FREE ENERGY PREDICTED BY IDOCK:   -3.65 KCAL/MOL
REMARK 924 INTRA-LIGAND FREE ENERGY PREDICTED BY IDOCK:    4.32 KCAL/MOL
REMARK 927      BINDING AFFINITY PREDICTED BY RF-SCORE:    0.00 PKD
ROOT
HETATM    1  O   UNL     1      -7.437   4.441  66.911  1.00  0.00    -0.079 OA 
HETATM    2  C   UNL     1      -7.554   4.174  68.232  1.00  0.00    -0.067 C  
HETATM    3  O   UNL     1      -6.973   3.244  68.770  1.00  0.00    -0.047 OA 
HETATM    4  C   UNL     1      -8.416   5.187  68.977  1.00  0.00    -0.090 C  
ENDROOT
BRANCH   4   5
HETATM    5  N   UNL     1      -9.552   5.758  68.148  1.00  0.00    -0.113 NA 
BRANCH   5   6
HETATM    6  C   UNL     1     -10.373   6.640  69.065  1.00  0.00    -0.192 C  
HETATM    7  O   UNL     1     -10.303   4.750  70.573  1.00  0.00    -0.218 OA 
HETATM    8  C   UNL     1     -10.910   5.926  70.304  1.00  0.00    -0.320 C  
HETATM    9  O   UNL     1     -11.770   6.402  71.031  1.00  0.00    -0.333 OA 
ENDBRANCH   5   6
BRANCH   5  10
HETATM   10  C   UNL     1      -8.893   6.641  67.104  1.00  0.00    -0.115 C  
BRANCH  10  11
HETATM   11  C   UNL     1      -9.561   7.998  66.941  1.00  0.00    -0.265 A  
HETATM   12  C   UNL     1      -8.770   9.132  66.757  1.00  0.00    -0.138 A  
HETATM   13  C   UNL     1      -9.323  10.430  66.712  1.00  0.00    -0.181 A  
HETATM   14  C   UNL     1     -10.706  10.588  66.704  1.00  0.00    -0.155 A  
HETATM   15  C   UNL     1     -11.521   9.457  66.838  1.00  0.00     1.697 A  
HETATM   16  O   UNL     1     -11.327  11.812  66.561  1.00  0.00    -0.325 OA 
HETATM   17  C   UNL     1     -10.553  12.952  66.455  1.00  0.00    -0.259 A  
HETATM   18  C   UNL     1     -10.946   8.183  66.978  1.00  0.00     0.219 A  
HETATM   19  O   UNL     1     -11.739   7.087  67.169  1.00  0.00    -0.369 OA 
HETATM   20  C   UNL     1     -11.210  14.166  66.203  1.00  0.00    -0.326 A  
HETATM   21  C   UNL     1     -10.481  15.365  66.100  1.00  0.00    -0.316 A  
HETATM   22  H   UNL     1     -12.681   7.213  67.194  1.00  0.00     0.000 HD 
HETATM   23  C   UNL     1      -9.097  15.385  66.288  1.00  0.00    -0.355 A  
HETATM   24  O   UNL     1     -11.117  16.537  65.794  1.00  0.00    -0.058 OA 
HETATM   25  C   UNL     1      -7.506  11.632  67.921  1.00  0.00    -0.105 A  
HETATM   26  H   UNL     1     -10.625  17.347  65.725  1.00  0.00     0.000 HD 
HETATM   27  C   UNL     1      -8.464  14.162  66.553  1.00  0.00     0.251 A  
HETATM   28  C   UNL     1      -7.770  11.809  69.272  1.00  0.00     0.217 A  
HETATM   29  C   UNL     1      -9.168  12.943  66.594  1.00  0.00    -0.222 A  
HETATM   30  C   UNL     1      -8.426  11.641  66.741  1.00  0.00    -0.177 C  
HETATM   31  C   UNL     1      -6.694  11.755  70.161  1.00  0.00     0.341 A  
HETATM   32  C   UNL     1      -5.389  11.514  69.697  1.00  0.00    -0.060 A  
HETATM   33  O   UNL     1      -7.511  11.514  65.620  1.00  0.00     0.373 OA 
HETATM   34  C   UNL     1      -5.140  11.323  68.337  1.00  0.00    -0.039 A  
HETATM   35  O   UNL     1      -5.302  10.929  65.327  1.00  0.00    -0.145 OA 
HETATM   36  C   UNL     1      -6.236  11.256  66.030  1.00  0.00     0.052 C  
HETATM   37  C   UNL     1      -6.219  11.400  67.478  1.00  0.00    -0.069 A  
BRANCH  23  38
HETATM   38  C   UNL     1      -8.202  16.589  66.055  1.00  0.00    -0.078 C  
BRANCH  38  39
HETATM   39  N   UNL     1      -7.475  17.160  67.231  1.00  0.00    -0.154 NA 
BRANCH  39  40
HETATM   40  C   UNL     1      -6.073  17.486  66.800  1.00  0.00    -0.184 C  
HETATM   41  O   UNL     1      -5.290  18.240  64.621  1.00  0.00    -0.101 OA 
HETATM   42  C   UNL     1      -6.057  18.377  65.564  1.00  0.00    -0.246 C  
HETATM   43  O   UNL     1      -6.987  19.364  65.629  1.00  0.00    -0.272 OA 
ENDBRANCH  39  40
BRANCH  39  44
HETATM   44  C   UNL     1      -8.145  18.470  67.590  1.00  0.00    -0.250 C  
HETATM   45  C   UNL     1      -7.720  19.001  68.958  1.00  0.00    -0.253 C  
HETATM   46  O   UNL     1      -8.414  19.725  69.656  1.00  0.00     0.142 OA 
HETATM   47  O   UNL     1      -6.459  18.632  69.307  1.00  0.00    -0.263 OA 
ENDBRANCH  39  44
ENDBRANCH  38  39
ENDBRANCH  23  38
ENDBRANCH  10  11
ENDBRANCH   5  10
ENDBRANCH   4   5
TORSDOF 8
ENDMDL
MODEL      165
REMARK 921   NORMALIZED FREE ENERGY PREDICTED BY IDOCK:    2.08 KCAL/MOL
REMARK 922        TOTAL FREE ENERGY PREDICTED BY IDOCK:    0.79 KCAL/MOL
REMARK 923 INTER-LIGAND FREE ENERGY PREDICTED BY IDOCK:    0.65 KCAL/MOL
REMARK 924 INTRA-LIGAND FREE ENERGY PREDICTED BY IDOCK:    0.14 KCAL/MOL
REMARK 927      BINDING AFFINITY PREDICTED BY RF-SCORE:    0.00 PKD
ROOT
HETATM    1  O   UNL     1      -8.060   8.914  63.980  1.00  0.00    -0.145 OA 
HETATM    2  C   UNL     1      -8.430  10.065  63.373  1.00  0.00    -0.182 C  
HETATM    3  O   UNL     1      -7.764  10.589  62.493  1.00  0.00    -0.149 OA 
HETATM    4  C   UNL     1      -9.782  10.589  63.847  1.00  0.00    -0.325 C  
ENDROOT
BRANCH   4   5
HETATM    5  N   UNL     1     -10.081  10.293  65.305  1.00  0.00    -0.308 NA 
BRANCH   5   6
HETATM    6  C   UNL     1      -9.006  10.973  66.127  1.00  0.00    -0.191 C  
HETATM    7  O   UNL     1      -9.227   9.055  67.586  1.00  0.00    -0.135 OA 
HETATM    8  C   UNL     1      -8.738  10.310  67.478  1.00  0.00    -0.125 C  
HETATM    9  O   UNL     1      -8.082  10.837  68.364  1.00  0.00    -0.114 OA 
ENDBRANCH   5   6
BRANCH   5  10
HETATM   10  C   UNL     1     -11.406  10.973  65.598  1.00  0.00     0.301 C  
BRANCH  10  11
HETATM   11  C   UNL     1     -11.419  12.456  65.260  1.00  0.00    -0.389 A  
HETATM   12  C   UNL     1     -10.666  13.340  66.034  1.00  0.00    -0.286 A  
HETATM   13  C   UNL     1     -10.724  14.738  65.841  1.00  0.00    -0.320 A  
HETATM   14  C   UNL     1     -11.434  15.253  64.761  1.00  0.00    -0.363 A  
HETATM   15  C   UNL     1     -12.158  14.378  63.941  1.00  0.00    -0.190 A  
HETATM   16  O   UNL     1     -11.460  16.597  64.443  1.00  0.00    -0.959 OA 
HETATM   17  C   UNL     1     -10.780  17.491  65.248  1.00  0.00     0.086 A  
HETATM   18  C   UNL     1     -12.164  12.999  64.209  1.00  0.00    -0.396 A  
HETATM   19  O   UNL     1     -12.916  12.152  63.447  1.00  0.00    -0.776 OA 
HETATM   20  C   UNL     1     -10.735  18.833  64.838  1.00  0.00     1.763 A  
HETATM   21  C   UNL     1     -10.072  19.797  65.620  1.00  0.00    -0.200 A  
HETATM   22  H   UNL     1     -13.423  12.522  62.732  1.00  0.00     0.000 HD 
HETATM   23  C   UNL     1      -9.484  19.454  66.840  1.00  0.00    -0.406 A  
HETATM   24  O   UNL     1      -9.978  21.091  65.189  1.00  0.00     0.463 OA 
HETATM   25  C   UNL     1     -10.568  15.431  68.229  1.00  0.00    -0.253 A  
HETATM   26  H   UNL     1      -9.531  21.743  65.718  1.00  0.00     0.000 HD 
HETATM   27  C   UNL     1      -9.554  18.111  67.235  1.00  0.00    -0.281 A  
HETATM   28  C   UNL     1     -11.803  15.685  68.809  1.00  0.00    -0.336 A  
HETATM   29  C   UNL     1     -10.154  17.120  66.434  1.00  0.00    -0.326 A  
HETATM   30  C   UNL     1     -10.079  15.670  66.834  1.00  0.00    -0.263 C  
HETATM   31  C   UNL     1     -11.972  15.360  70.156  1.00  0.00    -0.378 A  
HETATM   32  C   UNL     1     -10.925  14.779  70.892  1.00  0.00     0.040 A  
HETATM   33  O   UNL     1      -8.679  15.295  66.916  1.00  0.00    -0.220 OA 
HETATM   34  C   UNL     1      -9.693  14.516  70.293  1.00  0.00     1.078 A  
HETATM   35  O   UNL     1      -7.343  14.147  68.400  1.00  0.00    -0.098 OA 
HETATM   36  C   UNL     1      -8.376  14.715  68.112  1.00  0.00    -0.144 C  
HETATM   37  C   UNL     1      -9.546  14.865  68.964  1.00  0.00    -0.204 A  
BRANCH  23  38
HETATM   38  C   UNL     1      -8.624  20.378  67.684  1.00  0.00    -0.222 C  
BRANCH  38  39
HETATM   39  N   UNL     1      -8.594  20.151  69.162  1.00  0.00     0.288 NA 
BRANCH  39  40
HETATM   40  C   UNL     1     -10.000  19.895  69.624  1.00  0.00     0.102 C  
HETATM   41  O   UNL     1     -10.753  18.715  71.618  1.00  0.00     2.059 OA 
HETATM   42  C   UNL     1     -10.055  19.586  71.116  1.00  0.00     2.325 C  
HETATM   43  O   UNL     1      -9.247  20.400  71.841  1.00  0.00     1.512 OA 
ENDBRANCH  39  40
BRANCH  39  44
HETATM   44  C   UNL     1      -7.806  18.882  69.413  1.00  0.00     0.133 C  
HETATM   45  C   UNL     1      -6.331  19.147  69.711  1.00  0.00    -0.227 C  
HETATM   46  O   UNL     1      -5.434  18.348  69.486  1.00  0.00    -0.196 OA 
HETATM   47  O   UNL     1      -6.113  20.349  70.308  1.00  0.00    -0.394 OA 
ENDBRANCH  39  44
ENDBRANCH  38  39
ENDBRANCH  23  38
ENDBRANCH  10  11
ENDBRANCH   5  10
ENDBRANCH   4   5
TORSDOF 8
ENDMDL
MODEL      166
REMARK 921   NORMALIZED FREE ENERGY PREDICTED BY IDOCK:    2.30 KCAL/MOL
REMARK 922        TOTAL FREE ENERGY PREDICTED BY IDOCK:    1.11 KCAL/MOL
REMARK 923 INTER-LIGAND FREE ENERGY PREDICTED BY IDOCK:   -0.91 KCAL/MOL
REMARK 924 INTRA-LIGAND FREE ENERGY PREDICTED BY IDOCK:    2.02 KCAL/MOL
REMARK 927      BINDING AFFINITY PREDICTED BY RF-SCORE:    0.00 PKD
ROOT
HETATM    1  O   UNL     1     -10.221   3.433  70.053  1.00  0.00     0.411 OA 
HETATM    2  C   UNL     1      -9.125   2.960  69.416  1.00  0.00    -0.132 C  
HETATM    3  O   UNL     1      -9.148   2.590  68.252  1.00  0.00    -0.138 OA 
HETATM    4  C   UNL     1      -7.863   3.008  70.271  1.00  0.00    -0.043 C  
ENDROOT
BRANCH   4   5
HETATM    5  N   UNL     1      -8.113   2.791  71.752  1.00  0.00    -0.056 NA 
BRANCH   5   6
HETATM    6  C   UNL     1      -6.800   2.354  72.366  1.00  0.00    -0.019 C  
HETATM    7  O   UNL     1      -7.995   2.496  74.465  1.00  0.00    -0.053 OA 
HETATM    8  C   UNL     1      -6.774   2.409  73.893  1.00  0.00    -0.023 C  
HETATM    9  O   UNL     1      -5.747   2.317  74.549  1.00  0.00    -0.003 OA 
ENDBRANCH   5   6
BRANCH   5  10
HETATM   10  C   UNL     1      -8.469   4.157  72.312  1.00  0.00    -0.103 C  
BRANCH  10  11
HETATM   11  C   UNL     1      -7.746   5.306  71.625  1.00  0.00    -0.108 A  
HETATM   12  C   UNL     1      -8.409   6.041  70.643  1.00  0.00    -0.125 A  
HETATM   13  C   UNL     1      -7.758   7.044  69.892  1.00  0.00    -0.108 A  
HETATM   14  C   UNL     1      -6.461   7.421  70.229  1.00  0.00    -0.035 A  
HETATM   15  C   UNL     1      -5.793   6.728  71.246  1.00  0.00    -0.036 A  
HETATM   16  O   UNL     1      -5.790   8.458  69.613  1.00  0.00    -0.029 OA 
HETATM   17  C   UNL     1      -6.409   9.144  68.585  1.00  0.00    -0.049 A  
HETATM   18  C   UNL     1      -6.427   5.668  71.916  1.00  0.00    -0.052 A  
HETATM   19  O   UNL     1      -5.756   4.954  72.866  1.00  0.00    -0.012 OA 
HETATM   20  C   UNL     1      -5.746  10.260  68.054  1.00  0.00    -0.041 A  
HETATM   21  C   UNL     1      -6.315  10.993  66.995  1.00  0.00    -0.088 A  
HETATM   22  H   UNL     1      -4.859   5.200  73.064  1.00  0.00     0.000 HD 
HETATM   23  C   UNL     1      -7.527  10.604  66.421  1.00  0.00    -0.138 A  
HETATM   24  O   UNL     1      -5.695  12.115  66.519  1.00  0.00    -0.493 OA 
HETATM   25  C   UNL     1      -8.866   6.622  67.701  1.00  0.00    -0.116 A  
HETATM   26  H   UNL     1      -6.079  12.610  65.804  1.00  0.00     0.000 HD 
HETATM   27  C   UNL     1      -8.164   9.477  66.959  1.00  0.00    -0.113 A  
HETATM   28  C   UNL     1      -8.118   5.817  66.854  1.00  0.00    -0.102 A  
HETATM   29  C   UNL     1      -7.644   8.771  68.061  1.00  0.00    -0.097 A  
HETATM   30  C   UNL     1      -8.434   7.657  68.693  1.00  0.00    -0.129 C  
HETATM   31  C   UNL     1      -8.803   4.933  66.018  1.00  0.00    -0.126 A  
HETATM   32  C   UNL     1     -10.206   4.856  66.049  1.00  0.00    -0.287 A  
HETATM   33  O   UNL     1      -9.697   8.204  69.156  1.00  0.00    -0.160 OA 
HETATM   34  C   UNL     1     -10.945   5.662  66.915  1.00  0.00    -0.162 A  
HETATM   35  O   UNL     1     -11.918   7.601  69.046  1.00  0.00     1.198 OA 
HETATM   36  C   UNL     1     -10.762   7.492  68.690  1.00  0.00    -0.077 C  
HETATM   37  C   UNL     1     -10.244   6.540  67.718  1.00  0.00    -0.201 A  
BRANCH  23  38
HETATM   38  C   UNL     1      -8.296  11.401  65.382  1.00  0.00     0.306 C  
BRANCH  38  39
HETATM   39  N   UNL     1      -9.657  11.900  65.747  1.00  0.00    -0.237 NA 
BRANCH  39  40
HETATM   40  C   UNL     1      -9.623  12.340  67.183  1.00  0.00    -0.200 C  
HETATM   41  O   UNL     1     -11.461  12.466  68.777  1.00  0.00    -0.256 OA 
HETATM   42  C   UNL     1     -10.823  11.814  67.961  1.00  0.00    -0.213 C  
HETATM   43  O   UNL     1     -11.104  10.520  67.662  1.00  0.00    -0.300 OA 
ENDBRANCH  39  40
BRANCH  39  44
HETATM   44  C   UNL     1      -9.930  13.134  64.911  1.00  0.00    -0.130 C  
HETATM   45  C   UNL     1      -9.175  14.366  65.404  1.00  0.00     0.729 C  
HETATM   46  O   UNL     1      -9.555  15.515  65.232  1.00  0.00    -0.244 OA 
HETATM   47  O   UNL     1      -7.998  14.065  66.015  1.00  0.00     1.480 OA 
ENDBRANCH  39  44
ENDBRANCH  38  39
ENDBRANCH  23  38
ENDBRANCH  10  11
ENDBRANCH   5  10
ENDBRANCH   4   5
TORSDOF 8
ENDMDL
MODEL      167
REMARK 921   NORMALIZED FREE ENERGY PREDICTED BY IDOCK:    2.32 KCAL/MOL
REMARK 922        TOTAL FREE ENERGY PREDICTED BY IDOCK:    1.14 KCAL/MOL
REMARK 923 INTER-LIGAND FREE ENERGY PREDICTED BY IDOCK:   -3.64 KCAL/MOL
REMARK 924 INTRA-LIGAND FREE ENERGY PREDICTED BY IDOCK:    4.78 KCAL/MOL
REMARK 927      BINDING AFFINITY PREDICTED BY RF-SCORE:    0.00 PKD
ROOT
HETATM    1  O   UNL     1     -10.721  16.979  68.405  1.00  0.00    -0.354 OA 
HETATM    2  C   UNL     1     -11.355  16.285  67.433  1.00  0.00     0.113 C  
HETATM    3  O   UNL     1     -12.348  16.710  66.860  1.00  0.00     2.187 OA 
HETATM    4  C   UNL     1     -10.665  14.971  67.083  1.00  0.00    -0.303 C  
ENDROOT
BRANCH   4   5
HETATM    5  N   UNL     1      -9.980  14.302  68.260  1.00  0.00    -0.232 NA 
BRANCH   5   6
HETATM    6  C   UNL     1      -8.785  15.157  68.625  1.00  0.00    -0.174 C  
HETATM    7  O   UNL     1      -7.511  13.135  68.248  1.00  0.00    -0.109 OA 
HETATM    8  C   UNL     1      -7.482  14.375  68.783  1.00  0.00    -0.133 C  
HETATM    9  O   UNL     1      -6.475  14.847  69.291  1.00  0.00    -0.105 OA 
ENDBRANCH   5   6
BRANCH   5  10
HETATM   10  C   UNL     1     -10.977  14.365  69.404  1.00  0.00    -0.231 C  
BRANCH  10  11
HETATM   11  C   UNL     1     -11.375  12.999  69.942  1.00  0.00    -0.037 A  
HETATM   12  C   UNL     1     -10.483  11.932  69.827  1.00  0.00     0.692 A  
HETATM   13  C   UNL     1     -10.837  10.618  70.206  1.00  0.00    -0.157 A  
HETATM   14  C   UNL     1     -12.051  10.392  70.847  1.00  0.00    -0.374 A  
HETATM   15  C   UNL     1     -12.942  11.459  71.017  1.00  0.00    -0.280 A  
HETATM   16  O   UNL     1     -12.429   9.157  71.338  1.00  0.00    -0.308 OA 
HETATM   17  C   UNL     1     -11.587   8.076  71.161  1.00  0.00    -0.282 A  
HETATM   18  C   UNL     1     -12.609  12.740  70.546  1.00  0.00    -0.114 A  
HETATM   19  O   UNL     1     -13.501  13.768  70.659  1.00  0.00    -0.005 OA 
HETATM   20  C   UNL     1     -11.948   6.862  71.765  1.00  0.00    -0.372 A  
HETATM   21  C   UNL     1     -11.142   5.719  71.610  1.00  0.00    -0.226 A  
HETATM   22  H   UNL     1     -14.340  13.592  71.070  1.00  0.00     0.000 HD 
HETATM   23  C   UNL     1      -9.991   5.751  70.820  1.00  0.00    -0.249 A  
HETATM   24  O   UNL     1     -11.465   4.553  72.248  1.00  0.00     0.291 OA 
HETATM   25  C   UNL     1      -9.645   9.395  68.392  1.00  0.00    -0.157 A  
HETATM   26  H   UNL     1     -10.921   3.781  72.144  1.00  0.00     0.000 HD 
HETATM   27  C   UNL     1      -9.658   6.972  70.215  1.00  0.00    -0.168 A  
HETATM   28  C   UNL     1     -10.463   9.067  67.321  1.00  0.00    -0.343 A  
HETATM   29  C   UNL     1     -10.415   8.142  70.412  1.00  0.00    -0.217 A  
HETATM   30  C   UNL     1      -9.939   9.459  69.858  1.00  0.00    -0.212 C  
HETATM   31  C   UNL     1      -9.905   9.085  66.041  1.00  0.00    -0.312 A  
HETATM   32  C   UNL     1      -8.558   9.439  65.850  1.00  0.00    -0.155 A  
HETATM   33  O   UNL     1      -8.637   9.748  70.434  1.00  0.00    -0.188 OA 
HETATM   34  C   UNL     1      -7.750   9.781  66.934  1.00  0.00    -0.098 A  
HETATM   35  O   UNL     1      -6.593  10.473  69.659  1.00  0.00    -0.069 OA 
HETATM   36  C   UNL     1      -7.707  10.027  69.478  1.00  0.00    -0.146 C  
HETATM   37  C   UNL     1      -8.322   9.737  68.191  1.00  0.00    -0.110 A  
BRANCH  23  38
HETATM   38  C   UNL     1      -8.979   4.625  70.706  1.00  0.00    -0.122 C  
BRANCH  38  39
HETATM   39  N   UNL     1      -8.508   4.241  69.339  1.00  0.00    -0.072 NA 
BRANCH  39  40
HETATM   40  C   UNL     1      -8.631   2.751  69.204  1.00  0.00    -0.073 C  
HETATM   41  O   UNL     1     -10.085   1.473  67.725  1.00  0.00     0.357 OA 
HETATM   42  C   UNL     1      -9.249   2.355  67.868  1.00  0.00    -0.202 C  
HETATM   43  O   UNL     1      -8.755   3.085  66.836  1.00  0.00    -0.110 OA 
ENDBRANCH  39  40
BRANCH  39  44
HETATM   44  C   UNL     1      -9.463   4.858  68.337  1.00  0.00    -0.139 C  
HETATM   45  C   UNL     1      -8.747   5.529  67.167  1.00  0.00    -0.107 C  
HETATM   46  O   UNL     1      -9.213   6.455  66.520  1.00  0.00    -0.149 OA 
HETATM   47  O   UNL     1      -7.548   4.958  66.875  1.00  0.00    -0.086 OA 
ENDBRANCH  39  44
ENDBRANCH  38  39
ENDBRANCH  23  38
ENDBRANCH  10  11
ENDBRANCH   5  10
ENDBRANCH   4   5
TORSDOF 8
ENDMDL
MODEL      168
REMARK 921   NORMALIZED FREE ENERGY PREDICTED BY IDOCK:    2.43 KCAL/MOL
REMARK 922        TOTAL FREE ENERGY PREDICTED BY IDOCK:    1.31 KCAL/MOL
REMARK 923 INTER-LIGAND FREE ENERGY PREDICTED BY IDOCK:   -2.58 KCAL/MOL
REMARK 924 INTRA-LIGAND FREE ENERGY PREDICTED BY IDOCK:    3.88 KCAL/MOL
REMARK 927      BINDING AFFINITY PREDICTED BY RF-SCORE:    0.00 PKD
ROOT
HETATM    1  O   UNL     1     -11.545  15.798  68.572  1.00  0.00    -0.368 OA 
HETATM    2  C   UNL     1     -11.112  15.690  67.295  1.00  0.00    -0.238 C  
HETATM    3  O   UNL     1     -11.783  15.178  66.412  1.00  0.00    -0.194 OA 
HETATM    4  C   UNL     1      -9.748  16.331  67.066  1.00  0.00    -0.239 C  
ENDROOT
BRANCH   4   5
HETATM    5  N   UNL     1      -8.817  16.247  68.262  1.00  0.00    -0.184 NA 
BRANCH   5   6
HETATM    6  C   UNL     1      -9.412  15.235  69.218  1.00  0.00    -0.242 C  
HETATM    7  O   UNL     1     -10.512  17.151  70.205  1.00  0.00     0.087 OA 
HETATM    8  C   UNL     1     -10.184  15.852  70.384  1.00  0.00     0.159 C  
HETATM    9  O   UNL     1     -10.533  15.216  71.368  1.00  0.00     0.172 OA 
ENDBRANCH   5   6
BRANCH   5  10
HETATM   10  C   UNL     1      -7.512  15.687  67.728  1.00  0.00    -0.145 C  
BRANCH  10  11
HETATM   11  C   UNL     1      -7.042  14.434  68.453  1.00  0.00    -0.106 A  
HETATM   12  C   UNL     1      -7.292  13.183  67.888  1.00  0.00    -0.131 A  
HETATM   13  C   UNL     1      -6.982  11.983  68.564  1.00  0.00    -0.090 A  
HETATM   14  C   UNL     1      -6.275  12.032  69.762  1.00  0.00    -0.136 A  
HETATM   15  C   UNL     1      -5.971  13.279  70.323  1.00  0.00    -0.134 A  
HETATM   16  O   UNL     1      -5.846  10.905  70.434  1.00  0.00    -0.101 OA 
HETATM   17  C   UNL     1      -6.154   9.658  69.924  1.00  0.00    -0.043 A  
HETATM   18  C   UNL     1      -6.374  14.461  69.680  1.00  0.00    -0.140 A  
HETATM   19  O   UNL     1      -6.129  15.675  70.256  1.00  0.00    -0.146 OA 
HETATM   20  C   UNL     1      -5.612   8.537  70.570  1.00  0.00    -0.027 A  
HETATM   21  C   UNL     1      -5.901   7.238  70.110  1.00  0.00    -0.024 A  
HETATM   22  H   UNL     1      -5.675  15.693  71.091  1.00  0.00     0.000 HD 
HETATM   23  C   UNL     1      -6.765   7.032  69.032  1.00  0.00    -0.056 A  
HETATM   24  O   UNL     1      -5.323   6.150  70.704  1.00  0.00    -0.013 OA 
HETATM   25  C   UNL     1      -8.953  10.646  67.834  1.00  0.00    -0.138 A  
HETATM   26  H   UNL     1      -5.519   5.273  70.393  1.00  0.00     0.000 HD 
HETATM   27  C   UNL     1      -7.306   8.167  68.412  1.00  0.00    -0.094 A  
HETATM   28  C   UNL     1      -9.985  10.639  68.761  1.00  0.00    -0.201 A  
HETATM   29  C   UNL     1      -6.976   9.475  68.815  1.00  0.00    -0.067 A  
HETATM   30  C   UNL     1      -7.469  10.661  68.029  1.00  0.00    -0.090 C  
HETATM   31  C   UNL     1     -11.297  10.617  68.281  1.00  0.00    -0.357 A  
HETATM   32  C   UNL     1     -11.556  10.617  66.899  1.00  0.00     0.606 A  
HETATM   33  O   UNL     1      -6.966  10.545  66.671  1.00  0.00    -0.099 OA 
HETATM   34  C   UNL     1     -10.509  10.639  65.978  1.00  0.00    -0.250 A  
HETATM   35  O   UNL     1      -7.829  10.766  64.547  1.00  0.00     0.033 OA 
HETATM   36  C   UNL     1      -7.963  10.648  65.748  1.00  0.00    -0.152 C  
HETATM   37  C   UNL     1      -9.222  10.642  66.480  1.00  0.00    -0.187 A  
BRANCH  23  38
HETATM   38  C   UNL     1      -7.026   5.692  68.367  1.00  0.00    -0.065 C  
BRANCH  38  39
HETATM   39  N   UNL     1      -7.795   4.666  69.137  1.00  0.00    -0.070 NA 
BRANCH  39  40
HETATM   40  C   UNL     1      -9.247   5.051  69.106  1.00  0.00    -0.110 C  
HETATM   41  O   UNL     1     -11.062   4.245  70.517  1.00  0.00     1.513 OA 
HETATM   42  C   UNL     1      -9.942   4.729  70.424  1.00  0.00    -0.245 C  
HETATM   43  O   UNL     1      -9.182   5.057  71.500  1.00  0.00    -0.140 OA 
ENDBRANCH  39  40
BRANCH  39  44
HETATM   44  C   UNL     1      -7.669   3.350  68.395  1.00  0.00    -0.056 C  
HETATM   45  C   UNL     1      -6.368   3.237  67.603  1.00  0.00    -0.036 C  
HETATM   46  O   UNL     1      -6.235   2.548  66.602  1.00  0.00    -0.023 OA 
HETATM   47  O   UNL     1      -5.343   3.942  68.152  1.00  0.00    -0.011 OA 
ENDBRANCH  39  44
ENDBRANCH  38  39
ENDBRANCH  23  38
ENDBRANCH  10  11
ENDBRANCH   5  10
ENDBRANCH   4   5
TORSDOF 8
ENDMDL
MODEL      169
REMARK 921   NORMALIZED FREE ENERGY PREDICTED BY IDOCK:    3.43 KCAL/MOL
REMARK 922        TOTAL FREE ENERGY PREDICTED BY IDOCK:    2.76 KCAL/MOL
REMARK 923 INTER-LIGAND FREE ENERGY PREDICTED BY IDOCK:   -4.13 KCAL/MOL
REMARK 924 INTRA-LIGAND FREE ENERGY PREDICTED BY IDOCK:    6.89 KCAL/MOL
REMARK 927      BINDING AFFINITY PREDICTED BY RF-SCORE:    0.00 PKD
ROOT
HETATM    1  O   UNL     1      -6.566  19.511  67.982  1.00  0.00    -0.228 OA 
HETATM    2  C   UNL     1      -6.923  18.659  68.969  1.00  0.00    -0.281 C  
HETATM    3  O   UNL     1      -6.695  18.884  70.148  1.00  0.00     0.059 OA 
HETATM    4  C   UNL     1      -7.694  17.443  68.467  1.00  0.00    -0.267 C  
ENDROOT
BRANCH   4   5
HETATM    5  N   UNL     1      -7.274  16.974  67.085  1.00  0.00    -0.158 NA 
BRANCH   5   6
HETATM    6  C   UNL     1      -6.093  17.824  66.667  1.00  0.00    -0.172 C  
HETATM    7  O   UNL     1      -7.590  18.664  64.963  1.00  0.00     0.267 OA 
HETATM    8  C   UNL     1      -6.301  18.584  65.358  1.00  0.00    -0.271 C  
HETATM    9  O   UNL     1      -5.393  19.131  64.749  1.00  0.00    -0.164 OA 
ENDBRANCH   5   6
BRANCH   5  10
HETATM   10  C   UNL     1      -6.792  15.546  67.266  1.00  0.00    -0.133 C  
BRANCH  10  11
HETATM   11  C   UNL     1      -7.833  14.623  67.880  1.00  0.00    -0.143 A  
HETATM   12  C   UNL     1      -7.680  13.242  67.758  1.00  0.00    -0.159 A  
HETATM   13  C   UNL     1      -8.667  12.338  68.208  1.00  0.00    -0.178 A  
HETATM   14  C   UNL     1      -9.760  12.815  68.925  1.00  0.00     0.201 A  
HETATM   15  C   UNL     1      -9.908  14.197  69.102  1.00  0.00     0.054 A  
HETATM   16  O   UNL     1     -10.716  11.991  69.485  1.00  0.00    -0.016 OA 
HETATM   17  C   UNL     1     -10.616  10.624  69.305  1.00  0.00    -0.233 A  
HETATM   18  C   UNL     1      -8.963  15.085  68.562  1.00  0.00    -0.186 A  
HETATM   19  O   UNL     1      -9.138  16.433  68.684  1.00  0.00    -0.213 OA 
HETATM   20  C   UNL     1     -11.540   9.809  69.976  1.00  0.00    -0.185 A  
HETATM   21  C   UNL     1     -11.503   8.411  69.822  1.00  0.00     0.262 A  
HETATM   22  H   UNL     1      -9.906  16.747  69.148  1.00  0.00     0.000 HD 
HETATM   23  C   UNL     1     -10.578   7.805  68.968  1.00  0.00    -0.179 A  
HETATM   24  O   UNL     1     -12.365   7.614  70.524  1.00  0.00    -0.511 OA 
HETATM   25  C   UNL     1      -8.465  10.656  66.381  1.00  0.00    -0.152 A  
HETATM   26  H   UNL     1     -12.340   6.670  70.420  1.00  0.00     0.000 HD 
HETATM   27  C   UNL     1      -9.675   8.641  68.297  1.00  0.00    -0.171 A  
HETATM   28  C   UNL     1      -9.402  10.827  65.371  1.00  0.00    -0.243 A  
HETATM   29  C   UNL     1      -9.654  10.036  68.489  1.00  0.00    -0.157 A  
HETATM   30  C   UNL     1      -8.575  10.875  67.857  1.00  0.00    -0.130 C  
HETATM   31  C   UNL     1      -9.014  10.533  64.062  1.00  0.00    -0.235 A  
HETATM   32  C   UNL     1      -7.709  10.091  63.782  1.00  0.00    -0.148 A  
HETATM   33  O   UNL     1      -7.291  10.405  68.348  1.00  0.00    -0.081 OA 
HETATM   34  C   UNL     1      -6.773   9.937  64.805  1.00  0.00    -0.122 A  
HETATM   35  O   UNL     1      -5.242   9.889  67.431  1.00  0.00    -0.035 OA 
HETATM   36  C   UNL     1      -6.428  10.127  67.330  1.00  0.00    -0.068 C  
HETATM   37  C   UNL     1      -7.189  10.217  66.092  1.00  0.00    -0.121 A  
BRANCH  23  38
HETATM   38  C   UNL     1     -10.357   6.308  68.842  1.00  0.00    -0.204 C  
BRANCH  38  39
HETATM   39  N   UNL     1      -9.544   5.814  67.688  1.00  0.00    -0.112 NA 
BRANCH  39  40
HETATM   40  C   UNL     1      -8.114   6.209  67.921  1.00  0.00    -0.114 C  
HETATM   41  O   UNL     1      -6.922   6.426  70.034  1.00  0.00    -0.062 OA 
HETATM   42  C   UNL     1      -7.619   5.751  69.287  1.00  0.00    -0.088 C  
HETATM   43  O   UNL     1      -8.024   4.492  69.587  1.00  0.00    -0.061 OA 
ENDBRANCH  39  40
BRANCH  39  44
HETATM   44  C   UNL     1      -9.596   4.300  67.709  1.00  0.00    -0.158 C  
HETATM   45  C   UNL     1      -9.819   3.693  66.325  1.00  0.00     0.008 C  
HETATM   46  O   UNL     1     -10.349   2.608  66.132  1.00  0.00     1.304 OA 
HETATM   47  O   UNL     1      -9.319   4.457  65.319  1.00  0.00    -0.148 OA 
ENDBRANCH  39  44
ENDBRANCH  38  39
ENDBRANCH  23  38
ENDBRANCH  10  11
ENDBRANCH   5  10
ENDBRANCH   4   5
TORSDOF 8
ENDMDL
MODEL      170
REMARK 921   NORMALIZED FREE ENERGY PREDICTED BY IDOCK:    3.59 KCAL/MOL
REMARK 922        TOTAL FREE ENERGY PREDICTED BY IDOCK:    3.01 KCAL/MOL
REMARK 923 INTER-LIGAND FREE ENERGY PREDICTED BY IDOCK:   -0.96 KCAL/MOL
REMARK 924 INTRA-LIGAND FREE ENERGY PREDICTED BY IDOCK:    3.97 KCAL/MOL
REMARK 927      BINDING AFFINITY PREDICTED BY RF-SCORE:    0.00 PKD
ROOT
HETATM    1  O   UNL     1      -6.773  10.841  69.625  1.00  0.00    -0.092 OA 
HETATM    2  C   UNL     1      -6.592  11.510  68.464  1.00  0.00    -0.063 C  
HETATM    3  O   UNL     1      -5.887  12.504  68.380  1.00  0.00    -0.053 OA 
HETATM    4  C   UNL     1      -7.293  10.859  67.277  1.00  0.00    -0.103 C  
ENDROOT
BRANCH   4   5
HETATM    5  N   UNL     1      -8.596  10.166  67.635  1.00  0.00    -0.118 NA 
BRANCH   5   6
HETATM    6  C   UNL     1      -9.348  11.087  68.571  1.00  0.00    -0.188 C  
HETATM    7  O   UNL     1     -10.329   9.047  69.425  1.00  0.00    -0.202 OA 
HETATM    8  C   UNL     1     -10.433  10.394  69.394  1.00  0.00    -0.238 C  
HETATM    9  O   UNL     1     -11.287  11.001  70.024  1.00  0.00    -0.285 OA 
ENDBRANCH   5   6
BRANCH   5  10
HETATM   10  C   UNL     1      -9.377  10.065  66.337  1.00  0.00    -0.168 C  
BRANCH  10  11
HETATM   11  C   UNL     1      -9.764  11.415  65.752  1.00  0.00    -0.263 A  
HETATM   12  C   UNL     1      -9.608  12.566  66.525  1.00  0.00    -0.242 A  
HETATM   13  C   UNL     1     -10.052  13.830  66.080  1.00  0.00    -0.314 A  
HETATM   14  C   UNL     1     -10.528  13.973  64.781  1.00  0.00    -0.421 A  
HETATM   15  C   UNL     1     -10.648  12.838  63.970  1.00  0.00    -0.446 A  
HETATM   16  O   UNL     1     -10.888  15.190  64.236  1.00  0.00    -0.061 OA 
HETATM   17  C   UNL     1     -10.810  16.327  65.018  1.00  0.00    -0.320 A  
HETATM   18  C   UNL     1     -10.289  11.573  64.466  1.00  0.00    -0.302 A  
HETATM   19  O   UNL     1     -10.461  10.458  63.696  1.00  0.00    -0.422 OA 
HETATM   20  C   UNL     1     -11.078  17.560  64.404  1.00  0.00     2.098 A  
HETATM   21  C   UNL     1     -11.031  18.754  65.149  1.00  0.00     1.016 A  
HETATM   22  H   UNL     1     -10.819  10.566  62.822  1.00  0.00     0.000 HD 
HETATM   23  C   UNL     1     -10.762  18.738  66.519  1.00  0.00    -0.335 A  
HETATM   24  O   UNL     1     -11.234  19.960  64.536  1.00  0.00     0.073 OA 
HETATM   25  C   UNL     1     -10.857  14.710  68.268  1.00  0.00    -0.249 A  
HETATM   26  H   UNL     1     -11.202  20.766  65.038  1.00  0.00     0.000 HD 
HETATM   27  C   UNL     1     -10.511  17.493  67.113  1.00  0.00    -0.312 A  
HETATM   28  C   UNL     1     -12.222  14.546  68.457  1.00  0.00    -0.164 A  
HETATM   29  C   UNL     1     -10.488  16.295  66.372  1.00  0.00    -0.297 A  
HETATM   30  C   UNL     1     -10.074  15.004  67.026  1.00  0.00    -0.244 C  
HETATM   31  C   UNL     1     -12.677  14.283  69.751  1.00  0.00    -0.003 A  
HETATM   32  C   UNL     1     -11.773  14.175  70.821  1.00  0.00    -0.231 A  
HETATM   33  O   UNL     1      -8.722  15.164  67.530  1.00  0.00    -0.164 OA 
HETATM   34  C   UNL     1     -10.401  14.328  70.615  1.00  0.00     1.460 A  
HETATM   35  O   UNL     1      -7.602  14.688  69.485  1.00  0.00    -0.132 OA 
HETATM   36  C   UNL     1      -8.625  14.824  68.846  1.00  0.00    -0.160 C  
HETATM   37  C   UNL     1      -9.981  14.606  69.329  1.00  0.00    -0.100 A  
BRANCH  23  38
HETATM   38  C   UNL     1     -10.544  19.969  67.380  1.00  0.00    -0.302 C  
BRANCH  38  39
HETATM   39  N   UNL     1      -9.339  20.002  68.266  1.00  0.00    -0.263 NA 
BRANCH  39  40
HETATM   40  C   UNL     1      -9.788  19.742  69.675  1.00  0.00     0.094 C  
HETATM   41  O   UNL     1     -10.561  17.654  70.664  1.00  0.00     0.903 OA 
HETATM   42  C   UNL     1      -9.710  18.261  70.027  1.00  0.00     1.238 C  
HETATM   43  O   UNL     1      -8.572  17.682  69.567  1.00  0.00     0.355 OA 
ENDBRANCH  39  40
BRANCH  39  44
HETATM   44  C   UNL     1      -8.446  18.845  67.864  1.00  0.00    -0.290 C  
HETATM   45  C   UNL     1      -7.151  19.299  67.194  1.00  0.00    -0.203 C  
HETATM   46  O   UNL     1      -6.522  18.623  66.393  1.00  0.00    -0.181 OA 
HETATM   47  O   UNL     1      -6.728  20.520  67.618  1.00  0.00    -0.265 OA 
ENDBRANCH  39  44
ENDBRANCH  38  39
ENDBRANCH  23  38
ENDBRANCH  10  11
ENDBRANCH   5  10
ENDBRANCH   4   5
TORSDOF 8
ENDMDL
MODEL      171
REMARK 921   NORMALIZED FREE ENERGY PREDICTED BY IDOCK:    3.93 KCAL/MOL
REMARK 922        TOTAL FREE ENERGY PREDICTED BY IDOCK:    3.50 KCAL/MOL
REMARK 923 INTER-LIGAND FREE ENERGY PREDICTED BY IDOCK:    0.23 KCAL/MOL
REMARK 924 INTRA-LIGAND FREE ENERGY PREDICTED BY IDOCK:    3.27 KCAL/MOL
REMARK 927      BINDING AFFINITY PREDICTED BY RF-SCORE:    0.00 PKD
ROOT
HETATM    1  O   UNL     1     -10.913   3.042  70.143  1.00  0.00     3.260 OA 
HETATM    2  C   UNL     1      -9.578   2.893  70.300  1.00  0.00    -0.071 C  
HETATM    3  O   UNL     1      -9.090   2.258  71.222  1.00  0.00    -0.080 OA 
HETATM    4  C   UNL     1      -8.765   3.530  69.178  1.00  0.00    -0.089 C  
ENDROOT
BRANCH   4   5
HETATM    5  N   UNL     1      -9.392   4.785  68.598  1.00  0.00    -0.128 NA 
BRANCH   5   6
HETATM    6  C   UNL     1      -9.569   5.763  69.740  1.00  0.00    -0.157 C  
HETATM    7  O   UNL     1     -11.765   6.124  68.791  1.00  0.00     0.088 OA 
HETATM    8  C   UNL     1     -10.841   6.605  69.652  1.00  0.00    -0.286 C  
HETATM    9  O   UNL     1     -11.040   7.593  70.345  1.00  0.00    -0.259 OA 
ENDBRANCH   5   6
BRANCH   5  10
HETATM   10  C   UNL     1      -8.360   5.354  67.640  1.00  0.00    -0.099 C  
BRANCH  10  11
HETATM   11  C   UNL     1      -7.662   6.600  68.164  1.00  0.00    -0.105 A  
HETATM   12  C   UNL     1      -8.266   7.846  67.992  1.00  0.00    -0.127 A  
HETATM   13  C   UNL     1      -7.619   9.047  68.356  1.00  0.00    -0.090 A  
HETATM   14  C   UNL     1      -6.407   8.995  69.037  1.00  0.00    -0.043 A  
HETATM   15  C   UNL     1      -5.805   7.750  69.264  1.00  0.00    -0.030 A  
HETATM   16  O   UNL     1      -5.758  10.116  69.515  1.00  0.00    -0.037 OA 
HETATM   17  C   UNL     1      -6.309  11.362  69.284  1.00  0.00    -0.084 A  
HETATM   18  C   UNL     1      -6.422   6.573  68.808  1.00  0.00    -0.043 A  
HETATM   19  O   UNL     1      -5.807   5.365  68.977  1.00  0.00    -0.020 OA 
HETATM   20  C   UNL     1      -5.685  12.471  69.874  1.00  0.00    -0.124 A  
HETATM   21  C   UNL     1      -6.187  13.769  69.665  1.00  0.00    -0.121 A  
HETATM   22  H   UNL     1      -4.964   5.347  69.415  1.00  0.00     0.000 HD 
HETATM   23  C   UNL     1      -7.286  13.990  68.833  1.00  0.00    -0.113 A  
HETATM   24  O   UNL     1      -5.613  14.842  70.290  1.00  0.00    -0.113 OA 
HETATM   25  C   UNL     1      -8.424  10.466  66.473  1.00  0.00    -0.132 A  
HETATM   26  H   UNL     1      -5.951  15.719  70.148  1.00  0.00     0.000 HD 
HETATM   27  C   UNL     1      -7.885  12.868  68.242  1.00  0.00    -0.142 A  
HETATM   28  C   UNL     1      -7.517  10.556  65.426  1.00  0.00    -0.089 A  
HETATM   29  C   UNL     1      -7.438  11.556  68.493  1.00  0.00    -0.115 A  
HETATM   30  C   UNL     1      -8.200  10.377  67.950  1.00  0.00    -0.106 C  
HETATM   31  C   UNL     1      -8.023  10.634  64.127  1.00  0.00     0.096 A  
HETATM   32  C   UNL     1      -9.409  10.607  63.893  1.00  0.00    -0.302 A  
HETATM   33  O   UNL     1      -9.550  10.426  68.483  1.00  0.00    -0.147 OA 
HETATM   34  C   UNL     1     -10.309  10.502  64.953  1.00  0.00    -0.307 A  
HETATM   35  O   UNL     1     -11.684  10.190  67.647  1.00  0.00    -0.064 OA 
HETATM   36  C   UNL     1     -10.490  10.349  67.498  1.00  0.00    -0.245 C  
HETATM   37  C   UNL     1      -9.783  10.445  66.229  1.00  0.00    -0.256 A  
BRANCH  23  38
HETATM   38  C   UNL     1      -7.993  15.323  68.656  1.00  0.00    -0.149 C  
BRANCH  38  39
HETATM   39  N   UNL     1      -7.708  16.405  69.648  1.00  0.00     0.088 NA 
BRANCH  39  40
HETATM   40  C   UNL     1      -7.021  17.529  68.928  1.00  0.00    -0.252 C  
HETATM   41  O   UNL     1      -5.300  17.406  67.209  1.00  0.00    -0.112 OA 
HETATM   42  C   UNL     1      -6.401  17.062  67.616  1.00  0.00    -0.146 C  
HETATM   43  O   UNL     1      -7.220  16.225  66.930  1.00  0.00    -0.208 OA 
ENDBRANCH  39  40
BRANCH  39  44
HETATM   44  C   UNL     1      -9.039  16.938  70.138  1.00  0.00     1.941 C  
HETATM   45  C   UNL     1     -10.047  17.147  69.009  1.00  0.00    -0.297 C  
HETATM   46  O   UNL     1     -10.957  17.962  69.048  1.00  0.00     0.283 OA 
HETATM   47  O   UNL     1      -9.867  16.294  67.966  1.00  0.00    -0.231 OA 
ENDBRANCH  39  44
ENDBRANCH  38  39
ENDBRANCH  23  38
ENDBRANCH  10  11
ENDBRANCH   5  10
ENDBRANCH   4   5
TORSDOF 8
ENDMDL
MODEL      172
REMARK 921   NORMALIZED FREE ENERGY PREDICTED BY IDOCK:    4.23 KCAL/MOL
REMARK 922        TOTAL FREE ENERGY PREDICTED BY IDOCK:    3.93 KCAL/MOL
REMARK 923 INTER-LIGAND FREE ENERGY PREDICTED BY IDOCK:   -4.39 KCAL/MOL
REMARK 924 INTRA-LIGAND FREE ENERGY PREDICTED BY IDOCK:    8.32 KCAL/MOL
REMARK 927      BINDING AFFINITY PREDICTED BY RF-SCORE:    0.00 PKD
ROOT
HETATM    1  O   UNL     1     -11.147  18.094  67.764  1.00  0.00    -0.210 OA 
HETATM    2  C   UNL     1     -10.240  18.250  68.756  1.00  0.00    -0.318 C  
HETATM    3  O   UNL     1     -10.047  19.323  69.309  1.00  0.00    -0.355 OA 
HETATM    4  C   UNL     1      -9.550  16.950  69.152  1.00  0.00    -0.158 C  
ENDROOT
BRANCH   4   5
HETATM    5  N   UNL     1      -9.353  15.981  68.000  1.00  0.00    -0.201 NA 
BRANCH   5   6
HETATM    6  C   UNL     1      -7.889  16.035  67.618  1.00  0.00    -0.142 C  
HETATM    7  O   UNL     1      -8.569  17.849  66.168  1.00  0.00    -0.449 OA 
HETATM    8  C   UNL     1      -7.581  16.970  66.449  1.00  0.00    -0.315 C  
HETATM    9  O   UNL     1      -6.512  16.972  65.856  1.00  0.00    -0.054 OA 
ENDBRANCH   5   6
BRANCH   5  10
HETATM   10  C   UNL     1      -9.646  14.604  68.568  1.00  0.00    -0.221 C  
BRANCH  10  11
HETATM   11  C   UNL     1      -8.705  13.521  68.061  1.00  0.00    -0.181 A  
HETATM   12  C   UNL     1      -9.123  12.190  68.076  1.00  0.00    -0.190 A  
HETATM   13  C   UNL     1      -8.258  11.131  67.724  1.00  0.00    -0.119 A  
HETATM   14  C   UNL     1      -6.999  11.416  67.206  1.00  0.00    -0.115 A  
HETATM   15  C   UNL     1      -6.577  12.750  67.136  1.00  0.00     0.044 A  
HETATM   16  O   UNL     1      -6.132  10.445  66.746  1.00  0.00    -0.058 OA 
HETATM   17  C   UNL     1      -6.505   9.117  66.827  1.00  0.00    -0.067 A  
HETATM   18  C   UNL     1      -7.418  13.783  67.582  1.00  0.00    -0.178 A  
HETATM   19  O   UNL     1      -6.985  15.078  67.569  1.00  0.00    -0.174 OA 
HETATM   20  C   UNL     1      -5.651   8.163  66.252  1.00  0.00    -0.032 A  
HETATM   21  C   UNL     1      -5.964   6.793  66.315  1.00  0.00    -0.030 A  
HETATM   22  H   UNL     1      -6.109  15.256  67.243  1.00  0.00     0.000 HD 
HETATM   23  C   UNL     1      -7.105   6.345  66.986  1.00  0.00    -0.073 A  
HETATM   24  O   UNL     1      -5.161   5.871  65.702  1.00  0.00    -0.009 OA 
HETATM   25  C   UNL     1      -9.045   9.461  69.397  1.00  0.00    -0.162 A  
HETATM   26  H   UNL     1      -5.373   4.945  65.745  1.00  0.00     0.000 HD 
HETATM   27  C   UNL     1      -7.936   7.315  67.564  1.00  0.00    -0.113 A  
HETATM   28  C   UNL     1      -8.263   9.421  70.543  1.00  0.00    -0.221 A  
HETATM   29  C   UNL     1      -7.674   8.695  67.454  1.00  0.00    -0.098 A  
HETATM   30  C   UNL     1      -8.668   9.701  67.969  1.00  0.00    -0.119 C  
HETATM   31  C   UNL     1      -8.898   9.164  71.760  1.00  0.00     0.136 A  
HETATM   32  C   UNL     1     -10.288   8.967  71.818  1.00  0.00    -0.407 A  
HETATM   33  O   UNL     1      -9.923   9.497  67.267  1.00  0.00    -0.167 OA 
HETATM   34  C   UNL     1     -11.065   9.024  70.660  1.00  0.00    -0.314 A  
HETATM   35  O   UNL     1     -12.149   9.348  67.838  1.00  0.00     1.959 OA 
HETATM   36  C   UNL     1     -10.970   9.354  68.128  1.00  0.00    -0.045 C  
HETATM   37  C   UNL     1     -10.409   9.261  69.467  1.00  0.00    -0.223 A  
BRANCH  23  38
HETATM   38  C   UNL     1      -7.611   4.914  66.987  1.00  0.00    -0.087 C  
BRANCH  38  39
HETATM   39  N   UNL     1      -8.278   4.404  65.749  1.00  0.00    -0.109 NA 
BRANCH  39  40
HETATM   40  C   UNL     1      -9.755   4.337  66.008  1.00  0.00    -0.211 C  
HETATM   41  O   UNL     1     -11.574   4.160  64.398  1.00  0.00    -0.092 OA 
HETATM   42  C   UNL     1     -10.507   3.739  64.825  1.00  0.00    -0.089 C  
HETATM   43  O   UNL     1      -9.868   2.664  64.298  1.00  0.00    -0.150 OA 
ENDBRANCH  39  40
BRANCH  39  44
HETATM   44  C   UNL     1      -8.064   5.435  64.659  1.00  0.00    -0.125 C  
HETATM   45  C   UNL     1      -7.446   4.842  63.394  1.00  0.00    -0.055 C  
HETATM   46  O   UNL     1      -6.768   5.480  62.602  1.00  0.00    -0.028 OA 
HETATM   47  O   UNL     1      -7.770   3.536  63.200  1.00  0.00    -0.064 OA 
ENDBRANCH  39  44
ENDBRANCH  38  39
ENDBRANCH  23  38
ENDBRANCH  10  11
ENDBRANCH   5  10
ENDBRANCH   4   5
TORSDOF 8
ENDMDL
MODEL      173
REMARK 921   NORMALIZED FREE ENERGY PREDICTED BY IDOCK:    4.49 KCAL/MOL
REMARK 922        TOTAL FREE ENERGY PREDICTED BY IDOCK:    4.33 KCAL/MOL
REMARK 923 INTER-LIGAND FREE ENERGY PREDICTED BY IDOCK:   -0.54 KCAL/MOL
REMARK 924 INTRA-LIGAND FREE ENERGY PREDICTED BY IDOCK:    4.86 KCAL/MOL
REMARK 927      BINDING AFFINITY PREDICTED BY RF-SCORE:    0.00 PKD
ROOT
HETATM    1  O   UNL     1     -12.470  12.278  69.703  1.00  0.00    -0.033 OA 
HETATM    2  C   UNL     1     -12.346  11.643  68.515  1.00  0.00     0.399 C  
HETATM    3  O   UNL     1     -13.007  10.659  68.222  1.00  0.00     2.022 OA 
HETATM    4  C   UNL     1     -11.360  12.321  67.570  1.00  0.00    -0.325 C  
ENDROOT
BRANCH   4   5
HETATM    5  N   UNL     1     -10.194  12.992  68.273  1.00  0.00    -0.241 NA 
BRANCH   5   6
HETATM    6  C   UNL     1     -10.505  14.472  68.340  1.00  0.00    -0.246 C  
HETATM    7  O   UNL     1      -8.275  14.750  67.444  1.00  0.00    -0.168 OA 
HETATM    8  C   UNL     1      -9.310  15.377  68.046  1.00  0.00    -0.196 C  
HETATM    9  O   UNL     1      -9.307  16.578  68.274  1.00  0.00    -0.207 OA 
ENDBRANCH   5   6
BRANCH   5  10
HETATM   10  C   UNL     1     -10.196  12.440  69.687  1.00  0.00     1.054 C  
BRANCH  10  11
HETATM   11  C   UNL     1      -9.916  10.947  69.761  1.00  0.00     0.236 A  
HETATM   12  C   UNL     1      -8.896  10.403  68.980  1.00  0.00    -0.176 A  
HETATM   13  C   UNL     1      -8.661   9.012  68.920  1.00  0.00    -0.131 A  
HETATM   14  C   UNL     1      -9.362   8.160  69.768  1.00  0.00    -0.159 A  
HETATM   15  C   UNL     1     -10.358   8.692  70.597  1.00  0.00    -0.241 A  
HETATM   16  O   UNL     1      -9.122   6.802  69.844  1.00  0.00    -0.144 OA 
HETATM   17  C   UNL     1      -8.167   6.240  69.019  1.00  0.00    -0.114 A  
HETATM   18  C   UNL     1     -10.641  10.068  70.571  1.00  0.00    -0.246 A  
HETATM   19  O   UNL     1     -11.651  10.577  71.335  1.00  0.00    -0.193 OA 
HETATM   20  C   UNL     1      -7.871   4.880  69.196  1.00  0.00    -0.072 A  
HETATM   21  C   UNL     1      -6.919   4.243  68.378  1.00  0.00    -0.051 A  
HETATM   22  H   UNL     1     -12.144   9.979  71.886  1.00  0.00     0.000 HD 
HETATM   23  C   UNL     1      -6.280   4.934  67.346  1.00  0.00    -0.039 A  
HETATM   24  O   UNL     1      -6.589   2.933  68.592  1.00  0.00    -0.032 OA 
HETATM   25  C   UNL     1      -8.065   8.858  66.506  1.00  0.00    -0.107 A  
HETATM   26  H   UNL     1      -5.947   2.503  68.039  1.00  0.00     0.000 HD 
HETATM   27  C   UNL     1      -6.603   6.288  67.179  1.00  0.00    -0.058 A  
HETATM   28  C   UNL     1      -9.132   8.486  65.700  1.00  0.00    -0.189 A  
HETATM   29  C   UNL     1      -7.502   6.959  68.029  1.00  0.00    -0.099 A  
HETATM   30  C   UNL     1      -7.708   8.445  67.899  1.00  0.00    -0.103 C  
HETATM   31  C   UNL     1      -9.207   9.035  64.418  1.00  0.00     0.209 A  
HETATM   32  C   UNL     1      -8.236   9.947  63.970  1.00  0.00    -0.159 A  
HETATM   33  O   UNL     1      -6.428   9.099  68.109  1.00  0.00    -0.058 OA 
HETATM   34  C   UNL     1      -7.176  10.324  64.796  1.00  0.00    -0.092 A  
HETATM   35  O   UNL     1      -5.215  10.763  67.078  1.00  0.00    -0.040 OA 
HETATM   36  C   UNL     1      -6.121   9.955  67.094  1.00  0.00    -0.058 C  
HETATM   37  C   UNL     1      -7.116   9.751  66.052  1.00  0.00    -0.101 A  
BRANCH  23  38
HETATM   38  C   UNL     1      -5.140   4.387  66.506  1.00  0.00    -0.008 C  
BRANCH  38  39
HETATM   39  N   UNL     1      -5.367   4.222  65.037  1.00  0.00    -0.012 NA 
BRANCH  39  40
HETATM   40  C   UNL     1      -5.906   2.840  64.800  1.00  0.00    -0.018 C  
HETATM   41  O   UNL     1      -7.793   1.740  65.878  1.00  0.00    -0.069 OA 
HETATM   42  C   UNL     1      -7.347   2.709  65.278  1.00  0.00    -0.063 C  
HETATM   43  O   UNL     1      -8.100   3.789  64.948  1.00  0.00    -0.092 OA 
ENDBRANCH  39  40
BRANCH  39  44
HETATM   44  C   UNL     1      -6.452   5.198  64.630  1.00  0.00    -0.035 C  
HETATM   45  C   UNL     1      -6.321   5.665  63.182  1.00  0.00    -0.024 C  
HETATM   46  O   UNL     1      -6.735   6.738  62.769  1.00  0.00    -0.044 OA 
HETATM   47  O   UNL     1      -5.740   4.740  62.372  1.00  0.00    -0.013 OA 
ENDBRANCH  39  44
ENDBRANCH  38  39
ENDBRANCH  23  38
ENDBRANCH  10  11
ENDBRANCH   5  10
ENDBRANCH   4   5
TORSDOF 8
ENDMDL
MODEL      174
REMARK 921   NORMALIZED FREE ENERGY PREDICTED BY IDOCK:    4.84 KCAL/MOL
REMARK 922        TOTAL FREE ENERGY PREDICTED BY IDOCK:    4.83 KCAL/MOL
REMARK 923 INTER-LIGAND FREE ENERGY PREDICTED BY IDOCK:   -2.76 KCAL/MOL
REMARK 924 INTRA-LIGAND FREE ENERGY PREDICTED BY IDOCK:    7.59 KCAL/MOL
REMARK 927      BINDING AFFINITY PREDICTED BY RF-SCORE:    0.00 PKD
ROOT
HETATM    1  O   UNL     1      -6.974  18.892  69.918  1.00  0.00     0.014 OA 
HETATM    2  C   UNL     1      -7.178  19.406  68.684  1.00  0.00    -0.339 C  
HETATM    3  O   UNL     1      -6.452  20.260  68.197  1.00  0.00    -0.264 OA 
HETATM    4  C   UNL     1      -8.349  18.764  67.949  1.00  0.00    -0.276 C  
ENDROOT
BRANCH   4   5
HETATM    5  N   UNL     1      -9.484  18.329  68.859  1.00  0.00    -0.265 NA 
BRANCH   5   6
HETATM    6  C   UNL     1     -10.765  18.449  68.062  1.00  0.00    -0.249 C  
HETATM    7  O   UNL     1      -9.714  20.402  67.096  1.00  0.00    -0.423 OA 
HETATM    8  C   UNL     1     -10.882  19.742  67.255  1.00  0.00    -0.342 C  
HETATM    9  O   UNL     1     -11.925  20.119  66.741  1.00  0.00     1.450 OA 
ENDBRANCH   5   6
BRANCH   5  10
HETATM   10  C   UNL     1      -9.238  16.858  69.145  1.00  0.00    -0.105 C  
BRANCH  10  11
HETATM   11  C   UNL     1      -9.346  15.970  67.915  1.00  0.00    -0.208 A  
HETATM   12  C   UNL     1      -9.235  14.587  68.058  1.00  0.00    -0.190 A  
HETATM   13  C   UNL     1      -9.214  13.719  66.944  1.00  0.00    -0.263 A  
HETATM   14  C   UNL     1      -9.456  14.229  65.672  1.00  0.00     0.017 A  
HETATM   15  C   UNL     1      -9.619  15.611  65.511  1.00  0.00    -0.237 A  
HETATM   16  O   UNL     1      -9.551  13.437  64.545  1.00  0.00     0.119 OA 
HETATM   17  C   UNL     1      -9.367  12.073  64.663  1.00  0.00     0.256 A  
HETATM   18  C   UNL     1      -9.540  16.467  66.623  1.00  0.00    -0.256 A  
HETATM   19  O   UNL     1      -9.640  17.819  66.458  1.00  0.00    -0.289 OA 
HETATM   20  C   UNL     1      -9.578  11.285  63.521  1.00  0.00    -0.324 A  
HETATM   21  C   UNL     1      -9.391   9.891  63.571  1.00  0.00    -0.182 A  
HETATM   22  H   UNL     1      -9.772  18.156  65.580  1.00  0.00     0.000 HD 
HETATM   23  C   UNL     1      -8.951   9.264  64.739  1.00  0.00    -0.217 A  
HETATM   24  O   UNL     1      -9.655   9.118  62.473  1.00  0.00    -0.458 OA 
HETATM   25  C   UNL     1      -7.548  12.079  67.804  1.00  0.00    -0.130 A  
HETATM   26  H   UNL     1      -9.529   8.177  62.507  1.00  0.00     0.000 HD 
HETATM   27  C   UNL     1      -8.733  10.074  65.863  1.00  0.00    -0.154 A  
HETATM   28  C   UNL     1      -6.257  12.321  67.357  1.00  0.00    -0.153 A  
HETATM   29  C   UNL     1      -8.978  11.461  65.851  1.00  0.00    -0.184 A  
HETATM   30  C   UNL     1      -8.866  12.263  67.120  1.00  0.00    -0.194 C  
HETATM   31  C   UNL     1      -5.200  12.043  68.226  1.00  0.00    -0.048 A  
HETATM   32  C   UNL     1      -5.444  11.547  69.518  1.00  0.00    -0.056 A  
HETATM   33  O   UNL     1      -9.807  11.720  68.084  1.00  0.00    -0.178 OA 
HETATM   34  C   UNL     1      -6.748  11.321  69.961  1.00  0.00    -0.013 A  
HETATM   35  O   UNL     1      -9.762  11.131  70.310  1.00  0.00     1.211 OA 
HETATM   36  C   UNL     1      -9.206  11.428  69.273  1.00  0.00     0.332 C  
HETATM   37  C   UNL     1      -7.773  11.587  69.075  1.00  0.00    -0.034 A  
BRANCH  23  38
HETATM   38  C   UNL     1      -8.859   7.763  64.942  1.00  0.00     0.322 C  
BRANCH  38  39
HETATM   39  N   UNL     1      -7.498   7.148  65.028  1.00  0.00    -0.086 NA 
BRANCH  39  40
HETATM   40  C   UNL     1      -7.017   6.883  63.630  1.00  0.00    -0.057 C  
HETATM   41  O   UNL     1      -6.810   4.749  62.474  1.00  0.00    -0.029 OA 
HETATM   42  C   UNL     1      -7.498   5.531  63.117  1.00  0.00    -0.059 C  
HETATM   43  O   UNL     1      -8.794   5.290  63.438  1.00  0.00    -0.053 OA 
ENDBRANCH  39  40
BRANCH  39  44
HETATM   44  C   UNL     1      -6.568   8.182  65.629  1.00  0.00    -0.049 C  
HETATM   45  C   UNL     1      -6.102   7.816  67.037  1.00  0.00    -0.052 C  
HETATM   46  O   UNL     1      -5.767   8.634  67.881  1.00  0.00    -0.038 OA 
HETATM   47  O   UNL     1      -6.043   6.475  67.249  1.00  0.00    -0.026 OA 
ENDBRANCH  39  44
ENDBRANCH  38  39
ENDBRANCH  23  38
ENDBRANCH  10  11
ENDBRANCH   5  10
ENDBRANCH   4   5
TORSDOF 8
ENDMDL
MODEL      175
REMARK 921   NORMALIZED FREE ENERGY PREDICTED BY IDOCK:    6.11 KCAL/MOL
REMARK 922        TOTAL FREE ENERGY PREDICTED BY IDOCK:    6.70 KCAL/MOL
REMARK 923 INTER-LIGAND FREE ENERGY PREDICTED BY IDOCK:    4.11 KCAL/MOL
REMARK 924 INTRA-LIGAND FREE ENERGY PREDICTED BY IDOCK:    2.59 KCAL/MOL
REMARK 927      BINDING AFFINITY PREDICTED BY RF-SCORE:    0.00 PKD
ROOT
HETATM    1  O   UNL     1      -9.132  18.397  67.359  1.00  0.00    -0.262 OA 
HETATM    2  C   UNL     1     -10.099  18.981  68.103  1.00  0.00    -0.395 C  
HETATM    3  O   UNL     1      -9.887  19.951  68.815  1.00  0.00    -0.379 OA 
HETATM    4  C   UNL     1     -11.474  18.354  67.904  1.00  0.00     1.027 C  
ENDROOT
BRANCH   4   5
HETATM    5  N   UNL     1     -11.437  16.862  67.624  1.00  0.00     0.210 NA 
BRANCH   5   6
HETATM    6  C   UNL     1     -10.226  16.603  66.754  1.00  0.00    -0.301 C  
HETATM    7  O   UNL     1     -11.653  14.997  65.641  1.00  0.00    -0.302 OA 
HETATM    8  C   UNL     1     -10.378  15.412  65.809  1.00  0.00    -0.361 C  
HETATM    9  O   UNL     1      -9.441  14.912  65.203  1.00  0.00     0.014 OA 
ENDBRANCH   5   6
BRANCH   5  10
HETATM   10  C   UNL     1     -11.206  16.199  68.970  1.00  0.00    -0.347 C  
BRANCH  10  11
HETATM   11  C   UNL     1     -10.095  15.160  68.956  1.00  0.00    -0.244 A  
HETATM   12  C   UNL     1     -10.410  13.825  68.698  1.00  0.00    -0.225 A  
HETATM   13  C   UNL     1      -9.443  12.799  68.782  1.00  0.00     0.113 A  
HETATM   14  C   UNL     1      -8.107  13.130  68.982  1.00  0.00     0.326 A  
HETATM   15  C   UNL     1      -7.760  14.470  69.195  1.00  0.00    -0.082 A  
HETATM   16  O   UNL     1      -7.087  12.198  68.977  1.00  0.00    -0.104 OA 
HETATM   17  C   UNL     1      -7.396  10.863  68.798  1.00  0.00    -0.104 A  
HETATM   18  C   UNL     1      -8.753  15.465  69.204  1.00  0.00    -0.242 A  
HETATM   19  O   UNL     1      -8.424  16.763  69.470  1.00  0.00     0.076 OA 
HETATM   20  C   UNL     1      -6.332   9.956  68.689  1.00  0.00    -0.045 A  
HETATM   21  C   UNL     1      -6.579   8.581  68.523  1.00  0.00    -0.059 A  
HETATM   22  H   UNL     1      -7.512  16.970  69.638  1.00  0.00     0.000 HD 
HETATM   23  C   UNL     1      -7.883   8.081  68.506  1.00  0.00    -0.115 A  
HETATM   24  O   UNL     1      -5.540   7.707  68.356  1.00  0.00    -0.026 OA 
HETATM   25  C   UNL     1     -10.895  11.023  69.752  1.00  0.00    -0.205 A  
HETATM   26  H   UNL     1      -5.707   6.778  68.244  1.00  0.00     0.000 HD 
HETATM   27  C   UNL     1      -8.930   9.004  68.631  1.00  0.00    -0.137 A  
HETATM   28  C   UNL     1     -10.793  10.924  71.133  1.00  0.00     1.718 A  
HETATM   29  C   UNL     1      -8.704  10.391  68.732  1.00  0.00    -0.146 A  
HETATM   30  C   UNL     1      -9.862  11.353  68.721  1.00  0.00    -0.164 C  
HETATM   31  C   UNL     1     -11.942  10.587  71.851  1.00  0.00     0.389 A  
HETATM   32  C   UNL     1     -13.164  10.370  71.192  1.00  0.00    -0.399 A  
HETATM   33  O   UNL     1     -10.586  11.176  67.474  1.00  0.00    -0.197 OA 
HETATM   34  C   UNL     1     -13.256  10.487  69.805  1.00  0.00     0.729 A  
HETATM   35  O   UNL     1     -12.790  10.967  66.839  1.00  0.00     4.002 OA 
HETATM   36  C   UNL     1     -11.917  10.970  67.683  1.00  0.00     0.412 C  
HETATM   37  C   UNL     1     -12.101  10.803  69.117  1.00  0.00    -0.227 A  
BRANCH  23  38
HETATM   38  C   UNL     1      -8.263   6.646  68.187  1.00  0.00    -0.114 C  
BRANCH  38  39
HETATM   39  N   UNL     1      -7.403   5.553  68.738  1.00  0.00    -0.073 NA 
BRANCH  39  40
HETATM   40  C   UNL     1      -7.389   5.679  70.235  1.00  0.00    -0.076 C  
HETATM   41  O   UNL     1      -6.461   4.143  71.881  1.00  0.00    -0.017 OA 
HETATM   42  C   UNL     1      -6.310   4.806  70.864  1.00  0.00    -0.019 C  
HETATM   43  O   UNL     1      -5.142   4.855  70.175  1.00  0.00     0.000 OA 
ENDBRANCH  39  40
BRANCH  39  44
HETATM   44  C   UNL     1      -8.073   4.235  68.409  1.00  0.00    -0.081 C  
HETATM   45  C   UNL     1      -9.598   4.317  68.448  1.00  0.00    -0.133 C  
HETATM   46  O   UNL     1     -10.327   3.366  68.685  1.00  0.00     0.821 OA 
HETATM   47  O   UNL     1     -10.075   5.551  68.137  1.00  0.00    -0.151 OA 
ENDBRANCH  39  44
ENDBRANCH  38  39
ENDBRANCH  23  38
ENDBRANCH  10  11
ENDBRANCH   5  10
ENDBRANCH   4   5
TORSDOF 8
ENDMDL
MODEL      176
REMARK 921   NORMALIZED FREE ENERGY PREDICTED BY IDOCK:    6.15 KCAL/MOL
REMARK 922        TOTAL FREE ENERGY PREDICTED BY IDOCK:    6.76 KCAL/MOL
REMARK 923 INTER-LIGAND FREE ENERGY PREDICTED BY IDOCK:   -1.18 KCAL/MOL
REMARK 924 INTRA-LIGAND FREE ENERGY PREDICTED BY IDOCK:    7.94 KCAL/MOL
REMARK 927      BINDING AFFINITY PREDICTED BY RF-SCORE:    0.00 PKD
ROOT
HETATM    1  O   UNL     1     -11.735   2.733  73.028  1.00  0.00     0.168 OA 
HETATM    2  C   UNL     1     -11.432   4.032  73.253  1.00  0.00    -0.077 C  
HETATM    3  O   UNL     1     -12.222   4.939  73.037  1.00  0.00    -0.079 OA 
HETATM    4  C   UNL     1     -10.049   4.232  73.863  1.00  0.00    -0.154 C  
ENDROOT
BRANCH   4   5
HETATM    5  N   UNL     1      -9.021   3.213  73.406  1.00  0.00    -0.085 NA 
BRANCH   5   6
HETATM    6  C   UNL     1      -9.413   2.780  72.009  1.00  0.00    -0.127 C  
HETATM    7  O   UNL     1      -9.817   5.136  71.637  1.00  0.00    -0.161 OA 
HETATM    8  C   UNL     1     -10.029   3.890  71.159  1.00  0.00    -0.099 C  
HETATM    9  O   UNL     1     -10.609   3.682  70.104  1.00  0.00     1.139 OA 
ENDBRANCH   5   6
BRANCH   5  10
HETATM   10  C   UNL     1      -7.706   3.968  73.319  1.00  0.00    -0.080 C  
BRANCH  10  11
HETATM   11  C   UNL     1      -7.218   4.181  71.894  1.00  0.00    -0.058 A  
HETATM   12  C   UNL     1      -7.333   5.445  71.314  1.00  0.00    -0.084 A  
HETATM   13  C   UNL     1      -7.002   5.680  69.961  1.00  0.00    -0.065 A  
HETATM   14  C   UNL     1      -6.407   4.667  69.214  1.00  0.00    -0.031 A  
HETATM   15  C   UNL     1      -6.238   3.403  69.793  1.00  0.00    -0.028 A  
HETATM   16  O   UNL     1      -5.963   4.844  67.919  1.00  0.00    -0.021 OA 
HETATM   17  C   UNL     1      -6.141   6.070  67.307  1.00  0.00    -0.018 A  
HETATM   18  C   UNL     1      -6.663   3.165  71.111  1.00  0.00    -0.031 A  
HETATM   19  O   UNL     1      -6.551   1.918  71.655  1.00  0.00    -0.018 OA 
HETATM   20  C   UNL     1      -5.582   6.250  66.033  1.00  0.00    -0.014 A  
HETATM   21  C   UNL     1      -5.741   7.470  65.349  1.00  0.00    -0.037 A  
HETATM   22  H   UNL     1      -6.174   1.227  71.123  1.00  0.00     0.000 HD 
HETATM   23  C   UNL     1      -6.492   8.512  65.899  1.00  0.00    -0.053 A  
HETATM   24  O   UNL     1      -5.145   7.664  64.133  1.00  0.00    -0.029 OA 
HETATM   25  C   UNL     1      -8.807   7.313  69.433  1.00  0.00    -0.137 A  
HETATM   26  H   UNL     1      -5.253   8.488  63.671  1.00  0.00     0.000 HD 
HETATM   27  C   UNL     1      -7.052   8.303  67.168  1.00  0.00    -0.079 A  
HETATM   28  C   UNL     1      -9.913   6.733  68.829  1.00  0.00    -0.149 A  
HETATM   29  C   UNL     1      -6.848   7.115  67.895  1.00  0.00    -0.074 A  
HETATM   30  C   UNL     1      -7.350   6.994  69.309  1.00  0.00    -0.092 C  
HETATM   31  C   UNL     1     -11.173   7.254  69.133  1.00  0.00     0.068 A  
HETATM   32  C   UNL     1     -11.310   8.323  70.034  1.00  0.00    -0.001 A  
HETATM   33  O   UNL     1      -6.724   8.036  70.103  1.00  0.00    -0.037 OA 
HETATM   34  C   UNL     1     -10.191   8.888  70.646  1.00  0.00    -0.267 A  
HETATM   35  O   UNL     1      -7.411   9.589  71.660  1.00  0.00    -0.293 OA 
HETATM   36  C   UNL     1      -7.642   8.775  70.789  1.00  0.00    -0.094 C  
HETATM   37  C   UNL     1      -8.955   8.366  70.314  1.00  0.00    -0.147 A  
BRANCH  23  38
HETATM   38  C   UNL     1      -6.603   9.910  65.317  1.00  0.00    -0.105 C  
BRANCH  38  39
HETATM   39  N   UNL     1      -7.944  10.364  64.836  1.00  0.00    -0.143 NA 
BRANCH  39  40
HETATM   40  C   UNL     1      -8.766   9.147  64.525  1.00  0.00    -0.160 C  
HETATM   41  O   UNL     1      -9.773   8.493  62.406  1.00  0.00     1.475 OA 
HETATM   42  C   UNL     1      -8.782   8.844  63.032  1.00  0.00    -0.064 C  
HETATM   43  O   UNL     1      -7.558   8.991  62.464  1.00  0.00    -0.106 OA 
ENDBRANCH  39  40
BRANCH  39  44
HETATM   44  C   UNL     1      -8.623  11.078  65.987  1.00  0.00    -0.172 C  
HETATM   45  C   UNL     1      -9.510  12.235  65.529  1.00  0.00    -0.017 C  
HETATM   46  O   UNL     1      -9.769  13.211  66.217  1.00  0.00    -0.271 OA 
HETATM   47  O   UNL     1     -10.033  12.049  64.288  1.00  0.00    -0.276 OA 
ENDBRANCH  39  44
ENDBRANCH  38  39
ENDBRANCH  23  38
ENDBRANCH  10  11
ENDBRANCH   5  10
ENDBRANCH   4   5
TORSDOF 8
ENDMDL
MODEL      177
REMARK 921   NORMALIZED FREE ENERGY PREDICTED BY IDOCK:    6.43 KCAL/MOL
REMARK 922        TOTAL FREE ENERGY PREDICTED BY IDOCK:    7.16 KCAL/MOL
REMARK 923 INTER-LIGAND FREE ENERGY PREDICTED BY IDOCK:   -3.66 KCAL/MOL
REMARK 924 INTRA-LIGAND FREE ENERGY PREDICTED BY IDOCK:   10.82 KCAL/MOL
REMARK 927      BINDING AFFINITY PREDICTED BY RF-SCORE:    0.00 PKD
ROOT
HETATM    1  O   UNL     1     -11.147  18.094  67.764  1.00  0.00    -0.210 OA 
HETATM    2  C   UNL     1     -10.243  18.256  68.757  1.00  0.00    -0.318 C  
HETATM    3  O   UNL     1     -10.051  19.332  69.304  1.00  0.00    -0.355 OA 
HETATM    4  C   UNL     1      -9.556  16.958  69.165  1.00  0.00    -0.158 C  
ENDROOT
BRANCH   4   5
HETATM    5  N   UNL     1      -9.356  15.980  68.021  1.00  0.00    -0.201 NA 
BRANCH   5   6
HETATM    6  C   UNL     1      -7.891  16.030  67.643  1.00  0.00    -0.142 C  
HETATM    7  O   UNL     1      -8.507  18.027  66.424  1.00  0.00    -0.290 OA 
HETATM    8  C   UNL     1      -7.551  17.088  66.594  1.00  0.00    -0.263 C  
HETATM    9  O   UNL     1      -6.482  17.124  66.002  1.00  0.00    -0.134 OA 
ENDBRANCH   5   6
BRANCH   5  10
HETATM   10  C   UNL     1      -9.653  14.608  68.598  1.00  0.00    -0.219 C  
BRANCH  10  11
HETATM   11  C   UNL     1      -8.712  13.520  68.101  1.00  0.00    -0.174 A  
HETATM   12  C   UNL     1      -9.132  12.190  68.124  1.00  0.00    -0.196 A  
HETATM   13  C   UNL     1      -8.267  11.127  67.782  1.00  0.00    -0.119 A  
HETATM   14  C   UNL     1      -7.005  11.407  67.267  1.00  0.00    -0.115 A  
HETATM   15  C   UNL     1      -6.581  12.740  67.189  1.00  0.00     0.044 A  
HETATM   16  O   UNL     1      -6.138  10.432  66.817  1.00  0.00    -0.058 OA 
HETATM   17  C   UNL     1      -6.513   9.105  66.906  1.00  0.00    -0.067 A  
HETATM   18  C   UNL     1      -7.423  13.777  67.626  1.00  0.00    -0.178 A  
HETATM   19  O   UNL     1      -6.988  15.071  67.605  1.00  0.00    -0.153 OA 
HETATM   20  C   UNL     1      -5.658   8.146  66.340  1.00  0.00    -0.032 A  
HETATM   21  C   UNL     1      -5.973   6.777  66.412  1.00  0.00    -0.029 A  
HETATM   22  H   UNL     1      -6.111  15.246  67.281  1.00  0.00     0.000 HD 
HETATM   23  C   UNL     1      -7.117   6.335  67.081  1.00  0.00    -0.073 A  
HETATM   24  O   UNL     1      -5.169   5.849  65.808  1.00  0.00    -0.009 OA 
HETATM   25  C   UNL     1      -9.062   9.470  69.464  1.00  0.00    -0.193 A  
HETATM   26  H   UNL     1      -5.382   4.924  65.856  1.00  0.00     0.000 HD 
HETATM   27  C   UNL     1      -7.949   7.310  67.650  1.00  0.00    -0.114 A  
HETATM   28  C   UNL     1      -8.284   9.437  70.613  1.00  0.00    -0.207 A  
HETATM   29  C   UNL     1      -7.684   8.689  67.532  1.00  0.00    -0.098 A  
HETATM   30  C   UNL     1      -8.679   9.700  68.035  1.00  0.00    -0.119 C  
HETATM   31  C   UNL     1      -8.923   9.189  71.829  1.00  0.00     0.089 A  
HETATM   32  C   UNL     1     -10.314   8.994  71.883  1.00  0.00    -0.357 A  
HETATM   33  O   UNL     1      -9.932   9.492  67.330  1.00  0.00    -0.167 OA 
HETATM   34  C   UNL     1     -11.087   9.044  70.722  1.00  0.00    -0.328 A  
HETATM   35  O   UNL     1     -12.161   9.350  67.895  1.00  0.00     1.959 OA 
HETATM   36  C   UNL     1     -10.983   9.357  68.188  1.00  0.00    -0.045 C  
HETATM   37  C   UNL     1     -10.426   9.272  69.531  1.00  0.00    -0.229 A  
BRANCH  23  38
HETATM   38  C   UNL     1      -7.625   4.904  67.091  1.00  0.00    -0.087 C  
BRANCH  38  39
HETATM   39  N   UNL     1      -8.575   4.505  68.174  1.00  0.00    -0.100 NA 
BRANCH  39  40
HETATM   40  C   UNL     1      -7.771   3.978  69.329  1.00  0.00    -0.053 C  
HETATM   41  O   UNL     1      -8.566   2.971  71.400  1.00  0.00    -0.063 OA 
HETATM   42  C   UNL     1      -8.577   3.001  70.176  1.00  0.00    -0.060 C  
HETATM   43  O   UNL     1      -9.307   2.143  69.419  1.00  0.00    -0.120 OA 
ENDBRANCH  39  40
BRANCH  39  44
HETATM   44  C   UNL     1      -9.273   5.760  68.655  1.00  0.00    -0.118 C  
HETATM   45  C   UNL     1     -10.656   5.484  69.241  1.00  0.00    -0.255 C  
HETATM   46  O   UNL     1     -11.568   6.299  69.253  1.00  0.00    -0.363 OA 
HETATM   47  O   UNL     1     -10.764   4.251  69.802  1.00  0.00     0.818 OA 
ENDBRANCH  39  44
ENDBRANCH  38  39
ENDBRANCH  23  38
ENDBRANCH  10  11
ENDBRANCH   5  10
ENDBRANCH   4   5
TORSDOF 8
ENDMDL
MODEL      178
REMARK 921   NORMALIZED FREE ENERGY PREDICTED BY IDOCK:    6.69 KCAL/MOL
REMARK 922        TOTAL FREE ENERGY PREDICTED BY IDOCK:    7.55 KCAL/MOL
REMARK 923 INTER-LIGAND FREE ENERGY PREDICTED BY IDOCK:    3.80 KCAL/MOL
REMARK 924 INTRA-LIGAND FREE ENERGY PREDICTED BY IDOCK:    3.75 KCAL/MOL
REMARK 927      BINDING AFFINITY PREDICTED BY RF-SCORE:    0.00 PKD
ROOT
HETATM    1  O   UNL     1      -8.858  19.737  69.612  1.00  0.00     0.137 OA 
HETATM    2  C   UNL     1      -8.437  18.873  70.564  1.00  0.00     2.939 C  
HETATM    3  O   UNL     1      -7.502  19.121  71.311  1.00  0.00     2.479 OA 
HETATM    4  C   UNL     1      -9.288  17.611  70.652  1.00  0.00     4.092 C  
ENDROOT
BRANCH   4   5
HETATM    5  N   UNL     1      -9.856  17.157  69.320  1.00  0.00    -0.161 NA 
BRANCH   5   6
HETATM    6  C   UNL     1      -8.720  17.180  68.320  1.00  0.00    -0.241 C  
HETATM    7  O   UNL     1      -7.590  15.751  69.912  1.00  0.00    -0.056 OA 
HETATM    8  C   UNL     1      -7.430  16.535  68.823  1.00  0.00    -0.216 C  
HETATM    9  O   UNL     1      -6.353  16.660  68.257  1.00  0.00    -0.130 OA 
ENDBRANCH   5   6
BRANCH   5  10
HETATM   10  C   UNL     1     -10.279  15.713  69.526  1.00  0.00    -0.277 C  
BRANCH  10  11
HETATM   11  C   UNL     1     -10.100  14.842  68.291  1.00  0.00    -0.221 A  
HETATM   12  C   UNL     1      -9.731  13.505  68.445  1.00  0.00    -0.207 A  
HETATM   13  C   UNL     1      -9.442  12.678  67.337  1.00  0.00    -0.189 A  
HETATM   14  C   UNL     1      -9.666  13.152  66.049  1.00  0.00    -0.226 A  
HETATM   15  C   UNL     1     -10.084  14.477  65.873  1.00  0.00    -0.346 A  
HETATM   16  O   UNL     1      -9.504  12.376  64.918  1.00  0.00     0.037 OA 
HETATM   17  C   UNL     1      -9.065  11.073  65.053  1.00  0.00    -0.164 A  
HETATM   18  C   UNL     1     -10.273  15.313  66.986  1.00  0.00    -0.260 A  
HETATM   19  O   UNL     1     -10.623  16.622  66.813  1.00  0.00    -0.293 OA 
HETATM   20  C   UNL     1      -9.015  10.278  63.898  1.00  0.00    -0.259 A  
HETATM   21  C   UNL     1      -8.562   8.948  63.964  1.00  0.00    -0.100 A  
HETATM   22  H   UNL     1     -10.741  16.942  65.926  1.00  0.00     0.000 HD 
HETATM   23  C   UNL     1      -8.112   8.400  65.168  1.00  0.00    -0.147 A  
HETATM   24  O   UNL     1      -8.571   8.157  62.848  1.00  0.00    -0.408 OA 
HETATM   25  C   UNL     1      -7.567  11.383  68.345  1.00  0.00    -0.123 A  
HETATM   26  H   UNL     1      -8.265   7.258  62.893  1.00  0.00     0.000 HD 
HETATM   27  C   UNL     1      -8.158   9.217  66.306  1.00  0.00    -0.107 A  
HETATM   28  C   UNL     1      -6.315  11.881  68.015  1.00  0.00    -0.055 A  
HETATM   29  C   UNL     1      -8.670  10.529  66.272  1.00  0.00    -0.159 A  
HETATM   30  C   UNL     1      -8.830  11.316  67.545  1.00  0.00    -0.140 C  
HETATM   31  C   UNL     1      -5.305  11.802  68.976  1.00  0.00    -0.050 A  
HETATM   32  C   UNL     1      -5.559  11.246  70.241  1.00  0.00    -0.121 A  
HETATM   33  O   UNL     1      -9.727  10.582  68.421  1.00  0.00    -0.149 OA 
HETATM   34  C   UNL     1      -6.827  10.760  70.565  1.00  0.00     0.331 A  
HETATM   35  O   UNL     1      -9.763   9.976  70.643  1.00  0.00    -0.054 OA 
HETATM   36  C   UNL     1      -9.188  10.393  69.659  1.00  0.00    -0.056 C  
HETATM   37  C   UNL     1      -7.802  10.835  69.590  1.00  0.00     0.023 A  
BRANCH  23  38
HETATM   38  C   UNL     1      -7.744   6.942  65.379  1.00  0.00    -0.107 C  
BRANCH  38  39
HETATM   39  N   UNL     1      -8.687   6.088  66.166  1.00  0.00    -0.141 NA 
BRANCH  39  40
HETATM   40  C   UNL     1      -7.965   4.829  66.551  1.00  0.00    -0.103 C  
HETATM   41  O   UNL     1      -8.898   2.632  67.040  1.00  0.00    -0.119 OA 
HETATM   42  C   UNL     1      -8.812   3.590  66.283  1.00  0.00    -0.131 C  
HETATM   43  O   UNL     1      -9.458   3.656  65.092  1.00  0.00    -0.149 OA 
ENDBRANCH  39  40
BRANCH  39  44
HETATM   44  C   UNL     1      -9.008   6.827  67.449  1.00  0.00    -0.115 C  
HETATM   45  C   UNL     1     -10.509   6.991  67.680  1.00  0.00    -0.237 C  
HETATM   46  O   UNL     1     -11.005   7.899  68.331  1.00  0.00     0.015 OA 
HETATM   47  O   UNL     1     -11.248   5.990  67.133  1.00  0.00    -0.236 OA 
ENDBRANCH  39  44
ENDBRANCH  38  39
ENDBRANCH  23  38
ENDBRANCH  10  11
ENDBRANCH   5  10
ENDBRANCH   4   5
TORSDOF 8
ENDMDL
MODEL      179
REMARK 921   NORMALIZED FREE ENERGY PREDICTED BY IDOCK:    6.81 KCAL/MOL
REMARK 922        TOTAL FREE ENERGY PREDICTED BY IDOCK:    7.73 KCAL/MOL
REMARK 923 INTER-LIGAND FREE ENERGY PREDICTED BY IDOCK:   -2.99 KCAL/MOL
REMARK 924 INTRA-LIGAND FREE ENERGY PREDICTED BY IDOCK:   10.72 KCAL/MOL
REMARK 927      BINDING AFFINITY PREDICTED BY RF-SCORE:    0.00 PKD
ROOT
HETATM    1  O   UNL     1     -11.486  15.681  68.707  1.00  0.00    -0.334 OA 
HETATM    2  C   UNL     1     -11.062  15.593  67.426  1.00  0.00    -0.260 C  
HETATM    3  O   UNL     1     -11.805  15.282  66.506  1.00  0.00    -0.046 OA 
HETATM    4  C   UNL     1      -9.601  15.989  67.245  1.00  0.00    -0.225 C  
ENDROOT
BRANCH   4   5
HETATM    5  N   UNL     1      -8.718  15.644  68.430  1.00  0.00    -0.173 NA 
BRANCH   5   6
HETATM    6  C   UNL     1      -9.397  14.516  69.179  1.00  0.00     0.006 C  
HETATM    7  O   UNL     1      -9.702  13.547  66.983  1.00  0.00    -0.236 OA 
HETATM    8  C   UNL     1     -10.086  13.493  68.277  1.00  0.00    -0.247 C  
HETATM    9  O   UNL     1     -10.870  12.653  68.695  1.00  0.00    -0.237 OA 
ENDBRANCH   5   6
BRANCH   5  10
HETATM   10  C   UNL     1      -7.426  15.111  67.838  1.00  0.00    -0.137 C  
BRANCH  10  11
HETATM   11  C   UNL     1      -7.047  13.727  68.342  1.00  0.00    -0.105 A  
HETATM   12  C   UNL     1      -7.288  12.615  67.534  1.00  0.00    -0.151 A  
HETATM   13  C   UNL     1      -7.063  11.298  67.990  1.00  0.00    -0.070 A  
HETATM   14  C   UNL     1      -6.448  11.092  69.221  1.00  0.00    -0.088 A  
HETATM   15  C   UNL     1      -6.153  12.198  70.028  1.00  0.00    -0.138 A  
HETATM   16  O   UNL     1      -6.102   9.842  69.695  1.00  0.00    -0.040 OA 
HETATM   17  C   UNL     1      -6.405   8.727  68.937  1.00  0.00    -0.045 A  
HETATM   18  C   UNL     1      -6.474  13.496  69.596  1.00  0.00    -0.072 A  
HETATM   19  O   UNL     1      -6.240  14.569  70.407  1.00  0.00    -0.165 OA 
HETATM   20  C   UNL     1      -5.945   7.483  69.394  1.00  0.00    -0.030 A  
HETATM   21  C   UNL     1      -6.233   6.307  68.677  1.00  0.00    -0.036 A  
HETATM   22  H   UNL     1      -5.850  14.412  71.260  1.00  0.00     0.000 HD 
HETATM   23  C   UNL     1      -7.018   6.342  67.522  1.00  0.00    -0.078 A  
HETATM   24  O   UNL     1      -5.732   5.104  69.092  1.00  0.00    -0.014 OA 
HETATM   25  C   UNL     1      -9.009  10.204  66.884  1.00  0.00    -0.146 A  
HETATM   26  H   UNL     1      -5.927   4.309  68.608  1.00  0.00     0.000 HD 
HETATM   27  C   UNL     1      -7.478   7.595  67.093  1.00  0.00    -0.096 A  
HETATM   28  C   UNL     1     -10.108  10.065  67.719  1.00  0.00    -0.222 A  
HETATM   29  C   UNL     1      -7.145   8.790  67.760  1.00  0.00    -0.083 A  
HETATM   30  C   UNL     1      -7.544  10.120  67.181  1.00  0.00    -0.092 C  
HETATM   31  C   UNL     1     -11.379  10.188  67.153  1.00  0.00     0.302 A  
HETATM   32  C   UNL     1     -11.532  10.458  65.782  1.00  0.00     1.381 A  
HETATM   33  O   UNL     1      -6.943  10.240  65.864  1.00  0.00    -0.112 OA 
HETATM   34  C   UNL     1     -10.418  10.609  64.956  1.00  0.00    -0.278 A  
HETATM   35  O   UNL     1      -7.635  10.891  63.766  1.00  0.00     0.222 OA 
HETATM   36  C   UNL     1      -7.864  10.556  64.910  1.00  0.00    -0.037 C  
HETATM   37  C   UNL     1      -9.173  10.465  65.538  1.00  0.00    -0.223 A  
BRANCH  23  38
HETATM   38  C   UNL     1      -7.264   5.162  66.599  1.00  0.00    -0.081 C  
BRANCH  38  39
HETATM   39  N   UNL     1      -8.023   3.993  67.142  1.00  0.00    -0.095 NA 
BRANCH  39  40
HETATM   40  C   UNL     1      -9.479   4.356  67.175  1.00  0.00    -0.172 C  
HETATM   41  O   UNL     1     -10.866   5.244  65.380  1.00  0.00     0.228 OA 
HETATM   42  C   UNL     1     -10.083   4.391  65.776  1.00  0.00    -0.245 C  
HETATM   43  O   UNL     1      -9.667   3.351  65.010  1.00  0.00    -0.162 OA 
ENDBRANCH  39  40
BRANCH  39  44
HETATM   44  C   UNL     1      -7.871   2.853  66.155  1.00  0.00    -0.081 C  
HETATM   45  C   UNL     1      -6.623   2.984  65.283  1.00  0.00    -0.036 C  
HETATM   46  O   UNL     1      -6.520   2.506  64.163  1.00  0.00    -0.025 OA 
HETATM   47  O   UNL     1      -5.606   3.643  65.899  1.00  0.00    -0.016 OA 
ENDBRANCH  39  44
ENDBRANCH  38  39
ENDBRANCH  23  38
ENDBRANCH  10  11
ENDBRANCH   5  10
ENDBRANCH   4   5
TORSDOF 8
ENDMDL
MODEL      180
REMARK 921   NORMALIZED FREE ENERGY PREDICTED BY IDOCK:    8.59 KCAL/MOL
REMARK 922        TOTAL FREE ENERGY PREDICTED BY IDOCK:   10.34 KCAL/MOL
REMARK 923 INTER-LIGAND FREE ENERGY PREDICTED BY IDOCK:   -1.23 KCAL/MOL
REMARK 924 INTRA-LIGAND FREE ENERGY PREDICTED BY IDOCK:   11.57 KCAL/MOL
REMARK 927      BINDING AFFINITY PREDICTED BY RF-SCORE:    0.00 PKD
ROOT
HETATM    1  O   UNL     1      -7.718   5.298  67.918  1.00  0.00    -0.086 OA 
HETATM    2  C   UNL     1      -8.315   4.189  67.423  1.00  0.00    -0.099 C  
HETATM    3  O   UNL     1      -7.686   3.273  66.916  1.00  0.00    -0.078 OA 
HETATM    4  C   UNL     1      -9.826   4.174  67.631  1.00  0.00    -0.065 C  
ENDROOT
BRANCH   4   5
HETATM    5  N   UNL     1     -10.468   5.548  67.581  1.00  0.00    -0.208 NA 
BRANCH   5   6
HETATM    6  C   UNL     1     -11.205   5.743  68.889  1.00  0.00     0.113 C  
HETATM    7  O   UNL     1      -9.804   3.939  69.685  1.00  0.00    -0.194 OA 
HETATM    8  C   UNL     1     -10.908   4.675  69.940  1.00  0.00     1.217 C  
HETATM    9  O   UNL     1     -11.570   4.534  70.958  1.00  0.00     2.059 OA 
ENDBRANCH   5   6
BRANCH   5  10
HETATM   10  C   UNL     1      -9.318   6.537  67.530  1.00  0.00    -0.122 C  
BRANCH  10  11
HETATM   11  C   UNL     1      -9.659   7.901  68.112  1.00  0.00    -0.163 A  
HETATM   12  C   UNL     1      -9.439   9.046  67.345  1.00  0.00    -0.179 A  
HETATM   13  C   UNL     1      -9.630  10.344  67.868  1.00  0.00    -0.157 A  
HETATM   14  C   UNL     1     -10.191  10.499  69.132  1.00  0.00    -0.224 A  
HETATM   15  C   UNL     1     -10.465   9.361  69.900  1.00  0.00    -0.257 A  
HETATM   16  O   UNL     1     -10.502  11.730  69.675  1.00  0.00     0.153 OA 
HETATM   17  C   UNL     1     -10.218  12.875  68.956  1.00  0.00     0.123 A  
HETATM   18  C   UNL     1     -10.178   8.081  69.397  1.00  0.00    -0.210 A  
HETATM   19  O   UNL     1     -10.391   6.975  70.169  1.00  0.00    -0.192 OA 
HETATM   20  C   UNL     1     -10.645  14.102  69.487  1.00  0.00     0.014 A  
HETATM   21  C   UNL     1     -10.372  15.306  68.812  1.00  0.00    -0.232 A  
HETATM   22  H   UNL     1     -10.743   7.097  71.043  1.00  0.00     0.000 HD 
HETATM   23  C   UNL     1      -9.636  15.315  67.625  1.00  0.00    -0.206 A  
HETATM   24  O   UNL     1     -10.841  16.494  69.300  1.00  0.00    -0.309 OA 
HETATM   25  C   UNL     1      -7.718  11.467  66.732  1.00  0.00    -0.150 A  
HETATM   26  H   UNL     1     -10.657  17.308  68.845  1.00  0.00     0.000 HD 
HETATM   27  C   UNL     1      -9.208  14.079  67.121  1.00  0.00    -0.240 A  
HETATM   28  C   UNL     1      -6.583  11.557  67.526  1.00  0.00    -0.087 A  
HETATM   29  C   UNL     1      -9.528  12.859  67.747  1.00  0.00    -0.202 A  
HETATM   30  C   UNL     1      -9.168  11.551  67.093  1.00  0.00    -0.169 C  
HETATM   31  C   UNL     1      -5.338  11.447  66.903  1.00  0.00    -0.104 A  
HETATM   32  C   UNL     1      -5.245  11.238  65.516  1.00  0.00     0.148 A  
HETATM   33  O   UNL     1      -9.825  11.497  65.799  1.00  0.00    -0.218 OA 
HETATM   34  C   UNL     1      -6.394  11.135  64.732  1.00  0.00     0.846 A  
HETATM   35  O   UNL     1      -9.227  10.935  63.646  1.00  0.00    -0.211 OA 
HETATM   36  C   UNL     1      -8.947  11.215  64.794  1.00  0.00    -0.022 C  
HETATM   37  C   UNL     1      -7.612  11.266  65.370  1.00  0.00     0.517 A  
BRANCH  23  38
HETATM   38  C   UNL     1      -9.414  16.533  66.746  1.00  0.00    -0.249 C  
BRANCH  38  39
HETATM   39  N   UNL     1      -8.192  17.360  66.989  1.00  0.00    -0.208 NA 
BRANCH  39  40
HETATM   40  C   UNL     1      -7.921  18.169  65.753  1.00  0.00     0.150 C  
HETATM   41  O   UNL     1      -8.185  20.567  65.418  1.00  0.00     0.226 OA 
HETATM   42  C   UNL     1      -7.725  19.645  66.078  1.00  0.00    -0.326 C  
HETATM   43  O   UNL     1      -6.960  19.832  67.183  1.00  0.00    -0.204 OA 
ENDBRANCH  39  40
BRANCH  39  44
HETATM   44  C   UNL     1      -8.517  18.339  68.098  1.00  0.00    -0.278 C  
HETATM   45  C   UNL     1      -9.858  19.043  67.896  1.00  0.00    -0.337 C  
HETATM   46  O   UNL     1     -10.123  20.149  68.342  1.00  0.00    -0.406 OA 
HETATM   47  O   UNL     1     -10.759  18.291  67.210  1.00  0.00    -0.404 OA 
ENDBRANCH  39  44
ENDBRANCH  38  39
ENDBRANCH  23  38
ENDBRANCH  10  11
ENDBRANCH   5  10
ENDBRANCH   4   5
TORSDOF 8
ENDMDL
MODEL      181
REMARK 921   NORMALIZED FREE ENERGY PREDICTED BY IDOCK:    9.25 KCAL/MOL
REMARK 922        TOTAL FREE ENERGY PREDICTED BY IDOCK:   11.31 KCAL/MOL
REMARK 923 INTER-LIGAND FREE ENERGY PREDICTED BY IDOCK:    7.97 KCAL/MOL
REMARK 924 INTRA-LIGAND FREE ENERGY PREDICTED BY IDOCK:    3.35 KCAL/MOL
REMARK 927      BINDING AFFINITY PREDICTED BY RF-SCORE:    0.00 PKD
ROOT
HETATM    1  O   UNL     1     -11.365   5.678  66.472  1.00  0.00     0.058 OA 
HETATM    2  C   UNL     1     -10.366   4.788  66.668  1.00  0.00    -0.214 C  
HETATM    3  O   UNL     1     -10.573   3.621  66.968  1.00  0.00     1.199 OA 
HETATM    4  C   UNL     1      -8.981   5.369  66.406  1.00  0.00    -0.131 C  
ENDROOT
BRANCH   4   5
HETATM    5  N   UNL     1      -8.854   6.840  66.755  1.00  0.00    -0.120 NA 
BRANCH   5   6
HETATM    6  C   UNL     1      -7.468   7.044  67.330  1.00  0.00    -0.099 C  
HETATM    7  O   UNL     1      -8.523   6.554  69.451  1.00  0.00    -0.125 OA 
HETATM    8  C   UNL     1      -7.419   7.059  68.857  1.00  0.00    -0.095 C  
HETATM    9  O   UNL     1      -6.445   7.435  69.492  1.00  0.00    -0.035 OA 
ENDBRANCH   5   6
BRANCH   5  10
HETATM   10  C   UNL     1      -8.935   7.583  65.434  1.00  0.00     0.182 C  
BRANCH  10  11
HETATM   11  C   UNL     1      -9.528   8.979  65.553  1.00  0.00    -0.220 A  
HETATM   12  C   UNL     1      -9.638   9.570  66.812  1.00  0.00    -0.229 A  
HETATM   13  C   UNL     1     -10.279  10.813  67.001  1.00  0.00    -0.261 A  
HETATM   14  C   UNL     1     -10.690  11.549  65.894  1.00  0.00    -0.272 A  
HETATM   15  C   UNL     1     -10.544  10.996  64.615  1.00  0.00    -0.369 A  
HETATM   16  O   UNL     1     -11.234  12.815  65.986  1.00  0.00    -0.281 OA 
HETATM   17  C   UNL     1     -11.418  13.380  67.234  1.00  0.00    -0.340 A  
HETATM   18  C   UNL     1      -9.990   9.715  64.458  1.00  0.00     0.466 A  
HETATM   19  O   UNL     1      -9.902   9.151  63.218  1.00  0.00     0.248 OA 
HETATM   20  C   UNL     1     -11.870  14.707  67.289  1.00  0.00    -0.375 A  
HETATM   21  C   UNL     1     -12.094  15.335  68.528  1.00  0.00    -0.085 A  
HETATM   22  H   UNL     1     -10.217   9.651  62.473  1.00  0.00     0.000 HD 
HETATM   23  C   UNL     1     -11.914  14.643  69.728  1.00  0.00    -0.378 A  
HETATM   24  O   UNL     1     -12.477  16.647  68.580  1.00  0.00     0.470 OA 
HETATM   25  C   UNL     1     -11.372  10.319  69.185  1.00  0.00    -0.244 A  
HETATM   26  H   UNL     1     -12.628  17.071  69.417  1.00  0.00     0.000 HD 
HETATM   27  C   UNL     1     -11.476  13.314  69.648  1.00  0.00    -0.267 A  
HETATM   28  C   UNL     1     -12.692   9.910  69.058  1.00  0.00     2.312 A  
HETATM   29  C   UNL     1     -11.183  12.690  68.420  1.00  0.00    -0.316 A  
HETATM   30  C   UNL     1     -10.580  11.311  68.392  1.00  0.00    -0.197 C  
HETATM   31  C   UNL     1     -13.172   8.958  69.961  1.00  0.00     2.004 A  
HETATM   32  C   UNL     1     -12.334   8.425  70.955  1.00  0.00    -0.051 A  
HETATM   33  O   UNL     1      -9.315  11.356  69.105  1.00  0.00    -0.022 OA 
HETATM   34  C   UNL     1     -11.004   8.834  71.062  1.00  0.00    -0.328 A  
HETATM   35  O   UNL     1      -8.254  10.078  70.701  1.00  0.00    -0.126 OA 
HETATM   36  C   UNL     1      -9.242  10.396  70.071  1.00  0.00     0.290 C  
HETATM   37  C   UNL     1     -10.561   9.790  70.169  1.00  0.00    -0.337 A  
BRANCH  23  38
HETATM   38  C   UNL     1     -11.984  15.264  71.112  1.00  0.00    -0.345 C  
BRANCH  38  39
HETATM   39  N   UNL     1     -10.712  15.755  71.726  1.00  0.00     0.442 NA 
BRANCH  39  40
HETATM   40  C   UNL     1     -10.263  16.969  70.965  1.00  0.00     2.535 C  
HETATM   41  O   UNL     1      -8.252  17.264  69.623  1.00  0.00     0.418 OA 
HETATM   42  C   UNL     1      -9.255  16.612  69.879  1.00  0.00     0.913 C  
HETATM   43  O   UNL     1      -9.602  15.487  69.204  1.00  0.00    -0.217 OA 
ENDBRANCH  39  40
BRANCH  39  44
HETATM   44  C   UNL     1     -11.030  16.207  73.137  1.00  0.00     2.216 C  
HETATM   45  C   UNL     1     -12.454  16.740  73.282  1.00  0.00     0.093 C  
HETATM   46  O   UNL     1     -12.794  17.559  74.124  1.00  0.00     0.537 OA 
HETATM   47  O   UNL     1     -13.331  16.171  72.413  1.00  0.00    -0.337 OA 
ENDBRANCH  39  44
ENDBRANCH  38  39
ENDBRANCH  23  38
ENDBRANCH  10  11
ENDBRANCH   5  10
ENDBRANCH   4   5
TORSDOF 8
ENDMDL
MODEL      182
REMARK 921   NORMALIZED FREE ENERGY PREDICTED BY IDOCK:   10.60 KCAL/MOL
REMARK 922        TOTAL FREE ENERGY PREDICTED BY IDOCK:   13.29 KCAL/MOL
REMARK 923 INTER-LIGAND FREE ENERGY PREDICTED BY IDOCK:    6.20 KCAL/MOL
REMARK 924 INTRA-LIGAND FREE ENERGY PREDICTED BY IDOCK:    7.09 KCAL/MOL
REMARK 927      BINDING AFFINITY PREDICTED BY RF-SCORE:    0.00 PKD
ROOT
HETATM    1  O   UNL     1      -6.781   5.998  67.100  1.00  0.00    -0.057 OA 
HETATM    2  C   UNL     1      -7.167   5.609  68.337  1.00  0.00    -0.075 C  
HETATM    3  O   UNL     1      -6.623   4.696  68.940  1.00  0.00    -0.042 OA 
HETATM    4  C   UNL     1      -8.287   6.466  68.916  1.00  0.00    -0.121 C  
ENDROOT
BRANCH   4   5
HETATM    5  N   UNL     1      -9.259   6.994  67.877  1.00  0.00    -0.126 NA 
BRANCH   5   6
HETATM    6  C   UNL     1     -10.405   7.639  68.627  1.00  0.00    -0.200 C  
HETATM    7  O   UNL     1      -8.770   7.976  70.379  1.00  0.00    -0.133 OA 
HETATM    8  C   UNL     1     -10.089   7.977  70.083  1.00  0.00    -0.194 C  
HETATM    9  O   UNL     1     -10.944   8.285  70.901  1.00  0.00    -0.236 OA 
ENDBRANCH   5   6
BRANCH   5  10
HETATM   10  C   UNL     1      -8.509   8.081  67.129  1.00  0.00    -0.124 C  
BRANCH  10  11
HETATM   11  C   UNL     1      -9.278   9.389  67.019  1.00  0.00    -0.171 A  
HETATM   12  C   UNL     1      -8.587  10.598  67.109  1.00  0.00    -0.127 A  
HETATM   13  C   UNL     1      -9.256  11.841  67.126  1.00  0.00    -0.179 A  
HETATM   14  C   UNL     1     -10.629  11.886  66.901  1.00  0.00    -0.230 A  
HETATM   15  C   UNL     1     -11.335  10.685  66.759  1.00  0.00     0.181 A  
HETATM   16  O   UNL     1     -11.342  13.064  66.803  1.00  0.00    -0.297 OA 
HETATM   17  C   UNL     1     -10.681  14.267  66.967  1.00  0.00    -0.290 A  
HETATM   18  C   UNL     1     -10.663   9.454  66.841  1.00  0.00    -0.104 A  
HETATM   19  O   UNL     1     -11.360   8.283  66.761  1.00  0.00     0.284 OA 
HETATM   20  C   UNL     1     -11.410  15.446  66.754  1.00  0.00    -0.125 A  
HETATM   21  C   UNL     1     -10.801  16.704  66.921  1.00  0.00    -0.060 A  
HETATM   22  H   UNL     1     -12.302   8.327  66.641  1.00  0.00     0.000 HD 
HETATM   23  C   UNL     1      -9.474  16.810  67.343  1.00  0.00    -0.236 A  
HETATM   24  O   UNL     1     -11.496  17.851  66.654  1.00  0.00     0.828 OA 
HETATM   25  C   UNL     1      -7.787  13.011  68.762  1.00  0.00     0.033 A  
HETATM   26  H   UNL     1     -11.085  18.700  66.767  1.00  0.00     0.000 HD 
HETATM   27  C   UNL     1      -8.769  15.618  67.564  1.00  0.00    -0.189 A  
HETATM   28  C   UNL     1      -8.277  12.983  70.060  1.00  0.00     2.846 A  
HETATM   29  C   UNL     1      -9.342  14.351  67.338  1.00  0.00    -0.199 A  
HETATM   30  C   UNL     1      -8.503  13.106  67.452  1.00  0.00    -0.201 C  
HETATM   31  C   UNL     1      -7.356  12.897  71.106  1.00  0.00     5.322 A  
HETATM   32  C   UNL     1      -5.977  12.827  70.846  1.00  0.00     0.186 A  
HETATM   33  O   UNL     1      -7.414  13.205  66.496  1.00  0.00     0.630 OA 
HETATM   34  C   UNL     1      -5.498  12.842  69.535  1.00  0.00    -0.084 A  
HETATM   35  O   UNL     1      -5.139  12.845  66.516  1.00  0.00     0.308 OA 
HETATM   36  C   UNL     1      -6.201  12.998  67.084  1.00  0.00     0.265 C  
HETATM   37  C   UNL     1      -6.429  12.946  68.520  1.00  0.00    -0.083 A  
BRANCH  23  38
HETATM   38  C   UNL     1      -8.681  18.103  67.412  1.00  0.00    -0.245 C  
BRANCH  38  39
HETATM   39  N   UNL     1      -8.962  19.038  68.545  1.00  0.00    -0.344 NA 
BRANCH  39  40
HETATM   40  C   UNL     1      -7.735  19.873  68.777  1.00  0.00    -0.166 C  
HETATM   41  O   UNL     1      -6.004  19.594  70.469  1.00  0.00    -0.258 OA 
HETATM   42  C   UNL     1      -6.677  19.112  69.567  1.00  0.00    -0.241 C  
HETATM   43  O   UNL     1      -6.546  17.828  69.148  1.00  0.00    -0.234 OA 
ENDBRANCH  39  40
BRANCH  39  44
HETATM   44  C   UNL     1     -10.062  19.979  68.098  1.00  0.00    -0.413 C  
HETATM   45  C   UNL     1      -9.969  20.340  66.616  1.00  0.00    -0.426 C  
HETATM   46  O   UNL     1     -10.399  21.379  66.138  1.00  0.00     1.941 OA 
HETATM   47  O   UNL     1      -9.404  19.361  65.861  1.00  0.00    -0.415 OA 
ENDBRANCH  39  44
ENDBRANCH  38  39
ENDBRANCH  23  38
ENDBRANCH  10  11
ENDBRANCH   5  10
ENDBRANCH   4   5
TORSDOF 8
ENDMDL
MODEL      183
REMARK 921   NORMALIZED FREE ENERGY PREDICTED BY IDOCK:   11.03 KCAL/MOL
REMARK 922        TOTAL FREE ENERGY PREDICTED BY IDOCK:   13.92 KCAL/MOL
REMARK 923 INTER-LIGAND FREE ENERGY PREDICTED BY IDOCK:   10.03 KCAL/MOL
REMARK 924 INTRA-LIGAND FREE ENERGY PREDICTED BY IDOCK:    3.89 KCAL/MOL
REMARK 927      BINDING AFFINITY PREDICTED BY RF-SCORE:    0.00 PKD
ROOT
HETATM    1  O   UNL     1     -10.817   8.539  64.141  1.00  0.00     7.622 OA 
HETATM    2  C   UNL     1      -9.549   8.818  64.521  1.00  0.00     1.160 C  
HETATM    3  O   UNL     1      -8.694   9.197  63.734  1.00  0.00    -0.197 OA 
HETATM    4  C   UNL     1      -9.326   8.682  66.023  1.00  0.00    -0.218 C  
ENDROOT
BRANCH   4   5
HETATM    5  N   UNL     1     -10.161   7.595  66.674  1.00  0.00    -0.241 NA 
BRANCH   5   6
HETATM    6  C   UNL     1     -10.004   6.347  65.831  1.00  0.00     0.425 C  
HETATM    7  O   UNL     1     -10.677   5.180  67.841  1.00  0.00    -0.034 OA 
HETATM    8  C   UNL     1     -10.119   5.042  66.618  1.00  0.00    -0.245 C  
HETATM    9  O   UNL     1      -9.796   3.955  66.162  1.00  0.00    -0.189 OA 
ENDBRANCH   5   6
BRANCH   5  10
HETATM   10  C   UNL     1      -9.519   7.340  68.026  1.00  0.00    -0.136 C  
BRANCH  10  11
HETATM   11  C   UNL     1      -8.586   8.453  68.479  1.00  0.00    -0.136 A  
HETATM   12  C   UNL     1      -9.031   9.775  68.444  1.00  0.00    -0.123 A  
HETATM   13  C   UNL     1      -8.177  10.859  68.744  1.00  0.00    -0.151 A  
HETATM   14  C   UNL     1      -6.897  10.611  69.230  1.00  0.00    -0.086 A  
HETATM   15  C   UNL     1      -6.447   9.287  69.319  1.00  0.00    -0.045 A  
HETATM   16  O   UNL     1      -6.036  11.609  69.640  1.00  0.00    -0.089 OA 
HETATM   17  C   UNL     1      -6.438  12.928  69.538  1.00  0.00    -0.075 A  
HETATM   18  C   UNL     1      -7.280   8.228  68.924  1.00  0.00    -0.078 A  
HETATM   19  O   UNL     1      -6.821   6.942  68.956  1.00  0.00    -0.063 OA 
HETATM   20  C   UNL     1      -5.586  13.911  70.064  1.00  0.00    -0.114 A  
HETATM   21  C   UNL     1      -5.928  15.274  69.977  1.00  0.00    -0.142 A  
HETATM   22  H   UNL     1      -5.933   6.789  69.258  1.00  0.00     0.000 HD 
HETATM   23  C   UNL     1      -7.097  15.682  69.332  1.00  0.00    -0.198 A  
HETATM   24  O   UNL     1      -5.126  16.226  70.543  1.00  0.00    -0.165 OA 
HETATM   25  C   UNL     1      -9.046  12.472  67.056  1.00  0.00    -0.213 A  
HETATM   26  H   UNL     1      -5.357  17.146  70.485  1.00  0.00     0.000 HD 
HETATM   27  C   UNL     1      -7.926  14.683  68.802  1.00  0.00    -0.151 A  
HETATM   28  C   UNL     1      -8.300  12.498  65.887  1.00  0.00     0.955 A  
HETATM   29  C   UNL     1      -7.633  13.312  68.937  1.00  0.00     0.032 A  
HETATM   30  C   UNL     1      -8.622  12.274  68.478  1.00  0.00    -0.068 C  
HETATM   31  C   UNL     1      -8.976  12.713  64.683  1.00  0.00     1.409 A  
HETATM   32  C   UNL     1     -10.371  12.882  64.663  1.00  0.00    -0.366 A  
HETATM   33  O   UNL     1      -9.859  12.472  69.212  1.00  0.00     0.339 OA 
HETATM   34  C   UNL     1     -11.111  12.839  65.845  1.00  0.00    -0.318 A  
HETATM   35  O   UNL     1     -12.104  12.564  68.706  1.00  0.00    -0.268 OA 
HETATM   36  C   UNL     1     -10.935  12.573  68.381  1.00  0.00    -0.248 C  
HETATM   37  C   UNL     1     -10.416  12.643  67.023  1.00  0.00    -0.244 A  
BRANCH  23  38
HETATM   38  C   UNL     1      -7.631  17.104  69.311  1.00  0.00    -0.025 C  
BRANCH  38  39
HETATM   39  N   UNL     1      -8.522  17.502  68.177  1.00  0.00    -0.246 NA 
BRANCH  39  40
HETATM   40  C   UNL     1      -9.164  16.260  67.629  1.00  0.00    -0.206 C  
HETATM   41  O   UNL     1     -11.132  16.067  66.207  1.00  0.00    -0.144 OA 
HETATM   42  C   UNL     1     -10.033  16.564  66.415  1.00  0.00    -0.303 C  
HETATM   43  O   UNL     1      -9.444  17.446  65.568  1.00  0.00    -0.379 OA 
ENDBRANCH  39  40
BRANCH  39  44
HETATM   44  C   UNL     1      -9.632  18.360  68.748  1.00  0.00    -0.321 C  
HETATM   45  C   UNL     1     -10.543  17.595  69.705  1.00  0.00     0.587 C  
HETATM   46  O   UNL     1     -11.712  17.884  69.914  1.00  0.00     2.978 OA 
HETATM   47  O   UNL     1      -9.910  16.581  70.352  1.00  0.00     0.747 OA 
ENDBRANCH  39  44
ENDBRANCH  38  39
ENDBRANCH  23  38
ENDBRANCH  10  11
ENDBRANCH   5  10
ENDBRANCH   4   5
TORSDOF 8
ENDMDL
MODEL      184
REMARK 921   NORMALIZED FREE ENERGY PREDICTED BY IDOCK:   16.85 KCAL/MOL
REMARK 922        TOTAL FREE ENERGY PREDICTED BY IDOCK:   22.46 KCAL/MOL
REMARK 923 INTER-LIGAND FREE ENERGY PREDICTED BY IDOCK:   15.52 KCAL/MOL
REMARK 924 INTRA-LIGAND FREE ENERGY PREDICTED BY IDOCK:    6.93 KCAL/MOL
REMARK 927      BINDING AFFINITY PREDICTED BY RF-SCORE:    0.00 PKD
ROOT
HETATM    1  O   UNL     1      -8.165  20.927  70.294  1.00  0.00     1.911 OA 
HETATM    2  C   UNL     1      -7.713  19.842  70.964  1.00  0.00     1.599 C  
HETATM    3  O   UNL     1      -7.369  19.888  72.136  1.00  0.00     1.125 OA 
HETATM    4  C   UNL     1      -7.749  18.563  70.135  1.00  0.00     1.665 C  
ENDROOT
BRANCH   4   5
HETATM    5  N   UNL     1      -7.497  18.782  68.654  1.00  0.00    -0.305 NA 
BRANCH   5   6
HETATM    6  C   UNL     1      -6.397  17.827  68.243  1.00  0.00    -0.188 C  
HETATM    7  O   UNL     1      -6.829  18.647  66.009  1.00  0.00    -0.225 OA 
HETATM    8  C   UNL     1      -6.231  17.675  66.732  1.00  0.00    -0.170 C  
HETATM    9  O   UNL     1      -5.563  16.791  66.217  1.00  0.00    -0.299 OA 
ENDBRANCH   5   6
BRANCH   5  10
HETATM   10  C   UNL     1      -8.777  18.362  67.954  1.00  0.00    -0.283 C  
BRANCH  10  11
HETATM   11  C   UNL     1      -9.739  17.594  68.848  1.00  0.00    -0.258 A  
HETATM   12  C   UNL     1      -9.845  16.210  68.709  1.00  0.00    -0.230 A  
HETATM   13  C   UNL     1     -10.797  15.457  69.430  1.00  0.00    -0.263 A  
HETATM   14  C   UNL     1     -11.558  16.076  70.416  1.00  0.00    -0.348 A  
HETATM   15  C   UNL     1     -11.433  17.458  70.607  1.00  0.00     2.055 A  
HETATM   16  O   UNL     1     -12.438  15.394  71.233  1.00  0.00    -0.332 OA 
HETATM   17  C   UNL     1     -12.608  14.034  71.053  1.00  0.00    -0.366 A  
HETATM   18  C   UNL     1     -10.547  18.205  69.811  1.00  0.00     1.035 A  
HETATM   19  O   UNL     1     -10.468  19.560  69.957  1.00  0.00    -0.213 OA 
HETATM   20  C   UNL     1     -13.425  13.352  71.968  1.00  0.00    -0.584 A  
HETATM   21  C   UNL     1     -13.652  11.970  71.830  1.00  0.00    -0.048 A  
HETATM   22  H   UNL     1     -11.018  19.975  70.612  1.00  0.00     0.000 HD 
HETATM   23  C   UNL     1     -13.108  11.254  70.761  1.00  0.00    -0.025 A  
HETATM   24  O   UNL     1     -14.399  11.297  72.757  1.00  0.00     0.506 OA 
HETATM   25  C   UNL     1     -11.377  13.819  67.645  1.00  0.00    -0.331 A  
HETATM   26  H   UNL     1     -14.553  10.363  72.664  1.00  0.00     0.000 HD 
HETATM   27  C   UNL     1     -12.307  11.960  69.852  1.00  0.00    -0.168 A  
HETATM   28  C   UNL     1     -12.518  14.163  66.934  1.00  0.00    -0.142 A  
HETATM   29  C   UNL     1     -12.015  13.328  70.010  1.00  0.00    -0.399 A  
HETATM   30  C   UNL     1     -11.036  14.008  69.090  1.00  0.00    -0.259 C  
HETATM   31  C   UNL     1     -12.561  13.850  65.573  1.00  0.00    -0.560 A  
HETATM   32  C   UNL     1     -11.472  13.220  64.947  1.00  0.00    -0.342 A  
HETATM   33  O   UNL     1      -9.757  13.330  69.209  1.00  0.00     0.354 OA 
HETATM   34  C   UNL     1     -10.325  12.893  65.670  1.00  0.00    -0.295 A  
HETATM   35  O   UNL     1      -8.151  12.531  67.765  1.00  0.00    -0.140 OA 
HETATM   36  C   UNL     1      -9.266  12.952  67.995  1.00  0.00    -0.212 C  
HETATM   37  C   UNL     1     -10.317  13.196  67.018  1.00  0.00    -0.249 A  
BRANCH  23  38
HETATM   38  C   UNL     1     -13.169   9.745  70.601  1.00  0.00    -0.014 C  
BRANCH  38  39
HETATM   39  N   UNL     1     -11.888   9.015  70.349  1.00  0.00    -0.077 NA 
BRANCH  39  40
HETATM   40  C   UNL     1     -10.769   9.810  70.959  1.00  0.00    -0.272 C  
HETATM   41  O   UNL     1     -10.736  11.006  73.081  1.00  0.00    10.023 OA 
HETATM   42  C   UNL     1     -10.948   9.970  72.464  1.00  0.00     3.396 C  
HETATM   43  O   UNL     1     -11.358   8.822  73.059  1.00  0.00     0.314 OA 
ENDBRANCH  39  40
BRANCH  39  44
HETATM   44  C   UNL     1     -11.958   7.700  71.098  1.00  0.00    -0.297 C  
HETATM   45  C   UNL     1     -10.586   7.062  71.310  1.00  0.00    -0.218 C  
HETATM   46  O   UNL     1     -10.403   5.861  71.440  1.00  0.00    -0.204 OA 
HETATM   47  O   UNL     1      -9.580   7.973  71.395  1.00  0.00    -0.148 OA 
ENDBRANCH  39  44
ENDBRANCH  38  39
ENDBRANCH  23  38
ENDBRANCH  10  11
ENDBRANCH   5  10
ENDBRANCH   4   5
TORSDOF 8
ENDMDL
MODEL      185
REMARK 921   NORMALIZED FREE ENERGY PREDICTED BY IDOCK:   17.98 KCAL/MOL
REMARK 922        TOTAL FREE ENERGY PREDICTED BY IDOCK:   24.12 KCAL/MOL
REMARK 923 INTER-LIGAND FREE ENERGY PREDICTED BY IDOCK:    8.82 KCAL/MOL
REMARK 924 INTRA-LIGAND FREE ENERGY PREDICTED BY IDOCK:   15.30 KCAL/MOL
REMARK 927      BINDING AFFINITY PREDICTED BY RF-SCORE:    0.00 PKD
ROOT
HETATM    1  O   UNL     1     -11.823  18.138  68.495  1.00  0.00     1.818 OA 
HETATM    2  C   UNL     1     -10.811  18.272  69.382  1.00  0.00     1.178 C  
HETATM    3  O   UNL     1     -10.469  19.356  69.833  1.00  0.00     0.363 OA 
HETATM    4  C   UNL     1     -10.202  16.941  69.808  1.00  0.00     0.054 C  
ENDROOT
BRANCH   4   5
HETATM    5  N   UNL     1     -10.208  15.884  68.719  1.00  0.00    -0.212 NA 
BRANCH   5   6
HETATM    6  C   UNL     1      -8.814  15.843  68.130  1.00  0.00    -0.176 C  
HETATM    7  O   UNL     1      -8.114  16.608  70.316  1.00  0.00     1.560 OA 
HETATM    8  C   UNL     1      -7.737  16.450  69.028  1.00  0.00    -0.235 C  
HETATM    9  O   UNL     1      -6.609  16.713  68.637  1.00  0.00    -0.146 OA 
ENDBRANCH   5   6
BRANCH   5  10
HETATM   10  C   UNL     1     -10.464  14.566  69.428  1.00  0.00    -0.123 C  
BRANCH  10  11
HETATM   11  C   UNL     1      -9.542  13.442  68.980  1.00  0.00     0.294 A  
HETATM   12  C   UNL     1     -10.031  12.136  68.928  1.00  0.00     0.025 A  
HETATM   13  C   UNL     1      -9.197  11.037  68.628  1.00  0.00    -0.186 A  
HETATM   14  C   UNL     1      -7.883  11.261  68.229  1.00  0.00    -0.130 A  
HETATM   15  C   UNL     1      -7.385  12.570  68.227  1.00  0.00    -0.115 A  
HETATM   16  O   UNL     1      -7.033  10.251  67.823  1.00  0.00    -0.081 OA 
HETATM   17  C   UNL     1      -7.483   8.945  67.841  1.00  0.00    -0.092 A  
HETATM   18  C   UNL     1      -8.206  13.640  68.622  1.00  0.00    -0.058 A  
HETATM   19  O   UNL     1      -7.703  14.909  68.676  1.00  0.00    -0.113 OA 
HETATM   20  C   UNL     1      -6.634   7.956  67.321  1.00  0.00    -0.060 A  
HETATM   21  C   UNL     1      -7.026   6.604  67.324  1.00  0.00    -0.078 A  
HETATM   22  H   UNL     1      -6.794  15.043  68.433  1.00  0.00     0.000 HD 
HETATM   23  C   UNL     1      -8.244   6.209  67.882  1.00  0.00    -0.117 A  
HETATM   24  O   UNL     1      -6.223   5.650  66.763  1.00  0.00    -0.032 OA 
HETATM   25  C   UNL     1     -10.218   9.383  70.187  1.00  0.00    -0.271 A  
HETATM   26  H   UNL     1      -6.487   4.737  66.765  1.00  0.00     0.000 HD 
HETATM   27  C   UNL     1      -9.069   7.213  68.408  1.00  0.00    -0.127 A  
HETATM   28  C   UNL     1      -9.544   9.279  71.395  1.00  0.00    -0.229 A  
HETATM   29  C   UNL     1      -8.724   8.577  68.354  1.00  0.00    -0.143 A  
HETATM   30  C   UNL     1      -9.704   9.628  68.803  1.00  0.00    -0.163 C  
HETATM   31  C   UNL     1     -10.297   9.035  72.546  1.00  0.00     0.351 A  
HETATM   32  C   UNL     1     -11.695   8.915  72.477  1.00  0.00    -0.133 A  
HETATM   33  O   UNL     1     -10.901   9.507  67.989  1.00  0.00    -0.233 OA 
HETATM   34  C   UNL     1     -12.362   9.037  71.258  1.00  0.00    -0.361 A  
HETATM   35  O   UNL     1     -13.174   9.473  68.360  1.00  0.00     5.946 OA 
HETATM   36  C   UNL     1     -12.027   9.408  68.752  1.00  0.00     1.523 C  
HETATM   37  C   UNL     1     -11.592   9.259  70.133  1.00  0.00    -0.078 A  
BRANCH  23  38
HETATM   38  C   UNL     1      -8.824   4.808  67.806  1.00  0.00    -0.105 C  
BRANCH  38  39
HETATM   39  N   UNL     1      -8.018   3.751  67.121  1.00  0.00    -0.090 NA 
BRANCH  39  40
HETATM   40  C   UNL     1      -8.071   4.007  65.643  1.00  0.00    -0.101 C  
HETATM   41  O   UNL     1      -6.887   2.850  63.856  1.00  0.00    -0.034 OA 
HETATM   42  C   UNL     1      -7.608   2.795  64.844  1.00  0.00    -0.076 C  
HETATM   43  O   UNL     1      -8.098   1.632  65.342  1.00  0.00    -0.072 OA 
ENDBRANCH  39  40
BRANCH  39  44
HETATM   44  C   UNL     1      -6.576   3.927  67.551  1.00  0.00    -0.042 C  
HETATM   45  C   UNL     1      -6.232   3.142  68.816  1.00  0.00    -0.029 C  
HETATM   46  O   UNL     1      -5.351   3.461  69.600  1.00  0.00    -0.010 OA 
HETATM   47  O   UNL     1      -6.973   2.011  68.962  1.00  0.00    -0.036 OA 
ENDBRANCH  39  44
ENDBRANCH  38  39
ENDBRANCH  23  38
ENDBRANCH  10  11
ENDBRANCH   5  10
ENDBRANCH   4   5
TORSDOF 8
ENDMDL
MODEL      186
REMARK 921   NORMALIZED FREE ENERGY PREDICTED BY IDOCK:   20.04 KCAL/MOL
REMARK 922        TOTAL FREE ENERGY PREDICTED BY IDOCK:   27.15 KCAL/MOL
REMARK 923 INTER-LIGAND FREE ENERGY PREDICTED BY IDOCK:   23.32 KCAL/MOL
REMARK 924 INTRA-LIGAND FREE ENERGY PREDICTED BY IDOCK:    3.83 KCAL/MOL
REMARK 927      BINDING AFFINITY PREDICTED BY RF-SCORE:    0.00 PKD
ROOT
HETATM    1  O   UNL     1      -9.340  13.724  71.045  1.00  0.00     5.005 OA 
HETATM    2  C   UNL     1      -9.534  15.044  71.269  1.00  0.00     2.766 C  
HETATM    3  O   UNL     1     -10.526  15.477  71.835  1.00  0.00     0.519 OA 
HETATM    4  C   UNL     1      -8.367  15.911  70.811  1.00  0.00     2.883 C  
ENDROOT
BRANCH   4   5
HETATM    5  N   UNL     1      -7.648  15.379  69.584  1.00  0.00    -0.201 NA 
BRANCH   5   6
HETATM    6  C   UNL     1      -7.068  14.031  69.956  1.00  0.00     0.314 C  
HETATM    7  O   UNL     1      -6.129  15.213  71.848  1.00  0.00     0.583 OA 
HETATM    8  C   UNL     1      -6.077  14.076  71.118  1.00  0.00    -0.078 C  
HETATM    9  O   UNL     1      -5.342  13.143  71.409  1.00  0.00    -0.178 OA 
ENDBRANCH   5   6
BRANCH   5  10
HETATM   10  C   UNL     1      -8.728  15.160  68.540  1.00  0.00    -0.172 C  
BRANCH  10  11
HETATM   11  C   UNL     1      -8.426  14.020  67.579  1.00  0.00    -0.201 A  
HETATM   12  C   UNL     1      -9.025  12.776  67.783  1.00  0.00    -0.190 A  
HETATM   13  C   UNL     1      -8.699  11.651  66.994  1.00  0.00    -0.173 A  
HETATM   14  C   UNL     1      -7.870  11.805  65.888  1.00  0.00     0.566 A  
HETATM   15  C   UNL     1      -7.296  13.058  65.635  1.00  0.00     4.799 A  
HETATM   16  O   UNL     1      -7.582  10.780  65.009  1.00  0.00    -0.005 OA 
HETATM   17  C   UNL     1      -8.109   9.524  65.244  1.00  0.00    -0.124 A  
HETATM   18  C   UNL     1      -7.559  14.142  66.490  1.00  0.00     1.450 A  
HETATM   19  O   UNL     1      -6.953  15.347  66.277  1.00  0.00     0.334 OA 
HETATM   20  C   UNL     1      -7.888   8.532  64.276  1.00  0.00    -0.142 A  
HETATM   21  C   UNL     1      -8.383   7.228  64.464  1.00  0.00     0.081 A  
HETATM   22  H   UNL     1      -6.363  15.430  65.537  1.00  0.00     0.000 HD 
HETATM   23  C   UNL     1      -9.065   6.878  65.631  1.00  0.00     0.097 A  
HETATM   24  O   UNL     1      -8.218   6.280  63.492  1.00  0.00    -0.257 OA 
HETATM   25  C   UNL     1      -8.801   9.922  68.785  1.00  0.00    -0.136 A  
HETATM   26  H   UNL     1      -8.552   5.399  63.619  1.00  0.00     0.000 HD 
HETATM   27  C   UNL     1      -9.261   7.882  66.590  1.00  0.00    -0.221 A  
HETATM   28  C   UNL     1      -7.560   9.621  69.328  1.00  0.00    -0.091 A  
HETATM   29  C   UNL     1      -8.831   9.208  66.391  1.00  0.00    -0.165 A  
HETATM   30  C   UNL     1      -9.190  10.280  67.385  1.00  0.00    -0.141 C  
HETATM   31  C   UNL     1      -7.499   9.311  70.689  1.00  0.00    -0.145 A  
HETATM   32  C   UNL     1      -8.660   9.321  71.481  1.00  0.00     0.194 A  
HETATM   33  O   UNL     1     -10.638  10.359  67.464  1.00  0.00    -0.223 OA 
HETATM   34  C   UNL     1      -9.900   9.641  70.925  1.00  0.00    -0.168 A  
HETATM   35  O   UNL     1     -12.214  10.478  69.140  1.00  0.00    -0.250 OA 
HETATM   36  C   UNL     1     -11.083  10.269  68.749  1.00  0.00    -0.228 C  
HETATM   37  C   UNL     1      -9.934   9.924  69.574  1.00  0.00    -0.240 A  
BRANCH  23  38
HETATM   38  C   UNL     1      -9.763   5.551  65.869  1.00  0.00    -0.030 C  
BRANCH  38  39
HETATM   39  N   UNL     1     -10.563   5.394  67.123  1.00  0.00    -0.235 NA 
BRANCH  39  40
HETATM   40  C   UNL     1      -9.685   4.754  68.160  1.00  0.00    -0.143 C  
HETATM   41  O   UNL     1      -9.932   2.579  69.228  1.00  0.00     0.253 OA 
HETATM   42  C   UNL     1      -9.872   3.242  68.201  1.00  0.00     0.235 C  
HETATM   43  O   UNL     1      -9.951   2.699  66.960  1.00  0.00     0.462 OA 
ENDBRANCH  39  40
BRANCH  39  44
HETATM   44  C   UNL     1     -10.903   6.783  67.624  1.00  0.00    -0.289 C  
HETATM   45  C   UNL     1     -12.029   6.783  68.656  1.00  0.00     1.413 C  
HETATM   46  O   UNL     1     -12.779   7.729  68.848  1.00  0.00     3.863 OA 
HETATM   47  O   UNL     1     -12.086   5.639  69.387  1.00  0.00     1.930 OA 
ENDBRANCH  39  44
ENDBRANCH  38  39
ENDBRANCH  23  38
ENDBRANCH  10  11
ENDBRANCH   5  10
ENDBRANCH   4   5
TORSDOF 8
ENDMDL
MODEL      187
REMARK 921   NORMALIZED FREE ENERGY PREDICTED BY IDOCK:   20.29 KCAL/MOL
REMARK 922        TOTAL FREE ENERGY PREDICTED BY IDOCK:   27.51 KCAL/MOL
REMARK 923 INTER-LIGAND FREE ENERGY PREDICTED BY IDOCK:   16.54 KCAL/MOL
REMARK 924 INTRA-LIGAND FREE ENERGY PREDICTED BY IDOCK:   10.97 KCAL/MOL
REMARK 927      BINDING AFFINITY PREDICTED BY RF-SCORE:    0.00 PKD
ROOT
HETATM    1  O   UNL     1     -11.287   6.327  72.482  1.00  0.00    -0.265 OA 
HETATM    2  C   UNL     1     -11.333   6.156  71.141  1.00  0.00    -0.275 C  
HETATM    3  O   UNL     1     -12.380   6.160  70.512  1.00  0.00     0.234 OA 
HETATM    4  C   UNL     1      -9.954   6.034  70.502  1.00  0.00    -0.185 C  
ENDROOT
BRANCH   4   5
HETATM    5  N   UNL     1      -8.923   5.354  71.385  1.00  0.00    -0.137 NA 
BRANCH   5   6
HETATM    6  C   UNL     1      -7.932   4.671  70.467  1.00  0.00    -0.061 C  
HETATM    7  O   UNL     1      -9.875   4.161  69.120  1.00  0.00    -0.167 OA 
HETATM    8  C   UNL     1      -8.575   3.867  69.338  1.00  0.00    -0.074 C  
HETATM    9  O   UNL     1      -7.956   3.072  68.645  1.00  0.00    -0.057 OA 
ENDBRANCH   5   6
BRANCH   5  10
HETATM   10  C   UNL     1      -8.204   6.475  72.112  1.00  0.00    -0.107 C  
BRANCH  10  11
HETATM   11  C   UNL     1      -7.610   7.523  71.184  1.00  0.00    -0.081 A  
HETATM   12  C   UNL     1      -8.333   8.685  70.913  1.00  0.00    -0.182 A  
HETATM   13  C   UNL     1      -7.886   9.642  69.975  1.00  0.00    -0.173 A  
HETATM   14  C   UNL     1      -6.624   9.508  69.405  1.00  0.00    -0.044 A  
HETATM   15  C   UNL     1      -5.860   8.372  69.701  1.00  0.00    -0.029 A  
HETATM   16  O   UNL     1      -6.073  10.448  68.557  1.00  0.00    -0.044 OA 
HETATM   17  C   UNL     1      -6.811  11.567  68.221  1.00  0.00    -0.066 A  
HETATM   18  C   UNL     1      -6.365   7.385  70.564  1.00  0.00    -0.038 A  
HETATM   19  O   UNL     1      -5.645   6.250  70.806  1.00  0.00    -0.017 OA 
HETATM   20  C   UNL     1      -6.183  12.554  67.447  1.00  0.00    -0.158 A  
HETATM   21  C   UNL     1      -6.885  13.710  67.056  1.00  0.00     0.703 A  
HETATM   22  H   UNL     1      -4.798   6.155  70.384  1.00  0.00     0.000 HD 
HETATM   23  C   UNL     1      -8.230  13.883  67.391  1.00  0.00    -0.198 A  
HETATM   24  O   UNL     1      -6.253  14.698  66.353  1.00  0.00     1.469 OA 
HETATM   25  C   UNL     1     -10.102  10.258  69.017  1.00  0.00    -0.225 A  
HETATM   26  H   UNL     1      -6.727  15.479  66.089  1.00  0.00     0.000 HD 
HETATM   27  C   UNL     1      -8.840  12.876  68.153  1.00  0.00    -0.194 A  
HETATM   28  C   UNL     1     -10.402   9.578  67.845  1.00  0.00    -0.276 A  
HETATM   29  C   UNL     1      -8.136  11.745  68.609  1.00  0.00    -0.104 A  
HETATM   30  C   UNL     1      -8.795  10.764  69.542  1.00  0.00     0.153 C  
HETATM   31  C   UNL     1     -11.735   9.233  67.611  1.00  0.00     2.188 A  
HETATM   32  C   UNL     1     -12.735   9.555  68.545  1.00  0.00     5.094 A  
HETATM   33  O   UNL     1      -9.187  11.477  70.745  1.00  0.00     4.169 OA 
HETATM   34  C   UNL     1     -12.418  10.226  69.726  1.00  0.00     0.032 A  
HETATM   35  O   UNL     1     -11.062  11.599  72.076  1.00  0.00     4.583 OA 
HETATM   36  C   UNL     1     -10.501  11.281  71.048  1.00  0.00     3.496 C  
HETATM   37  C   UNL     1     -11.095  10.572  69.923  1.00  0.00    -0.371 A  
BRANCH  23  38
HETATM   38  C   UNL     1      -9.034  15.148  67.149  1.00  0.00    -0.213 C  
BRANCH  38  39
HETATM   39  N   UNL     1      -8.422  16.216  66.299  1.00  0.00    -0.332 NA 
BRANCH  39  40
HETATM   40  C   UNL     1      -9.516  17.142  65.854  1.00  0.00    -0.044 C  
HETATM   41  O   UNL     1     -11.120  18.368  67.218  1.00  0.00    -0.240 OA 
HETATM   42  C   UNL     1      -9.956  18.075  66.976  1.00  0.00    -0.329 C  
HETATM   43  O   UNL     1      -8.905  18.566  67.679  1.00  0.00    -0.267 OA 
ENDBRANCH  39  40
BRANCH  39  44
HETATM   44  C   UNL     1      -7.489  17.021  67.181  1.00  0.00    -0.173 C  
HETATM   45  C   UNL     1      -7.957  17.094  68.633  1.00  0.00    -0.265 C  
HETATM   46  O   UNL     1      -7.682  18.009  69.394  1.00  0.00     0.030 OA 
HETATM   47  O   UNL     1      -8.673  16.005  69.019  1.00  0.00    -0.219 OA 
ENDBRANCH  39  44
ENDBRANCH  38  39
ENDBRANCH  23  38
ENDBRANCH  10  11
ENDBRANCH   5  10
ENDBRANCH   4   5
TORSDOF 8
ENDMDL
MODEL      188
REMARK 921   NORMALIZED FREE ENERGY PREDICTED BY IDOCK:   21.14 KCAL/MOL
REMARK 922        TOTAL FREE ENERGY PREDICTED BY IDOCK:   28.75 KCAL/MOL
REMARK 923 INTER-LIGAND FREE ENERGY PREDICTED BY IDOCK:    3.51 KCAL/MOL
REMARK 924 INTRA-LIGAND FREE ENERGY PREDICTED BY IDOCK:   25.24 KCAL/MOL
REMARK 927      BINDING AFFINITY PREDICTED BY RF-SCORE:    0.00 PKD
ROOT
HETATM    1  O   UNL     1     -12.188   3.085  73.382  1.00  0.00     0.185 OA 
HETATM    2  C   UNL     1     -11.816   4.367  73.607  1.00  0.00     0.317 C  
HETATM    3  O   UNL     1     -12.527   5.318  73.320  1.00  0.00     0.400 OA 
HETATM    4  C   UNL     1     -10.470   4.489  74.312  1.00  0.00    -0.270 C  
ENDROOT
BRANCH   4   5
HETATM    5  N   UNL     1      -9.482   3.396  73.947  1.00  0.00    -0.095 NA 
BRANCH   5   6
HETATM    6  C   UNL     1     -10.170   2.488  72.951  1.00  0.00    -0.148 C  
HETATM    7  O   UNL     1     -10.498   4.515  71.672  1.00  0.00    -0.134 OA 
HETATM    8  C   UNL     1     -10.876   3.226  71.814  1.00  0.00     1.064 C  
HETATM    9  O   UNL     1     -11.667   2.686  71.055  1.00  0.00     5.327 OA 
ENDBRANCH   5   6
BRANCH   5  10
HETATM   10  C   UNL     1      -8.337   4.098  73.239  1.00  0.00    -0.090 C  
BRANCH  10  11
HETATM   11  C   UNL     1      -8.508   4.175  71.730  1.00  0.00    -0.111 A  
HETATM   12  C   UNL     1      -8.413   5.412  71.092  1.00  0.00    -0.125 A  
HETATM   13  C   UNL     1      -8.672   5.564  69.713  1.00  0.00    -0.118 A  
HETATM   14  C   UNL     1      -8.886   4.437  68.926  1.00  0.00    -0.098 A  
HETATM   15  C   UNL     1      -8.936   3.178  69.538  1.00  0.00    -0.174 A  
HETATM   16  O   UNL     1      -9.047   4.489  67.555  1.00  0.00    -0.111 OA 
HETATM   17  C   UNL     1      -9.032   5.718  66.922  1.00  0.00    -0.114 A  
HETATM   18  C   UNL     1      -8.771   3.060  70.928  1.00  0.00    -0.075 A  
HETATM   19  O   UNL     1      -8.879   1.840  71.533  1.00  0.00    -0.060 OA 
HETATM   20  C   UNL     1      -9.089   5.730  65.521  1.00  0.00    -0.040 A  
HETATM   21  C   UNL     1      -9.093   6.949  64.816  1.00  0.00     0.897 A  
HETATM   22  H   UNL     1      -9.058   1.083  70.988  1.00  0.00     0.000 HD 
HETATM   23  C   UNL     1      -9.086   8.171  65.492  1.00  0.00    -0.021 A  
HETATM   24  O   UNL     1      -9.088   6.957  63.449  1.00  0.00     0.469 OA 
HETATM   25  C   UNL     1      -9.803   7.782  69.807  1.00  0.00    -0.178 A  
HETATM   26  H   UNL     1      -9.091   7.779  62.973  1.00  0.00     0.000 HD 
HETATM   27  C   UNL     1      -9.043   8.133  66.893  1.00  0.00    -0.185 A  
HETATM   28  C   UNL     1     -11.188   7.692  69.829  1.00  0.00    -0.042 A  
HETATM   29  C   UNL     1      -8.971   6.925  67.613  1.00  0.00    -0.116 A  
HETATM   30  C   UNL     1      -8.783   6.940  69.106  1.00  0.00    -0.135 C  
HETATM   31  C   UNL     1     -11.893   8.637  70.576  1.00  0.00    -0.031 A  
HETATM   32  C   UNL     1     -11.215   9.637  71.294  1.00  0.00    -0.446 A  
HETATM   33  O   UNL     1      -7.540   7.631  69.400  1.00  0.00    -0.090 OA 
HETATM   34  C   UNL     1      -9.822   9.708  71.276  1.00  0.00     0.114 A  
HETATM   35  O   UNL     1      -6.842   9.256  70.875  1.00  0.00    -0.089 OA 
HETATM   36  C   UNL     1      -7.716   8.631  70.310  1.00  0.00    -0.083 C  
HETATM   37  C   UNL     1      -9.150   8.772  70.513  1.00  0.00    -0.205 A  
BRANCH  23  38
HETATM   38  C   UNL     1      -8.941   9.531  64.833  1.00  0.00    -0.219 C  
BRANCH  38  39
HETATM   39  N   UNL     1      -8.652  10.708  65.710  1.00  0.00    -0.176 NA 
BRANCH  39  40
HETATM   40  C   UNL     1      -9.934  11.125  66.371  1.00  0.00    -0.217 C  
HETATM   41  O   UNL     1     -11.263  13.128  65.981  1.00  0.00    -0.286 OA 
HETATM   42  C   UNL     1     -10.696  12.142  65.530  1.00  0.00    -0.283 C  
HETATM   43  O   UNL     1     -10.692  11.825  64.210  1.00  0.00    -0.294 OA 
ENDBRANCH  39  40
BRANCH  39  44
HETATM   44  C   UNL     1      -7.718  10.240  66.807  1.00  0.00    -0.111 C  
HETATM   45  C   UNL     1      -7.431  11.322  67.846  1.00  0.00    -0.094 C  
HETATM   46  O   UNL     1      -6.410  11.373  68.516  1.00  0.00    -0.046 OA 
HETATM   47  O   UNL     1      -8.454  12.205  67.996  1.00  0.00    -0.153 OA 
ENDBRANCH  39  44
ENDBRANCH  38  39
ENDBRANCH  23  38
ENDBRANCH  10  11
ENDBRANCH   5  10
ENDBRANCH   4   5
TORSDOF 8
ENDMDL
MODEL      189
REMARK 921   NORMALIZED FREE ENERGY PREDICTED BY IDOCK:   23.78 KCAL/MOL
REMARK 922        TOTAL FREE ENERGY PREDICTED BY IDOCK:   32.64 KCAL/MOL
REMARK 923 INTER-LIGAND FREE ENERGY PREDICTED BY IDOCK:   18.35 KCAL/MOL
REMARK 924 INTRA-LIGAND FREE ENERGY PREDICTED BY IDOCK:   14.28 KCAL/MOL
REMARK 927      BINDING AFFINITY PREDICTED BY RF-SCORE:    0.00 PKD
ROOT
HETATM    1  O   UNL     1     -12.275  18.523  63.636  1.00  0.00     8.254 OA 
HETATM    2  C   UNL     1     -11.056  18.764  64.169  1.00  0.00     6.195 C  
HETATM    3  O   UNL     1     -10.319  19.647  63.756  1.00  0.00     6.008 OA 
HETATM    4  C   UNL     1     -10.736  17.878  65.368  1.00  0.00     0.123 C  
ENDROOT
BRANCH   4   5
HETATM    5  N   UNL     1     -11.339  16.488  65.285  1.00  0.00     0.098 NA 
BRANCH   5   6
HETATM    6  C   UNL     1     -11.821  16.295  63.863  1.00  0.00     0.846 C  
HETATM    7  O   UNL     1     -13.222  14.566  64.813  1.00  0.00    -0.337 OA 
HETATM    8  C   UNL     1     -12.719  15.075  63.666  1.00  0.00     1.078 C  
HETATM    9  O   UNL     1     -13.014  14.630  62.566  1.00  0.00     1.608 OA 
ENDBRANCH   5   6
BRANCH   5  10
HETATM   10  C   UNL     1     -10.190  15.527  65.532  1.00  0.00    -0.386 C  
BRANCH  10  11
HETATM   11  C   UNL     1     -10.521  14.419  66.520  1.00  0.00    -0.289 A  
HETATM   12  C   UNL     1      -9.492  13.628  67.032  1.00  0.00    -0.252 A  
HETATM   13  C   UNL     1      -9.746  12.516  67.863  1.00  0.00    -0.205 A  
HETATM   14  C   UNL     1     -11.042  12.275  68.310  1.00  0.00    -0.240 A  
HETATM   15  C   UNL     1     -12.085  13.087  67.847  1.00  0.00    -0.234 A  
HETATM   16  O   UNL     1     -11.360  11.270  69.203  1.00  0.00    -0.231 OA 
HETATM   17  C   UNL     1     -10.359  10.432  69.658  1.00  0.00    -0.226 A  
HETATM   18  C   UNL     1     -11.822  14.130  66.944  1.00  0.00    -0.431 A  
HETATM   19  O   UNL     1     -12.846  14.884  66.446  1.00  0.00     0.014 OA 
HETATM   20  C   UNL     1     -10.694   9.493  70.645  1.00  0.00    -0.375 A  
HETATM   21  C   UNL     1      -9.725   8.600  71.139  1.00  0.00    -0.224 A  
HETATM   22  H   UNL     1     -13.730  14.688  66.734  1.00  0.00     0.000 HD 
HETATM   23  C   UNL     1      -8.424   8.596  70.631  1.00  0.00    -0.174 A  
HETATM   24  O   UNL     1     -10.039   7.726  72.144  1.00  0.00    -0.190 OA 
HETATM   25  C   UNL     1      -7.966  11.007  66.990  1.00  0.00    -0.137 A  
HETATM   26  H   UNL     1      -9.385   7.123  72.477  1.00  0.00     0.000 HD 
HETATM   27  C   UNL     1      -8.117   9.534  69.635  1.00  0.00    -0.128 A  
HETATM   28  C   UNL     1      -8.425  10.114  66.032  1.00  0.00    -0.136 A  
HETATM   29  C   UNL     1      -9.054  10.479  69.176  1.00  0.00    -0.177 A  
HETATM   30  C   UNL     1      -8.637  11.556  68.210  1.00  0.00    -0.161 C  
HETATM   31  C   UNL     1      -7.560   9.771  64.990  1.00  0.00    -0.127 A  
HETATM   32  C   UNL     1      -6.273  10.329  64.911  1.00  0.00    -0.125 A  
HETATM   33  O   UNL     1      -7.583  12.338  68.832  1.00  0.00    -0.081 OA 
HETATM   34  C   UNL     1      -5.830  11.238  65.873  1.00  0.00     0.056 A  
HETATM   35  O   UNL     1      -5.528  13.168  68.203  1.00  0.00    -0.079 OA 
HETATM   36  C   UNL     1      -6.484  12.440  68.031  1.00  0.00    -0.081 C  
HETATM   37  C   UNL     1      -6.697  11.545  66.903  1.00  0.00    -0.139 A  
BRANCH  23  38
HETATM   38  C   UNL     1      -7.272   7.781  71.191  1.00  0.00    -0.061 C  
BRANCH  38  39
HETATM   39  N   UNL     1      -6.431   7.003  70.230  1.00  0.00    -0.042 NA 
BRANCH  39  40
HETATM   40  C   UNL     1      -7.135   5.709  69.936  1.00  0.00    -0.067 C  
HETATM   41  O   UNL     1      -7.350   3.740  71.353  1.00  0.00    -0.038 OA 
HETATM   42  C   UNL     1      -7.473   4.949  71.213  1.00  0.00    -0.077 C  
HETATM   43  O   UNL     1      -7.948   5.766  72.187  1.00  0.00    -0.105 OA 
ENDBRANCH  39  40
BRANCH  39  44
HETATM   44  C   UNL     1      -6.378   7.785  68.934  1.00  0.00    -0.036 C  
HETATM   45  C   UNL     1      -7.628   7.598  68.075  1.00  0.00    -0.110 C  
HETATM   46  O   UNL     1      -7.644   7.711  66.858  1.00  0.00    -0.098 OA 
HETATM   47  O   UNL     1      -8.746   7.345  68.805  1.00  0.00    -0.129 OA 
ENDBRANCH  39  44
ENDBRANCH  38  39
ENDBRANCH  23  38
ENDBRANCH  10  11
ENDBRANCH   5  10
ENDBRANCH   4   5
TORSDOF 8
ENDMDL
MODEL      190
REMARK 921   NORMALIZED FREE ENERGY PREDICTED BY IDOCK:   23.89 KCAL/MOL
REMARK 922        TOTAL FREE ENERGY PREDICTED BY IDOCK:   32.79 KCAL/MOL
REMARK 923 INTER-LIGAND FREE ENERGY PREDICTED BY IDOCK:   22.10 KCAL/MOL
REMARK 924 INTRA-LIGAND FREE ENERGY PREDICTED BY IDOCK:   10.70 KCAL/MOL
REMARK 927      BINDING AFFINITY PREDICTED BY RF-SCORE:    0.00 PKD
ROOT
HETATM    1  O   UNL     1      -9.359  18.526  67.543  1.00  0.00    -0.276 OA 
HETATM    2  C   UNL     1     -10.473  19.135  68.009  1.00  0.00    -0.370 C  
HETATM    3  O   UNL     1     -10.486  19.779  69.048  1.00  0.00    -0.257 OA 
HETATM    4  C   UNL     1     -11.672  18.995  67.078  1.00  0.00     1.594 C  
ENDROOT
BRANCH   4   5
HETATM    5  N   UNL     1     -11.709  17.685  66.313  1.00  0.00     2.029 NA 
BRANCH   5   6
HETATM    6  C   UNL     1     -10.335  17.483  65.709  1.00  0.00    -0.209 C  
HETATM    7  O   UNL     1     -11.354  15.597  64.588  1.00  0.00    -0.431 OA 
HETATM    8  C   UNL     1     -10.183  16.184  64.920  1.00  0.00     0.292 C  
HETATM    9  O   UNL     1      -9.102  15.741  64.559  1.00  0.00     2.010 OA 
ENDBRANCH   5   6
BRANCH   5  10
HETATM   10  C   UNL     1     -11.933  16.606  67.358  1.00  0.00     1.314 C  
BRANCH  10  11
HETATM   11  C   UNL     1     -10.722  15.713  67.582  1.00  0.00    -0.302 A  
HETATM   12  C   UNL     1     -10.747  14.397  67.120  1.00  0.00    -0.283 A  
HETATM   13  C   UNL     1      -9.703  13.488  67.395  1.00  0.00    -0.229 A  
HETATM   14  C   UNL     1      -8.544  13.941  68.018  1.00  0.00    -0.178 A  
HETATM   15  C   UNL     1      -8.477  15.272  68.447  1.00  0.00    -0.158 A  
HETATM   16  O   UNL     1      -7.438  13.142  68.233  1.00  0.00    -0.109 OA 
HETATM   17  C   UNL     1      -7.481  11.816  67.848  1.00  0.00    -0.108 A  
HETATM   18  C   UNL     1      -9.568  16.136  68.248  1.00  0.00    -0.216 A  
HETATM   19  O   UNL     1      -9.526  17.417  68.719  1.00  0.00    -0.278 OA 
HETATM   20  C   UNL     1      -6.306  11.060  67.981  1.00  0.00    -0.057 A  
HETATM   21  C   UNL     1      -6.288   9.699  67.622  1.00  0.00    -0.057 A  
HETATM   22  H   UNL     1      -8.741  17.704  69.172  1.00  0.00     0.000 HD 
HETATM   23  C   UNL     1      -7.443   9.058  67.168  1.00  0.00    -0.087 A  
HETATM   24  O   UNL     1      -5.126   8.980  67.695  1.00  0.00    -0.033 OA 
HETATM   25  C   UNL     1     -11.089  11.443  67.717  1.00  0.00    -0.323 A  
HETATM   26  H   UNL     1      -5.114   8.061  67.453  1.00  0.00     0.000 HD 
HETATM   27  C   UNL     1      -8.608   9.830  67.058  1.00  0.00    -0.127 A  
HETATM   28  C   UNL     1     -11.372  11.175  69.049  1.00  0.00    -0.343 A  
HETATM   29  C   UNL     1      -8.630  11.208  67.348  1.00  0.00    -0.137 A  
HETATM   30  C   UNL     1      -9.866  12.023  67.079  1.00  0.00    -0.194 C  
HETATM   31  C   UNL     1     -12.614  10.616  69.355  1.00  0.00     0.228 A  
HETATM   32  C   UNL     1     -13.551  10.349  68.342  1.00  0.00     8.362 A  
HETATM   33  O   UNL     1     -10.169  11.930  65.661  1.00  0.00    -0.229 OA 
HETATM   34  C   UNL     1     -13.260  10.636  67.008  1.00  0.00    10.979 A  
HETATM   35  O   UNL     1     -12.043  11.553  64.377  1.00  0.00    -0.060 OA 
HETATM   36  C   UNL     1     -11.458  11.546  65.440  1.00  0.00    -0.009 C  
HETATM   37  C   UNL     1     -12.017  11.172  66.731  1.00  0.00     1.019 A  
BRANCH  23  38
HETATM   38  C   UNL     1      -7.497   7.644  66.619  1.00  0.00    -0.093 C  
BRANCH  38  39
HETATM   39  N   UNL     1      -6.781   6.570  67.375  1.00  0.00    -0.064 NA 
BRANCH  39  40
HETATM   40  C   UNL     1      -7.711   6.040  68.428  1.00  0.00    -0.099 C  
HETATM   41  O   UNL     1      -7.415   4.111  69.886  1.00  0.00    -0.048 OA 
HETATM   42  C   UNL     1      -6.979   5.162  69.436  1.00  0.00    -0.055 C  
HETATM   43  O   UNL     1      -5.781   5.686  69.800  1.00  0.00    -0.014 OA 
ENDBRANCH  39  40
BRANCH  39  44
HETATM   44  C   UNL     1      -6.511   5.435  66.409  1.00  0.00    -0.044 C  
HETATM   45  C   UNL     1      -7.428   5.462  65.188  1.00  0.00    -0.073 C  
HETATM   46  O   UNL     1      -7.737   4.471  64.543  1.00  0.00    -0.078 OA 
HETATM   47  O   UNL     1      -7.832   6.715  64.849  1.00  0.00    -0.102 OA 
ENDBRANCH  39  44
ENDBRANCH  38  39
ENDBRANCH  23  38
ENDBRANCH  10  11
ENDBRANCH   5  10
ENDBRANCH   4   5
TORSDOF 8
ENDMDL
MODEL      191
REMARK 921   NORMALIZED FREE ENERGY PREDICTED BY IDOCK:   24.80 KCAL/MOL
REMARK 922        TOTAL FREE ENERGY PREDICTED BY IDOCK:   34.13 KCAL/MOL
REMARK 923 INTER-LIGAND FREE ENERGY PREDICTED BY IDOCK:   31.55 KCAL/MOL
REMARK 924 INTRA-LIGAND FREE ENERGY PREDICTED BY IDOCK:    2.59 KCAL/MOL
REMARK 927      BINDING AFFINITY PREDICTED BY RF-SCORE:    0.00 PKD
ROOT
HETATM    1  O   UNL     1      -9.347  13.723  71.043  1.00  0.00     5.005 OA 
HETATM    2  C   UNL     1      -9.460  15.049  71.286  1.00  0.00     2.766 C  
HETATM    3  O   UNL     1     -10.416  15.531  71.875  1.00  0.00     0.519 OA 
HETATM    4  C   UNL     1      -8.252  15.852  70.818  1.00  0.00     2.860 C  
ENDROOT
BRANCH   4   5
HETATM    5  N   UNL     1      -7.587  15.296  69.572  1.00  0.00    -0.223 NA 
BRANCH   5   6
HETATM    6  C   UNL     1      -7.161  13.879  69.890  1.00  0.00     0.305 C  
HETATM    7  O   UNL     1      -6.114  14.870  71.833  1.00  0.00     0.362 OA 
HETATM    8  C   UNL     1      -6.181  13.766  71.056  1.00  0.00     0.116 C  
HETATM    9  O   UNL     1      -5.555  12.747  71.310  1.00  0.00    -0.340 OA 
ENDBRANCH   5   6
BRANCH   5  10
HETATM   10  C   UNL     1      -8.676  15.241  68.516  1.00  0.00    -0.176 C  
BRANCH  10  11
HETATM   11  C   UNL     1      -8.518  14.087  67.537  1.00  0.00    -0.201 A  
HETATM   12  C   UNL     1      -9.320  12.954  67.680  1.00  0.00    -0.195 A  
HETATM   13  C   UNL     1      -9.145  11.808  66.874  1.00  0.00    -0.192 A  
HETATM   14  C   UNL     1      -8.251  11.848  65.808  1.00  0.00     0.590 A  
HETATM   15  C   UNL     1      -7.470  12.995  65.616  1.00  0.00     4.452 A  
HETATM   16  O   UNL     1      -8.093  10.809  64.913  1.00  0.00    -0.075 OA 
HETATM   17  C   UNL     1      -8.826   9.651  65.090  1.00  0.00    -0.180 A  
HETATM   18  C   UNL     1      -7.593  14.089  66.489  1.00  0.00     1.471 A  
HETATM   19  O   UNL     1      -6.790  15.184  66.338  1.00  0.00     0.325 OA 
HETATM   20  C   UNL     1      -8.724   8.658  64.104  1.00  0.00     0.043 A  
HETATM   21  C   UNL     1      -9.433   7.448  64.233  1.00  0.00     2.618 A  
HETATM   22  H   UNL     1      -6.161  15.185  65.626  1.00  0.00     0.000 HD 
HETATM   23  C   UNL     1     -10.216   7.189  65.359  1.00  0.00     2.405 A  
HETATM   24  O   UNL     1      -9.379   6.507  63.242  1.00  0.00     0.829 OA 
HETATM   25  C   UNL     1      -9.609  10.081  68.608  1.00  0.00    -0.158 A  
HETATM   26  H   UNL     1      -9.857   5.690  63.329  1.00  0.00     0.000 HD 
HETATM   27  C   UNL     1     -10.291   8.191  66.338  1.00  0.00     0.011 A  
HETATM   28  C   UNL     1      -8.461   9.569  69.195  1.00  0.00    -0.131 A  
HETATM   29  C   UNL     1      -9.644   9.433  66.195  1.00  0.00    -0.311 A  
HETATM   30  C   UNL     1      -9.869  10.528  67.203  1.00  0.00    -0.176 C  
HETATM   31  C   UNL     1      -8.515   9.225  70.547  1.00  0.00    -0.251 A  
HETATM   32  C   UNL     1      -9.694   9.408  71.289  1.00  0.00    -0.210 A  
HETATM   33  O   UNL     1     -11.287  10.840  67.223  1.00  0.00    -0.397 OA 
HETATM   34  C   UNL     1     -10.838   9.937  70.690  1.00  0.00    -0.400 A  
HETATM   35  O   UNL     1     -12.900  11.180  68.832  1.00  0.00     0.003 OA 
HETATM   36  C   UNL     1     -11.801  10.798  68.485  1.00  0.00    -0.096 C  
HETATM   37  C   UNL     1     -10.763  10.252  69.347  1.00  0.00    -0.272 A  
BRANCH  23  38
HETATM   38  C   UNL     1     -11.131   5.989  65.529  1.00  0.00     2.338 C  
BRANCH  38  39
HETATM   39  N   UNL     1     -10.511   4.628  65.521  1.00  0.00    -0.234 NA 
BRANCH  39  40
HETATM   40  C   UNL     1     -10.589   4.087  64.123  1.00  0.00    -0.177 C  
HETATM   41  O   UNL     1     -11.816   2.145  63.311  1.00  0.00    -0.009 OA 
HETATM   42  C   UNL     1     -11.814   3.201  63.929  1.00  0.00     2.569 C  
HETATM   43  O   UNL     1     -12.924   3.723  64.511  1.00  0.00     6.796 OA 
ENDBRANCH  39  40
BRANCH  39  44
HETATM   44  C   UNL     1      -9.042   4.794  65.852  1.00  0.00    -0.137 C  
HETATM   45  C   UNL     1      -8.375   3.486  66.271  1.00  0.00    -0.102 C  
HETATM   46  O   UNL     1      -7.399   3.420  67.004  1.00  0.00    -0.065 OA 
HETATM   47  O   UNL     1      -8.942   2.389  65.701  1.00  0.00    -0.126 OA 
ENDBRANCH  39  44
ENDBRANCH  38  39
ENDBRANCH  23  38
ENDBRANCH  10  11
ENDBRANCH   5  10
ENDBRANCH   4   5
TORSDOF 8
ENDMDL
MODEL      192
REMARK 921   NORMALIZED FREE ENERGY PREDICTED BY IDOCK:   27.71 KCAL/MOL
REMARK 922        TOTAL FREE ENERGY PREDICTED BY IDOCK:   38.39 KCAL/MOL
REMARK 923 INTER-LIGAND FREE ENERGY PREDICTED BY IDOCK:    3.26 KCAL/MOL
REMARK 924 INTRA-LIGAND FREE ENERGY PREDICTED BY IDOCK:   35.14 KCAL/MOL
REMARK 927      BINDING AFFINITY PREDICTED BY RF-SCORE:    0.00 PKD
ROOT
HETATM    1  O   UNL     1     -10.979  12.612  68.329  1.00  0.00    -0.225 OA 
HETATM    2  C   UNL     1     -11.114  12.430  66.996  1.00  0.00    -0.278 C  
HETATM    3  O   UNL     1     -11.616  11.425  66.515  1.00  0.00    -0.408 OA 
HETATM    4  C   UNL     1     -10.647  13.627  66.174  1.00  0.00    -0.291 C  
ENDROOT
BRANCH   4   5
HETATM    5  N   UNL     1      -9.482  14.381  66.791  1.00  0.00    -0.256 NA 
BRANCH   5   6
HETATM    6  C   UNL     1      -9.830  15.853  66.745  1.00  0.00    -0.244 C  
HETATM    7  O   UNL     1     -12.112  15.075  66.536  1.00  0.00    -0.093 OA 
HETATM    8  C   UNL     1     -11.292  16.141  66.404  1.00  0.00     0.372 C  
HETATM    9  O   UNL     1     -11.703  17.251  66.099  1.00  0.00     1.485 OA 
ENDBRANCH   5   6
BRANCH   5  10
HETATM   10  C   UNL     1      -9.437  13.947  68.245  1.00  0.00    -0.217 C  
BRANCH  10  11
HETATM   11  C   UNL     1     -10.006  12.557  68.486  1.00  0.00    -0.170 A  
HETATM   12  C   UNL     1      -9.268  11.439  68.096  1.00  0.00    -0.178 A  
HETATM   13  C   UNL     1      -9.788  10.130  68.190  1.00  0.00    -0.164 A  
HETATM   14  C   UNL     1     -11.010   9.920  68.821  1.00  0.00    -0.179 A  
HETATM   15  C   UNL     1     -11.747  11.026  69.264  1.00  0.00    -0.397 A  
HETATM   16  O   UNL     1     -11.543   8.666  69.043  1.00  0.00     0.599 OA 
HETATM   17  C   UNL     1     -10.856   7.554  68.593  1.00  0.00    -0.005 A  
HETATM   18  C   UNL     1     -11.253  12.328  69.074  1.00  0.00    -0.265 A  
HETATM   19  O   UNL     1     -11.997  13.408  69.453  1.00  0.00    -0.307 OA 
HETATM   20  C   UNL     1     -11.367   6.291  68.929  1.00  0.00    -0.269 A  
HETATM   21  C   UNL     1     -10.725   5.120  68.487  1.00  0.00     0.202 A  
HETATM   22  H   UNL     1     -12.845  13.252  69.853  1.00  0.00     0.000 HD 
HETATM   23  C   UNL     1      -9.593   5.183  67.672  1.00  0.00    -0.164 A  
HETATM   24  O   UNL     1     -11.190   3.891  68.866  1.00  0.00     4.040 OA 
HETATM   25  C   UNL     1      -8.801   9.206  66.098  1.00  0.00    -0.187 A  
HETATM   26  H   UNL     1     -10.757   3.099  68.568  1.00  0.00     0.000 HD 
HETATM   27  C   UNL     1      -9.109   6.456  67.337  1.00  0.00    -0.111 A  
HETATM   28  C   UNL     1      -9.674   9.234  65.019  1.00  0.00     0.105 A  
HETATM   29  C   UNL     1      -9.699   7.638  67.824  1.00  0.00    -0.180 A  
HETATM   30  C   UNL     1      -9.059   8.974  67.553  1.00  0.00    -0.132 C  
HETATM   31  C   UNL     1      -9.139   9.469  63.751  1.00  0.00    -0.153 A  
HETATM   32  C   UNL     1      -7.761   9.684  63.580  1.00  0.00    -0.129 A  
HETATM   33  O   UNL     1      -7.721   8.958  68.118  1.00  0.00    -0.098 OA 
HETATM   34  C   UNL     1      -6.896   9.666  64.675  1.00  0.00    -0.109 A  
HETATM   35  O   UNL     1      -5.611   9.573  67.429  1.00  0.00    -0.040 OA 
HETATM   36  C   UNL     1      -6.778   9.326  67.205  1.00  0.00    -0.076 C  
HETATM   37  C   UNL     1      -7.448   9.413  65.916  1.00  0.00    -0.099 A  
BRANCH  23  38
HETATM   38  C   UNL     1      -8.743   3.992  67.264  1.00  0.00    -0.112 C  
BRANCH  38  39
HETATM   39  N   UNL     1      -8.014   4.065  65.960  1.00  0.00    -0.094 NA 
BRANCH  39  40
HETATM   40  C   UNL     1      -7.299   2.760  65.752  1.00  0.00    -0.071 C  
HETATM   41  O   UNL     1      -5.368   2.294  64.343  1.00  0.00    -0.008 OA 
HETATM   42  C   UNL     1      -5.886   2.972  65.220  1.00  0.00    -0.018 C  
HETATM   43  O   UNL     1      -5.249   3.995  65.844  1.00  0.00    -0.008 OA 
ENDBRANCH  39  40
BRANCH  39  44
HETATM   44  C   UNL     1      -9.052   4.183  64.863  1.00  0.00    -0.144 C  
HETATM   45  C   UNL     1      -8.961   5.501  64.098  1.00  0.00     0.292 C  
HETATM   46  O   UNL     1      -9.907   6.030  63.532  1.00  0.00     2.130 OA 
HETATM   47  O   UNL     1      -7.702   6.012  64.058  1.00  0.00    -0.091 OA 
ENDBRANCH  39  44
ENDBRANCH  38  39
ENDBRANCH  23  38
ENDBRANCH  10  11
ENDBRANCH   5  10
ENDBRANCH   4   5
TORSDOF 8
ENDMDL
MODEL      193
REMARK 921   NORMALIZED FREE ENERGY PREDICTED BY IDOCK:   30.59 KCAL/MOL
REMARK 922        TOTAL FREE ENERGY PREDICTED BY IDOCK:   42.63 KCAL/MOL
REMARK 923 INTER-LIGAND FREE ENERGY PREDICTED BY IDOCK:   20.05 KCAL/MOL
REMARK 924 INTRA-LIGAND FREE ENERGY PREDICTED BY IDOCK:   22.59 KCAL/MOL
REMARK 927      BINDING AFFINITY PREDICTED BY RF-SCORE:    0.00 PKD
ROOT
HETATM    1  O   UNL     1      -7.571  21.243  72.187  1.00  0.00     2.564 OA 
HETATM    2  C   UNL     1      -8.311  20.164  72.531  1.00  0.00     2.867 C  
HETATM    3  O   UNL     1      -8.339  19.720  73.669  1.00  0.00     3.021 OA 
HETATM    4  C   UNL     1      -9.148  19.616  71.381  1.00  0.00     3.190 C  
ENDROOT
BRANCH   4   5
HETATM    5  N   UNL     1      -8.499  19.770  70.017  1.00  0.00     0.757 NA 
BRANCH   5   6
HETATM    6  C   UNL     1      -7.138  19.111  70.095  1.00  0.00     0.480 C  
HETATM    7  O   UNL     1      -7.084  20.008  72.342  1.00  0.00     0.708 OA 
HETATM    8  C   UNL     1      -6.343  19.463  71.352  1.00  0.00     0.530 C  
HETATM    9  O   UNL     1      -5.153  19.217  71.482  1.00  0.00    -0.295 OA 
ENDBRANCH   5   6
BRANCH   5  10
HETATM   10  C   UNL     1      -9.361  18.968  69.059  1.00  0.00    -0.244 C  
BRANCH  10  11
HETATM   11  C   UNL     1     -10.203  17.901  69.743  1.00  0.00     0.512 A  
HETATM   12  C   UNL     1      -9.919  16.555  69.511  1.00  0.00    -0.119 A  
HETATM   13  C   UNL     1     -10.732  15.521  70.026  1.00  0.00    -0.331 A  
HETATM   14  C   UNL     1     -11.761  15.831  70.909  1.00  0.00    -0.406 A  
HETATM   15  C   UNL     1     -12.032  17.175  71.194  1.00  0.00     2.388 A  
HETATM   16  O   UNL     1     -12.537  14.875  71.534  1.00  0.00    -0.293 OA 
HETATM   17  C   UNL     1     -12.315  13.540  71.254  1.00  0.00    -0.235 A  
HETATM   18  C   UNL     1     -11.272  18.193  70.595  1.00  0.00     3.410 A  
HETATM   19  O   UNL     1     -11.574  19.505  70.827  1.00  0.00     4.460 OA 
HETATM   20  C   UNL     1     -13.044  12.590  71.985  1.00  0.00    -0.472 A  
HETATM   21  C   UNL     1     -12.877  11.215  71.736  1.00  0.00    -0.374 A  
HETATM   22  H   UNL     1     -12.300  19.703  71.406  1.00  0.00     0.000 HD 
HETATM   23  C   UNL     1     -12.018  10.764  70.731  1.00  0.00    -0.464 A  
HETATM   24  O   UNL     1     -13.544  10.289  72.491  1.00  0.00    -0.607 OA 
HETATM   25  C   UNL     1     -10.601  13.968  68.082  1.00  0.00    -0.252 A  
HETATM   26  H   UNL     1     -13.431   9.361  72.323  1.00  0.00     0.000 HD 
HETATM   27  C   UNL     1     -11.311  11.732  70.004  1.00  0.00    -0.130 A  
HETATM   28  C   UNL     1     -11.680  14.079  67.217  1.00  0.00    -0.420 A  
HETATM   29  C   UNL     1     -11.415  13.109  70.283  1.00  0.00     0.075 A  
HETATM   30  C   UNL     1     -10.530  14.097  69.572  1.00  0.00     0.115 C  
HETATM   31  C   UNL     1     -11.445  13.898  65.852  1.00  0.00    -0.328 A  
HETATM   32  C   UNL     1     -10.152  13.625  65.375  1.00  0.00    -0.291 A  
HETATM   33  O   UNL     1      -9.148  13.756  69.858  1.00  0.00     1.400 OA 
HETATM   34  C   UNL     1      -9.073  13.530  66.255  1.00  0.00     0.010 A  
HETATM   35  O   UNL     1      -7.200  13.528  68.650  1.00  0.00    -0.100 OA 
HETATM   36  C   UNL     1      -8.408  13.631  68.720  1.00  0.00     0.041 C  
HETATM   37  C   UNL     1      -9.336  13.695  67.601  1.00  0.00    -0.215 A  
BRANCH  23  38
HETATM   38  C   UNL     1     -11.656   9.311  70.480  1.00  0.00    -0.217 C  
BRANCH  38  39
HETATM   39  N   UNL     1     -11.314   8.905  69.081  1.00  0.00     0.278 NA 
BRANCH  39  40
HETATM   40  C   UNL     1     -10.368   9.925  68.517  1.00  0.00    -0.196 C  
HETATM   41  O   UNL     1      -8.774  11.338  69.699  1.00  0.00     0.442 OA 
HETATM   42  C   UNL     1      -9.221  10.221  69.476  1.00  0.00    -0.170 C  
HETATM   43  O   UNL     1      -8.729   9.095  70.052  1.00  0.00    -0.145 OA 
ENDBRANCH  39  40
BRANCH  39  44
HETATM   44  C   UNL     1     -10.559   7.594  69.159  1.00  0.00    -0.186 C  
HETATM   45  C   UNL     1     -10.729   6.735  67.907  1.00  0.00    -0.256 C  
HETATM   46  O   UNL     1     -10.639   5.516  67.897  1.00  0.00    -0.205 OA 
HETATM   47  O   UNL     1     -10.937   7.467  66.780  1.00  0.00    -0.249 OA 
ENDBRANCH  39  44
ENDBRANCH  38  39
ENDBRANCH  23  38
ENDBRANCH  10  11
ENDBRANCH   5  10
ENDBRANCH   4   5
TORSDOF 8
ENDMDL
MODEL      194
REMARK 921   NORMALIZED FREE ENERGY PREDICTED BY IDOCK:   31.71 KCAL/MOL
REMARK 922        TOTAL FREE ENERGY PREDICTED BY IDOCK:   44.27 KCAL/MOL
REMARK 923 INTER-LIGAND FREE ENERGY PREDICTED BY IDOCK:   16.98 KCAL/MOL
REMARK 924 INTRA-LIGAND FREE ENERGY PREDICTED BY IDOCK:   27.29 KCAL/MOL
REMARK 927      BINDING AFFINITY PREDICTED BY RF-SCORE:    0.00 PKD
ROOT
HETATM    1  O   UNL     1      -8.943   3.510  68.855  1.00  0.00    -0.101 OA 
HETATM    2  C   UNL     1      -8.141   4.551  68.530  1.00  0.00    -0.082 C  
HETATM    3  O   UNL     1      -7.357   4.510  67.594  1.00  0.00    -0.068 OA 
HETATM    4  C   UNL     1      -8.371   5.783  69.398  1.00  0.00    -0.112 C  
ENDROOT
BRANCH   4   5
HETATM    5  N   UNL     1      -8.770   5.464  70.828  1.00  0.00    -0.130 NA 
BRANCH   5   6
HETATM    6  C   UNL     1      -7.779   4.446  71.350  1.00  0.00    -0.080 C  
HETATM    7  O   UNL     1      -8.280   3.248  69.309  1.00  0.00    -0.058 OA 
HETATM    8  C   UNL     1      -7.720   3.155  70.535  1.00  0.00    -0.043 C  
HETATM    9  O   UNL     1      -7.159   2.141  70.925  1.00  0.00    -0.032 OA 
ENDBRANCH   5   6
BRANCH   5  10
HETATM   10  C   UNL     1      -8.579   6.755  71.603  1.00  0.00    -0.125 C  
BRANCH  10  11
HETATM   11  C   UNL     1      -8.032   7.898  70.762  1.00  0.00    -0.100 A  
HETATM   12  C   UNL     1      -8.779   9.069  70.629  1.00  0.00    -0.251 A  
HETATM   13  C   UNL     1      -8.379  10.119  69.774  1.00  0.00    -0.154 A  
HETATM   14  C   UNL     1      -7.136  10.062  69.152  1.00  0.00    -0.069 A  
HETATM   15  C   UNL     1      -6.346   8.915  69.311  1.00  0.00    -0.042 A  
HETATM   16  O   UNL     1      -6.627  11.088  68.382  1.00  0.00    -0.057 OA 
HETATM   17  C   UNL     1      -7.391  12.222  68.181  1.00  0.00    -0.105 A  
HETATM   18  C   UNL     1      -6.807   7.841  70.090  1.00  0.00    -0.049 A  
HETATM   19  O   UNL     1      -6.064   6.700  70.197  1.00  0.00    -0.026 OA 
HETATM   20  C   UNL     1      -6.804  13.290  67.486  1.00  0.00    -0.155 A  
HETATM   21  C   UNL     1      -7.535  14.466  67.234  1.00  0.00    -0.074 A  
HETATM   22  H   UNL     1      -5.232   6.661  69.740  1.00  0.00     0.000 HD 
HETATM   23  C   UNL     1      -8.869  14.583  67.628  1.00  0.00    -0.189 A  
HETATM   24  O   UNL     1      -6.941  15.528  66.609  1.00  0.00    -0.221 OA 
HETATM   25  C   UNL     1     -10.635  10.787  68.955  1.00  0.00    -0.246 A  
HETATM   26  H   UNL     1      -7.434  16.322  66.438  1.00  0.00     0.000 HD 
HETATM   27  C   UNL     1      -9.439  13.497  68.308  1.00  0.00    -0.212 A  
HETATM   28  C   UNL     1     -10.966  10.218  67.733  1.00  0.00    -0.360 A  
HETATM   29  C   UNL     1      -8.704  12.339  68.628  1.00  0.00     0.021 A  
HETATM   30  C   UNL     1      -9.317  11.262  69.483  1.00  0.00     0.589 C  
HETATM   31  C   UNL     1     -12.301   9.875  67.511  1.00  0.00     4.965 A  
HETATM   32  C   UNL     1     -13.272  10.089  68.505  1.00  0.00     6.237 A  
HETATM   33  O   UNL     1      -9.676  11.848  70.762  1.00  0.00     4.659 OA 
HETATM   34  C   UNL     1     -12.924  10.648  69.734  1.00  0.00     0.317 A  
HETATM   35  O   UNL     1     -11.506  11.810  72.160  1.00  0.00     3.444 OA 
HETATM   36  C   UNL     1     -10.977  11.602  71.088  1.00  0.00     3.135 C  
HETATM   37  C   UNL     1     -11.599  10.995  69.920  1.00  0.00    -0.416 A  
BRANCH  23  38
HETATM   38  C   UNL     1      -9.698  15.852  67.537  1.00  0.00    -0.223 C  
BRANCH  38  39
HETATM   39  N   UNL     1      -9.400  16.955  68.503  1.00  0.00    -0.251 NA 
BRANCH  39  40
HETATM   40  C   UNL     1      -7.978  17.389  68.291  1.00  0.00    -0.253 C  
HETATM   41  O   UNL     1      -6.927  18.207  66.251  1.00  0.00    -0.212 OA 
HETATM   42  C   UNL     1      -7.839  18.282  67.063  1.00  0.00    -0.223 C  
HETATM   43  O   UNL     1      -8.840  19.194  66.974  1.00  0.00    -0.281 OA 
ENDBRANCH  39  40
BRANCH  39  44
HETATM   44  C   UNL     1     -10.283  18.131  68.138  1.00  0.00    -0.388 C  
HETATM   45  C   UNL     1      -9.745  19.462  68.660  1.00  0.00    -0.433 C  
HETATM   46  O   UNL     1     -10.447  20.430  68.915  1.00  0.00    -0.210 OA 
HETATM   47  O   UNL     1      -8.390  19.488  68.765  1.00  0.00    -0.362 OA 
ENDBRANCH  39  44
ENDBRANCH  38  39
ENDBRANCH  23  38
ENDBRANCH  10  11
ENDBRANCH   5  10
ENDBRANCH   4   5
TORSDOF 8
ENDMDL
MODEL      195
REMARK 921   NORMALIZED FREE ENERGY PREDICTED BY IDOCK:   36.74 KCAL/MOL
REMARK 922        TOTAL FREE ENERGY PREDICTED BY IDOCK:   51.65 KCAL/MOL
REMARK 923 INTER-LIGAND FREE ENERGY PREDICTED BY IDOCK:   36.64 KCAL/MOL
REMARK 924 INTRA-LIGAND FREE ENERGY PREDICTED BY IDOCK:   15.01 KCAL/MOL
REMARK 927      BINDING AFFINITY PREDICTED BY RF-SCORE:    0.00 PKD
ROOT
HETATM    1  O   UNL     1      -7.944  18.599  70.954  1.00  0.00     3.549 OA 
HETATM    2  C   UNL     1      -8.197  17.764  71.988  1.00  0.00    13.680 C  
HETATM    3  O   UNL     1      -7.458  17.672  72.956  1.00  0.00     9.703 OA 
HETATM    4  C   UNL     1      -9.519  17.018  71.850  1.00  0.00     9.134 C  
ENDROOT
BRANCH   4   5
HETATM    5  N   UNL     1      -9.897  16.692  70.416  1.00  0.00     1.129 NA 
BRANCH   5   6
HETATM    6  C   UNL     1      -8.715  17.068  69.548  1.00  0.00     0.510 C  
HETATM    7  O   UNL     1     -10.267  18.592  68.489  1.00  0.00    -0.380 OA 
HETATM    8  C   UNL     1      -9.065  17.986  68.377  1.00  0.00    -0.286 C  
HETATM    9  O   UNL     1      -8.301  18.207  67.448  1.00  0.00    -0.235 OA 
ENDBRANCH   5   6
BRANCH   5  10
HETATM   10  C   UNL     1     -10.062  15.184  70.368  1.00  0.00     0.189 C  
BRANCH  10  11
HETATM   11  C   UNL     1      -9.172  14.505  69.339  1.00  0.00     0.200 A  
HETATM   12  C   UNL     1      -9.237  13.119  69.187  1.00  0.00     0.640 A  
HETATM   13  C   UNL     1      -8.359  12.419  68.330  1.00  0.00    -0.137 A  
HETATM   14  C   UNL     1      -7.499  13.130  67.499  1.00  0.00    -0.160 A  
HETATM   15  C   UNL     1      -7.452  14.526  67.601  1.00  0.00    -0.195 A  
HETATM   16  O   UNL     1      -6.681  12.528  66.563  1.00  0.00     0.270 OA 
HETATM   17  C   UNL     1      -6.681  11.150  66.457  1.00  0.00    -0.128 A  
HETATM   18  C   UNL     1      -8.266  15.196  68.529  1.00  0.00    -0.148 A  
HETATM   19  O   UNL     1      -8.179  16.552  68.669  1.00  0.00    -0.211 OA 
HETATM   20  C   UNL     1      -5.923  10.576  65.425  1.00  0.00    -0.129 A  
HETATM   21  C   UNL     1      -5.867   9.178  65.272  1.00  0.00    -0.055 A  
HETATM   22  H   UNL     1      -7.563  17.022  68.119  1.00  0.00     0.000 HD 
HETATM   23  C   UNL     1      -6.526   8.330  66.164  1.00  0.00    -0.050 A  
HETATM   24  O   UNL     1      -5.177   8.624  64.229  1.00  0.00    -0.046 OA 
HETATM   25  C   UNL     1      -8.035  10.389  69.737  1.00  0.00    -0.082 A  
HETATM   26  H   UNL     1      -5.139   7.680  64.126  1.00  0.00     0.000 HD 
HETATM   27  C   UNL     1      -7.265   8.926  67.196  1.00  0.00    -0.083 A  
HETATM   28  C   UNL     1      -6.884  10.436  70.511  1.00  0.00     0.020 A  
HETATM   29  C   UNL     1      -7.387  10.323  67.325  1.00  0.00    -0.090 A  
HETATM   30  C   UNL     1      -8.305  10.913  68.362  1.00  0.00    -0.136 C  
HETATM   31  C   UNL     1      -6.922   9.846  71.777  1.00  0.00     1.076 A  
HETATM   32  C   UNL     1      -8.098   9.240  72.252  1.00  0.00     0.900 A  
HETATM   33  O   UNL     1      -9.652  10.438  68.096  1.00  0.00    -0.141 OA 
HETATM   34  C   UNL     1      -9.253   9.213  71.469  1.00  0.00    -0.156 A  
HETATM   35  O   UNL     1     -11.387   9.563  69.332  1.00  0.00    -0.103 OA 
HETATM   36  C   UNL     1     -10.223   9.881  69.201  1.00  0.00    -0.205 C  
HETATM   37  C   UNL     1      -9.182   9.786  70.214  1.00  0.00    -0.225 A  
BRANCH  23  38
HETATM   38  C   UNL     1      -6.651   6.825  66.006  1.00  0.00    -0.051 C  
BRANCH  38  39
HETATM   39  N   UNL     1      -8.022   6.249  65.840  1.00  0.00    -0.111 NA 
BRANCH  39  40
HETATM   40  C   UNL     1      -7.986   4.819  66.298  1.00  0.00    -0.103 C  
HETATM   41  O   UNL     1      -9.791   3.184  66.314  1.00  0.00     0.071 OA 
HETATM   42  C   UNL     1      -9.128   4.008  65.698  1.00  0.00    -0.142 C  
HETATM   43  O   UNL     1      -9.324   4.288  64.385  1.00  0.00    -0.154 OA 
ENDBRANCH  39  40
BRANCH  39  44
HETATM   44  C   UNL     1      -8.946   6.995  66.781  1.00  0.00    -0.132 C  
HETATM   45  C   UNL     1      -9.150   6.272  68.111  1.00  0.00    -0.112 C  
HETATM   46  O   UNL     1     -10.147   6.390  68.807  1.00  0.00    -0.144 OA 
HETATM   47  O   UNL     1      -8.081   5.518  68.480  1.00  0.00    -0.097 OA 
ENDBRANCH  39  44
ENDBRANCH  38  39
ENDBRANCH  23  38
ENDBRANCH  10  11
ENDBRANCH   5  10
ENDBRANCH   4   5
TORSDOF 8
ENDMDL
MODEL      196
REMARK 921   NORMALIZED FREE ENERGY PREDICTED BY IDOCK:   38.07 KCAL/MOL
REMARK 922        TOTAL FREE ENERGY PREDICTED BY IDOCK:   53.61 KCAL/MOL
REMARK 923 INTER-LIGAND FREE ENERGY PREDICTED BY IDOCK:   37.35 KCAL/MOL
REMARK 924 INTRA-LIGAND FREE ENERGY PREDICTED BY IDOCK:   16.26 KCAL/MOL
REMARK 927      BINDING AFFINITY PREDICTED BY RF-SCORE:    0.00 PKD
ROOT
HETATM    1  O   UNL     1      -9.058   3.852  64.881  1.00  0.00    -0.128 OA 
HETATM    2  C   UNL     1      -9.418   2.686  64.298  1.00  0.00    -0.134 C  
HETATM    3  O   UNL     1     -10.320   2.611  63.476  1.00  0.00    -0.160 OA 
HETATM    4  C   UNL     1      -8.544   1.508  64.714  1.00  0.00    -0.095 C  
ENDROOT
BRANCH   4   5
HETATM    5  N   UNL     1      -8.034   1.593  66.141  1.00  0.00    -0.071 NA 
BRANCH   5   6
HETATM    6  C   UNL     1      -7.287   2.903  66.271  1.00  0.00    -0.067 C  
HETATM    7  O   UNL     1      -5.514   1.540  67.193  1.00  0.00    -0.015 OA 
HETATM    8  C   UNL     1      -5.975   2.802  67.047  1.00  0.00    -0.023 C  
HETATM    9  O   UNL     1      -5.357   3.777  67.448  1.00  0.00    -0.011 OA 
ENDBRANCH   5   6
BRANCH   5  10
HETATM   10  C   UNL     1      -9.274   1.663  67.015  1.00  0.00    -0.023 C  
BRANCH  10  11
HETATM   11  C   UNL     1      -9.839   3.068  67.160  1.00  0.00     0.422 A  
HETATM   12  C   UNL     1      -9.288   3.933  68.107  1.00  0.00    -0.223 A  
HETATM   13  C   UNL     1      -9.840   5.206  68.366  1.00  0.00    -0.211 A  
HETATM   14  C   UNL     1     -10.871   5.684  67.564  1.00  0.00    -0.095 A  
HETATM   15  C   UNL     1     -11.408   4.850  66.574  1.00  0.00     1.489 A  
HETATM   16  O   UNL     1     -11.399   6.955  67.686  1.00  0.00    -0.149 OA 
HETATM   17  C   UNL     1     -10.913   7.794  68.670  1.00  0.00     0.166 A  
HETATM   18  C   UNL     1     -10.907   3.549  66.397  1.00  0.00     2.780 A  
HETATM   19  O   UNL     1     -11.469   2.716  65.473  1.00  0.00     3.346 OA 
HETATM   20  C   UNL     1     -11.391   9.112  68.699  1.00  0.00     0.413 A  
HETATM   21  C   UNL     1     -10.949  10.012  69.686  1.00  0.00    -0.264 A  
HETATM   22  H   UNL     1     -12.195   3.044  64.954  1.00  0.00     0.000 HD 
HETATM   23  C   UNL     1     -10.060   9.606  70.684  1.00  0.00    -0.324 A  
HETATM   24  O   UNL     1     -11.371  11.313  69.675  1.00  0.00    -0.260 OA 
HETATM   25  C   UNL     1      -9.471   5.256  70.829  1.00  0.00    -0.221 A  
HETATM   26  H   UNL     1     -11.072  11.921  70.342  1.00  0.00     0.000 HD 
HETATM   27  C   UNL     1      -9.606   8.280  70.643  1.00  0.00    -0.190 A  
HETATM   28  C   UNL     1     -10.586   4.872  71.560  1.00  0.00    -0.121 A  
HETATM   29  C   UNL     1      -9.986   7.384  69.625  1.00  0.00    -0.182 A  
HETATM   30  C   UNL     1      -9.363   6.016  69.544  1.00  0.00    -0.136 C  
HETATM   31  C   UNL     1     -10.379   4.166  72.747  1.00  0.00    -0.243 A  
HETATM   32  C   UNL     1      -9.080   3.845  73.175  1.00  0.00    -0.117 A  
HETATM   33  O   UNL     1      -7.928   6.181  69.388  1.00  0.00    -0.101 OA 
HETATM   34  C   UNL     1      -7.967   4.226  72.424  1.00  0.00    -0.088 A  
HETATM   35  O   UNL     1      -6.032   5.266  70.322  1.00  0.00    -0.016 OA 
HETATM   36  C   UNL     1      -7.230   5.464  70.314  1.00  0.00    -0.066 C  
HETATM   37  C   UNL     1      -8.199   4.939  71.264  1.00  0.00    -0.110 A  
BRANCH  23  38
HETATM   38  C   UNL     1      -9.410  10.527  71.701  1.00  0.00     5.758 C  
BRANCH  38  39
HETATM   39  N   UNL     1     -10.110  10.737  73.006  1.00  0.00    11.546 NA 
BRANCH  39  40
HETATM   40  C   UNL     1     -11.542  11.083  72.717  1.00  0.00     6.354 C  
HETATM   41  O   UNL     1     -12.954  10.311  70.888  1.00  0.00    -0.367 OA 
HETATM   42  C   UNL     1     -12.202  10.045  71.817  1.00  0.00    -0.296 C  
HETATM   43  O   UNL     1     -11.876   8.776  72.169  1.00  0.00    -0.355 OA 
ENDBRANCH  39  40
BRANCH  39  44
HETATM   44  C   UNL     1     -10.113   9.411  73.740  1.00  0.00     6.532 C  
HETATM   45  C   UNL     1      -8.715   8.964  74.165  1.00  0.00     1.392 C  
HETATM   46  O   UNL     1      -8.391   7.797  74.327  1.00  0.00    -0.212 OA 
HETATM   47  O   UNL     1      -7.870  10.002  74.402  1.00  0.00     2.225 OA 
ENDBRANCH  39  44
ENDBRANCH  38  39
ENDBRANCH  23  38
ENDBRANCH  10  11
ENDBRANCH   5  10
ENDBRANCH   4   5
TORSDOF 8
ENDMDL
MODEL      197
REMARK 921   NORMALIZED FREE ENERGY PREDICTED BY IDOCK:   39.67 KCAL/MOL
REMARK 922        TOTAL FREE ENERGY PREDICTED BY IDOCK:   55.96 KCAL/MOL
REMARK 923 INTER-LIGAND FREE ENERGY PREDICTED BY IDOCK:   36.99 KCAL/MOL
REMARK 924 INTRA-LIGAND FREE ENERGY PREDICTED BY IDOCK:   18.97 KCAL/MOL
REMARK 927      BINDING AFFINITY PREDICTED BY RF-SCORE:    0.00 PKD
ROOT
HETATM    1  O   UNL     1      -9.849  13.897  63.057  1.00  0.00     4.572 OA 
HETATM    2  C   UNL     1     -10.437  14.757  63.921  1.00  0.00     2.114 C  
HETATM    3  O   UNL     1     -11.571  15.180  63.760  1.00  0.00     0.011 OA 
HETATM    4  C   UNL     1      -9.571  15.077  65.135  1.00  0.00     0.186 C  
ENDROOT
BRANCH   4   5
HETATM    5  N   UNL     1      -8.082  15.090  64.844  1.00  0.00     5.882 NA 
BRANCH   5   6
HETATM    6  C   UNL     1      -7.393  15.651  66.070  1.00  0.00     2.252 C  
HETATM    7  O   UNL     1      -9.240  14.661  67.280  1.00  0.00    -0.191 OA 
HETATM    8  C   UNL     1      -8.211  15.534  67.355  1.00  0.00    -0.177 C  
HETATM    9  O   UNL     1      -7.927  16.127  68.386  1.00  0.00    -0.150 OA 
ENDBRANCH   5   6
BRANCH   5  10
HETATM   10  C   UNL     1      -7.680  13.633  64.697  1.00  0.00    11.440 C  
BRANCH  10  11
HETATM   11  C   UNL     1      -7.391  12.944  66.022  1.00  0.00     2.819 A  
HETATM   12  C   UNL     1      -8.383  12.166  66.619  1.00  0.00    -0.051 A  
HETATM   13  C   UNL     1      -8.215  11.593  67.899  1.00  0.00    -0.141 A  
HETATM   14  C   UNL     1      -6.978  11.676  68.531  1.00  0.00    -0.085 A  
HETATM   15  C   UNL     1      -5.951  12.411  67.926  1.00  0.00    -0.093 A  
HETATM   16  O   UNL     1      -6.701  11.060  69.736  1.00  0.00    -0.126 OA 
HETATM   17  C   UNL     1      -7.700  10.350  70.374  1.00  0.00     0.522 A  
HETATM   18  C   UNL     1      -6.171  13.054  66.696  1.00  0.00     1.655 A  
HETATM   19  O   UNL     1      -5.189  13.819  66.135  1.00  0.00     2.635 OA 
HETATM   20  C   UNL     1      -7.358   9.646  71.539  1.00  0.00     0.620 A  
HETATM   21  C   UNL     1      -8.332   8.917  72.246  1.00  0.00     0.222 A  
HETATM   22  H   UNL     1      -4.360  13.895  66.594  1.00  0.00     0.000 HD 
HETATM   23  C   UNL     1      -9.667   8.911  71.833  1.00  0.00    -0.349 A  
HETATM   24  O   UNL     1      -7.984   8.183  73.346  1.00  0.00    -0.167 OA 
HETATM   25  C   UNL     1     -10.545  11.890  68.728  1.00  0.00    -0.234 A  
HETATM   26  H   UNL     1      -8.642   7.691  73.823  1.00  0.00     0.000 HD 
HETATM   27  C   UNL     1      -9.988   9.633  70.675  1.00  0.00    -0.299 A  
HETATM   28  C   UNL     1     -10.711  13.028  69.505  1.00  0.00     0.253 A  
HETATM   29  C   UNL     1      -9.015  10.314  69.917  1.00  0.00     0.008 A  
HETATM   30  C   UNL     1      -9.383  10.955  68.606  1.00  0.00    -0.187 C  
HETATM   31  C   UNL     1     -11.927  13.708  69.419  1.00  0.00    -0.394 A  
HETATM   32  C   UNL     1     -12.943  13.258  68.558  1.00  0.00     2.003 A  
HETATM   33  O   UNL     1      -9.895   9.920  67.724  1.00  0.00    -0.148 OA 
HETATM   34  C   UNL     1     -12.758  12.120  67.771  1.00  0.00     2.177 A  
HETATM   35  O   UNL     1     -11.697   9.673  66.312  1.00  0.00     1.964 OA 
HETATM   36  C   UNL     1     -11.111  10.250  67.205  1.00  0.00    -0.091 C  
HETATM   37  C   UNL     1     -11.553  11.456  67.890  1.00  0.00    -0.337 A  
BRANCH  23  38
HETATM   38  C   UNL     1     -10.761   8.046  72.433  1.00  0.00    -0.320 C  
BRANCH  38  39
HETATM   39  N   UNL     1     -11.013   6.706  71.817  1.00  0.00    -0.233 NA 
BRANCH  39  40
HETATM   40  C   UNL     1      -9.704   5.974  71.743  1.00  0.00    -0.151 C  
HETATM   41  O   UNL     1      -7.500   6.723  72.461  1.00  0.00    -0.090 OA 
HETATM   42  C   UNL     1      -8.683   6.545  72.720  1.00  0.00    -0.124 C  
HETATM   43  O   UNL     1      -9.229   6.824  73.931  1.00  0.00    -0.152 OA 
ENDBRANCH  39  40
BRANCH  39  44
HETATM   44  C   UNL     1     -11.904   5.930  72.765  1.00  0.00    -0.069 C  
HETATM   45  C   UNL     1     -11.430   4.495  72.985  1.00  0.00    -0.108 C  
HETATM   46  O   UNL     1     -12.169   3.570  73.289  1.00  0.00     0.271 OA 
HETATM   47  O   UNL     1     -10.084   4.351  72.864  1.00  0.00    -0.150 OA 
ENDBRANCH  39  44
ENDBRANCH  38  39
ENDBRANCH  23  38
ENDBRANCH  10  11
ENDBRANCH   5  10
ENDBRANCH   4   5
TORSDOF 8
ENDMDL
MODEL      198
REMARK 921   NORMALIZED FREE ENERGY PREDICTED BY IDOCK:   48.00 KCAL/MOL
REMARK 922        TOTAL FREE ENERGY PREDICTED BY IDOCK:   68.18 KCAL/MOL
REMARK 923 INTER-LIGAND FREE ENERGY PREDICTED BY IDOCK:   15.92 KCAL/MOL
REMARK 924 INTRA-LIGAND FREE ENERGY PREDICTED BY IDOCK:   52.26 KCAL/MOL
REMARK 927      BINDING AFFINITY PREDICTED BY RF-SCORE:    0.00 PKD
ROOT
HETATM    1  O   UNL     1     -10.548   4.567  69.311  1.00  0.00     0.291 OA 
HETATM    2  C   UNL     1     -10.111   3.681  68.387  1.00  0.00     0.554 C  
HETATM    3  O   UNL     1     -10.725   3.448  67.356  1.00  0.00     2.194 OA 
HETATM    4  C   UNL     1      -8.758   3.068  68.730  1.00  0.00    -0.092 C  
ENDROOT
BRANCH   4   5
HETATM    5  N   UNL     1      -8.522   2.890  70.219  1.00  0.00    -0.051 NA 
BRANCH   5   6
HETATM    6  C   UNL     1      -7.027   2.963  70.446  1.00  0.00    -0.034 C  
HETATM    7  O   UNL     1      -7.628   3.494  72.728  1.00  0.00    -0.057 OA 
HETATM    8  C   UNL     1      -6.628   3.499  71.820  1.00  0.00    -0.015 C  
HETATM    9  O   UNL     1      -5.489   3.843  72.099  1.00  0.00     0.000 OA 
ENDBRANCH   5   6
BRANCH   5  10
HETATM   10  C   UNL     1      -9.164   4.095  70.883  1.00  0.00    -0.133 C  
BRANCH  10  11
HETATM   11  C   UNL     1      -8.383   5.386  70.689  1.00  0.00    -0.115 A  
HETATM   12  C   UNL     1      -9.074   6.594  70.584  1.00  0.00    -0.155 A  
HETATM   13  C   UNL     1      -8.416   7.809  70.292  1.00  0.00    -0.133 A  
HETATM   14  C   UNL     1      -7.026   7.844  70.249  1.00  0.00    -0.049 A  
HETATM   15  C   UNL     1      -6.309   6.650  70.401  1.00  0.00    -0.043 A  
HETATM   16  O   UNL     1      -6.303   9.006  70.070  1.00  0.00    -0.036 OA 
HETATM   17  C   UNL     1      -6.979  10.198  69.888  1.00  0.00    -0.133 A  
HETATM   18  C   UNL     1      -6.989   5.436  70.595  1.00  0.00    -0.056 A  
HETATM   19  O   UNL     1      -6.294   4.264  70.683  1.00  0.00    -0.021 OA 
HETATM   20  C   UNL     1      -6.218  11.375  69.818  1.00  0.00    -0.135 A  
HETATM   21  C   UNL     1      -6.844  12.619  69.617  1.00  0.00     0.173 A  
HETATM   22  H   UNL     1      -5.346   4.298  70.619  1.00  0.00     0.000 HD 
HETATM   23  C   UNL     1      -8.227  12.710  69.441  1.00  0.00     1.016 A  
HETATM   24  O   UNL     1      -6.107  13.771  69.609  1.00  0.00    -0.105 OA 
HETATM   25  C   UNL     1     -10.165   8.816  68.831  1.00  0.00    -0.221 A  
HETATM   26  H   UNL     1      -6.529  14.612  69.474  1.00  0.00     0.000 HD 
HETATM   27  C   UNL     1      -8.964  11.519  69.501  1.00  0.00     0.881 A  
HETATM   28  C   UNL     1      -9.928   8.622  67.478  1.00  0.00    -0.256 A  
HETATM   29  C   UNL     1      -8.363  10.273  69.767  1.00  0.00    -0.099 A  
HETATM   30  C   UNL     1      -9.213   9.046  69.963  1.00  0.00    -0.180 C  
HETATM   31  C   UNL     1     -11.030   8.438  66.640  1.00  0.00     0.632 A  
HETATM   32  C   UNL     1     -12.335   8.435  67.161  1.00  0.00     8.049 A  
HETATM   33  O   UNL     1     -10.102   9.285  71.087  1.00  0.00    -0.288 OA 
HETATM   34  C   UNL     1     -12.559   8.617  68.526  1.00  0.00     6.158 A  
HETATM   35  O   UNL     1     -12.340   8.985  71.536  1.00  0.00    -0.301 OA 
HETATM   36  C   UNL     1     -11.404   9.043  70.766  1.00  0.00    -0.277 C  
HETATM   37  C   UNL     1     -11.452   8.816  69.329  1.00  0.00     0.520 A  
BRANCH  23  38
HETATM   38  C   UNL     1      -9.014  14.006  69.366  1.00  0.00     0.622 C  
BRANCH  38  39
HETATM   39  N   UNL     1      -9.662  14.359  68.065  1.00  0.00    -0.215 NA 
BRANCH  39  40
HETATM   40  C   UNL     1      -8.947  13.619  66.971  1.00  0.00    -0.236 C  
HETATM   41  O   UNL     1      -7.362  11.780  67.165  1.00  0.00    -0.132 OA 
HETATM   42  C   UNL     1      -8.455  12.256  67.442  1.00  0.00    -0.176 C  
HETATM   43  O   UNL     1      -9.377  11.608  68.198  1.00  0.00    -0.175 OA 
ENDBRANCH  39  40
BRANCH  39  44
HETATM   44  C   UNL     1     -11.081  13.830  68.105  1.00  0.00    -0.259 C  
HETATM   45  C   UNL     1     -11.212  12.431  67.504  1.00  0.00    -0.294 C  
HETATM   46  O   UNL     1     -12.237  11.997  67.001  1.00  0.00    -0.516 OA 
HETATM   47  O   UNL     1     -10.082  11.686  67.632  1.00  0.00    -0.184 OA 
ENDBRANCH  39  44
ENDBRANCH  38  39
ENDBRANCH  23  38
ENDBRANCH  10  11
ENDBRANCH   5  10
ENDBRANCH   4   5
TORSDOF 8
ENDMDL
MODEL      199
REMARK 921   NORMALIZED FREE ENERGY PREDICTED BY IDOCK:   50.81 KCAL/MOL
REMARK 922        TOTAL FREE ENERGY PREDICTED BY IDOCK:   72.30 KCAL/MOL
REMARK 923 INTER-LIGAND FREE ENERGY PREDICTED BY IDOCK:   31.39 KCAL/MOL
REMARK 924 INTRA-LIGAND FREE ENERGY PREDICTED BY IDOCK:   40.92 KCAL/MOL
REMARK 927      BINDING AFFINITY PREDICTED BY RF-SCORE:    0.00 PKD
ROOT
HETATM    1  O   UNL     1      -9.410   8.637  73.748  1.00  0.00     0.303 OA 
HETATM    2  C   UNL     1     -10.110   7.832  72.916  1.00  0.00    -0.301 C  
HETATM    3  O   UNL     1     -10.889   6.983  73.321  1.00  0.00    -0.308 OA 
HETATM    4  C   UNL     1      -9.879   8.144  71.441  1.00  0.00    -0.174 C  
ENDROOT
BRANCH   4   5
HETATM    5  N   UNL     1      -8.479   8.636  71.126  1.00  0.00    -0.155 NA 
BRANCH   5   6
HETATM    6  C   UNL     1      -7.551   8.029  72.157  1.00  0.00    -0.104 C  
HETATM    7  O   UNL     1      -8.904   9.241  73.756  1.00  0.00     1.029 OA 
HETATM    8  C   UNL     1      -7.741   8.578  73.570  1.00  0.00     0.003 C  
HETATM    9  O   UNL     1      -6.945   8.383  74.477  1.00  0.00    -0.157 OA 
ENDBRANCH   5   6
BRANCH   5  10
HETATM   10  C   UNL     1      -8.132   8.049  69.770  1.00  0.00    -0.115 C  
BRANCH  10  11
HETATM   11  C   UNL     1      -8.795   8.768  68.605  1.00  0.00    -0.138 A  
HETATM   12  C   UNL     1      -8.670  10.154  68.497  1.00  0.00    -0.123 A  
HETATM   13  C   UNL     1      -9.353  10.891  67.505  1.00  0.00    -0.164 A  
HETATM   14  C   UNL     1     -10.057  10.217  66.512  1.00  0.00    -0.231 A  
HETATM   15  C   UNL     1     -10.155   8.821  66.573  1.00  0.00    -0.349 A  
HETATM   16  O   UNL     1     -10.668  10.856  65.451  1.00  0.00    -0.219 OA 
HETATM   17  C   UNL     1     -10.616  12.235  65.375  1.00  0.00    -0.274 A  
HETATM   18  C   UNL     1      -9.547   8.115  67.625  1.00  0.00    -0.152 A  
HETATM   19  O   UNL     1      -9.691   6.760  67.717  1.00  0.00    -0.123 OA 
HETATM   20  C   UNL     1     -11.150  12.846  64.231  1.00  0.00    -0.414 A  
HETATM   21  C   UNL     1     -11.143  14.247  64.099  1.00  0.00     0.087 A  
HETATM   22  H   UNL     1     -10.203   6.316  67.050  1.00  0.00     0.000 HD 
HETATM   23  C   UNL     1     -10.646  15.063  65.118  1.00  0.00    -0.440 A  
HETATM   24  O   UNL     1     -11.610  14.837  62.957  1.00  0.00     0.821 OA 
HETATM   25  C   UNL     1      -9.890  12.906  68.868  1.00  0.00     0.136 A  
HETATM   26  H   UNL     1     -11.606  15.783  62.868  1.00  0.00     0.000 HD 
HETATM   27  C   UNL     1     -10.130  14.431  66.258  1.00  0.00    -0.308 A  
HETATM   28  C   UNL     1     -11.168  12.878  69.409  1.00  0.00    -0.197 A  
HETATM   29  C   UNL     1     -10.068  13.029  66.379  1.00  0.00    -0.279 A  
HETATM   30  C   UNL     1      -9.376  12.397  67.557  1.00  0.00    -0.181 C  
HETATM   31  C   UNL     1     -11.356  13.446  70.671  1.00  0.00     0.684 A  
HETATM   32  C   UNL     1     -10.279  14.012  71.372  1.00  0.00     4.469 A  
HETATM   33  O   UNL     1      -7.993  12.840  67.561  1.00  0.00    -0.154 OA 
HETATM   34  C   UNL     1      -8.996  14.021  70.823  1.00  0.00     4.402 A  
HETATM   35  O   UNL     1      -6.504  13.648  69.121  1.00  0.00    -0.097 OA 
HETATM   36  C   UNL     1      -7.629  13.363  68.766  1.00  0.00    -0.047 C  
HETATM   37  C   UNL     1      -8.841  13.470  69.566  1.00  0.00     1.250 A  
BRANCH  23  38
HETATM   38  C   UNL     1     -10.458  16.566  65.018  1.00  0.00    -0.023 C  
BRANCH  38  39
HETATM   39  N   UNL     1      -9.090  17.119  65.263  1.00  0.00     0.595 NA 
BRANCH  39  40
HETATM   40  C   UNL     1      -8.756  16.916  66.713  1.00  0.00    -0.232 C  
HETATM   41  O   UNL     1      -9.993  15.661  68.395  1.00  0.00    -0.206 OA 
HETATM   42  C   UNL     1      -9.470  15.699  67.289  1.00  0.00    -0.216 C  
HETATM   43  O   UNL     1      -9.449  14.640  66.440  1.00  0.00    -0.275 OA 
ENDBRANCH  39  40
BRANCH  39  44
HETATM   44  C   UNL     1      -8.111  16.286  64.461  1.00  0.00     8.763 C  
HETATM   45  C   UNL     1      -6.698  16.306  65.041  1.00  0.00     7.166 C  
HETATM   46  O   UNL     1      -5.685  16.135  64.379  1.00  0.00     8.040 OA 
HETATM   47  O   UNL     1      -6.675  16.480  66.389  1.00  0.00    -0.202 OA 
ENDBRANCH  39  44
ENDBRANCH  38  39
ENDBRANCH  23  38
ENDBRANCH  10  11
ENDBRANCH   5  10
ENDBRANCH   4   5
TORSDOF 8
ENDMDL
MODEL      200
REMARK 921   NORMALIZED FREE ENERGY PREDICTED BY IDOCK:   56.07 KCAL/MOL
REMARK 922        TOTAL FREE ENERGY PREDICTED BY IDOCK:   80.03 KCAL/MOL
REMARK 923 INTER-LIGAND FREE ENERGY PREDICTED BY IDOCK:   68.53 KCAL/MOL
REMARK 924 INTRA-LIGAND FREE ENERGY PREDICTED BY IDOCK:   11.50 KCAL/MOL
REMARK 927      BINDING AFFINITY PREDICTED BY RF-SCORE:    0.00 PKD
ROOT
HETATM    1  O   UNL     1     -11.971   9.134  63.088  1.00  0.00    12.143 OA 
HETATM    2  C   UNL     1     -10.848   9.620  63.665  1.00  0.00     4.706 C  
HETATM    3  O   UNL     1     -10.074  10.362  63.079  1.00  0.00    -0.152 OA 
HETATM    4  C   UNL     1     -10.693   9.208  65.125  1.00  0.00     3.140 C  
ENDROOT
BRANCH   4   5
HETATM    5  N   UNL     1     -11.253   7.833  65.440  1.00  0.00     6.133 NA 
BRANCH   5   6
HETATM    6  C   UNL     1     -11.868   7.299  64.164  1.00  0.00    19.180 C  
HETATM    7  O   UNL     1     -11.801   5.161  65.294  1.00  0.00     0.850 OA 
HETATM    8  C   UNL     1     -11.954   5.775  64.100  1.00  0.00     7.104 C  
HETATM    9  O   UNL     1     -12.203   5.161  63.073  1.00  0.00     2.708 OA 
ENDBRANCH   5   6
BRANCH   5  10
HETATM   10  C   UNL     1     -10.052   6.971  65.786  1.00  0.00     1.063 C  
BRANCH  10  11
HETATM   11  C   UNL     1      -9.156   7.574  66.857  1.00  0.00    -0.166 A  
HETATM   12  C   UNL     1      -9.265   8.933  67.155  1.00  0.00    -0.169 A  
HETATM   13  C   UNL     1      -8.387   9.573  68.057  1.00  0.00    -0.118 A  
HETATM   14  C   UNL     1      -7.477   8.814  68.786  1.00  0.00    -0.084 A  
HETATM   15  C   UNL     1      -7.384   7.438  68.537  1.00  0.00    -0.100 A  
HETATM   16  O   UNL     1      -6.654   9.346  69.758  1.00  0.00    -0.041 OA 
HETATM   17  C   UNL     1      -6.699  10.705  70.008  1.00  0.00    -0.156 A  
HETATM   18  C   UNL     1      -8.202   6.838  67.565  1.00  0.00    -0.122 A  
HETATM   19  O   UNL     1      -8.070   5.508  67.282  1.00  0.00    -0.101 OA 
HETATM   20  C   UNL     1      -5.931  11.197  71.074  1.00  0.00     0.185 A  
HETATM   21  C   UNL     1      -5.921  12.573  71.371  1.00  0.00     0.875 A  
HETATM   22  H   UNL     1      -7.422   5.008  67.764  1.00  0.00     0.000 HD 
HETATM   23  C   UNL     1      -6.636  13.484  70.590  1.00  0.00     0.564 A  
HETATM   24  O   UNL     1      -5.219  13.043  72.447  1.00  0.00    -0.364 OA 
HETATM   25  C   UNL     1      -8.178  11.749  66.862  1.00  0.00    -0.166 A  
HETATM   26  H   UNL     1      -5.212  13.972  72.648  1.00  0.00     0.000 HD 
HETATM   27  C   UNL     1      -7.384  12.970  69.521  1.00  0.00     0.473 A  
HETATM   28  C   UNL     1      -7.050  11.828  66.058  1.00  0.00     0.682 A  
HETATM   29  C   UNL     1      -7.460  11.590  69.249  1.00  0.00     0.033 A  
HETATM   30  C   UNL     1      -8.388  11.075  68.182  1.00  0.00    -0.130 C  
HETATM   31  C   UNL     1      -7.148  12.543  64.862  1.00  0.00     6.651 A  
HETATM   32  C   UNL     1      -8.358  13.150  64.484  1.00  0.00     5.404 A  
HETATM   33  O   UNL     1      -9.742  11.468  68.531  1.00  0.00    -0.190 OA 
HETATM   34  C   UNL     1      -9.489  13.051  65.295  1.00  0.00     0.266 A  
HETATM   35  O   UNL     1     -11.543  12.400  67.439  1.00  0.00    -0.328 OA 
HETATM   36  C   UNL     1     -10.365  12.114  67.505  1.00  0.00    -0.205 C  
HETATM   37  C   UNL     1      -9.360  12.354  66.481  1.00  0.00    -0.233 A  
BRANCH  23  38
HETATM   38  C   UNL     1      -6.810  14.958  70.908  1.00  0.00     0.644 C  
BRANCH  38  39
HETATM   39  N   UNL     1      -7.251  15.867  69.805  1.00  0.00    -0.093 NA 
BRANCH  39  40
HETATM   40  C   UNL     1      -6.250  16.980  69.687  1.00  0.00    -0.232 C  
HETATM   41  O   UNL     1      -6.033  18.650  67.928  1.00  0.00    -0.187 OA 
HETATM   42  C   UNL     1      -6.737  18.078  68.750  1.00  0.00    -0.248 C  
HETATM   43  O   UNL     1      -8.048  18.372  68.938  1.00  0.00    -0.274 OA 
ENDBRANCH  39  40
BRANCH  39  44
HETATM   44  C   UNL     1      -7.191  15.077  68.513  1.00  0.00    -0.115 C  
HETATM   45  C   UNL     1      -5.819  14.455  68.259  1.00  0.00    -0.117 C  
HETATM   46  O   UNL     1      -5.381  14.197  67.148  1.00  0.00    -0.104 OA 
HETATM   47  O   UNL     1      -5.145  14.160  69.402  1.00  0.00    -0.083 OA 
ENDBRANCH  39  44
ENDBRANCH  38  39
ENDBRANCH  23  38
ENDBRANCH  10  11
ENDBRANCH   5  10
ENDBRANCH   4   5
TORSDOF 8
ENDMDL
MODEL      201
REMARK 921   NORMALIZED FREE ENERGY PREDICTED BY IDOCK:   68.15 KCAL/MOL
REMARK 922        TOTAL FREE ENERGY PREDICTED BY IDOCK:   97.75 KCAL/MOL
REMARK 923 INTER-LIGAND FREE ENERGY PREDICTED BY IDOCK:   75.31 KCAL/MOL
REMARK 924 INTRA-LIGAND FREE ENERGY PREDICTED BY IDOCK:   22.44 KCAL/MOL
REMARK 927      BINDING AFFINITY PREDICTED BY RF-SCORE:    0.00 PKD
ROOT
HETATM    1  O   UNL     1     -13.141  18.911  62.814  1.00  0.00    19.538 OA 
HETATM    2  C   UNL     1     -12.723  19.570  63.919  1.00  0.00    15.549 C  
HETATM    3  O   UNL     1     -12.350  20.734  63.890  1.00  0.00     3.952 OA 
HETATM    4  C   UNL     1     -12.836  18.742  65.194  1.00  0.00    12.817 C  
ENDROOT
BRANCH   4   5
HETATM    5  N   UNL     1     -12.609  17.256  64.986  1.00  0.00     4.885 NA 
BRANCH   5   6
HETATM    6  C   UNL     1     -11.906  17.095  63.655  1.00  0.00     4.965 C  
HETATM    7  O   UNL     1     -11.884  14.740  64.209  1.00  0.00    -0.397 OA 
HETATM    8  C   UNL     1     -11.366  15.689  63.398  1.00  0.00     2.432 C  
HETATM    9  O   UNL     1     -10.581  15.426  62.498  1.00  0.00     7.337 OA 
ENDBRANCH   5   6
BRANCH   5  10
HETATM   10  C   UNL     1     -11.652  16.830  66.084  1.00  0.00     1.304 C  
BRANCH  10  11
HETATM   11  C   UNL     1     -11.774  15.362  66.465  1.00  0.00     0.189 A  
HETATM   12  C   UNL     1     -10.902  14.827  67.414  1.00  0.00    -0.300 A  
HETATM   13  C   UNL     1     -10.892  13.450  67.728  1.00  0.00    -0.267 A  
HETATM   14  C   UNL     1     -11.869  12.617  67.191  1.00  0.00    -0.330 A  
HETATM   15  C   UNL     1     -12.785  13.144  66.273  1.00  0.00     0.202 A  
HETATM   16  O   UNL     1     -11.990  11.282  67.524  1.00  0.00    -0.612 OA 
HETATM   17  C   UNL     1     -11.084  10.722  68.405  1.00  0.00    -0.266 A  
HETATM   18  C   UNL     1     -12.717  14.497  65.902  1.00  0.00    -0.050 A  
HETATM   19  O   UNL     1     -13.573  14.997  64.963  1.00  0.00     0.440 OA 
HETATM   20  C   UNL     1     -11.299   9.395  68.806  1.00  0.00     0.234 A  
HETATM   21  C   UNL     1     -10.405   8.761  69.688  1.00  0.00    -0.213 A  
HETATM   22  H   UNL     1     -14.214  14.409  64.580  1.00  0.00     0.000 HD 
HETATM   23  C   UNL     1      -9.263   9.419  70.151  1.00  0.00    -0.268 A  
HETATM   24  O   UNL     1     -10.649   7.488  70.125  1.00  0.00    -0.224 OA 
HETATM   25  C   UNL     1      -8.435  13.175  68.032  1.00  0.00    -0.181 A  
HETATM   26  H   UNL     1     -10.045   7.060  70.721  1.00  0.00     0.000 HD 
HETATM   27  C   UNL     1      -9.062  10.740  69.726  1.00  0.00     0.416 A  
HETATM   28  C   UNL     1      -7.792  12.694  66.900  1.00  0.00     0.047 A  
HETATM   29  C   UNL     1      -9.980  11.413  68.896  1.00  0.00    -0.146 A  
HETATM   30  C   UNL     1      -9.793  12.873  68.583  1.00  0.00    -0.067 C  
HETATM   31  C   UNL     1      -6.501  13.155  66.635  1.00  0.00     1.713 A  
HETATM   32  C   UNL     1      -5.883  14.090  67.483  1.00  0.00     0.098 A  
HETATM   33  O   UNL     1      -9.803  13.610  69.835  1.00  0.00     1.099 OA 
HETATM   34  C   UNL     1      -6.546  14.577  68.610  1.00  0.00    -0.087 A  
HETATM   35  O   UNL     1      -8.534  15.270  70.804  1.00  0.00     1.273 OA 
HETATM   36  C   UNL     1      -8.710  14.415  69.960  1.00  0.00     1.175 C  
HETATM   37  C   UNL     1      -7.815  14.090  68.860  1.00  0.00    -0.045 A  
BRANCH  23  38
HETATM   38  C   UNL     1      -8.318   8.885  71.213  1.00  0.00    -0.169 C  
BRANCH  38  39
HETATM   39  N   UNL     1      -6.877   8.718  70.849  1.00  0.00    -0.060 NA 
BRANCH  39  40
HETATM   40  C   UNL     1      -6.729   7.419  70.111  1.00  0.00    -0.050 C  
HETATM   41  O   UNL     1      -7.223   5.164  70.888  1.00  0.00    -0.060 OA 
HETATM   42  C   UNL     1      -7.588   6.321  70.726  1.00  0.00    -0.096 C  
HETATM   43  O   UNL     1      -8.826   6.764  71.064  1.00  0.00    -0.140 OA 
ENDBRANCH  39  40
BRANCH  39  44
HETATM   44  C   UNL     1      -6.521   9.825  69.878  1.00  0.00    -0.062 C  
HETATM   45  C   UNL     1      -7.168   9.643  68.506  1.00  0.00    -0.070 C  
HETATM   46  O   UNL     1      -6.701  10.084  67.466  1.00  0.00    -0.071 OA 
HETATM   47  O   UNL     1      -8.354   8.981  68.557  1.00  0.00    -0.121 OA 
ENDBRANCH  39  44
ENDBRANCH  38  39
ENDBRANCH  23  38
ENDBRANCH  10  11
ENDBRANCH   5  10
ENDBRANCH   4   5
TORSDOF 8
ENDMDL
MODEL      202
REMARK 921   NORMALIZED FREE ENERGY PREDICTED BY IDOCK:   70.87 KCAL/MOL
REMARK 922        TOTAL FREE ENERGY PREDICTED BY IDOCK:  101.74 KCAL/MOL
REMARK 923 INTER-LIGAND FREE ENERGY PREDICTED BY IDOCK:   60.76 KCAL/MOL
REMARK 924 INTRA-LIGAND FREE ENERGY PREDICTED BY IDOCK:   40.98 KCAL/MOL
REMARK 927      BINDING AFFINITY PREDICTED BY RF-SCORE:    0.00 PKD
ROOT
HETATM    1  O   UNL     1      -7.168   7.015  69.642  1.00  0.00    -0.075 OA 
HETATM    2  C   UNL     1      -8.496   6.761  69.601  1.00  0.00    -0.133 C  
HETATM    3  O   UNL     1      -9.185   7.012  68.623  1.00  0.00    -0.133 OA 
HETATM    4  C   UNL     1      -9.018   6.072  70.857  1.00  0.00    -0.143 C  
ENDROOT
BRANCH   4   5
HETATM    5  N   UNL     1      -8.296   6.479  72.129  1.00  0.00    -0.107 NA 
BRANCH   5   6
HETATM    6  C   UNL     1      -6.930   5.826  72.094  1.00  0.00    -0.082 C  
HETATM    7  O   UNL     1      -7.292   5.720  69.705  1.00  0.00    -0.067 OA 
HETATM    8  C   UNL     1      -6.542   5.259  70.730  1.00  0.00    -0.039 C  
HETATM    9  O   UNL     1      -5.594   4.505  70.563  1.00  0.00    -0.011 OA 
ENDBRANCH   5   6
BRANCH   5  10
HETATM   10  C   UNL     1      -8.106   7.982  72.029  1.00  0.00    -0.131 C  
BRANCH  10  11
HETATM   11  C   UNL     1      -8.771   8.601  70.808  1.00  0.00    -0.202 A  
HETATM   12  C   UNL     1      -8.460   9.915  70.453  1.00  0.00     0.028 A  
HETATM   13  C   UNL     1      -9.125  10.581  69.400  1.00  0.00    -0.123 A  
HETATM   14  C   UNL     1     -10.012   9.876  68.593  1.00  0.00    -0.164 A  
HETATM   15  C   UNL     1     -10.301   8.541  68.902  1.00  0.00    -0.226 A  
HETATM   16  O   UNL     1     -10.626  10.425  67.484  1.00  0.00    -0.223 OA 
HETATM   17  C   UNL     1     -10.385  11.748  67.167  1.00  0.00    -0.215 A  
HETATM   18  C   UNL     1      -9.701   7.926  70.013  1.00  0.00    -0.179 A  
HETATM   19  O   UNL     1     -10.027   6.643  70.349  1.00  0.00    -0.175 OA 
HETATM   20  C   UNL     1     -10.937  12.244  65.977  1.00  0.00    -0.327 A  
HETATM   21  C   UNL     1     -10.743  13.588  65.604  1.00  0.00    -0.281 A  
HETATM   22  H   UNL     1     -10.660   6.184  69.808  1.00  0.00     0.000 HD 
HETATM   23  C   UNL     1     -10.037  14.468  66.427  1.00  0.00    -0.293 A  
HETATM   24  O   UNL     1     -11.230  14.053  64.414  1.00  0.00    -0.495 OA 
HETATM   25  C   UNL     1      -9.232  12.848  70.429  1.00  0.00     5.563 A  
HETATM   26  H   UNL     1     -11.099  14.960  64.163  1.00  0.00     0.000 HD 
HETATM   27  C   UNL     1      -9.507  13.953  67.619  1.00  0.00    -0.212 A  
HETATM   28  C   UNL     1     -10.441  13.108  71.058  1.00  0.00     5.107 A  
HETATM   29  C   UNL     1      -9.634  12.597  67.976  1.00  0.00    -0.213 A  
HETATM   30  C   UNL     1      -8.927  12.061  69.193  1.00  0.00     0.546 C  
HETATM   31  C   UNL     1     -10.422  13.893  72.213  1.00  0.00     6.130 A  
HETATM   32  C   UNL     1      -9.211  14.388  72.725  1.00  0.00     8.737 A  
HETATM   33  O   UNL     1      -7.501  12.275  69.019  1.00  0.00    -0.058 OA 
HETATM   34  C   UNL     1      -8.000  14.107  72.091  1.00  0.00     6.994 A  
HETATM   35  O   UNL     1      -5.766  13.079  70.303  1.00  0.00    -0.133 OA 
HETATM   36  C   UNL     1      -6.950  12.921  70.086  1.00  0.00     0.911 C  
HETATM   37  C   UNL     1      -8.050  13.344  70.941  1.00  0.00     6.055 A  
BRANCH  23  38
HETATM   38  C   UNL     1      -9.646  15.887  66.055  1.00  0.00    -0.350 C  
BRANCH  38  39
HETATM   39  N   UNL     1     -10.691  16.952  66.159  1.00  0.00    -0.182 NA 
BRANCH  39  40
HETATM   40  C   UNL     1      -9.996  18.280  66.257  1.00  0.00    -0.357 C  
HETATM   41  O   UNL     1     -10.940  20.512  66.003  1.00  0.00     0.251 OA 
HETATM   42  C   UNL     1     -10.979  19.411  66.537  1.00  0.00    -0.206 C  
HETATM   43  O   UNL     1     -11.906  19.068  67.466  1.00  0.00     1.005 OA 
ENDBRANCH  39  40
BRANCH  39  44
HETATM   44  C   UNL     1     -11.471  16.954  64.861  1.00  0.00     0.500 C  
HETATM   45  C   UNL     1     -11.006  18.036  63.888  1.00  0.00     6.653 C  
HETATM   46  O   UNL     1     -11.722  18.542  63.036  1.00  0.00    11.046 OA 
HETATM   47  O   UNL     1      -9.690  18.349  64.024  1.00  0.00     6.767 OA 
ENDBRANCH  39  44
ENDBRANCH  38  39
ENDBRANCH  23  38
ENDBRANCH  10  11
ENDBRANCH   5  10
ENDBRANCH   4   5
TORSDOF 8
ENDMDL
MODEL      203
REMARK 921   NORMALIZED FREE ENERGY PREDICTED BY IDOCK:   98.50 KCAL/MOL
REMARK 922        TOTAL FREE ENERGY PREDICTED BY IDOCK:  142.30 KCAL/MOL
REMARK 923 INTER-LIGAND FREE ENERGY PREDICTED BY IDOCK:  126.08 KCAL/MOL
REMARK 924 INTRA-LIGAND FREE ENERGY PREDICTED BY IDOCK:   16.22 KCAL/MOL
REMARK 927      BINDING AFFINITY PREDICTED BY RF-SCORE:    0.00 PKD
ROOT
HETATM    1  O   UNL     1     -13.324  18.932  62.703  1.00  0.00    21.064 OA 
HETATM    2  C   UNL     1     -13.178  19.550  63.897  1.00  0.00    20.672 C  
HETATM    3  O   UNL     1     -12.920  20.740  63.996  1.00  0.00     7.657 OA 
HETATM    4  C   UNL     1     -13.438  18.632  65.087  1.00  0.00    18.554 C  
ENDROOT
BRANCH   4   5
HETATM    5  N   UNL     1     -13.035  17.188  64.851  1.00  0.00     6.058 NA 
BRANCH   5   6
HETATM    6  C   UNL     1     -12.146  17.168  63.626  1.00  0.00     5.652 C  
HETATM    7  O   UNL     1     -11.946  14.802  64.089  1.00  0.00    -0.393 OA 
HETATM    8  C   UNL     1     -11.428  15.839  63.395  1.00  0.00     2.268 C  
HETATM    9  O   UNL     1     -10.506  15.705  62.604  1.00  0.00     6.809 OA 
ENDBRANCH   5   6
BRANCH   5  10
HETATM   10  C   UNL     1     -12.196  16.795  66.054  1.00  0.00     3.310 C  
BRANCH  10  11
HETATM   11  C   UNL     1     -12.091  15.292  66.260  1.00  0.00     0.442 A  
HETATM   12  C   UNL     1     -11.343  14.799  67.330  1.00  0.00    -0.366 A  
HETATM   13  C   UNL     1     -11.116  13.417  67.509  1.00  0.00    -0.294 A  
HETATM   14  C   UNL     1     -11.770  12.502  66.690  1.00  0.00    -0.387 A  
HETATM   15  C   UNL     1     -12.566  12.974  65.639  1.00  0.00    -0.349 A  
HETATM   16  O   UNL     1     -11.681  11.134  66.862  1.00  0.00    -0.410 OA 
HETATM   17  C   UNL     1     -10.881  10.633  67.871  1.00  0.00    -0.277 A  
HETATM   18  C   UNL     1     -12.701  14.356  65.420  1.00  0.00    -0.285 A  
HETATM   19  O   UNL     1     -13.429  14.816  64.361  1.00  0.00     0.627 OA 
HETATM   20  C   UNL     1     -10.898   9.247  68.088  1.00  0.00    -0.145 A  
HETATM   21  C   UNL     1     -10.093   8.671  69.090  1.00  0.00    -0.199 A  
HETATM   22  H   UNL     1     -13.843  14.179  63.789  1.00  0.00     0.000 HD 
HETATM   23  C   UNL     1      -9.230   9.454  69.859  1.00  0.00    -0.226 A  
HETATM   24  O   UNL     1     -10.156   7.328  69.340  1.00  0.00    -0.174 OA 
HETATM   25  C   UNL     1      -8.770  13.549  68.339  1.00  0.00    -0.140 A  
HETATM   26  H   UNL     1      -9.613   6.939  70.016  1.00  0.00     0.000 HD 
HETATM   27  C   UNL     1      -9.220  10.835  69.614  1.00  0.00     0.239 A  
HETATM   28  C   UNL     1      -7.824  13.347  67.344  1.00  0.00    -0.154 A  
HETATM   29  C   UNL     1     -10.066  11.437  68.663  1.00  0.00    -0.217 A  
HETATM   30  C   UNL     1     -10.122  12.936  68.536  1.00  0.00    -0.189 C  
HETATM   31  C   UNL     1      -6.628  14.064  67.424  1.00  0.00     0.054 A  
HETATM   32  C   UNL     1      -6.403  14.972  68.473  1.00  0.00    -0.092 A  
HETATM   33  O   UNL     1     -10.539  13.484  69.815  1.00  0.00     0.282 OA 
HETATM   34  C   UNL     1      -7.369  15.176  69.459  1.00  0.00    -0.210 A  
HETATM   35  O   UNL     1      -9.864  15.199  71.196  1.00  0.00     0.860 OA 
HETATM   36  C   UNL     1      -9.684  14.448  70.259  1.00  0.00     1.355 C  
HETATM   37  C   UNL     1      -8.534  14.440  69.367  1.00  0.00     0.269 A  
BRANCH  23  38
HETATM   38  C   UNL     1      -8.435   8.960  71.054  1.00  0.00    -0.198 C  
BRANCH  38  39
HETATM   39  N   UNL     1      -6.983   9.313  71.125  1.00  0.00    -0.227 NA 
BRANCH  39  40
HETATM   40  C   UNL     1      -6.739  10.027  72.424  1.00  0.00     1.815 C  
HETATM   41  O   UNL     1      -7.805  12.047  73.271  1.00  0.00    15.443 OA 
HETATM   42  C   UNL     1      -7.914  10.920  72.804  1.00  0.00    12.181 C  
HETATM   43  O   UNL     1      -9.110  10.320  72.583  1.00  0.00     5.620 OA 
ENDBRANCH  39  40
BRANCH  39  44
HETATM   44  C   UNL     1      -6.201   8.017  71.177  1.00  0.00    -0.034 C  
HETATM   45  C   UNL     1      -6.610   7.121  72.345  1.00  0.00    -0.056 C  
HETATM   46  O   UNL     1      -5.869   6.305  72.873  1.00  0.00    -0.037 OA 
HETATM   47  O   UNL     1      -7.909   7.281  72.713  1.00  0.00    -0.092 OA 
ENDBRANCH  39  44
ENDBRANCH  38  39
ENDBRANCH  23  38
ENDBRANCH  10  11
ENDBRANCH   5  10
ENDBRANCH   4   5
TORSDOF 8
ENDMDL
