MODEL        1
REMARK 921   NORMALIZED FREE ENERGY PREDICTED BY IDOCK:   -7.77 KCAL/MOL
REMARK 922        TOTAL FREE ENERGY PREDICTED BY IDOCK:   -8.63 KCAL/MOL
REMARK 923 INTER-LIGAND FREE ENERGY PREDICTED BY IDOCK:   -8.23 KCAL/MOL
REMARK 924 INTRA-LIGAND FREE ENERGY PREDICTED BY IDOCK:   -0.41 KCAL/MOL
REMARK 927      BINDING AFFINITY PREDICTED BY RF-SCORE:    0.00 PKD
ROOT
HETATM    1  C   UNL     1     -11.825  12.062  63.579  1.00  0.00    -0.492 C  
HETATM    2  N   UNL     1     -11.187  13.301  64.018  1.00  0.00    -0.373 NA 
HETATM    3  C   UNL     1     -12.176  14.292  64.487  1.00  0.00    -0.455 C  
HETATM    4  C   UNL     1     -12.867  13.960  65.828  1.00  0.00    -0.391 C  
HETATM    5  N   UNL     1     -11.895  13.629  66.882  1.00  0.00    -0.390 NA 
HETATM    6  C   UNL     1     -10.220  13.065  65.113  1.00  0.00    -0.272 C  
HETATM    7  C   UNL     1     -10.850  12.674  66.466  1.00  0.00    -0.258 C  
ENDROOT
BRANCH   5   8
HETATM    8  C   UNL     1     -11.781  14.300  68.096  1.00  0.00    -0.350 C  
HETATM    9  N   UNL     1     -12.532  13.991  69.113  1.00  0.00    -0.450 NA 
HETATM   10  C   UNL     1     -12.531  14.651  70.355  1.00  0.00    -0.352 A  
HETATM   11  H   UNL     1     -13.174  13.206  69.000  1.00  0.00     0.000 HD 
HETATM   12  C   UNL     1     -13.784  14.794  70.969  1.00  0.00    -0.322 A  
HETATM   13  C   UNL     1     -13.923  15.421  72.208  1.00  0.00    -0.661 A  
HETATM   14  C   UNL     1     -12.799  15.897  72.871  1.00  0.00    -0.584 A  
HETATM   15  C   UNL     1     -11.538  15.733  72.298  1.00  0.00    -0.522 A  
HETATM   16  C   UNL     1     -11.386  15.114  71.042  1.00  0.00    -0.316 A  
HETATM   17  N   UNL     1     -10.090  15.106  70.453  1.00  0.00    -0.465 NA 
HETATM   18  C   UNL     1      -9.992  15.642  69.210  1.00  0.00    -0.265 A  
HETATM   19  H   UNL     1      -9.281  14.718  70.938  1.00  0.00     0.000 HD 
HETATM   20  C   UNL     1     -10.795  15.382  68.116  1.00  0.00    -0.285 A  
HETATM   21  C   UNL     1     -10.534  16.338  67.069  1.00  0.00    -0.306 A  
HETATM   22  C   UNL     1      -9.483  17.182  67.357  1.00  0.00    -0.247 A  
HETATM   23  C   UNL     1      -8.928  18.292  66.538  1.00  0.00    -0.285 C  
HETATM   24  S   UNL     1      -8.804  16.829  68.880  1.00  0.00    -0.184 SA 
ENDBRANCH   5   8
TORSDOF 1
ENDMDL
MODEL        2
REMARK 921   NORMALIZED FREE ENERGY PREDICTED BY IDOCK:   -7.60 KCAL/MOL
REMARK 922        TOTAL FREE ENERGY PREDICTED BY IDOCK:   -8.45 KCAL/MOL
REMARK 923 INTER-LIGAND FREE ENERGY PREDICTED BY IDOCK:   -8.13 KCAL/MOL
REMARK 924 INTRA-LIGAND FREE ENERGY PREDICTED BY IDOCK:   -0.31 KCAL/MOL
REMARK 927      BINDING AFFINITY PREDICTED BY RF-SCORE:    0.00 PKD
ROOT
HETATM    1  C   UNL     1      -8.256  19.845  66.349  1.00  0.00    -0.335 C  
HETATM    2  N   UNL     1      -9.067  19.976  67.558  1.00  0.00    -0.345 NA 
HETATM    3  C   UNL     1     -10.457  19.531  67.337  1.00  0.00    -0.471 C  
HETATM    4  C   UNL     1     -10.648  18.009  67.156  1.00  0.00    -0.325 C  
HETATM    5  N   UNL     1     -10.001  17.239  68.230  1.00  0.00    -0.295 NA 
HETATM    6  C   UNL     1      -8.508  19.194  68.683  1.00  0.00    -0.362 C  
HETATM    7  C   UNL     1      -8.620  17.662  68.532  1.00  0.00    -0.285 C  
ENDROOT
BRANCH   5   8
HETATM    8  C   UNL     1     -10.656  16.350  69.076  1.00  0.00    -0.308 C  
HETATM    9  N   UNL     1     -11.274  16.764  70.144  1.00  0.00    -0.383 NA 
HETATM   10  C   UNL     1     -11.909  15.937  71.089  1.00  0.00    -0.438 A  
HETATM   11  H   UNL     1     -11.299  17.771  70.310  1.00  0.00     0.000 HD 
HETATM   12  C   UNL     1     -11.788  16.339  72.427  1.00  0.00    -0.606 A  
HETATM   13  C   UNL     1     -12.379  15.613  73.463  1.00  0.00    -0.663 A  
HETATM   14  C   UNL     1     -13.127  14.479  73.173  1.00  0.00    -0.553 A  
HETATM   15  C   UNL     1     -13.293  14.081  71.846  1.00  0.00    -0.489 A  
HETATM   16  C   UNL     1     -12.691  14.798  70.793  1.00  0.00    -0.362 A  
HETATM   17  N   UNL     1     -12.784  14.258  69.479  1.00  0.00    -0.452 NA 
HETATM   18  C   UNL     1     -11.609  14.054  68.830  1.00  0.00    -0.331 A  
HETATM   19  H   UNL     1     -13.682  14.037  69.050  1.00  0.00     0.000 HD 
HETATM   20  C   UNL     1     -10.558  14.940  68.692  1.00  0.00    -0.251 A  
HETATM   21  C   UNL     1      -9.400  14.262  68.168  1.00  0.00    -0.206 A  
HETATM   22  C   UNL     1      -9.651  12.952  67.823  1.00  0.00    -0.212 A  
HETATM   23  C   UNL     1      -8.715  11.939  67.265  1.00  0.00    -0.171 C  
HETATM   24  S   UNL     1     -11.276  12.532  68.120  1.00  0.00    -0.291 SA 
ENDBRANCH   5   8
TORSDOF 1
ENDMDL
MODEL        3
REMARK 921   NORMALIZED FREE ENERGY PREDICTED BY IDOCK:   -7.26 KCAL/MOL
REMARK 922        TOTAL FREE ENERGY PREDICTED BY IDOCK:   -8.09 KCAL/MOL
REMARK 923 INTER-LIGAND FREE ENERGY PREDICTED BY IDOCK:   -7.68 KCAL/MOL
REMARK 924 INTRA-LIGAND FREE ENERGY PREDICTED BY IDOCK:   -0.41 KCAL/MOL
REMARK 927      BINDING AFFINITY PREDICTED BY RF-SCORE:    0.00 PKD
ROOT
HETATM    1  C   UNL     1     -10.357  12.830  64.020  1.00  0.00    -0.368 C  
HETATM    2  N   UNL     1     -11.064  13.860  64.778  1.00  0.00    -0.365 NA 
HETATM    3  C   UNL     1     -12.314  13.346  65.370  1.00  0.00    -0.477 C  
HETATM    4  C   UNL     1     -12.137  12.352  66.540  1.00  0.00    -0.105 C  
HETATM    5  N   UNL     1     -11.225  12.871  67.572  1.00  0.00    -0.275 NA 
HETATM    6  C   UNL     1     -10.230  14.410  65.870  1.00  0.00    -0.325 C  
HETATM    7  C   UNL     1      -9.971  13.441  67.043  1.00  0.00    -0.246 C  
ENDROOT
BRANCH   5   8
HETATM    8  C   UNL     1     -11.561  13.052  68.911  1.00  0.00    -0.311 C  
HETATM    9  N   UNL     1     -11.834  14.233  69.385  1.00  0.00    -0.306 NA 
HETATM   10  C   UNL     1     -12.122  14.522  70.731  1.00  0.00    -0.329 A  
HETATM   11  H   UNL     1     -11.838  15.013  68.727  1.00  0.00     0.000 HD 
HETATM   12  C   UNL     1     -11.608  15.734  71.217  1.00  0.00    -0.499 A  
HETATM   13  C   UNL     1     -11.829  16.145  72.532  1.00  0.00    -0.630 A  
HETATM   14  C   UNL     1     -12.595  15.358  73.382  1.00  0.00    -0.645 A  
HETATM   15  C   UNL     1     -13.148  14.167  72.912  1.00  0.00    -0.544 A  
HETATM   16  C   UNL     1     -12.921  13.735  71.591  1.00  0.00    -0.364 A  
HETATM   17  N   UNL     1     -13.396  12.445  71.219  1.00  0.00     0.024 NA 
HETATM   18  C   UNL     1     -12.472  11.586  70.716  1.00  0.00    -0.349 A  
HETATM   19  H   UNL     1     -14.376  12.181  71.323  1.00  0.00     0.000 HD 
HETATM   20  C   UNL     1     -11.543  11.836  69.725  1.00  0.00    -0.372 A  
HETATM   21  C   UNL     1     -10.581  10.765  69.664  1.00  0.00    -0.222 A  
HETATM   22  C   UNL     1     -10.885   9.716  70.504  1.00  0.00    -0.309 A  
HETATM   23  C   UNL     1     -10.135   8.450  70.726  1.00  0.00    -0.226 C  
HETATM   24  S   UNL     1     -12.327  10.009  71.366  1.00  0.00    -0.439 SA 
ENDBRANCH   5   8
TORSDOF 1
ENDMDL
MODEL        4
REMARK 921   NORMALIZED FREE ENERGY PREDICTED BY IDOCK:   -7.21 KCAL/MOL
REMARK 922        TOTAL FREE ENERGY PREDICTED BY IDOCK:   -8.04 KCAL/MOL
REMARK 923 INTER-LIGAND FREE ENERGY PREDICTED BY IDOCK:   -7.80 KCAL/MOL
REMARK 924 INTRA-LIGAND FREE ENERGY PREDICTED BY IDOCK:   -0.24 KCAL/MOL
REMARK 927      BINDING AFFINITY PREDICTED BY RF-SCORE:    0.00 PKD
ROOT
HETATM    1  C   UNL     1      -8.174  19.916  66.318  1.00  0.00    -0.329 C  
HETATM    2  N   UNL     1      -8.352  18.471  66.181  1.00  0.00    -0.469 NA 
HETATM    3  C   UNL     1      -7.756  17.735  67.313  1.00  0.00    -0.206 C  
HETATM    4  C   UNL     1      -8.493  17.880  68.663  1.00  0.00    -0.266 C  
HETATM    5  N   UNL     1      -9.933  17.604  68.539  1.00  0.00    -0.348 NA 
HETATM    6  C   UNL     1      -9.781  18.099  66.091  1.00  0.00    -0.210 C  
HETATM    7  C   UNL     1     -10.584  18.276  67.397  1.00  0.00    -0.401 C  
ENDROOT
BRANCH   5   8
HETATM    8  C   UNL     1     -10.618  16.624  69.252  1.00  0.00    -0.343 C  
HETATM    9  N   UNL     1     -11.278  16.915  70.335  1.00  0.00    -0.295 NA 
HETATM   10  C   UNL     1     -11.947  15.986  71.154  1.00  0.00    -0.398 A  
HETATM   11  H   UNL     1     -11.312  17.896  70.614  1.00  0.00     0.000 HD 
HETATM   12  C   UNL     1     -11.879  16.232  72.533  1.00  0.00    -0.608 A  
HETATM   13  C   UNL     1     -12.507  15.394  73.455  1.00  0.00    -0.666 A  
HETATM   14  C   UNL     1     -13.240  14.302  73.009  1.00  0.00    -0.500 A  
HETATM   15  C   UNL     1     -13.354  14.058  71.640  1.00  0.00    -0.442 A  
HETATM   16  C   UNL     1     -12.713  14.889  70.700  1.00  0.00    -0.367 A  
HETATM   17  N   UNL     1     -12.753  14.504  69.330  1.00  0.00    -0.507 NA 
HETATM   18  C   UNL     1     -11.554  14.373  68.707  1.00  0.00    -0.315 A  
HETATM   19  H   UNL     1     -13.634  14.335  68.844  1.00  0.00     0.000 HD 
HETATM   20  C   UNL     1     -10.501  15.268  68.712  1.00  0.00    -0.237 A  
HETATM   21  C   UNL     1      -9.322  14.652  68.160  1.00  0.00    -0.197 A  
HETATM   22  C   UNL     1      -9.555  13.391  67.657  1.00  0.00    -0.219 A  
HETATM   23  C   UNL     1      -8.596  12.446  67.024  1.00  0.00    -0.191 C  
HETATM   24  S   UNL     1     -11.190  12.942  67.841  1.00  0.00    -0.288 SA 
ENDBRANCH   5   8
TORSDOF 1
ENDMDL
MODEL        5
REMARK 921   NORMALIZED FREE ENERGY PREDICTED BY IDOCK:   -7.17 KCAL/MOL
REMARK 922        TOTAL FREE ENERGY PREDICTED BY IDOCK:   -8.00 KCAL/MOL
REMARK 923 INTER-LIGAND FREE ENERGY PREDICTED BY IDOCK:   -7.93 KCAL/MOL
REMARK 924 INTRA-LIGAND FREE ENERGY PREDICTED BY IDOCK:   -0.07 KCAL/MOL
REMARK 927      BINDING AFFINITY PREDICTED BY RF-SCORE:    0.00 PKD
ROOT
HETATM    1  C   UNL     1     -13.410  16.171  73.361  1.00  0.00    -0.401 C  
HETATM    2  N   UNL     1     -12.666  14.929  73.156  1.00  0.00    -0.465 NA 
HETATM    3  C   UNL     1     -13.479  13.910  72.464  1.00  0.00    -0.572 C  
HETATM    4  C   UNL     1     -13.772  14.192  70.974  1.00  0.00    -0.043 C  
HETATM    5  N   UNL     1     -12.548  14.507  70.220  1.00  0.00    -0.343 NA 
HETATM    6  C   UNL     1     -11.434  15.149  72.366  1.00  0.00    -0.298 C  
HETATM    7  C   UNL     1     -11.666  15.490  70.879  1.00  0.00    -0.375 C  
ENDROOT
BRANCH   5   8
HETATM    8  C   UNL     1     -12.096  13.802  69.108  1.00  0.00    -0.333 C  
HETATM    9  N   UNL     1     -12.187  14.301  67.910  1.00  0.00    -0.595 NA 
HETATM   10  C   UNL     1     -11.816  13.640  66.724  1.00  0.00    -0.413 A  
HETATM   11  H   UNL     1     -12.559  15.247  67.823  1.00  0.00     0.000 HD 
HETATM   12  C   UNL     1     -12.642  13.872  65.615  1.00  0.00    -0.553 A  
HETATM   13  C   UNL     1     -12.381  13.287  64.375  1.00  0.00    -0.410 A  
HETATM   14  C   UNL     1     -11.266  12.473  64.217  1.00  0.00    -0.407 A  
HETATM   15  C   UNL     1     -10.408  12.258  65.296  1.00  0.00    -0.311 A  
HETATM   16  C   UNL     1     -10.669  12.833  66.555  1.00  0.00    -0.258 A  
HETATM   17  N   UNL     1      -9.833  12.460  67.646  1.00  0.00    -0.194 NA 
HETATM   18  C   UNL     1     -10.461  11.951  68.737  1.00  0.00    -0.184 A  
HETATM   19  H   UNL     1      -8.820  12.569  67.610  1.00  0.00     0.000 HD 
HETATM   20  C   UNL     1     -11.560  12.470  69.394  1.00  0.00    -0.368 A  
HETATM   21  C   UNL     1     -12.080  11.508  70.331  1.00  0.00    -0.471 A  
HETATM   22  C   UNL     1     -11.300  10.376  70.433  1.00  0.00    -0.337 A  
HETATM   23  C   UNL     1     -11.513   9.170  71.277  1.00  0.00    -0.405 C  
HETATM   24  S   UNL     1      -9.940  10.466  69.409  1.00  0.00    -0.192 SA 
ENDBRANCH   5   8
TORSDOF 1
ENDMDL
MODEL        6
REMARK 921   NORMALIZED FREE ENERGY PREDICTED BY IDOCK:   -6.83 KCAL/MOL
REMARK 922        TOTAL FREE ENERGY PREDICTED BY IDOCK:   -7.63 KCAL/MOL
REMARK 923 INTER-LIGAND FREE ENERGY PREDICTED BY IDOCK:   -7.24 KCAL/MOL
REMARK 924 INTRA-LIGAND FREE ENERGY PREDICTED BY IDOCK:   -0.39 KCAL/MOL
REMARK 927      BINDING AFFINITY PREDICTED BY RF-SCORE:    0.00 PKD
ROOT
HETATM    1  C   UNL     1      -8.440   7.551  68.888  1.00  0.00    -0.129 C  
HETATM    2  N   UNL     1      -8.598   8.458  70.023  1.00  0.00    -0.129 NA 
HETATM    3  C   UNL     1      -8.123   9.820  69.708  1.00  0.00    -0.167 C  
HETATM    4  C   UNL     1      -9.000  10.617  68.717  1.00  0.00    -0.172 C  
HETATM    5  N   UNL     1     -10.417  10.619  69.110  1.00  0.00    -0.210 NA 
HETATM    6  C   UNL     1     -10.009   8.553  70.460  1.00  0.00    -0.188 C  
HETATM    7  C   UNL     1     -10.946   9.292  69.481  1.00  0.00    -0.151 C  
ENDROOT
BRANCH   5   8
HETATM    8  C   UNL     1     -11.171  11.762  69.359  1.00  0.00    -0.234 C  
HETATM    9  N   UNL     1     -11.607  12.037  70.554  1.00  0.00    -0.423 NA 
HETATM   10  C   UNL     1     -12.425  13.132  70.889  1.00  0.00    -0.323 A  
HETATM   11  H   UNL     1     -11.334  11.408  71.309  1.00  0.00     0.000 HD 
HETATM   12  C   UNL     1     -13.405  12.883  71.862  1.00  0.00    -0.530 A  
HETATM   13  C   UNL     1     -14.276  13.885  72.293  1.00  0.00    -0.584 A  
HETATM   14  C   UNL     1     -14.164  15.168  71.773  1.00  0.00    -0.674 A  
HETATM   15  C   UNL     1     -13.174  15.449  70.831  1.00  0.00    -0.512 A  
HETATM   16  C   UNL     1     -12.297  14.443  70.379  1.00  0.00    -0.342 A  
HETATM   17  N   UNL     1     -11.404  14.763  69.317  1.00  0.00    -0.278 NA 
HETATM   18  C   UNL     1     -11.466  13.966  68.220  1.00  0.00    -0.311 A  
HETATM   19  H   UNL     1     -10.755  15.547  69.377  1.00  0.00     0.000 HD 
HETATM   20  C   UNL     1     -11.458  12.585  68.182  1.00  0.00    -0.368 A  
HETATM   21  C   UNL     1     -11.801  12.121  66.862  1.00  0.00    -0.295 A  
HETATM   22  C   UNL     1     -11.929  13.143  65.946  1.00  0.00    -0.427 A  
HETATM   23  C   UNL     1     -12.281  13.064  64.503  1.00  0.00    -0.476 C  
HETATM   24  S   UNL     1     -11.634  14.660  66.665  1.00  0.00    -0.317 SA 
ENDBRANCH   5   8
TORSDOF 1
ENDMDL
MODEL        7
REMARK 921   NORMALIZED FREE ENERGY PREDICTED BY IDOCK:   -6.79 KCAL/MOL
REMARK 922        TOTAL FREE ENERGY PREDICTED BY IDOCK:   -7.59 KCAL/MOL
REMARK 923 INTER-LIGAND FREE ENERGY PREDICTED BY IDOCK:   -7.28 KCAL/MOL
REMARK 924 INTRA-LIGAND FREE ENERGY PREDICTED BY IDOCK:   -0.31 KCAL/MOL
REMARK 927      BINDING AFFINITY PREDICTED BY RF-SCORE:    0.00 PKD
ROOT
HETATM    1  C   UNL     1      -9.752   9.983  65.429  1.00  0.00    -0.302 C  
HETATM    2  N   UNL     1      -9.676  11.443  65.425  1.00  0.00    -0.224 NA 
HETATM    3  C   UNL     1     -11.013  12.063  65.504  1.00  0.00    -0.298 C  
HETATM    4  C   UNL     1     -11.732  11.923  66.865  1.00  0.00    -0.212 C  
HETATM    5  N   UNL     1     -10.877  12.342  67.986  1.00  0.00    -0.212 NA 
HETATM    6  C   UNL     1      -8.864  11.955  66.552  1.00  0.00    -0.178 C  
HETATM    7  C   UNL     1      -9.508  11.792  67.945  1.00  0.00    -0.191 C  
ENDROOT
BRANCH   5   8
HETATM    8  C   UNL     1     -11.195  13.347  68.896  1.00  0.00    -0.276 C  
HETATM    9  N   UNL     1     -11.799  13.077  70.016  1.00  0.00    -0.472 NA 
HETATM   10  C   UNL     1     -12.214  14.029  70.966  1.00  0.00    -0.353 A  
HETATM   11  H   UNL     1     -11.986  12.096  70.223  1.00  0.00     0.000 HD 
HETATM   12  C   UNL     1     -13.437  13.761  71.600  1.00  0.00    -0.409 A  
HETATM   13  C   UNL     1     -13.959  14.619  72.569  1.00  0.00    -0.518 A  
HETATM   14  C   UNL     1     -13.251  15.754  72.941  1.00  0.00    -0.640 A  
HETATM   15  C   UNL     1     -12.015  16.022  72.351  1.00  0.00    -0.644 A  
HETATM   16  C   UNL     1     -11.484  15.171  71.362  1.00  0.00    -0.354 A  
HETATM   17  N   UNL     1     -10.289  15.577  70.703  1.00  0.00    -0.302 NA 
HETATM   18  C   UNL     1     -10.346  15.652  69.349  1.00  0.00    -0.260 A  
HETATM   19  H   UNL     1      -9.438  15.799  71.219  1.00  0.00     0.000 HD 
HETATM   20  C   UNL     1     -10.837  14.702  68.473  1.00  0.00    -0.256 A  
HETATM   21  C   UNL     1     -10.964  15.262  67.152  1.00  0.00    -0.331 A  
HETATM   22  C   UNL     1     -10.460  16.541  67.055  1.00  0.00    -0.289 A  
HETATM   23  C   UNL     1     -10.421  17.441  65.872  1.00  0.00    -0.256 C  
HETATM   24  S   UNL     1      -9.829  17.073  68.547  1.00  0.00    -0.306 SA 
ENDBRANCH   5   8
TORSDOF 1
ENDMDL
MODEL        8
REMARK 921   NORMALIZED FREE ENERGY PREDICTED BY IDOCK:   -6.75 KCAL/MOL
REMARK 922        TOTAL FREE ENERGY PREDICTED BY IDOCK:   -7.55 KCAL/MOL
REMARK 923 INTER-LIGAND FREE ENERGY PREDICTED BY IDOCK:   -7.12 KCAL/MOL
REMARK 924 INTRA-LIGAND FREE ENERGY PREDICTED BY IDOCK:   -0.43 KCAL/MOL
REMARK 927      BINDING AFFINITY PREDICTED BY RF-SCORE:    0.00 PKD
ROOT
HETATM    1  C   UNL     1      -8.220   7.833  68.127  1.00  0.00    -0.124 C  
HETATM    2  N   UNL     1      -9.061   8.685  67.288  1.00  0.00    -0.131 NA 
HETATM    3  C   UNL     1     -10.484   8.600  67.672  1.00  0.00    -0.244 C  
HETATM    4  C   UNL     1     -10.850   9.259  69.021  1.00  0.00    -0.111 C  
HETATM    5  N   UNL     1     -10.347  10.639  69.116  1.00  0.00    -0.212 NA 
HETATM    6  C   UNL     1      -8.650  10.105  67.357  1.00  0.00    -0.122 C  
HETATM    7  C   UNL     1      -8.939  10.802  68.704  1.00  0.00    -0.162 C  
ENDROOT
BRANCH   5   8
HETATM    8  C   UNL     1     -11.141  11.761  69.336  1.00  0.00    -0.181 C  
HETATM    9  N   UNL     1     -11.567  12.063  70.528  1.00  0.00    -0.423 NA 
HETATM   10  C   UNL     1     -12.422  13.138  70.837  1.00  0.00    -0.323 A  
HETATM   11  H   UNL     1     -11.256  11.474  71.300  1.00  0.00     0.000 HD 
HETATM   12  C   UNL     1     -13.374  12.888  71.837  1.00  0.00    -0.530 A  
HETATM   13  C   UNL     1     -14.277  13.871  72.246  1.00  0.00    -0.584 A  
HETATM   14  C   UNL     1     -14.225  15.137  71.676  1.00  0.00    -0.664 A  
HETATM   15  C   UNL     1     -13.262  15.420  70.707  1.00  0.00    -0.440 A  
HETATM   16  C   UNL     1     -12.355  14.432  70.276  1.00  0.00    -0.348 A  
HETATM   17  N   UNL     1     -11.493  14.747  69.187  1.00  0.00    -0.282 NA 
HETATM   18  C   UNL     1     -11.541  13.906  68.122  1.00  0.00    -0.335 A  
HETATM   19  H   UNL     1     -10.874  15.557  69.206  1.00  0.00     0.000 HD 
HETATM   20  C   UNL     1     -11.480  12.526  68.135  1.00  0.00    -0.368 A  
HETATM   21  C   UNL     1     -11.827  12.000  66.839  1.00  0.00    -0.250 A  
HETATM   22  C   UNL     1     -12.010  12.981  65.889  1.00  0.00    -0.435 A  
HETATM   23  C   UNL     1     -12.383  12.834  64.456  1.00  0.00    -0.515 C  
HETATM   24  S   UNL     1     -11.763  14.535  66.545  1.00  0.00    -0.337 SA 
ENDBRANCH   5   8
TORSDOF 1
ENDMDL
MODEL        9
REMARK 921   NORMALIZED FREE ENERGY PREDICTED BY IDOCK:   -6.66 KCAL/MOL
REMARK 922        TOTAL FREE ENERGY PREDICTED BY IDOCK:   -7.46 KCAL/MOL
REMARK 923 INTER-LIGAND FREE ENERGY PREDICTED BY IDOCK:   -7.06 KCAL/MOL
REMARK 924 INTRA-LIGAND FREE ENERGY PREDICTED BY IDOCK:   -0.40 KCAL/MOL
REMARK 927      BINDING AFFINITY PREDICTED BY RF-SCORE:    0.00 PKD
ROOT
HETATM    1  C   UNL     1      -9.901  11.633  64.707  1.00  0.00    -0.229 C  
HETATM    2  N   UNL     1     -10.448  12.851  65.300  1.00  0.00    -0.290 NA 
HETATM    3  C   UNL     1     -11.836  12.660  65.766  1.00  0.00    -0.444 C  
HETATM    4  C   UNL     1     -12.001  11.763  67.013  1.00  0.00     0.150 C  
HETATM    5  N   UNL     1     -11.116  12.177  68.113  1.00  0.00    -0.230 NA 
HETATM    6  C   UNL     1      -9.638  13.318  66.447  1.00  0.00    -0.254 C  
HETATM    7  C   UNL     1      -9.719  12.429  67.706  1.00  0.00    -0.201 C  
ENDROOT
BRANCH   5   8
HETATM    8  C   UNL     1     -11.547  12.546  69.384  1.00  0.00    -0.305 C  
HETATM    9  N   UNL     1     -11.692  13.797  69.712  1.00  0.00    -0.319 NA 
HETATM   10  C   UNL     1     -12.062  14.266  70.985  1.00  0.00    -0.344 A  
HETATM   11  H   UNL     1     -11.525  14.494  68.986  1.00  0.00     0.000 HD 
HETATM   12  C   UNL     1     -11.430  15.446  71.406  1.00  0.00    -0.465 A  
HETATM   13  C   UNL     1     -11.713  16.024  72.644  1.00  0.00    -0.513 A  
HETATM   14  C   UNL     1     -12.659  15.441  73.478  1.00  0.00    -0.678 A  
HETATM   15  C   UNL     1     -13.328  14.289  73.066  1.00  0.00    -0.437 A  
HETATM   16  C   UNL     1     -13.041  13.689  71.824  1.00  0.00    -0.382 A  
HETATM   17  N   UNL     1     -13.657  12.440  71.528  1.00  0.00     0.107 NA 
HETATM   18  C   UNL     1     -12.821  11.418  71.212  1.00  0.00    -0.379 A  
HETATM   19  H   UNL     1     -14.669  12.319  71.551  1.00  0.00     0.000 HD 
HETATM   20  C   UNL     1     -11.777  11.434  70.308  1.00  0.00    -0.397 A  
HETATM   21  C   UNL     1     -10.974  10.246  70.453  1.00  0.00    -0.365 A  
HETATM   22  C   UNL     1     -11.501   9.344  71.352  1.00  0.00    -0.379 A  
HETATM   23  C   UNL     1     -10.962   8.023  71.772  1.00  0.00    -0.305 C  
HETATM   24  S   UNL     1     -12.962   9.915  72.021  1.00  0.00    -0.399 SA 
ENDBRANCH   5   8
TORSDOF 1
ENDMDL
MODEL       10
REMARK 921   NORMALIZED FREE ENERGY PREDICTED BY IDOCK:   -6.63 KCAL/MOL
REMARK 922        TOTAL FREE ENERGY PREDICTED BY IDOCK:   -7.42 KCAL/MOL
REMARK 923 INTER-LIGAND FREE ENERGY PREDICTED BY IDOCK:   -7.04 KCAL/MOL
REMARK 924 INTRA-LIGAND FREE ENERGY PREDICTED BY IDOCK:   -0.38 KCAL/MOL
REMARK 927      BINDING AFFINITY PREDICTED BY RF-SCORE:    0.00 PKD
ROOT
HETATM    1  C   UNL     1      -7.246  19.921  69.315  1.00  0.00    -0.206 C  
HETATM    2  N   UNL     1      -7.302  19.152  68.073  1.00  0.00    -0.250 NA 
HETATM    3  C   UNL     1      -6.966  17.732  68.291  1.00  0.00    -0.223 C  
HETATM    4  C   UNL     1      -8.024  16.908  69.060  1.00  0.00    -0.169 C  
HETATM    5  N   UNL     1      -9.369  17.061  68.484  1.00  0.00    -0.258 NA 
HETATM    6  C   UNL     1      -8.640  19.217  67.445  1.00  0.00    -0.292 C  
HETATM    7  C   UNL     1      -9.752  18.458  68.200  1.00  0.00    -0.331 C  
ENDROOT
BRANCH   5   8
HETATM    8  C   UNL     1     -10.153  16.015  68.009  1.00  0.00    -0.240 C  
HETATM    9  N   UNL     1     -10.119  15.659  66.758  1.00  0.00    -0.265 NA 
HETATM   10  C   UNL     1     -10.918  14.658  66.175  1.00  0.00    -0.329 A  
HETATM   11  H   UNL     1      -9.459  16.146  66.150  1.00  0.00     0.000 HD 
HETATM   12  C   UNL     1     -11.367  14.921  64.872  1.00  0.00    -0.415 A  
HETATM   13  C   UNL     1     -12.159  14.007  64.175  1.00  0.00    -0.456 A  
HETATM   14  C   UNL     1     -12.496  12.795  64.764  1.00  0.00    -0.539 A  
HETATM   15  C   UNL     1     -12.030  12.495  66.044  1.00  0.00    -0.456 A  
HETATM   16  C   UNL     1     -11.241  13.415  66.763  1.00  0.00    -0.310 A  
HETATM   17  N   UNL     1     -10.918  13.105  68.114  1.00  0.00    -0.242 NA 
HETATM   18  C   UNL     1     -11.267  14.032  69.043  1.00  0.00    -0.276 A  
HETATM   19  H   UNL     1     -10.451  12.236  68.370  1.00  0.00     0.000 HD 
HETATM   20  C   UNL     1     -11.027  15.392  69.005  1.00  0.00    -0.252 A  
HETATM   21  C   UNL     1     -11.779  16.059  70.038  1.00  0.00    -0.284 A  
HETATM   22  C   UNL     1     -12.442  15.186  70.873  1.00  0.00    -0.365 A  
HETATM   23  C   UNL     1     -13.318  15.491  72.036  1.00  0.00    -0.566 C  
HETATM   24  S   UNL     1     -12.162  13.565  70.425  1.00  0.00    -0.320 SA 
ENDBRANCH   5   8
TORSDOF 1
ENDMDL
MODEL       11
REMARK 921   NORMALIZED FREE ENERGY PREDICTED BY IDOCK:   -6.58 KCAL/MOL
REMARK 922        TOTAL FREE ENERGY PREDICTED BY IDOCK:   -7.37 KCAL/MOL
REMARK 923 INTER-LIGAND FREE ENERGY PREDICTED BY IDOCK:   -7.00 KCAL/MOL
REMARK 924 INTRA-LIGAND FREE ENERGY PREDICTED BY IDOCK:   -0.37 KCAL/MOL
REMARK 927      BINDING AFFINITY PREDICTED BY RF-SCORE:    0.00 PKD
ROOT
HETATM    1  C   UNL     1      -8.667   7.157  69.804  1.00  0.00    -0.142 C  
HETATM    2  N   UNL     1      -8.742   8.244  70.778  1.00  0.00    -0.133 NA 
HETATM    3  C   UNL     1      -8.233   9.514  70.223  1.00  0.00    -0.187 C  
HETATM    4  C   UNL     1      -9.123  10.174  69.147  1.00  0.00    -0.183 C  
HETATM    5  N   UNL     1     -10.521  10.301  69.588  1.00  0.00    -0.241 NA 
HETATM    6  C   UNL     1     -10.128   8.470  71.246  1.00  0.00    -0.222 C  
HETATM    7  C   UNL     1     -11.080   9.077  70.194  1.00  0.00    -0.207 C  
ENDROOT
BRANCH   5   8
HETATM    8  C   UNL     1     -11.222  11.501  69.672  1.00  0.00    -0.204 C  
HETATM    9  N   UNL     1     -11.690  11.932  70.807  1.00  0.00    -0.313 NA 
HETATM   10  C   UNL     1     -12.460  13.097  70.979  1.00  0.00    -0.318 A  
HETATM   11  H   UNL     1     -11.481  11.380  71.640  1.00  0.00     0.000 HD 
HETATM   12  C   UNL     1     -13.490  13.010  71.928  1.00  0.00    -0.498 A  
HETATM   13  C   UNL     1     -14.322  14.096  72.203  1.00  0.00    -0.606 A  
HETATM   14  C   UNL     1     -14.121  15.304  71.548  1.00  0.00    -0.625 A  
HETATM   15  C   UNL     1     -13.080  15.426  70.628  1.00  0.00    -0.405 A  
HETATM   16  C   UNL     1     -12.241  14.333  70.332  1.00  0.00    -0.342 A  
HETATM   17  N   UNL     1     -11.290  14.486  69.283  1.00  0.00    -0.271 NA 
HETATM   18  C   UNL     1     -11.351  13.572  68.280  1.00  0.00    -0.294 A  
HETATM   19  H   UNL     1     -10.603  15.238  69.285  1.00  0.00     0.000 HD 
HETATM   20  C   UNL     1     -11.416  12.197  68.398  1.00  0.00    -0.356 A  
HETATM   21  C   UNL     1     -11.731  11.602  67.124  1.00  0.00    -0.215 A  
HETATM   22  C   UNL     1     -11.766  12.518  66.094  1.00  0.00    -0.409 A  
HETATM   23  C   UNL     1     -12.063  12.291  64.655  1.00  0.00    -0.449 C  
HETATM   24  S   UNL     1     -11.418  14.091  66.651  1.00  0.00    -0.382 SA 
ENDBRANCH   5   8
TORSDOF 1
ENDMDL
MODEL       12
REMARK 921   NORMALIZED FREE ENERGY PREDICTED BY IDOCK:   -6.56 KCAL/MOL
REMARK 922        TOTAL FREE ENERGY PREDICTED BY IDOCK:   -7.35 KCAL/MOL
REMARK 923 INTER-LIGAND FREE ENERGY PREDICTED BY IDOCK:   -7.00 KCAL/MOL
REMARK 924 INTRA-LIGAND FREE ENERGY PREDICTED BY IDOCK:   -0.35 KCAL/MOL
REMARK 927      BINDING AFFINITY PREDICTED BY RF-SCORE:    0.00 PKD
ROOT
HETATM    1  C   UNL     1     -12.375  11.882  63.216  1.00  0.00    -0.391 C  
HETATM    2  N   UNL     1     -12.493  12.112  64.655  1.00  0.00    -0.418 NA 
HETATM    3  C   UNL     1     -11.194  11.967  65.342  1.00  0.00    -0.322 C  
HETATM    4  C   UNL     1     -10.166  13.087  65.064  1.00  0.00    -0.269 C  
HETATM    5  N   UNL     1     -10.739  14.426  65.271  1.00  0.00    -0.349 NA 
HETATM    6  C   UNL     1     -13.025  13.459  64.956  1.00  0.00    -0.152 C  
HETATM    7  C   UNL     1     -12.061  14.624  64.646  1.00  0.00    -0.454 C  
ENDROOT
BRANCH   5   8
HETATM    8  C   UNL     1     -10.242  15.374  66.161  1.00  0.00    -0.308 C  
HETATM    9  N   UNL     1      -9.333  16.232  65.796  1.00  0.00    -0.474 NA 
HETATM   10  C   UNL     1      -8.728  17.183  66.638  1.00  0.00    -0.252 A  
HETATM   11  H   UNL     1      -9.036  16.212  64.820  1.00  0.00     0.000 HD 
HETATM   12  C   UNL     1      -7.363  17.414  66.411  1.00  0.00    -0.340 A  
HETATM   13  C   UNL     1      -6.644  18.339  67.170  1.00  0.00    -0.203 A  
HETATM   14  C   UNL     1      -7.289  19.073  68.158  1.00  0.00    -0.298 A  
HETATM   15  C   UNL     1      -8.654  18.887  68.377  1.00  0.00    -0.381 A  
HETATM   16  C   UNL     1      -9.388  17.946  67.627  1.00  0.00    -0.258 A  
HETATM   17  N   UNL     1     -10.742  17.708  67.997  1.00  0.00    -0.376 NA 
HETATM   18  C   UNL     1     -11.070  16.419  68.273  1.00  0.00    -0.337 A  
HETATM   19  H   UNL     1     -11.427  18.461  68.050  1.00  0.00     0.000 HD 
HETATM   20  C   UNL     1     -10.787  15.298  67.518  1.00  0.00    -0.304 A  
HETATM   21  C   UNL     1     -11.069  14.104  68.274  1.00  0.00    -0.274 A  
HETATM   22  C   UNL     1     -11.657  14.363  69.493  1.00  0.00    -0.304 A  
HETATM   23  C   UNL     1     -12.081  13.402  70.547  1.00  0.00    -0.399 C  
HETATM   24  S   UNL     1     -11.877  16.036  69.733  1.00  0.00    -0.136 SA 
ENDBRANCH   5   8
TORSDOF 1
ENDMDL
MODEL       13
REMARK 921   NORMALIZED FREE ENERGY PREDICTED BY IDOCK:   -6.41 KCAL/MOL
REMARK 922        TOTAL FREE ENERGY PREDICTED BY IDOCK:   -7.19 KCAL/MOL
REMARK 923 INTER-LIGAND FREE ENERGY PREDICTED BY IDOCK:   -6.78 KCAL/MOL
REMARK 924 INTRA-LIGAND FREE ENERGY PREDICTED BY IDOCK:   -0.41 KCAL/MOL
REMARK 927      BINDING AFFINITY PREDICTED BY RF-SCORE:    0.00 PKD
ROOT
HETATM    1  C   UNL     1     -12.160  14.591  64.086  1.00  0.00    -0.350 C  
HETATM    2  N   UNL     1     -10.943  14.342  64.856  1.00  0.00    -0.387 NA 
HETATM    3  C   UNL     1     -11.094  14.747  66.268  1.00  0.00    -0.341 C  
HETATM    4  C   UNL     1     -12.030  13.858  67.118  1.00  0.00    -0.420 C  
HETATM    5  N   UNL     1     -11.694  12.431  67.000  1.00  0.00    -0.473 NA 
HETATM    6  C   UNL     1     -10.554  12.914  64.826  1.00  0.00    -0.342 C  
HETATM    7  C   UNL     1     -11.485  11.969  65.613  1.00  0.00    -0.316 C  
ENDROOT
BRANCH   5   8
HETATM    8  C   UNL     1     -11.356  11.603  68.066  1.00  0.00    -0.296 C  
HETATM    9  N   UNL     1     -12.271  11.034  68.796  1.00  0.00    -0.744 NA 
HETATM   10  C   UNL     1     -12.028  10.234  69.927  1.00  0.00    -0.150 A  
HETATM   11  H   UNL     1     -13.244  11.179  68.525  1.00  0.00     0.000 HD 
HETATM   12  C   UNL     1     -12.940  10.380  70.983  1.00  0.00    -0.490 A  
HETATM   13  C   UNL     1     -12.820   9.639  72.159  1.00  0.00    -0.460 A  
HETATM   14  C   UNL     1     -11.792   8.714  72.291  1.00  0.00    -0.436 A  
HETATM   15  C   UNL     1     -10.895   8.523  71.240  1.00  0.00    -0.312 A  
HETATM   16  C   UNL     1     -10.998   9.275  70.053  1.00  0.00    -0.229 A  
HETATM   17  N   UNL     1      -9.968   9.131  69.080  1.00  0.00    -0.178 NA 
HETATM   18  C   UNL     1      -9.339  10.272  68.699  1.00  0.00    -0.162 A  
HETATM   19  H   UNL     1      -9.718   8.223  68.691  1.00  0.00     0.000 HD 
HETATM   20  C   UNL     1      -9.919  11.466  68.314  1.00  0.00    -0.203 A  
HETATM   21  C   UNL     1      -8.923  12.504  68.242  1.00  0.00    -0.178 A  
HETATM   22  C   UNL     1      -7.642  12.039  68.448  1.00  0.00    -0.128 A  
HETATM   23  C   UNL     1      -6.364  12.800  68.461  1.00  0.00    -0.075 C  
HETATM   24  S   UNL     1      -7.629  10.356  68.723  1.00  0.00    -0.105 SA 
ENDBRANCH   5   8
TORSDOF 1
ENDMDL
MODEL       14
REMARK 921   NORMALIZED FREE ENERGY PREDICTED BY IDOCK:   -6.37 KCAL/MOL
REMARK 922        TOTAL FREE ENERGY PREDICTED BY IDOCK:   -7.14 KCAL/MOL
REMARK 923 INTER-LIGAND FREE ENERGY PREDICTED BY IDOCK:   -7.54 KCAL/MOL
REMARK 924 INTRA-LIGAND FREE ENERGY PREDICTED BY IDOCK:    0.40 KCAL/MOL
REMARK 927      BINDING AFFINITY PREDICTED BY RF-SCORE:    0.00 PKD
ROOT
HETATM    1  C   UNL     1     -13.396  13.912  72.885  1.00  0.00    -0.308 C  
HETATM    2  N   UNL     1     -13.488  15.283  72.386  1.00  0.00    -0.417 NA 
HETATM    3  C   UNL     1     -12.207  16.004  72.523  1.00  0.00    -0.519 C  
HETATM    4  C   UNL     1     -11.079  15.542  71.574  1.00  0.00    -0.225 C  
HETATM    5  N   UNL     1     -11.522  15.493  70.172  1.00  0.00    -0.296 NA 
HETATM    6  C   UNL     1     -13.890  15.326  70.962  1.00  0.00    -0.335 C  
HETATM    7  C   UNL     1     -12.821  14.822  69.969  1.00  0.00    -0.064 C  
ENDROOT
BRANCH   5   8
HETATM    8  C   UNL     1     -10.935  16.202  69.128  1.00  0.00    -0.309 C  
HETATM    9  N   UNL     1     -10.493  17.414  69.299  1.00  0.00    -0.369 NA 
HETATM   10  C   UNL     1      -9.943  18.228  68.292  1.00  0.00    -0.364 A  
HETATM   11  H   UNL     1     -10.550  17.805  70.239  1.00  0.00     0.000 HD 
HETATM   12  C   UNL     1     -10.267  19.591  68.368  1.00  0.00    -0.536 A  
HETATM   13  C   UNL     1      -9.779  20.510  67.438  1.00  0.00    -0.587 A  
HETATM   14  C   UNL     1      -8.933  20.083  66.423  1.00  0.00    -0.408 A  
HETATM   15  C   UNL     1      -8.566  18.739  66.348  1.00  0.00    -0.294 A  
HETATM   16  C   UNL     1      -9.063  17.799  67.273  1.00  0.00    -0.246 A  
HETATM   17  N   UNL     1      -8.762  16.425  67.057  1.00  0.00    -0.188 NA 
HETATM   18  C   UNL     1      -9.824  15.583  66.978  1.00  0.00    -0.232 A  
HETATM   19  H   UNL     1      -7.803  16.091  66.966  1.00  0.00     0.000 HD 
HETATM   20  C   UNL     1     -10.897  15.498  67.844  1.00  0.00    -0.307 A  
HETATM   21  C   UNL     1     -11.932  14.673  67.276  1.00  0.00    -0.312 A  
HETATM   22  C   UNL     1     -11.560  14.080  66.089  1.00  0.00    -0.367 A  
HETATM   23  C   UNL     1     -12.350  13.178  65.209  1.00  0.00    -0.532 C  
HETATM   24  S   UNL     1      -9.967  14.506  65.655  1.00  0.00    -0.326 SA 
ENDBRANCH   5   8
TORSDOF 1
ENDMDL
MODEL       15
REMARK 921   NORMALIZED FREE ENERGY PREDICTED BY IDOCK:   -6.34 KCAL/MOL
REMARK 922        TOTAL FREE ENERGY PREDICTED BY IDOCK:   -7.11 KCAL/MOL
REMARK 923 INTER-LIGAND FREE ENERGY PREDICTED BY IDOCK:   -6.72 KCAL/MOL
REMARK 924 INTRA-LIGAND FREE ENERGY PREDICTED BY IDOCK:   -0.40 KCAL/MOL
REMARK 927      BINDING AFFINITY PREDICTED BY RF-SCORE:    0.00 PKD
ROOT
HETATM    1  C   UNL     1     -10.633   8.954  71.989  1.00  0.00    -0.318 C  
HETATM    2  N   UNL     1     -11.480   8.886  70.800  1.00  0.00    -0.277 NA 
HETATM    3  C   UNL     1     -12.437  10.009  70.743  1.00  0.00    -0.295 C  
HETATM    4  C   UNL     1     -11.820  11.394  70.446  1.00  0.00    -0.335 C  
HETATM    5  N   UNL     1     -10.949  11.369  69.261  1.00  0.00    -0.238 NA 
HETATM    6  C   UNL     1     -10.682   8.898  69.553  1.00  0.00    -0.199 C  
HETATM    7  C   UNL     1      -9.995  10.243  69.233  1.00  0.00    -0.227 C  
ENDROOT
BRANCH   5   8
HETATM    8  C   UNL     1     -11.123  12.161  68.130  1.00  0.00    -0.248 C  
HETATM    9  N   UNL     1     -11.724  11.703  67.070  1.00  0.00    -0.581 NA 
HETATM   10  C   UNL     1     -11.891  12.406  65.863  1.00  0.00    -0.405 A  
HETATM   11  H   UNL     1     -12.105  10.758  67.120  1.00  0.00     0.000 HD 
HETATM   12  C   UNL     1     -11.778  11.639  64.693  1.00  0.00    -0.157 A  
HETATM   13  C   UNL     1     -11.932  12.211  63.429  1.00  0.00    -0.578 A  
HETATM   14  C   UNL     1     -12.229  13.563  63.314  1.00  0.00    -0.214 A  
HETATM   15  C   UNL     1     -12.384  14.337  64.463  1.00  0.00    -0.432 A  
HETATM   16  C   UNL     1     -12.218  13.775  65.744  1.00  0.00    -0.462 A  
HETATM   17  N   UNL     1     -12.251  14.650  66.867  1.00  0.00    -0.447 NA 
HETATM   18  C   UNL     1     -11.168  14.618  67.685  1.00  0.00    -0.321 A  
HETATM   19  H   UNL     1     -13.044  15.265  67.048  1.00  0.00     0.000 HD 
HETATM   20  C   UNL     1     -10.549  13.505  68.219  1.00  0.00    -0.259 A  
HETATM   21  C   UNL     1      -9.288  13.873  68.813  1.00  0.00    -0.031 A  
HETATM   22  C   UNL     1      -9.068  15.233  68.815  1.00  0.00    -0.200 A  
HETATM   23  C   UNL     1      -7.892  15.986  69.325  1.00  0.00    -0.222 C  
HETATM   24  S   UNL     1     -10.373  16.074  68.110  1.00  0.00    -0.269 SA 
ENDBRANCH   5   8
TORSDOF 1
ENDMDL
MODEL       16
REMARK 921   NORMALIZED FREE ENERGY PREDICTED BY IDOCK:   -6.30 KCAL/MOL
REMARK 922        TOTAL FREE ENERGY PREDICTED BY IDOCK:   -7.08 KCAL/MOL
REMARK 923 INTER-LIGAND FREE ENERGY PREDICTED BY IDOCK:   -7.46 KCAL/MOL
REMARK 924 INTRA-LIGAND FREE ENERGY PREDICTED BY IDOCK:    0.38 KCAL/MOL
REMARK 927      BINDING AFFINITY PREDICTED BY RF-SCORE:    0.00 PKD
ROOT
HETATM    1  C   UNL     1     -12.882  15.245  73.876  1.00  0.00    -0.382 C  
HETATM    2  N   UNL     1     -13.552  15.298  72.578  1.00  0.00    -0.464 NA 
HETATM    3  C   UNL     1     -12.666  15.832  71.524  1.00  0.00    -0.450 C  
HETATM    4  C   UNL     1     -11.510  14.901  71.092  1.00  0.00    -0.264 C  
HETATM    5  N   UNL     1     -11.985  13.548  70.763  1.00  0.00    -0.258 NA 
HETATM    6  C   UNL     1     -14.026  13.964  72.148  1.00  0.00    -0.545 C  
HETATM    7  C   UNL     1     -12.912  12.971  71.756  1.00  0.00    -0.321 C  
ENDROOT
BRANCH   5   8
HETATM    8  C   UNL     1     -11.803  12.919  69.535  1.00  0.00    -0.320 C  
HETATM    9  N   UNL     1     -11.898  13.579  68.417  1.00  0.00    -0.360 NA 
HETATM   10  C   UNL     1     -11.792  13.020  67.131  1.00  0.00    -0.373 A  
HETATM   11  H   UNL     1     -12.064  14.584  68.479  1.00  0.00     0.000 HD 
HETATM   12  C   UNL     1     -12.650  13.558  66.161  1.00  0.00    -0.355 A  
HETATM   13  C   UNL     1     -12.640  13.100  64.842  1.00  0.00    -0.468 A  
HETATM   14  C   UNL     1     -11.747  12.107  64.463  1.00  0.00    -0.410 A  
HETATM   15  C   UNL     1     -10.858  11.582  65.401  1.00  0.00    -0.318 A  
HETATM   16  C   UNL     1     -10.867  12.026  66.738  1.00  0.00    -0.266 A  
HETATM   17  N   UNL     1     -10.032  11.351  67.672  1.00  0.00    -0.178 NA 
HETATM   18  C   UNL     1     -10.649  10.840  68.769  1.00  0.00    -0.200 A  
HETATM   19  H   UNL     1      -9.027  11.257  67.527  1.00  0.00     0.000 HD 
HETATM   20  C   UNL     1     -11.542  11.480  69.607  1.00  0.00    -0.403 A  
HETATM   21  C   UNL     1     -12.166  10.528  70.489  1.00  0.00    -0.435 A  
HETATM   22  C   UNL     1     -11.643   9.258  70.373  1.00  0.00    -0.173 A  
HETATM   23  C   UNL     1     -12.029   8.020  71.099  1.00  0.00    -0.297 C  
HETATM   24  S   UNL     1     -10.398   9.205  69.208  1.00  0.00    -0.219 SA 
ENDBRANCH   5   8
TORSDOF 1
ENDMDL
MODEL       17
REMARK 921   NORMALIZED FREE ENERGY PREDICTED BY IDOCK:   -6.29 KCAL/MOL
REMARK 922        TOTAL FREE ENERGY PREDICTED BY IDOCK:   -7.06 KCAL/MOL
REMARK 923 INTER-LIGAND FREE ENERGY PREDICTED BY IDOCK:   -6.76 KCAL/MOL
REMARK 924 INTRA-LIGAND FREE ENERGY PREDICTED BY IDOCK:   -0.31 KCAL/MOL
REMARK 927      BINDING AFFINITY PREDICTED BY RF-SCORE:    0.00 PKD
ROOT
HETATM    1  C   UNL     1     -13.647  13.820  72.625  1.00  0.00    -0.507 C  
HETATM    2  N   UNL     1     -13.600  15.216  72.194  1.00  0.00    -0.409 NA 
HETATM    3  C   UNL     1     -12.364  15.888  72.642  1.00  0.00    -0.485 C  
HETATM    4  C   UNL     1     -11.067  15.437  71.934  1.00  0.00    -0.160 C  
HETATM    5  N   UNL     1     -11.198  15.471  70.469  1.00  0.00    -0.314 NA 
HETATM    6  C   UNL     1     -13.684  15.341  70.722  1.00  0.00    -0.189 C  
HETATM    7  C   UNL     1     -12.437  14.853  69.955  1.00  0.00    -0.275 C  
ENDROOT
BRANCH   5   8
HETATM    8  C   UNL     1     -10.385  16.211  69.615  1.00  0.00    -0.271 C  
HETATM    9  N   UNL     1     -10.618  17.470  69.382  1.00  0.00    -0.350 NA 
HETATM   10  C   UNL     1      -9.891  18.280  68.491  1.00  0.00    -0.381 A  
HETATM   11  H   UNL     1     -11.392  17.904  69.887  1.00  0.00     0.000 HD 
HETATM   12  C   UNL     1     -10.645  19.214  67.766  1.00  0.00    -0.498 A  
HETATM   13  C   UNL     1     -10.047  20.086  66.856  1.00  0.00    -0.601 A  
HETATM   14  C   UNL     1      -8.670  20.056  66.673  1.00  0.00    -0.397 A  
HETATM   15  C   UNL     1      -7.894  19.161  67.410  1.00  0.00    -0.267 A  
HETATM   16  C   UNL     1      -8.489  18.267  68.322  1.00  0.00    -0.295 A  
HETATM   17  N   UNL     1      -7.657  17.287  68.936  1.00  0.00    -0.256 NA 
HETATM   18  C   UNL     1      -8.040  15.994  68.783  1.00  0.00    -0.212 A  
HETATM   19  H   UNL     1      -6.821  17.543  69.461  1.00  0.00     0.000 HD 
HETATM   20  C   UNL     1      -9.297  15.458  68.988  1.00  0.00    -0.232 A  
HETATM   21  C   UNL     1      -9.356  14.115  68.469  1.00  0.00    -0.191 A  
HETATM   22  C   UNL     1      -8.139  13.656  68.017  1.00  0.00    -0.161 A  
HETATM   23  C   UNL     1      -7.806  12.340  67.409  1.00  0.00    -0.171 C  
HETATM   24  S   UNL     1      -6.919  14.830  68.217  1.00  0.00    -0.132 SA 
ENDBRANCH   5   8
TORSDOF 1
ENDMDL
MODEL       18
REMARK 921   NORMALIZED FREE ENERGY PREDICTED BY IDOCK:   -6.28 KCAL/MOL
REMARK 922        TOTAL FREE ENERGY PREDICTED BY IDOCK:   -7.05 KCAL/MOL
REMARK 923 INTER-LIGAND FREE ENERGY PREDICTED BY IDOCK:   -6.65 KCAL/MOL
REMARK 924 INTRA-LIGAND FREE ENERGY PREDICTED BY IDOCK:   -0.40 KCAL/MOL
REMARK 927      BINDING AFFINITY PREDICTED BY RF-SCORE:    0.00 PKD
ROOT
HETATM    1  C   UNL     1      -8.742  19.683  68.954  1.00  0.00    -0.186 C  
HETATM    2  N   UNL     1      -8.431  18.926  67.743  1.00  0.00    -0.279 NA 
HETATM    3  C   UNL     1      -7.865  17.599  68.055  1.00  0.00    -0.235 C  
HETATM    4  C   UNL     1      -8.856  16.577  68.657  1.00  0.00    -0.237 C  
HETATM    5  N   UNL     1     -10.086  16.464  67.857  1.00  0.00    -0.244 NA 
HETATM    6  C   UNL     1      -9.628  18.728  66.895  1.00  0.00    -0.309 C  
HETATM    7  C   UNL     1     -10.681  17.759  67.472  1.00  0.00    -0.307 C  
ENDROOT
BRANCH   5   8
HETATM    8  C   UNL     1     -10.556  15.285  67.285  1.00  0.00    -0.290 C  
HETATM    9  N   UNL     1     -10.542  15.107  65.996  1.00  0.00    -0.308 NA 
HETATM   10  C   UNL     1     -11.051  13.980  65.326  1.00  0.00    -0.325 A  
HETATM   11  H   UNL     1     -10.130  15.846  65.425  1.00  0.00     0.000 HD 
HETATM   12  C   UNL     1     -11.690  14.236  64.103  1.00  0.00    -0.279 A  
HETATM   13  C   UNL     1     -12.230  13.206  63.332  1.00  0.00    -0.521 A  
HETATM   14  C   UNL     1     -12.117  11.890  63.761  1.00  0.00    -0.547 A  
HETATM   15  C   UNL     1     -11.453  11.606  64.955  1.00  0.00    -0.205 A  
HETATM   16  C   UNL     1     -10.915  12.639  65.748  1.00  0.00    -0.280 A  
HETATM   17  N   UNL     1     -10.376  12.292  67.020  1.00  0.00    -0.218 NA 
HETATM   18  C   UNL     1     -10.896  12.945  68.091  1.00  0.00    -0.236 A  
HETATM   19  H   UNL     1      -9.641  11.593  67.120  1.00  0.00     0.000 HD 
HETATM   20  C   UNL     1     -11.090  14.306  68.233  1.00  0.00    -0.276 A  
HETATM   21  C   UNL     1     -11.900  14.574  69.394  1.00  0.00    -0.367 A  
HETATM   22  C   UNL     1     -12.174  13.444  70.135  1.00  0.00    -0.315 A  
HETATM   23  C   UNL     1     -12.978  13.318  71.380  1.00  0.00    -0.398 C  
HETATM   24  S   UNL     1     -11.458  12.060  69.444  1.00  0.00    -0.286 SA 
ENDBRANCH   5   8
TORSDOF 1
ENDMDL
MODEL       19
REMARK 921   NORMALIZED FREE ENERGY PREDICTED BY IDOCK:   -6.24 KCAL/MOL
REMARK 922        TOTAL FREE ENERGY PREDICTED BY IDOCK:   -7.01 KCAL/MOL
REMARK 923 INTER-LIGAND FREE ENERGY PREDICTED BY IDOCK:   -6.59 KCAL/MOL
REMARK 924 INTRA-LIGAND FREE ENERGY PREDICTED BY IDOCK:   -0.42 KCAL/MOL
REMARK 927      BINDING AFFINITY PREDICTED BY RF-SCORE:    0.00 PKD
ROOT
HETATM    1  C   UNL     1      -8.871   9.602  65.680  1.00  0.00    -0.159 C  
HETATM    2  N   UNL     1      -9.131   9.119  67.035  1.00  0.00    -0.122 NA 
HETATM    3  C   UNL     1      -8.466   9.956  68.053  1.00  0.00    -0.117 C  
HETATM    4  C   UNL     1      -9.064  11.368  68.248  1.00  0.00    -0.179 C  
HETATM    5  N   UNL     1     -10.520  11.328  68.450  1.00  0.00    -0.188 NA 
HETATM    6  C   UNL     1     -10.579   9.087  67.340  1.00  0.00    -0.239 C  
HETATM    7  C   UNL     1     -11.244  10.471  67.490  1.00  0.00    -0.224 C  
ENDROOT
BRANCH   5   8
HETATM    8  C   UNL     1     -11.182  11.834  69.566  1.00  0.00    -0.195 C  
HETATM    9  N   UNL     1     -11.382  13.111  69.710  1.00  0.00    -0.491 NA 
HETATM   10  C   UNL     1     -11.983  13.719  70.828  1.00  0.00    -0.240 A  
HETATM   11  H   UNL     1     -11.078  13.722  68.951  1.00  0.00     0.000 HD 
HETATM   12  C   UNL     1     -11.437  14.951  71.217  1.00  0.00    -0.322 A  
HETATM   13  C   UNL     1     -11.946  15.664  72.303  1.00  0.00    -0.562 A  
HETATM   14  C   UNL     1     -13.034  15.165  73.008  1.00  0.00    -0.597 A  
HETATM   15  C   UNL     1     -13.617  13.960  72.618  1.00  0.00    -0.626 A  
HETATM   16  C   UNL     1     -13.104  13.225  71.531  1.00  0.00    -0.328 A  
HETATM   17  N   UNL     1     -13.658  11.938  71.274  1.00  0.00     0.459 NA 
HETATM   18  C   UNL     1     -12.780  10.902  71.244  1.00  0.00    -0.437 A  
HETATM   19  H   UNL     1     -14.657  11.802  71.122  1.00  0.00     0.000 HD 
HETATM   20  C   UNL     1     -11.585  10.832  70.555  1.00  0.00    -0.425 A  
HETATM   21  C   UNL     1     -10.828   9.685  70.987  1.00  0.00    -0.412 A  
HETATM   22  C   UNL     1     -11.518   8.884  71.871  1.00  0.00    -0.372 A  
HETATM   23  C   UNL     1     -11.071   7.632  72.539  1.00  0.00    -0.388 C  
HETATM   24  S   UNL     1     -13.076   9.502  72.183  1.00  0.00    -0.425 SA 
ENDBRANCH   5   8
TORSDOF 1
ENDMDL
MODEL       20
REMARK 921   NORMALIZED FREE ENERGY PREDICTED BY IDOCK:   -6.22 KCAL/MOL
REMARK 922        TOTAL FREE ENERGY PREDICTED BY IDOCK:   -6.99 KCAL/MOL
REMARK 923 INTER-LIGAND FREE ENERGY PREDICTED BY IDOCK:   -6.94 KCAL/MOL
REMARK 924 INTRA-LIGAND FREE ENERGY PREDICTED BY IDOCK:   -0.04 KCAL/MOL
REMARK 927      BINDING AFFINITY PREDICTED BY RF-SCORE:    0.00 PKD
ROOT
HETATM    1  C   UNL     1     -13.410  16.236  73.386  1.00  0.00    -0.262 C  
HETATM    2  N   UNL     1     -12.746  14.934  73.366  1.00  0.00    -0.514 NA 
HETATM    3  C   UNL     1     -13.548  13.920  72.653  1.00  0.00    -0.517 C  
HETATM    4  C   UNL     1     -13.639  14.100  71.121  1.00  0.00    -0.191 C  
HETATM    5  N   UNL     1     -12.314  14.269  70.505  1.00  0.00    -0.338 NA 
HETATM    6  C   UNL     1     -11.416  15.004  72.721  1.00  0.00    -0.074 C  
HETATM    7  C   UNL     1     -11.442  15.239  71.196  1.00  0.00    -0.369 C  
ENDROOT
BRANCH   5   8
HETATM    8  C   UNL     1     -11.789  13.447  69.512  1.00  0.00    -0.332 C  
HETATM    9  N   UNL     1     -11.537  12.191  69.738  1.00  0.00    -0.457 NA 
HETATM   10  C   UNL     1     -10.951  11.301  68.819  1.00  0.00    -0.220 A  
HETATM   11  H   UNL     1     -11.784  11.821  70.657  1.00  0.00     0.000 HD 
HETATM   12  C   UNL     1     -10.056  10.367  69.363  1.00  0.00    -0.251 A  
HETATM   13  C   UNL     1      -9.413   9.421  68.564  1.00  0.00    -0.150 A  
HETATM   14  C   UNL     1      -9.675   9.376  67.200  1.00  0.00    -0.225 A  
HETATM   15  C   UNL     1     -10.590  10.270  66.642  1.00  0.00    -0.232 A  
HETATM   16  C   UNL     1     -11.235  11.238  67.437  1.00  0.00    -0.303 A  
HETATM   17  N   UNL     1     -12.047  12.206  66.781  1.00  0.00    -0.565 NA 
HETATM   18  C   UNL     1     -11.737  13.507  67.015  1.00  0.00    -0.383 A  
HETATM   19  H   UNL     1     -12.819  11.938  66.171  1.00  0.00     0.000 HD 
HETATM   20  C   UNL     1     -11.514  14.113  68.237  1.00  0.00    -0.335 A  
HETATM   21  C   UNL     1     -10.957  15.428  68.047  1.00  0.00    -0.307 A  
HETATM   22  C   UNL     1     -10.900  15.804  66.722  1.00  0.00    -0.254 A  
HETATM   23  C   UNL     1     -10.384  17.069  66.133  1.00  0.00    -0.326 C  
HETATM   24  S   UNL     1     -11.516  14.584  65.703  1.00  0.00    -0.340 SA 
ENDBRANCH   5   8
TORSDOF 1
ENDMDL
MODEL       21
REMARK 921   NORMALIZED FREE ENERGY PREDICTED BY IDOCK:   -6.21 KCAL/MOL
REMARK 922        TOTAL FREE ENERGY PREDICTED BY IDOCK:   -6.98 KCAL/MOL
REMARK 923 INTER-LIGAND FREE ENERGY PREDICTED BY IDOCK:   -6.59 KCAL/MOL
REMARK 924 INTRA-LIGAND FREE ENERGY PREDICTED BY IDOCK:   -0.39 KCAL/MOL
REMARK 927      BINDING AFFINITY PREDICTED BY RF-SCORE:    0.00 PKD
ROOT
HETATM    1  C   UNL     1     -11.169   8.003  70.338  1.00  0.00    -0.229 C  
HETATM    2  N   UNL     1     -10.606   9.236  70.886  1.00  0.00    -0.270 NA 
HETATM    3  C   UNL     1      -9.417   9.679  70.131  1.00  0.00    -0.253 C  
HETATM    4  C   UNL     1      -9.694  10.222  68.711  1.00  0.00    -0.177 C  
HETATM    5  N   UNL     1     -10.747  11.250  68.709  1.00  0.00    -0.193 NA 
HETATM    6  C   UNL     1     -11.590  10.341  70.882  1.00  0.00    -0.365 C  
HETATM    7  C   UNL     1     -11.950  10.888  69.485  1.00  0.00    -0.330 C  
ENDROOT
BRANCH   5   8
HETATM    8  C   UNL     1     -10.587  12.551  68.242  1.00  0.00    -0.231 C  
HETATM    9  N   UNL     1     -10.287  13.527  69.049  1.00  0.00    -0.427 NA 
HETATM   10  C   UNL     1     -10.166  14.879  68.680  1.00  0.00    -0.236 A  
HETATM   11  H   UNL     1     -10.128  13.292  70.030  1.00  0.00     0.000 HD 
HETATM   12  C   UNL     1     -10.642  15.810  69.617  1.00  0.00    -0.295 A  
HETATM   13  C   UNL     1     -10.572  17.183  69.380  1.00  0.00    -0.161 A  
HETATM   14  C   UNL     1      -9.999  17.654  68.206  1.00  0.00    -0.339 A  
HETATM   15  C   UNL     1      -9.485  16.749  67.276  1.00  0.00    -0.231 A  
HETATM   16  C   UNL     1      -9.561  15.360  67.498  1.00  0.00    -0.206 A  
HETATM   17  N   UNL     1      -9.146  14.493  66.448  1.00  0.00    -0.451 NA 
HETATM   18  C   UNL     1     -10.058  13.579  66.028  1.00  0.00    -0.310 A  
HETATM   19  H   UNL     1      -8.215  14.553  66.036  1.00  0.00     0.000 HD 
HETATM   20  C   UNL     1     -10.818  12.728  66.807  1.00  0.00    -0.289 A  
HETATM   21  C   UNL     1     -11.846  12.108  66.010  1.00  0.00    -0.328 A  
HETATM   22  C   UNL     1     -11.748  12.411  64.670  1.00  0.00    -0.365 A  
HETATM   23  C   UNL     1     -12.622  11.975  63.548  1.00  0.00    -0.625 C  
HETATM   24  S   UNL     1     -10.421  13.436  64.361  1.00  0.00    -0.277 SA 
ENDBRANCH   5   8
TORSDOF 1
ENDMDL
MODEL       22
REMARK 921   NORMALIZED FREE ENERGY PREDICTED BY IDOCK:   -6.20 KCAL/MOL
REMARK 922        TOTAL FREE ENERGY PREDICTED BY IDOCK:   -6.96 KCAL/MOL
REMARK 923 INTER-LIGAND FREE ENERGY PREDICTED BY IDOCK:   -6.82 KCAL/MOL
REMARK 924 INTRA-LIGAND FREE ENERGY PREDICTED BY IDOCK:   -0.15 KCAL/MOL
REMARK 927      BINDING AFFINITY PREDICTED BY RF-SCORE:    0.00 PKD
ROOT
HETATM    1  C   UNL     1     -12.347  15.738  73.006  1.00  0.00    -0.478 C  
HETATM    2  N   UNL     1     -12.742  15.956  71.615  1.00  0.00    -0.446 NA 
HETATM    3  C   UNL     1     -11.571  16.139  70.735  1.00  0.00    -0.351 C  
HETATM    4  C   UNL     1     -10.721  14.872  70.485  1.00  0.00     0.026 C  
HETATM    5  N   UNL     1     -11.545  13.731  70.056  1.00  0.00    -0.233 NA 
HETATM    6  C   UNL     1     -13.542  14.829  71.087  1.00  0.00    -0.371 C  
HETATM    7  C   UNL     1     -12.758  13.518  70.869  1.00  0.00    -0.291 C  
ENDROOT
BRANCH   5   8
HETATM    8  C   UNL     1     -11.375  13.033  68.864  1.00  0.00    -0.287 C  
HETATM    9  N   UNL     1     -11.673  13.572  67.717  1.00  0.00    -0.338 NA 
HETATM   10  C   UNL     1     -11.594  12.925  66.470  1.00  0.00    -0.371 A  
HETATM   11  H   UNL     1     -11.990  14.542  67.723  1.00  0.00     0.000 HD 
HETATM   12  C   UNL     1     -12.610  13.242  65.556  1.00  0.00    -0.505 A  
HETATM   13  C   UNL     1     -12.645  12.679  64.279  1.00  0.00    -0.453 A  
HETATM   14  C   UNL     1     -11.642  11.802  63.884  1.00  0.00    -0.469 A  
HETATM   15  C   UNL     1     -10.601  11.501  64.762  1.00  0.00    -0.362 A  
HETATM   16  C   UNL     1     -10.563  12.053  66.058  1.00  0.00    -0.268 A  
HETATM   17  N   UNL     1      -9.551  11.595  66.949  1.00  0.00    -0.184 NA 
HETATM   18  C   UNL     1      -9.979  11.094  68.136  1.00  0.00    -0.178 A  
HETATM   19  H   UNL     1      -8.561  11.641  66.710  1.00  0.00     0.000 HD 
HETATM   20  C   UNL     1     -10.884  11.662  69.012  1.00  0.00    -0.247 A  
HETATM   21  C   UNL     1     -11.269  10.706  70.019  1.00  0.00    -0.382 A  
HETATM   22  C   UNL     1     -10.563   9.525  69.942  1.00  0.00    -0.241 A  
HETATM   23  C   UNL     1     -10.683   8.310  70.791  1.00  0.00    -0.244 C  
HETATM   24  S   UNL     1      -9.435   9.559  68.664  1.00  0.00    -0.144 SA 
ENDBRANCH   5   8
TORSDOF 1
ENDMDL
MODEL       23
REMARK 921   NORMALIZED FREE ENERGY PREDICTED BY IDOCK:   -6.13 KCAL/MOL
REMARK 922        TOTAL FREE ENERGY PREDICTED BY IDOCK:   -6.90 KCAL/MOL
REMARK 923 INTER-LIGAND FREE ENERGY PREDICTED BY IDOCK:   -6.50 KCAL/MOL
REMARK 924 INTRA-LIGAND FREE ENERGY PREDICTED BY IDOCK:   -0.40 KCAL/MOL
REMARK 927      BINDING AFFINITY PREDICTED BY RF-SCORE:    0.00 PKD
ROOT
HETATM    1  C   UNL     1      -7.896   9.766  65.283  1.00  0.00    -0.120 C  
HETATM    2  N   UNL     1      -8.890  10.818  65.491  1.00  0.00    -0.187 NA 
HETATM    3  C   UNL     1     -10.223  10.262  65.793  1.00  0.00    -0.219 C  
HETATM    4  C   UNL     1     -10.369   9.600  67.182  1.00  0.00    -0.254 C  
HETATM    5  N   UNL     1      -9.893  10.476  68.264  1.00  0.00    -0.146 NA 
HETATM    6  C   UNL     1      -8.509  11.726  66.596  1.00  0.00    -0.153 C  
HETATM    7  C   UNL     1      -8.581  11.101  68.006  1.00  0.00    -0.140 C  
ENDROOT
BRANCH   5   8
HETATM    8  C   UNL     1     -10.666  10.902  69.340  1.00  0.00    -0.225 C  
HETATM    9  N   UNL     1     -11.254  12.062  69.332  1.00  0.00    -0.399 NA 
HETATM   10  C   UNL     1     -12.002  12.602  70.395  1.00  0.00    -0.248 A  
HETATM   11  H   UNL     1     -11.166  12.627  68.487  1.00  0.00     0.000 HD 
HETATM   12  C   UNL     1     -11.865  13.984  70.595  1.00  0.00    -0.310 A  
HETATM   13  C   UNL     1     -12.558  14.647  71.608  1.00  0.00    -0.403 A  
HETATM   14  C   UNL     1     -13.427  13.938  72.429  1.00  0.00    -0.661 A  
HETATM   15  C   UNL     1     -13.609  12.570  72.225  1.00  0.00    -0.443 A  
HETATM   16  C   UNL     1     -12.904  11.887  71.214  1.00  0.00    -0.290 A  
HETATM   17  N   UNL     1     -13.031  10.471  71.153  1.00  0.00    -0.397 NA 
HETATM   18  C   UNL     1     -11.874   9.762  71.206  1.00  0.00    -0.399 A  
HETATM   19  H   UNL     1     -13.939  10.014  71.072  1.00  0.00     0.000 HD 
HETATM   20  C   UNL     1     -10.724   9.970  70.469  1.00  0.00    -0.352 A  
HETATM   21  C   UNL     1      -9.642   9.183  71.001  1.00  0.00    -0.350 A  
HETATM   22  C   UNL     1     -10.036   8.337  72.015  1.00  0.00    -0.257 A  
HETATM   23  C   UNL     1      -9.212   7.387  72.811  1.00  0.00    -0.192 C  
HETATM   24  S   UNL     1     -11.705   8.481  72.329  1.00  0.00    -0.354 SA 
ENDBRANCH   5   8
TORSDOF 1
ENDMDL
MODEL       24
REMARK 921   NORMALIZED FREE ENERGY PREDICTED BY IDOCK:   -6.06 KCAL/MOL
REMARK 922        TOTAL FREE ENERGY PREDICTED BY IDOCK:   -6.82 KCAL/MOL
REMARK 923 INTER-LIGAND FREE ENERGY PREDICTED BY IDOCK:   -6.41 KCAL/MOL
REMARK 924 INTRA-LIGAND FREE ENERGY PREDICTED BY IDOCK:   -0.40 KCAL/MOL
REMARK 927      BINDING AFFINITY PREDICTED BY RF-SCORE:    0.00 PKD
ROOT
HETATM    1  C   UNL     1      -8.191   7.325  65.860  1.00  0.00    -0.132 C  
HETATM    2  N   UNL     1      -8.275   7.668  67.279  1.00  0.00    -0.118 NA 
HETATM    3  C   UNL     1      -7.783   9.033  67.544  1.00  0.00    -0.096 C  
HETATM    4  C   UNL     1      -8.684  10.178  67.029  1.00  0.00    -0.132 C  
HETATM    5  N   UNL     1     -10.082  10.016  67.459  1.00  0.00    -0.186 NA 
HETATM    6  C   UNL     1      -9.662   7.572  67.787  1.00  0.00    -0.146 C  
HETATM    7  C   UNL     1     -10.625   8.658  67.261  1.00  0.00    -0.238 C  
ENDROOT
BRANCH   5   8
HETATM    8  C   UNL     1     -10.796  10.949  68.205  1.00  0.00    -0.225 C  
HETATM    9  N   UNL     1     -11.116  10.719  69.446  1.00  0.00    -0.248 NA 
HETATM   10  C   UNL     1     -11.886  11.571  70.258  1.00  0.00    -0.342 A  
HETATM   11  H   UNL     1     -10.781   9.850  69.863  1.00  0.00     0.000 HD 
HETATM   12  C   UNL     1     -12.774  10.934  71.137  1.00  0.00    -0.530 A  
HETATM   13  C   UNL     1     -13.590  11.661  72.005  1.00  0.00    -0.144 A  
HETATM   14  C   UNL     1     -13.512  13.048  72.026  1.00  0.00    -0.584 A  
HETATM   15  C   UNL     1     -12.610  13.703  71.188  1.00  0.00    -0.452 A  
HETATM   16  C   UNL     1     -11.791  12.980  70.298  1.00  0.00    -0.217 A  
HETATM   17  N   UNL     1     -10.997  13.716  69.373  1.00  0.00    -0.426 NA 
HETATM   18  C   UNL     1     -11.169  13.414  68.061  1.00  0.00    -0.268 A  
HETATM   19  H   UNL     1     -10.336  14.429  69.680  1.00  0.00     0.000 HD 
HETATM   20  C   UNL     1     -11.181  12.161  67.480  1.00  0.00    -0.357 A  
HETATM   21  C   UNL     1     -11.651  12.247  66.121  1.00  0.00    -0.450 A  
HETATM   22  C   UNL     1     -11.851  13.543  65.699  1.00  0.00    -0.369 A  
HETATM   23  C   UNL     1     -12.336  14.031  64.379  1.00  0.00    -0.401 C  
HETATM   24  S   UNL     1     -11.472  14.662  66.928  1.00  0.00    -0.351 SA 
ENDBRANCH   5   8
TORSDOF 1
ENDMDL
MODEL       25
REMARK 921   NORMALIZED FREE ENERGY PREDICTED BY IDOCK:   -6.04 KCAL/MOL
REMARK 922        TOTAL FREE ENERGY PREDICTED BY IDOCK:   -6.80 KCAL/MOL
REMARK 923 INTER-LIGAND FREE ENERGY PREDICTED BY IDOCK:   -6.38 KCAL/MOL
REMARK 924 INTRA-LIGAND FREE ENERGY PREDICTED BY IDOCK:   -0.41 KCAL/MOL
REMARK 927      BINDING AFFINITY PREDICTED BY RF-SCORE:    0.00 PKD
ROOT
HETATM    1  C   UNL     1      -8.254   9.048  65.700  1.00  0.00    -0.119 C  
HETATM    2  N   UNL     1      -8.423   8.616  67.086  1.00  0.00    -0.114 NA 
HETATM    3  C   UNL     1      -7.915   9.622  68.040  1.00  0.00    -0.097 C  
HETATM    4  C   UNL     1      -8.751  10.916  68.150  1.00  0.00    -0.133 C  
HETATM    5  N   UNL     1     -10.178  10.635  68.374  1.00  0.00    -0.166 NA 
HETATM    6  C   UNL     1      -9.842   8.350  67.411  1.00  0.00    -0.191 C  
HETATM    7  C   UNL     1     -10.740   9.603  67.480  1.00  0.00    -0.256 C  
ENDROOT
BRANCH   5   8
HETATM    8  C   UNL     1     -10.916  11.089  69.463  1.00  0.00    -0.243 C  
HETATM    9  N   UNL     1     -11.441  12.279  69.473  1.00  0.00    -0.405 NA 
HETATM   10  C   UNL     1     -12.148  12.846  70.550  1.00  0.00    -0.282 A  
HETATM   11  H   UNL     1     -11.331  12.848  68.633  1.00  0.00     0.000 HD 
HETATM   12  C   UNL     1     -11.935  14.216  70.763  1.00  0.00    -0.377 A  
HETATM   13  C   UNL     1     -12.581  14.904  71.790  1.00  0.00    -0.398 A  
HETATM   14  C   UNL     1     -13.479  14.235  72.612  1.00  0.00    -0.623 A  
HETATM   15  C   UNL     1     -13.736  12.881  72.396  1.00  0.00    -0.530 A  
HETATM   16  C   UNL     1     -13.080  12.172  71.371  1.00  0.00    -0.187 A  
HETATM   17  N   UNL     1     -13.283  10.765  71.295  1.00  0.00    -0.304 NA 
HETATM   18  C   UNL     1     -12.165   9.995  71.329  1.00  0.00    -0.402 A  
HETATM   19  H   UNL     1     -14.214  10.358  71.220  1.00  0.00     0.000 HD 
HETATM   20  C   UNL     1     -11.013  10.149  70.582  1.00  0.00    -0.357 A  
HETATM   21  C   UNL     1      -9.969   9.299  71.094  1.00  0.00    -0.356 A  
HETATM   22  C   UNL     1     -10.398   8.464  72.103  1.00  0.00    -0.327 A  
HETATM   23  C   UNL     1      -9.619   7.463  72.880  1.00  0.00    -0.224 C  
HETATM   24  S   UNL     1     -12.054   8.694  72.437  1.00  0.00    -0.293 SA 
ENDBRANCH   5   8
TORSDOF 1
ENDMDL
MODEL       26
REMARK 921   NORMALIZED FREE ENERGY PREDICTED BY IDOCK:   -5.94 KCAL/MOL
REMARK 922        TOTAL FREE ENERGY PREDICTED BY IDOCK:   -6.69 KCAL/MOL
REMARK 923 INTER-LIGAND FREE ENERGY PREDICTED BY IDOCK:   -6.70 KCAL/MOL
REMARK 924 INTRA-LIGAND FREE ENERGY PREDICTED BY IDOCK:    0.01 KCAL/MOL
REMARK 927      BINDING AFFINITY PREDICTED BY RF-SCORE:    0.00 PKD
ROOT
HETATM    1  C   UNL     1     -13.066  14.512  73.192  1.00  0.00    -0.446 C  
HETATM    2  N   UNL     1     -13.806  14.338  71.944  1.00  0.00    -0.419 NA 
HETATM    3  C   UNL     1     -13.534  15.429  70.988  1.00  0.00    -0.444 C  
HETATM    4  C   UNL     1     -12.121  15.430  70.362  1.00  0.00    -0.372 C  
HETATM    5  N   UNL     1     -11.768  14.118  69.796  1.00  0.00    -0.293 NA 
HETATM    6  C   UNL     1     -13.476  13.055  71.282  1.00  0.00     0.135 C  
HETATM    7  C   UNL     1     -12.055  12.976  70.686  1.00  0.00    -0.248 C  
ENDROOT
BRANCH   5   8
HETATM    8  C   UNL     1     -11.417  13.894  68.468  1.00  0.00    -0.311 C  
HETATM    9  N   UNL     1     -11.621  12.741  67.901  1.00  0.00    -0.329 NA 
HETATM   10  C   UNL     1     -11.246  12.403  66.588  1.00  0.00    -0.315 A  
HETATM   11  H   UNL     1     -12.091  12.023  68.454  1.00  0.00     0.000 HD 
HETATM   12  C   UNL     1     -10.783  11.091  66.407  1.00  0.00    -0.286 A  
HETATM   13  C   UNL     1     -10.387  10.623  65.153  1.00  0.00    -0.331 A  
HETATM   14  C   UNL     1     -10.474  11.458  64.046  1.00  0.00    -0.435 A  
HETATM   15  C   UNL     1     -10.967  12.754  64.194  1.00  0.00    -0.435 A  
HETATM   16  C   UNL     1     -11.356  13.242  65.457  1.00  0.00    -0.294 A  
HETATM   17  N   UNL     1     -11.716  14.616  65.560  1.00  0.00    -0.341 NA 
HETATM   18  C   UNL     1     -11.030  15.349  66.475  1.00  0.00    -0.271 A  
HETATM   19  H   UNL     1     -12.448  15.026  64.981  1.00  0.00     0.000 HD 
HETATM   20  C   UNL     1     -10.780  15.028  67.795  1.00  0.00    -0.278 A  
HETATM   21  C   UNL     1      -9.804  15.930  68.351  1.00  0.00    -0.214 A  
HETATM   22  C   UNL     1      -9.458  16.949  67.490  1.00  0.00    -0.241 A  
HETATM   23  C   UNL     1      -8.487  18.056  67.698  1.00  0.00    -0.239 C  
HETATM   24  S   UNL     1     -10.304  16.829  66.014  1.00  0.00    -0.291 SA 
ENDBRANCH   5   8
TORSDOF 1
ENDMDL
MODEL       27
REMARK 921   NORMALIZED FREE ENERGY PREDICTED BY IDOCK:   -5.92 KCAL/MOL
REMARK 922        TOTAL FREE ENERGY PREDICTED BY IDOCK:   -6.67 KCAL/MOL
REMARK 923 INTER-LIGAND FREE ENERGY PREDICTED BY IDOCK:   -6.33 KCAL/MOL
REMARK 924 INTRA-LIGAND FREE ENERGY PREDICTED BY IDOCK:   -0.34 KCAL/MOL
REMARK 927      BINDING AFFINITY PREDICTED BY RF-SCORE:    0.00 PKD
ROOT
HETATM    1  C   UNL     1     -12.882  11.855  63.513  1.00  0.00    -0.305 C  
HETATM    2  N   UNL     1     -11.825  12.862  63.446  1.00  0.00    -0.539 NA 
HETATM    3  C   UNL     1     -12.164  14.068  64.227  1.00  0.00    -0.418 C  
HETATM    4  C   UNL     1     -12.148  13.893  65.763  1.00  0.00    -0.425 C  
HETATM    5  N   UNL     1     -10.897  13.279  66.235  1.00  0.00    -0.283 NA 
HETATM    6  C   UNL     1     -10.533  12.340  63.945  1.00  0.00    -0.429 C  
HETATM    7  C   UNL     1     -10.476  12.091  65.467  1.00  0.00    -0.269 C  
ENDROOT
BRANCH   5   8
HETATM    8  C   UNL     1     -10.028  13.856  67.156  1.00  0.00    -0.239 C  
HETATM    9  N   UNL     1      -8.781  14.082  66.858  1.00  0.00    -0.367 NA 
HETATM   10  C   UNL     1      -7.816  14.602  67.740  1.00  0.00    -0.154 A  
HETATM   11  H   UNL     1      -8.479  13.864  65.908  1.00  0.00     0.000 HD 
HETATM   12  C   UNL     1      -6.527  14.062  67.618  1.00  0.00    -0.156 A  
HETATM   13  C   UNL     1      -5.475  14.497  68.425  1.00  0.00    -0.108 A  
HETATM   14  C   UNL     1      -5.689  15.504  69.357  1.00  0.00    -0.111 A  
HETATM   15  C   UNL     1      -6.953  16.083  69.471  1.00  0.00    -0.191 A  
HETATM   16  C   UNL     1      -8.027  15.643  68.672  1.00  0.00    -0.152 A  
HETATM   17  N   UNL     1      -9.319  16.178  68.937  1.00  0.00    -0.224 NA 
HETATM   18  C   UNL     1     -10.301  15.276  69.193  1.00  0.00    -0.248 A  
HETATM   19  H   UNL     1      -9.498  17.182  68.934  1.00  0.00     0.000 HD 
HETATM   20  C   UNL     1     -10.613  14.142  68.467  1.00  0.00    -0.257 A  
HETATM   21  C   UNL     1     -11.535  13.317  69.205  1.00  0.00    -0.357 A  
HETATM   22  C   UNL     1     -11.970  13.903  70.374  1.00  0.00    -0.323 A  
HETATM   23  C   UNL     1     -12.906  13.363  71.396  1.00  0.00    -0.420 C  
HETATM   24  S   UNL     1     -11.278  15.446  70.589  1.00  0.00    -0.354 SA 
ENDBRANCH   5   8
TORSDOF 1
ENDMDL
MODEL       28
REMARK 921   NORMALIZED FREE ENERGY PREDICTED BY IDOCK:   -5.91 KCAL/MOL
REMARK 922        TOTAL FREE ENERGY PREDICTED BY IDOCK:   -6.66 KCAL/MOL
REMARK 923 INTER-LIGAND FREE ENERGY PREDICTED BY IDOCK:   -6.51 KCAL/MOL
REMARK 924 INTRA-LIGAND FREE ENERGY PREDICTED BY IDOCK:   -0.15 KCAL/MOL
REMARK 927      BINDING AFFINITY PREDICTED BY RF-SCORE:    0.00 PKD
ROOT
HETATM    1  C   UNL     1     -12.540  14.728  73.827  1.00  0.00    -0.327 C  
HETATM    2  N   UNL     1     -13.307  15.106  72.642  1.00  0.00    -0.420 NA 
HETATM    3  C   UNL     1     -12.656  16.197  71.891  1.00  0.00    -0.244 C  
HETATM    4  C   UNL     1     -11.357  15.812  71.149  1.00  0.00    -0.389 C  
HETATM    5  N   UNL     1     -11.533  14.613  70.314  1.00  0.00    -0.263 NA 
HETATM    6  C   UNL     1     -13.496  13.963  71.721  1.00  0.00    -0.384 C  
HETATM    7  C   UNL     1     -12.218  13.496  70.992  1.00  0.00    -0.262 C  
ENDROOT
BRANCH   5   8
HETATM    8  C   UNL     1     -11.311  14.563  68.941  1.00  0.00    -0.274 C  
HETATM    9  N   UNL     1     -12.099  13.889  68.154  1.00  0.00    -0.478 NA 
HETATM   10  C   UNL     1     -11.921  13.730  66.767  1.00  0.00    -0.426 A  
HETATM   11  H   UNL     1     -12.912  13.440  68.577  1.00  0.00     0.000 HD 
HETATM   12  C   UNL     1     -12.260  12.470  66.252  1.00  0.00    -0.159 A  
HETATM   13  C   UNL     1     -12.140  12.181  64.892  1.00  0.00    -0.342 A  
HETATM   14  C   UNL     1     -11.700  13.164  64.014  1.00  0.00    -0.496 A  
HETATM   15  C   UNL     1     -11.393  14.436  64.497  1.00  0.00    -0.328 A  
HETATM   16  C   UNL     1     -11.497  14.735  65.870  1.00  0.00    -0.319 A  
HETATM   17  N   UNL     1     -11.034  16.006  66.313  1.00  0.00    -0.152 NA 
HETATM   18  C   UNL     1     -10.096  15.995  67.294  1.00  0.00    -0.266 A  
HETATM   19  H   UNL     1     -11.389  16.876  65.917  1.00  0.00     0.000 HD 
HETATM   20  C   UNL     1     -10.123  15.281  68.477  1.00  0.00    -0.222 A  
HETATM   21  C   UNL     1      -8.834  15.333  69.119  1.00  0.00    -0.238 A  
HETATM   22  C   UNL     1      -7.943  16.165  68.477  1.00  0.00    -0.175 A  
HETATM   23  C   UNL     1      -6.529  16.467  68.828  1.00  0.00    -0.142 C  
HETATM   24  S   UNL     1      -8.649  16.891  67.105  1.00  0.00    -0.205 SA 
ENDBRANCH   5   8
TORSDOF 1
ENDMDL
MODEL       29
REMARK 921   NORMALIZED FREE ENERGY PREDICTED BY IDOCK:   -5.82 KCAL/MOL
REMARK 922        TOTAL FREE ENERGY PREDICTED BY IDOCK:   -6.57 KCAL/MOL
REMARK 923 INTER-LIGAND FREE ENERGY PREDICTED BY IDOCK:   -6.34 KCAL/MOL
REMARK 924 INTRA-LIGAND FREE ENERGY PREDICTED BY IDOCK:   -0.23 KCAL/MOL
REMARK 927      BINDING AFFINITY PREDICTED BY RF-SCORE:    0.00 PKD
ROOT
HETATM    1  C   UNL     1     -11.916  11.632  63.755  1.00  0.00    -0.253 C  
HETATM    2  N   UNL     1     -12.608  12.620  64.581  1.00  0.00    -0.643 NA 
HETATM    3  C   UNL     1     -12.155  12.575  65.985  1.00  0.00    -0.321 C  
HETATM    4  C   UNL     1     -10.723  13.097  66.240  1.00  0.00    -0.284 C  
HETATM    5  N   UNL     1     -10.506  14.426  65.646  1.00  0.00    -0.315 NA 
HETATM    6  C   UNL     1     -12.406  13.997  64.077  1.00  0.00    -0.298 C  
HETATM    7  C   UNL     1     -10.977  14.553  64.254  1.00  0.00     0.066 C  
ENDROOT
BRANCH   5   8
HETATM    8  C   UNL     1     -10.120  15.559  66.356  1.00  0.00    -0.288 C  
HETATM    9  N   UNL     1     -10.709  16.705  66.172  1.00  0.00    -0.198 NA 
HETATM   10  C   UNL     1     -10.349  17.914  66.795  1.00  0.00    -0.355 A  
HETATM   11  H   UNL     1     -11.496  16.728  65.523  1.00  0.00     0.000 HD 
HETATM   12  C   UNL     1     -10.448  19.063  65.995  1.00  0.00    -0.530 A  
HETATM   13  C   UNL     1     -10.130  20.327  66.492  1.00  0.00    -0.518 A  
HETATM   14  C   UNL     1      -9.729  20.469  67.815  1.00  0.00    -0.433 A  
HETATM   15  C   UNL     1      -9.659  19.346  68.640  1.00  0.00    -0.490 A  
HETATM   16  C   UNL     1      -9.964  18.063  68.146  1.00  0.00    -0.353 A  
HETATM   17  N   UNL     1      -9.736  16.947  69.000  1.00  0.00    -0.254 NA 
HETATM   18  C   UNL     1      -8.927  15.972  68.511  1.00  0.00    -0.200 A  
HETATM   19  H   UNL     1     -10.158  16.882  69.926  1.00  0.00     0.000 HD 
HETATM   20  C   UNL     1      -8.995  15.364  67.273  1.00  0.00    -0.213 A  
HETATM   21  C   UNL     1      -7.810  14.578  67.038  1.00  0.00    -0.015 A  
HETATM   22  C   UNL     1      -6.973  14.523  68.131  1.00  0.00    -0.122 A  
HETATM   23  C   UNL     1      -5.665  13.828  68.270  1.00  0.00    -0.109 C  
HETATM   24  S   UNL     1      -7.605  15.410  69.443  1.00  0.00    -0.215 SA 
ENDBRANCH   5   8
TORSDOF 1
ENDMDL
MODEL       30
REMARK 921   NORMALIZED FREE ENERGY PREDICTED BY IDOCK:   -5.73 KCAL/MOL
REMARK 922        TOTAL FREE ENERGY PREDICTED BY IDOCK:   -6.47 KCAL/MOL
REMARK 923 INTER-LIGAND FREE ENERGY PREDICTED BY IDOCK:   -6.10 KCAL/MOL
REMARK 924 INTRA-LIGAND FREE ENERGY PREDICTED BY IDOCK:   -0.37 KCAL/MOL
REMARK 927      BINDING AFFINITY PREDICTED BY RF-SCORE:    0.00 PKD
ROOT
HETATM    1  C   UNL     1     -12.016  14.950  64.214  1.00  0.00    -0.338 C  
HETATM    2  N   UNL     1     -12.864  14.045  64.988  1.00  0.00    -0.732 NA 
HETATM    3  C   UNL     1     -12.751  12.650  64.520  1.00  0.00    -0.357 C  
HETATM    4  C   UNL     1     -11.409  11.950  64.831  1.00  0.00    -0.277 C  
HETATM    5  N   UNL     1     -11.039  12.073  66.250  1.00  0.00    -0.303 NA 
HETATM    6  C   UNL     1     -12.529  14.075  66.430  1.00  0.00    -0.355 C  
HETATM    7  C   UNL     1     -11.171  13.438  66.796  1.00  0.00    -0.310 C  
ENDROOT
BRANCH   5   8
HETATM    8  C   UNL     1     -10.809  11.001  67.107  1.00  0.00    -0.282 C  
HETATM    9  N   UNL     1     -11.549  10.808  68.160  1.00  0.00    -0.622 NA 
HETATM   10  C   UNL     1     -11.355   9.792  69.114  1.00  0.00     0.015 A  
HETATM   11  H   UNL     1     -12.333  11.445  68.306  1.00  0.00     0.000 HD 
HETATM   12  C   UNL     1     -11.611  10.152  70.446  1.00  0.00    -0.396 A  
HETATM   13  C   UNL     1     -11.467   9.237  71.490  1.00  0.00    -0.454 A  
HETATM   14  C   UNL     1     -11.088   7.929  71.215  1.00  0.00    -0.278 A  
HETATM   15  C   UNL     1     -10.865   7.537  69.895  1.00  0.00    -0.250 A  
HETATM   16  C   UNL     1     -10.994   8.455  68.834  1.00  0.00     0.152 A  
HETATM   17  N   UNL     1     -10.616   8.027  67.530  1.00  0.00    -0.420 NA 
HETATM   18  C   UNL     1      -9.682   8.782  66.896  1.00  0.00    -0.210 A  
HETATM   19  H   UNL     1     -11.024   7.199  67.095  1.00  0.00     0.000 HD 
HETATM   20  C   UNL     1      -9.668  10.156  66.752  1.00  0.00    -0.235 A  
HETATM   21  C   UNL     1      -8.387  10.590  66.254  1.00  0.00    -0.152 A  
HETATM   22  C   UNL     1      -7.549   9.545  65.931  1.00  0.00    -0.100 A  
HETATM   23  C   UNL     1      -6.159   9.593  65.404  1.00  0.00    -0.069 C  
HETATM   24  S   UNL     1      -8.296   8.040  66.220  1.00  0.00    -0.127 SA 
ENDBRANCH   5   8
TORSDOF 1
ENDMDL
MODEL       31
REMARK 921   NORMALIZED FREE ENERGY PREDICTED BY IDOCK:   -5.73 KCAL/MOL
REMARK 922        TOTAL FREE ENERGY PREDICTED BY IDOCK:   -6.47 KCAL/MOL
REMARK 923 INTER-LIGAND FREE ENERGY PREDICTED BY IDOCK:   -6.06 KCAL/MOL
REMARK 924 INTRA-LIGAND FREE ENERGY PREDICTED BY IDOCK:   -0.41 KCAL/MOL
REMARK 927      BINDING AFFINITY PREDICTED BY RF-SCORE:    0.00 PKD
ROOT
HETATM    1  C   UNL     1      -8.949  19.394  66.385  1.00  0.00    -0.363 C  
HETATM    2  N   UNL     1     -10.231  18.821  66.791  1.00  0.00    -0.368 NA 
HETATM    3  C   UNL     1     -10.624  17.689  65.930  1.00  0.00    -0.203 C  
HETATM    4  C   UNL     1      -9.789  16.400  66.101  1.00  0.00    -0.338 C  
HETATM    5  N   UNL     1      -9.684  15.993  67.511  1.00  0.00    -0.227 NA 
HETATM    6  C   UNL     1     -10.201  18.344  68.192  1.00  0.00    -0.384 C  
HETATM    7  C   UNL     1      -9.336  17.090  68.435  1.00  0.00    -0.266 C  
ENDROOT
BRANCH   5   8
HETATM    8  C   UNL     1     -10.097  14.764  68.016  1.00  0.00    -0.218 C  
HETATM    9  N   UNL     1     -11.184  14.655  68.724  1.00  0.00    -0.254 NA 
HETATM   10  C   UNL     1     -11.646  13.470  69.325  1.00  0.00    -0.316 A  
HETATM   11  H   UNL     1     -11.745  15.497  68.854  1.00  0.00     0.000 HD 
HETATM   12  C   UNL     1     -12.239  13.621  70.588  1.00  0.00    -0.434 A  
HETATM   13  C   UNL     1     -12.748  12.527  71.290  1.00  0.00    -0.350 A  
HETATM   14  C   UNL     1     -12.697  11.259  70.726  1.00  0.00    -0.360 A  
HETATM   15  C   UNL     1     -12.146  11.089  69.456  1.00  0.00    -0.400 A  
HETATM   16  C   UNL     1     -11.616  12.183  68.743  1.00  0.00    -0.327 A  
HETATM   17  N   UNL     1     -10.945  11.919  67.515  1.00  0.00    -0.233 NA 
HETATM   18  C   UNL     1      -9.670  12.376  67.418  1.00  0.00    -0.193 A  
HETATM   19  H   UNL     1     -11.396  11.414  66.753  1.00  0.00     0.000 HD 
HETATM   20  C   UNL     1      -9.204  13.641  67.722  1.00  0.00    -0.214 A  
HETATM   21  C   UNL     1      -7.764  13.651  67.737  1.00  0.00    -0.166 A  
HETATM   22  C   UNL     1      -7.211  12.456  67.332  1.00  0.00    -0.148 A  
HETATM   23  C   UNL     1      -5.775  12.080  67.226  1.00  0.00    -0.139 C  
HETATM   24  S   UNL     1      -8.416  11.320  66.927  1.00  0.00    -0.157 SA 
ENDBRANCH   5   8
TORSDOF 1
ENDMDL
MODEL       32
REMARK 921   NORMALIZED FREE ENERGY PREDICTED BY IDOCK:   -5.69 KCAL/MOL
REMARK 922        TOTAL FREE ENERGY PREDICTED BY IDOCK:   -6.43 KCAL/MOL
REMARK 923 INTER-LIGAND FREE ENERGY PREDICTED BY IDOCK:   -6.00 KCAL/MOL
REMARK 924 INTRA-LIGAND FREE ENERGY PREDICTED BY IDOCK:   -0.42 KCAL/MOL
REMARK 927      BINDING AFFINITY PREDICTED BY RF-SCORE:    0.00 PKD
ROOT
HETATM    1  C   UNL     1     -12.135  15.482  64.270  1.00  0.00    -0.116 C  
HETATM    2  N   UNL     1     -10.911  14.810  64.704  1.00  0.00    -0.354 NA 
HETATM    3  C   UNL     1     -10.636  15.043  66.136  1.00  0.00    -0.310 C  
HETATM    4  C   UNL     1     -11.591  14.332  67.121  1.00  0.00    -0.380 C  
HETATM    5  N   UNL     1     -11.724  12.897  66.824  1.00  0.00    -0.366 NA 
HETATM    6  C   UNL     1     -10.976  13.349  64.480  1.00  0.00    -0.390 C  
HETATM    7  C   UNL     1     -11.957  12.591  65.399  1.00  0.00    -0.437 C  
ENDROOT
BRANCH   5   8
HETATM    8  C   UNL     1     -11.428  11.871  67.716  1.00  0.00    -0.319 C  
HETATM    9  N   UNL     1     -12.243  11.560  68.683  1.00  0.00    -0.461 NA 
HETATM   10  C   UNL     1     -12.002  10.584  69.666  1.00  0.00    -0.208 A  
HETATM   11  H   UNL     1     -13.127  12.067  68.731  1.00  0.00     0.000 HD 
HETATM   12  C   UNL     1     -12.459  10.895  70.956  1.00  0.00    -0.514 A  
HETATM   13  C   UNL     1     -12.293  10.009  72.022  1.00  0.00    -0.222 A  
HETATM   14  C   UNL     1     -11.686   8.778  71.809  1.00  0.00    -0.416 A  
HETATM   15  C   UNL     1     -11.258   8.430  70.528  1.00  0.00    -0.252 A  
HETATM   16  C   UNL     1     -11.407   9.321  69.447  1.00  0.00     0.157 A  
HETATM   17  N   UNL     1     -10.823   8.962  68.199  1.00  0.00    -0.467 NA 
HETATM   18  C   UNL     1      -9.953   9.856  67.664  1.00  0.00    -0.171 A  
HETATM   19  H   UNL     1     -11.046   8.082  67.734  1.00  0.00     0.000 HD 
HETATM   20  C   UNL     1     -10.136  11.216  67.503  1.00  0.00    -0.210 A  
HETATM   21  C   UNL     1      -8.891  11.847  67.145  1.00  0.00    -0.180 A  
HETATM   22  C   UNL     1      -7.870  10.947  66.933  1.00  0.00    -0.135 A  
HETATM   23  C   UNL     1      -6.454  11.213  66.564  1.00  0.00    -0.129 C  
HETATM   24  S   UNL     1      -8.401   9.342  67.157  1.00  0.00    -0.124 SA 
ENDBRANCH   5   8
TORSDOF 1
ENDMDL
MODEL       33
REMARK 921   NORMALIZED FREE ENERGY PREDICTED BY IDOCK:   -5.68 KCAL/MOL
REMARK 922        TOTAL FREE ENERGY PREDICTED BY IDOCK:   -6.42 KCAL/MOL
REMARK 923 INTER-LIGAND FREE ENERGY PREDICTED BY IDOCK:   -6.05 KCAL/MOL
REMARK 924 INTRA-LIGAND FREE ENERGY PREDICTED BY IDOCK:   -0.37 KCAL/MOL
REMARK 927      BINDING AFFINITY PREDICTED BY RF-SCORE:    0.00 PKD
ROOT
HETATM    1  C   UNL     1     -10.252   8.461  72.644  1.00  0.00    -0.249 C  
HETATM    2  N   UNL     1     -10.727   8.009  71.338  1.00  0.00    -0.225 NA 
HETATM    3  C   UNL     1     -11.872   8.810  70.862  1.00  0.00    -0.230 C  
HETATM    4  C   UNL     1     -11.541  10.260  70.442  1.00  0.00    -0.328 C  
HETATM    5  N   UNL     1     -10.414  10.317  69.498  1.00  0.00    -0.229 NA 
HETATM    6  C   UNL     1      -9.662   8.075  70.312  1.00  0.00    -0.175 C  
HETATM    7  C   UNL     1      -9.249   9.501  69.892  1.00  0.00    -0.220 C  
ENDROOT
BRANCH   5   8
HETATM    8  C   UNL     1     -10.472  10.876  68.224  1.00  0.00    -0.179 C  
HETATM    9  N   UNL     1     -10.264  10.156  67.160  1.00  0.00    -0.212 NA 
HETATM   10  C   UNL     1     -10.241  10.643  65.841  1.00  0.00    -0.251 A  
HETATM   11  H   UNL     1     -10.103   9.157  67.294  1.00  0.00     0.000 HD 
HETATM   12  C   UNL     1      -9.288  10.058  64.993  1.00  0.00    -0.314 A  
HETATM   13  C   UNL     1      -9.166  10.442  63.657  1.00  0.00    -0.310 A  
HETATM   14  C   UNL     1     -10.018  11.407  63.135  1.00  0.00    -0.402 A  
HETATM   15  C   UNL     1     -10.998  11.976  63.948  1.00  0.00    -0.465 A  
HETATM   16  C   UNL     1     -11.122  11.606  65.302  1.00  0.00    -0.236 A  
HETATM   17  N   UNL     1     -12.049  12.326  66.109  1.00  0.00    -0.627 NA 
HETATM   18  C   UNL     1     -11.547  12.901  67.232  1.00  0.00    -0.360 A  
HETATM   19  H   UNL     1     -13.034  12.405  65.858  1.00  0.00     0.000 HD 
HETATM   20  C   UNL     1     -10.742  12.315  68.190  1.00  0.00    -0.241 A  
HETATM   21  C   UNL     1     -10.211  13.319  69.076  1.00  0.00     0.071 A  
HETATM   22  C   UNL     1     -10.722  14.576  68.837  1.00  0.00    -0.254 A  
HETATM   23  C   UNL     1     -10.413  15.856  69.529  1.00  0.00    -0.281 C  
HETATM   24  S   UNL     1     -11.843  14.556  67.552  1.00  0.00    -0.327 SA 
ENDBRANCH   5   8
TORSDOF 1
ENDMDL
MODEL       34
REMARK 921   NORMALIZED FREE ENERGY PREDICTED BY IDOCK:   -5.63 KCAL/MOL
REMARK 922        TOTAL FREE ENERGY PREDICTED BY IDOCK:   -6.37 KCAL/MOL
REMARK 923 INTER-LIGAND FREE ENERGY PREDICTED BY IDOCK:   -6.79 KCAL/MOL
REMARK 924 INTRA-LIGAND FREE ENERGY PREDICTED BY IDOCK:    0.42 KCAL/MOL
REMARK 927      BINDING AFFINITY PREDICTED BY RF-SCORE:    0.00 PKD
ROOT
HETATM    1  C   UNL     1     -13.508  15.772  73.412  1.00  0.00    -0.393 C  
HETATM    2  N   UNL     1     -14.111  15.221  72.199  1.00  0.00    -0.519 NA 
HETATM    3  C   UNL     1     -13.433  15.705  70.981  1.00  0.00    -0.215 C  
HETATM    4  C   UNL     1     -12.011  15.146  70.745  1.00  0.00    -0.327 C  
HETATM    5  N   UNL     1     -11.972  13.678  70.837  1.00  0.00    -0.239 NA 
HETATM    6  C   UNL     1     -14.076  13.742  72.189  1.00  0.00    -0.511 C  
HETATM    7  C   UNL     1     -12.672  13.125  72.012  1.00  0.00    -0.083 C  
ENDROOT
BRANCH   5   8
HETATM    8  C   UNL     1     -11.541  12.830  69.821  1.00  0.00    -0.218 C  
HETATM    9  N   UNL     1     -11.386  11.554  70.027  1.00  0.00    -0.492 NA 
HETATM   10  C   UNL     1     -10.898  10.632  69.083  1.00  0.00    -0.237 A  
HETATM   11  H   UNL     1     -11.638  11.194  70.948  1.00  0.00     0.000 HD 
HETATM   12  C   UNL     1     -10.067   9.623  69.593  1.00  0.00    -0.242 A  
HETATM   13  C   UNL     1      -9.524   8.638  68.766  1.00  0.00    -0.143 A  
HETATM   14  C   UNL     1      -9.825   8.632  67.410  1.00  0.00    -0.249 A  
HETATM   15  C   UNL     1     -10.678   9.603  66.886  1.00  0.00    -0.185 A  
HETATM   16  C   UNL     1     -11.222  10.610  67.708  1.00  0.00    -0.313 A  
HETATM   17  N   UNL     1     -11.970  11.649  67.085  1.00  0.00    -0.574 NA 
HETATM   18  C   UNL     1     -11.550  12.917  67.325  1.00  0.00    -0.360 A  
HETATM   19  H   UNL     1     -12.777  11.451  66.494  1.00  0.00     0.000 HD 
HETATM   20  C   UNL     1     -11.247  13.487  68.546  1.00  0.00    -0.310 A  
HETATM   21  C   UNL     1     -10.592  14.756  68.355  1.00  0.00    -0.242 A  
HETATM   22  C   UNL     1     -10.538  15.143  67.033  1.00  0.00    -0.300 A  
HETATM   23  C   UNL     1      -9.938  16.370  66.444  1.00  0.00    -0.318 C  
HETATM   24  S   UNL     1     -11.278  13.990  66.019  1.00  0.00    -0.316 SA 
ENDBRANCH   5   8
TORSDOF 1
ENDMDL
MODEL       35
REMARK 921   NORMALIZED FREE ENERGY PREDICTED BY IDOCK:   -5.59 KCAL/MOL
REMARK 922        TOTAL FREE ENERGY PREDICTED BY IDOCK:   -6.32 KCAL/MOL
REMARK 923 INTER-LIGAND FREE ENERGY PREDICTED BY IDOCK:   -6.08 KCAL/MOL
REMARK 924 INTRA-LIGAND FREE ENERGY PREDICTED BY IDOCK:   -0.24 KCAL/MOL
REMARK 927      BINDING AFFINITY PREDICTED BY RF-SCORE:    0.00 PKD
ROOT
HETATM    1  C   UNL     1      -6.875   8.399  65.204  1.00  0.00    -0.067 C  
HETATM    2  N   UNL     1      -7.720   9.554  64.910  1.00  0.00    -0.110 NA 
HETATM    3  C   UNL     1      -9.155   9.222  65.004  1.00  0.00    -0.188 C  
HETATM    4  C   UNL     1      -9.688   8.968  66.432  1.00  0.00    -0.268 C  
HETATM    5  N   UNL     1      -9.324  10.052  67.358  1.00  0.00    -0.147 NA 
HETATM    6  C   UNL     1      -7.449  10.684  65.828  1.00  0.00    -0.114 C  
HETATM    7  C   UNL     1      -7.909  10.465  67.284  1.00  0.00    -0.106 C  
ENDROOT
BRANCH   5   8
HETATM    8  C   UNL     1     -10.234  10.816  68.083  1.00  0.00    -0.172 C  
HETATM    9  N   UNL     1     -10.526  10.527  69.318  1.00  0.00    -0.222 NA 
HETATM   10  C   UNL     1     -11.475  11.201  70.108  1.00  0.00    -0.272 A  
HETATM   11  H   UNL     1     -10.026   9.749  69.748  1.00  0.00     0.000 HD 
HETATM   12  C   UNL     1     -12.229  10.394  70.973  1.00  0.00    -0.498 A  
HETATM   13  C   UNL     1     -13.198  10.937  71.819  1.00  0.00    -0.513 A  
HETATM   14  C   UNL     1     -13.412  12.309  71.832  1.00  0.00    -0.339 A  
HETATM   15  C   UNL     1     -12.649  13.136  71.008  1.00  0.00    -0.397 A  
HETATM   16  C   UNL     1     -11.678  12.599  70.141  1.00  0.00    -0.168 A  
HETATM   17  N   UNL     1     -11.035  13.483  69.228  1.00  0.00    -0.417 NA 
HETATM   18  C   UNL     1     -11.111  13.149  67.914  1.00  0.00    -0.262 A  
HETATM   19  H   UNL     1     -10.544  14.319  69.544  1.00  0.00     0.000 HD 
HETATM   20  C   UNL     1     -10.848  11.920  67.342  1.00  0.00    -0.289 A  
HETATM   21  C   UNL     1     -11.295  11.903  65.972  1.00  0.00    -0.375 A  
HETATM   22  C   UNL     1     -11.753  13.127  65.538  1.00  0.00    -0.357 A  
HETATM   23  C   UNL     1     -12.300  13.499  64.205  1.00  0.00    -0.392 C  
HETATM   24  S   UNL     1     -11.644  14.303  66.768  1.00  0.00    -0.406 SA 
ENDBRANCH   5   8
TORSDOF 1
ENDMDL
MODEL       36
REMARK 921   NORMALIZED FREE ENERGY PREDICTED BY IDOCK:   -5.59 KCAL/MOL
REMARK 922        TOTAL FREE ENERGY PREDICTED BY IDOCK:   -6.32 KCAL/MOL
REMARK 923 INTER-LIGAND FREE ENERGY PREDICTED BY IDOCK:   -5.96 KCAL/MOL
REMARK 924 INTRA-LIGAND FREE ENERGY PREDICTED BY IDOCK:   -0.36 KCAL/MOL
REMARK 927      BINDING AFFINITY PREDICTED BY RF-SCORE:    0.00 PKD
ROOT
HETATM    1  C   UNL     1     -12.561  12.470  64.600  1.00  0.00    -0.426 C  
HETATM    2  N   UNL     1     -12.801  13.791  65.178  1.00  0.00    -0.748 NA 
HETATM    3  C   UNL     1     -12.494  13.823  66.621  1.00  0.00    -0.260 C  
HETATM    4  C   UNL     1     -10.995  13.737  66.985  1.00  0.00    -0.290 C  
HETATM    5  N   UNL     1     -10.189  14.719  66.241  1.00  0.00    -0.286 NA 
HETATM    6  C   UNL     1     -11.994  14.838  64.513  1.00  0.00    -0.440 C  
HETATM    7  C   UNL     1     -10.478  14.769  64.794  1.00  0.00    -0.286 C  
ENDROOT
BRANCH   5   8
HETATM    8  C   UNL     1      -9.391  15.698  66.825  1.00  0.00    -0.246 C  
HETATM    9  N   UNL     1      -9.596  16.962  66.596  1.00  0.00    -0.255 NA 
HETATM   10  C   UNL     1      -8.806  18.016  67.090  1.00  0.00    -0.248 A  
HETATM   11  H   UNL     1     -10.394  17.209  66.010  1.00  0.00     0.000 HD 
HETATM   12  C   UNL     1      -8.609  19.092  66.211  1.00  0.00    -0.303 A  
HETATM   13  C   UNL     1      -7.854  20.207  66.579  1.00  0.00    -0.317 A  
HETATM   14  C   UNL     1      -7.300  20.276  67.851  1.00  0.00    -0.311 A  
HETATM   15  C   UNL     1      -7.513  19.236  68.756  1.00  0.00    -0.387 A  
HETATM   16  C   UNL     1      -8.262  18.100  68.391  1.00  0.00    -0.303 A  
HETATM   17  N   UNL     1      -8.323  17.015  69.312  1.00  0.00    -0.008 NA 
HETATM   18  C   UNL     1      -7.922  15.806  68.843  1.00  0.00    -0.197 A  
HETATM   19  H   UNL     1      -8.649  17.140  70.270  1.00  0.00     0.000 HD 
HETATM   20  C   UNL     1      -8.304  15.192  67.666  1.00  0.00    -0.172 A  
HETATM   21  C   UNL     1      -7.464  14.050  67.405  1.00  0.00    -0.147 A  
HETATM   22  C   UNL     1      -6.585  13.780  68.431  1.00  0.00    -0.096 A  
HETATM   23  C   UNL     1      -5.563  12.703  68.524  1.00  0.00    -0.057 C  
HETATM   24  S   UNL     1      -6.766  14.890  69.712  1.00  0.00    -0.178 SA 
ENDBRANCH   5   8
TORSDOF 1
ENDMDL
MODEL       37
REMARK 921   NORMALIZED FREE ENERGY PREDICTED BY IDOCK:   -5.56 KCAL/MOL
REMARK 922        TOTAL FREE ENERGY PREDICTED BY IDOCK:   -6.29 KCAL/MOL
REMARK 923 INTER-LIGAND FREE ENERGY PREDICTED BY IDOCK:   -5.94 KCAL/MOL
REMARK 924 INTRA-LIGAND FREE ENERGY PREDICTED BY IDOCK:   -0.35 KCAL/MOL
REMARK 927      BINDING AFFINITY PREDICTED BY RF-SCORE:    0.00 PKD
ROOT
HETATM    1  C   UNL     1      -9.435   4.491  65.983  1.00  0.00    -0.173 C  
HETATM    2  N   UNL     1      -9.148   5.177  67.241  1.00  0.00    -0.112 NA 
HETATM    3  C   UNL     1      -8.279   6.353  67.040  1.00  0.00    -0.113 C  
HETATM    4  C   UNL     1      -8.940   7.554  66.327  1.00  0.00    -0.167 C  
HETATM    5  N   UNL     1     -10.219   7.930  66.949  1.00  0.00    -0.291 NA 
HETATM    6  C   UNL     1     -10.385   5.629  67.916  1.00  0.00    -0.205 C  
HETATM    7  C   UNL     1     -11.121   6.792  67.218  1.00  0.00    -0.324 C  
ENDROOT
BRANCH   5   8
HETATM    8  C   UNL     1     -10.509   9.186  67.474  1.00  0.00    -0.270 C  
HETATM    9  N   UNL     1     -10.649  10.224  66.702  1.00  0.00    -0.198 NA 
HETATM   10  C   UNL     1     -10.880  11.540  67.144  1.00  0.00    -0.268 A  
HETATM   11  H   UNL     1     -10.586  10.072  65.695  1.00  0.00     0.000 HD 
HETATM   12  C   UNL     1     -10.235  12.549  66.413  1.00  0.00    -0.260 A  
HETATM   13  C   UNL     1     -10.387  13.897  66.739  1.00  0.00    -0.272 A  
HETATM   14  C   UNL     1     -11.214  14.264  67.794  1.00  0.00    -0.309 A  
HETATM   15  C   UNL     1     -11.895  13.281  68.512  1.00  0.00    -0.384 A  
HETATM   16  C   UNL     1     -11.739  11.916  68.201  1.00  0.00    -0.320 A  
HETATM   17  N   UNL     1     -12.352  10.961  69.061  1.00  0.00    -0.731 NA 
HETATM   18  C   UNL     1     -11.531  10.020  69.595  1.00  0.00    -0.155 A  
HETATM   19  H   UNL     1     -13.351  10.981  69.263  1.00  0.00     0.000 HD 
HETATM   20  C   UNL     1     -10.600   9.242  68.934  1.00  0.00    -0.222 A  
HETATM   21  C   UNL     1      -9.755   8.563  69.883  1.00  0.00    -0.179 A  
HETATM   22  C   UNL     1     -10.149   8.752  71.190  1.00  0.00    -0.247 A  
HETATM   23  C   UNL     1      -9.529   8.227  72.436  1.00  0.00    -0.357 C  
HETATM   24  S   UNL     1     -11.536   9.739  71.283  1.00  0.00    -0.383 SA 
ENDBRANCH   5   8
TORSDOF 1
ENDMDL
MODEL       38
REMARK 921   NORMALIZED FREE ENERGY PREDICTED BY IDOCK:   -5.55 KCAL/MOL
REMARK 922        TOTAL FREE ENERGY PREDICTED BY IDOCK:   -6.28 KCAL/MOL
REMARK 923 INTER-LIGAND FREE ENERGY PREDICTED BY IDOCK:   -6.01 KCAL/MOL
REMARK 924 INTRA-LIGAND FREE ENERGY PREDICTED BY IDOCK:   -0.27 KCAL/MOL
REMARK 927      BINDING AFFINITY PREDICTED BY RF-SCORE:    0.00 PKD
ROOT
HETATM    1  C   UNL     1     -13.160   7.570  71.788  1.00  0.00    -0.322 C  
HETATM    2  N   UNL     1     -12.459   8.734  72.326  1.00  0.00    -0.387 NA 
HETATM    3  C   UNL     1     -11.076   8.826  71.817  1.00  0.00    -0.347 C  
HETATM    4  C   UNL     1     -10.940   9.207  70.326  1.00  0.00    -0.245 C  
HETATM    5  N   UNL     1     -11.719  10.409  69.989  1.00  0.00    -0.277 NA 
HETATM    6  C   UNL     1     -13.155   9.998  71.996  1.00  0.00    -0.441 C  
HETATM    7  C   UNL     1     -13.101  10.402  70.507  1.00  0.00    -0.140 C  
ENDROOT
BRANCH   5   8
HETATM    8  C   UNL     1     -11.186  11.574  69.447  1.00  0.00    -0.259 C  
HETATM    9  N   UNL     1     -11.454  12.741  69.957  1.00  0.00    -0.524 NA 
HETATM   10  C   UNL     1     -11.013  13.974  69.442  1.00  0.00    -0.155 A  
HETATM   11  H   UNL     1     -12.031  12.764  70.798  1.00  0.00     0.000 HD 
HETATM   12  C   UNL     1     -11.933  15.031  69.525  1.00  0.00    -0.346 A  
HETATM   13  C   UNL     1     -11.619  16.309  69.060  1.00  0.00    -0.231 A  
HETATM   14  C   UNL     1     -10.362  16.560  68.524  1.00  0.00    -0.289 A  
HETATM   15  C   UNL     1      -9.418  15.535  68.465  1.00  0.00    -0.200 A  
HETATM   16  C   UNL     1      -9.728  14.237  68.919  1.00  0.00    -0.115 A  
HETATM   17  N   UNL     1      -8.769  13.207  68.701  1.00  0.00    -0.370 NA 
HETATM   18  C   UNL     1      -9.205  12.114  68.023  1.00  0.00    -0.194 A  
HETATM   19  H   UNL     1      -7.809  13.285  69.036  1.00  0.00     0.000 HD 
HETATM   20  C   UNL     1     -10.352  11.381  68.259  1.00  0.00    -0.209 A  
HETATM   21  C   UNL     1     -10.592  10.469  67.169  1.00  0.00    -0.319 A  
HETATM   22  C   UNL     1      -9.576  10.460  66.238  1.00  0.00    -0.182 A  
HETATM   23  C   UNL     1      -9.468   9.668  64.983  1.00  0.00    -0.312 C  
HETATM   24  S   UNL     1      -8.330  11.542  66.668  1.00  0.00    -0.145 SA 
ENDBRANCH   5   8
TORSDOF 1
ENDMDL
MODEL       39
REMARK 921   NORMALIZED FREE ENERGY PREDICTED BY IDOCK:   -5.50 KCAL/MOL
REMARK 922        TOTAL FREE ENERGY PREDICTED BY IDOCK:   -6.23 KCAL/MOL
REMARK 923 INTER-LIGAND FREE ENERGY PREDICTED BY IDOCK:   -5.82 KCAL/MOL
REMARK 924 INTRA-LIGAND FREE ENERGY PREDICTED BY IDOCK:   -0.41 KCAL/MOL
REMARK 927      BINDING AFFINITY PREDICTED BY RF-SCORE:    0.00 PKD
ROOT
HETATM    1  C   UNL     1     -10.816   7.176  70.734  1.00  0.00    -0.244 C  
HETATM    2  N   UNL     1      -9.768   8.152  70.440  1.00  0.00    -0.177 NA 
HETATM    3  C   UNL     1      -9.427   8.177  69.005  1.00  0.00    -0.155 C  
HETATM    4  C   UNL     1     -10.502   8.782  68.075  1.00  0.00    -0.204 C  
HETATM    5  N   UNL     1     -10.958  10.100  68.543  1.00  0.00    -0.239 NA 
HETATM    6  C   UNL     1     -10.163   9.521  70.843  1.00  0.00    -0.286 C  
HETATM    7  C   UNL     1     -11.275  10.157  69.983  1.00  0.00    -0.299 C  
ENDROOT
BRANCH   5   8
HETATM    8  C   UNL     1     -10.888  11.275  67.799  1.00  0.00    -0.235 C  
HETATM    9  N   UNL     1     -11.817  11.591  66.945  1.00  0.00    -0.490 NA 
HETATM   10  C   UNL     1     -11.802  12.721  66.108  1.00  0.00    -0.425 A  
HETATM   11  H   UNL     1     -12.623  10.968  66.878  1.00  0.00     0.000 HD 
HETATM   12  C   UNL     1     -12.319  12.529  64.818  1.00  0.00    -0.544 A  
HETATM   13  C   UNL     1     -12.371  13.570  63.890  1.00  0.00    -0.397 A  
HETATM   14  C   UNL     1     -11.928  14.837  64.248  1.00  0.00    -0.387 A  
HETATM   15  C   UNL     1     -11.445  15.062  65.537  1.00  0.00    -0.265 A  
HETATM   16  C   UNL     1     -11.375  14.016  66.478  1.00  0.00    -0.336 A  
HETATM   17  N   UNL     1     -10.742  14.281  67.726  1.00  0.00    -0.249 NA 
HETATM   18  C   UNL     1      -9.712  13.463  68.063  1.00  0.00    -0.222 A  
HETATM   19  H   UNL     1     -11.046  15.042  68.333  1.00  0.00     0.000 HD 
HETATM   20  C   UNL     1      -9.687  12.082  68.027  1.00  0.00    -0.198 A  
HETATM   21  C   UNL     1      -8.340  11.604  68.205  1.00  0.00    -0.154 A  
HETATM   22  C   UNL     1      -7.441  12.610  68.485  1.00  0.00    -0.121 A  
HETATM   23  C   UNL     1      -5.976  12.513  68.719  1.00  0.00    -0.066 C  
HETATM   24  S   UNL     1      -8.210  14.130  68.541  1.00  0.00    -0.128 SA 
ENDBRANCH   5   8
TORSDOF 1
ENDMDL
MODEL       40
REMARK 921   NORMALIZED FREE ENERGY PREDICTED BY IDOCK:   -5.50 KCAL/MOL
REMARK 922        TOTAL FREE ENERGY PREDICTED BY IDOCK:   -6.22 KCAL/MOL
REMARK 923 INTER-LIGAND FREE ENERGY PREDICTED BY IDOCK:   -5.80 KCAL/MOL
REMARK 924 INTRA-LIGAND FREE ENERGY PREDICTED BY IDOCK:   -0.42 KCAL/MOL
REMARK 927      BINDING AFFINITY PREDICTED BY RF-SCORE:    0.00 PKD
ROOT
HETATM    1  C   UNL     1     -12.905  13.722  65.439  1.00  0.00    -0.410 C  
HETATM    2  N   UNL     1     -11.492  13.474  65.715  1.00  0.00    -0.310 NA 
HETATM    3  C   UNL     1     -10.613  14.296  64.859  1.00  0.00    -0.431 C  
HETATM    4  C   UNL     1     -10.597  15.808  65.179  1.00  0.00    -0.411 C  
HETATM    5  N   UNL     1     -10.355  16.067  66.607  1.00  0.00    -0.293 NA 
HETATM    6  C   UNL     1     -11.149  13.753  67.127  1.00  0.00    -0.302 C  
HETATM    7  C   UNL     1     -11.172  15.245  67.521  1.00  0.00    -0.317 C  
ENDROOT
BRANCH   5   8
HETATM    8  C   UNL     1      -9.302  16.827  67.109  1.00  0.00    -0.229 C  
HETATM    9  N   UNL     1      -9.319  18.127  67.048  1.00  0.00    -0.263 NA 
HETATM   10  C   UNL     1      -8.278  18.974  67.471  1.00  0.00    -0.276 A  
HETATM   11  H   UNL     1     -10.154  18.568  66.662  1.00  0.00     0.000 HD 
HETATM   12  C   UNL     1      -8.058  20.110  66.677  1.00  0.00    -0.330 A  
HETATM   13  C   UNL     1      -7.063  21.037  66.990  1.00  0.00    -0.348 A  
HETATM   14  C   UNL     1      -6.282  20.856  68.125  1.00  0.00    -0.374 A  
HETATM   15  C   UNL     1      -6.507  19.754  68.950  1.00  0.00    -0.338 A  
HETATM   16  C   UNL     1      -7.499  18.804  68.637  1.00  0.00    -0.313 A  
HETATM   17  N   UNL     1      -7.581  17.633  69.443  1.00  0.00     0.067 NA 
HETATM   18  C   UNL     1      -7.494  16.447  68.789  1.00  0.00    -0.207 A  
HETATM   19  H   UNL     1      -7.699  17.683  70.455  1.00  0.00     0.000 HD 
HETATM   20  C   UNL     1      -8.187  16.055  67.660  1.00  0.00    -0.162 A  
HETATM   21  C   UNL     1      -7.625  14.840  67.127  1.00  0.00    -0.114 A  
HETATM   22  C   UNL     1      -6.635  14.308  67.924  1.00  0.00    -0.165 A  
HETATM   23  C   UNL     1      -5.821  13.082  67.705  1.00  0.00    -0.141 C  
HETATM   24  S   UNL     1      -6.379  15.259  69.315  1.00  0.00    -0.135 SA 
ENDBRANCH   5   8
TORSDOF 1
ENDMDL
MODEL       41
REMARK 921   NORMALIZED FREE ENERGY PREDICTED BY IDOCK:   -5.49 KCAL/MOL
REMARK 922        TOTAL FREE ENERGY PREDICTED BY IDOCK:   -6.22 KCAL/MOL
REMARK 923 INTER-LIGAND FREE ENERGY PREDICTED BY IDOCK:   -5.80 KCAL/MOL
REMARK 924 INTRA-LIGAND FREE ENERGY PREDICTED BY IDOCK:   -0.42 KCAL/MOL
REMARK 927      BINDING AFFINITY PREDICTED BY RF-SCORE:    0.00 PKD
ROOT
HETATM    1  C   UNL     1     -12.171  13.105  63.172  1.00  0.00    -0.196 C  
HETATM    2  N   UNL     1     -11.041  13.415  64.045  1.00  0.00    -0.324 NA 
HETATM    3  C   UNL     1     -11.486  13.897  65.368  1.00  0.00    -0.312 C  
HETATM    4  C   UNL     1     -12.132  12.831  66.281  1.00  0.00    -0.332 C  
HETATM    5  N   UNL     1     -11.297  11.625  66.399  1.00  0.00    -0.369 NA 
HETATM    6  C   UNL     1     -10.167  12.240  64.254  1.00  0.00    -0.330 C  
HETATM    7  C   UNL     1     -10.782  11.115  65.114  1.00  0.00    -0.210 C  
ENDROOT
BRANCH   5   8
HETATM    8  C   UNL     1     -10.809  11.111  67.597  1.00  0.00    -0.247 C  
HETATM    9  N   UNL     1     -11.547  10.357  68.359  1.00  0.00    -0.647 NA 
HETATM   10  C   UNL     1     -11.162   9.844  69.612  1.00  0.00    -0.208 A  
HETATM   11  H   UNL     1     -12.479  10.118  68.021  1.00  0.00     0.000 HD 
HETATM   12  C   UNL     1     -12.172   9.797  70.585  1.00  0.00    -0.283 A  
HETATM   13  C   UNL     1     -11.928   9.302  71.866  1.00  0.00    -0.433 A  
HETATM   14  C   UNL     1     -10.667   8.818  72.191  1.00  0.00    -0.383 A  
HETATM   15  C   UNL     1      -9.657   8.820  71.229  1.00  0.00    -0.323 A  
HETATM   16  C   UNL     1      -9.888   9.329  69.936  1.00  0.00    -0.199 A  
HETATM   17  N   UNL     1      -8.778   9.430  69.050  1.00  0.00    -0.132 NA 
HETATM   18  C   UNL     1      -8.536  10.660  68.529  1.00  0.00    -0.136 A  
HETATM   19  H   UNL     1      -8.198   8.624  68.819  1.00  0.00     0.000 HD 
HETATM   20  C   UNL     1      -9.443  11.516  67.935  1.00  0.00    -0.178 A  
HETATM   21  C   UNL     1      -8.854  12.818  67.753  1.00  0.00    -0.187 A  
HETATM   22  C   UNL     1      -7.519  12.860  68.092  1.00  0.00    -0.126 A  
HETATM   23  C   UNL     1      -6.581  14.014  68.052  1.00  0.00    -0.150 C  
HETATM   24  S   UNL     1      -6.967  11.337  68.626  1.00  0.00    -0.091 SA 
ENDBRANCH   5   8
TORSDOF 1
ENDMDL
MODEL       42
REMARK 921   NORMALIZED FREE ENERGY PREDICTED BY IDOCK:   -5.47 KCAL/MOL
REMARK 922        TOTAL FREE ENERGY PREDICTED BY IDOCK:   -6.20 KCAL/MOL
REMARK 923 INTER-LIGAND FREE ENERGY PREDICTED BY IDOCK:   -5.78 KCAL/MOL
REMARK 924 INTRA-LIGAND FREE ENERGY PREDICTED BY IDOCK:   -0.42 KCAL/MOL
REMARK 927      BINDING AFFINITY PREDICTED BY RF-SCORE:    0.00 PKD
ROOT
HETATM    1  C   UNL     1      -5.614   8.919  65.850  1.00  0.00    -0.045 C  
HETATM    2  N   UNL     1      -6.884   9.518  65.445  1.00  0.00    -0.083 NA 
HETATM    3  C   UNL     1      -8.026   8.624  65.722  1.00  0.00    -0.106 C  
HETATM    4  C   UNL     1      -8.381   8.442  67.214  1.00  0.00    -0.123 C  
HETATM    5  N   UNL     1      -8.524   9.730  67.910  1.00  0.00    -0.124 NA 
HETATM    6  C   UNL     1      -7.130  10.805  66.132  1.00  0.00    -0.122 C  
HETATM    7  C   UNL     1      -7.435  10.690  67.641  1.00  0.00    -0.091 C  
ENDROOT
BRANCH   5   8
HETATM    8  C   UNL     1      -9.671  10.150  68.577  1.00  0.00    -0.154 C  
HETATM    9  N   UNL     1      -9.982   9.678  69.749  1.00  0.00    -0.212 NA 
HETATM   10  C   UNL     1     -11.148   9.994  70.470  1.00  0.00    -0.331 A  
HETATM   11  H   UNL     1      -9.327   9.025  70.180  1.00  0.00     0.000 HD 
HETATM   12  C   UNL     1     -11.724   8.936  71.189  1.00  0.00    -0.356 A  
HETATM   13  C   UNL     1     -12.877   9.116  71.954  1.00  0.00    -0.466 A  
HETATM   14  C   UNL     1     -13.464  10.373  72.034  1.00  0.00    -0.360 A  
HETATM   15  C   UNL     1     -12.888  11.449  71.358  1.00  0.00    -0.502 A  
HETATM   16  C   UNL     1     -11.732  11.276  70.572  1.00  0.00    -0.247 A  
HETATM   17  N   UNL     1     -11.279  12.383  69.798  1.00  0.00    -0.488 NA 
HETATM   18  C   UNL     1     -11.141  12.166  68.465  1.00  0.00    -0.252 A  
HETATM   19  H   UNL     1     -11.070  13.286  70.221  1.00  0.00     0.000 HD 
HETATM   20  C   UNL     1     -10.497  11.112  67.845  1.00  0.00    -0.220 A  
HETATM   21  C   UNL     1     -10.797  11.105  66.436  1.00  0.00    -0.284 A  
HETATM   22  C   UNL     1     -11.535  12.197  66.034  1.00  0.00    -0.370 A  
HETATM   23  C   UNL     1     -12.041  12.532  64.676  1.00  0.00    -0.496 C  
HETATM   24  S   UNL     1     -11.867  13.237  67.344  1.00  0.00    -0.346 SA 
ENDBRANCH   5   8
TORSDOF 1
ENDMDL
MODEL       43
REMARK 921   NORMALIZED FREE ENERGY PREDICTED BY IDOCK:   -5.42 KCAL/MOL
REMARK 922        TOTAL FREE ENERGY PREDICTED BY IDOCK:   -6.15 KCAL/MOL
REMARK 923 INTER-LIGAND FREE ENERGY PREDICTED BY IDOCK:   -5.73 KCAL/MOL
REMARK 924 INTRA-LIGAND FREE ENERGY PREDICTED BY IDOCK:   -0.42 KCAL/MOL
REMARK 927      BINDING AFFINITY PREDICTED BY RF-SCORE:    0.00 PKD
ROOT
HETATM    1  C   UNL     1     -10.020   7.080  73.936  1.00  0.00    -0.332 C  
HETATM    2  N   UNL     1     -10.308   6.716  72.550  1.00  0.00    -0.191 NA 
HETATM    3  C   UNL     1     -11.552   7.345  72.065  1.00  0.00    -0.284 C  
HETATM    4  C   UNL     1     -11.482   8.872  71.839  1.00  0.00    -0.372 C  
HETATM    5  N   UNL     1     -10.327   9.256  71.013  1.00  0.00    -0.295 NA 
HETATM    6  C   UNL     1      -9.209   7.107  71.639  1.00  0.00    -0.144 C  
HETATM    7  C   UNL     1      -9.055   8.626  71.419  1.00  0.00    -0.229 C  
ENDROOT
BRANCH   5   8
HETATM    8  C   UNL     1     -10.406   9.950  69.809  1.00  0.00    -0.246 C  
HETATM    9  N   UNL     1     -10.649  11.228  69.782  1.00  0.00    -0.441 NA 
HETATM   10  C   UNL     1     -10.808  12.000  68.616  1.00  0.00    -0.237 A  
HETATM   11  H   UNL     1     -10.731  11.709  70.678  1.00  0.00     0.000 HD 
HETATM   12  C   UNL     1     -11.784  13.007  68.683  1.00  0.00    -0.359 A  
HETATM   13  C   UNL     1     -12.036  13.850  67.600  1.00  0.00    -0.403 A  
HETATM   14  C   UNL     1     -11.294  13.718  66.433  1.00  0.00    -0.327 A  
HETATM   15  C   UNL     1     -10.294  12.749  66.356  1.00  0.00    -0.271 A  
HETATM   16  C   UNL     1     -10.039  11.882  67.438  1.00  0.00    -0.196 A  
HETATM   17  N   UNL     1      -9.102  10.828  67.242  1.00  0.00    -0.144 NA 
HETATM   18  C   UNL     1      -9.552   9.571  67.493  1.00  0.00    -0.144 A  
HETATM   19  H   UNL     1      -8.147  11.006  66.932  1.00  0.00     0.000 HD 
HETATM   20  C   UNL     1     -10.238   9.130  68.608  1.00  0.00    -0.225 A  
HETATM   21  C   UNL     1     -10.763   7.808  68.378  1.00  0.00    -0.088 A  
HETATM   22  C   UNL     1     -10.358   7.267  67.178  1.00  0.00    -0.297 A  
HETATM   23  C   UNL     1     -10.698   5.943  66.590  1.00  0.00    -0.323 C  
HETATM   24  S   UNL     1      -9.343   8.338  66.324  1.00  0.00    -0.187 SA 
ENDBRANCH   5   8
TORSDOF 1
ENDMDL
MODEL       44
REMARK 921   NORMALIZED FREE ENERGY PREDICTED BY IDOCK:   -5.41 KCAL/MOL
REMARK 922        TOTAL FREE ENERGY PREDICTED BY IDOCK:   -6.13 KCAL/MOL
REMARK 923 INTER-LIGAND FREE ENERGY PREDICTED BY IDOCK:   -5.79 KCAL/MOL
REMARK 924 INTRA-LIGAND FREE ENERGY PREDICTED BY IDOCK:   -0.34 KCAL/MOL
REMARK 927      BINDING AFFINITY PREDICTED BY RF-SCORE:    0.00 PKD
ROOT
HETATM    1  C   UNL     1     -10.179   8.704  66.723  1.00  0.00    -0.291 C  
HETATM    2  N   UNL     1      -9.461   9.890  66.260  1.00  0.00    -0.180 NA 
HETATM    3  C   UNL     1     -10.377  10.900  65.694  1.00  0.00    -0.242 C  
HETATM    4  C   UNL     1     -11.283  11.624  66.715  1.00  0.00    -0.308 C  
HETATM    5  N   UNL     1     -10.515  12.167  67.846  1.00  0.00    -0.203 NA 
HETATM    6  C   UNL     1      -8.692  10.528  67.352  1.00  0.00    -0.125 C  
HETATM    7  C   UNL     1      -9.547  11.221  68.433  1.00  0.00    -0.195 C  
ENDROOT
BRANCH   5   8
HETATM    8  C   UNL     1     -10.489  13.509  68.217  1.00  0.00    -0.253 C  
HETATM    9  N   UNL     1      -9.641  14.340  67.685  1.00  0.00    -0.215 NA 
HETATM   10  C   UNL     1      -9.499  15.694  68.039  1.00  0.00    -0.194 A  
HETATM   11  H   UNL     1      -9.030  13.981  66.951  1.00  0.00     0.000 HD 
HETATM   12  C   UNL     1      -8.185  16.187  68.042  1.00  0.00    -0.152 A  
HETATM   13  C   UNL     1      -7.905  17.515  68.366  1.00  0.00    -0.263 A  
HETATM   14  C   UNL     1      -8.944  18.386  68.669  1.00  0.00    -0.308 A  
HETATM   15  C   UNL     1     -10.261  17.930  68.636  1.00  0.00    -0.387 A  
HETATM   16  C   UNL     1     -10.556  16.588  68.324  1.00  0.00    -0.326 A  
HETATM   17  N   UNL     1     -11.907  16.155  68.445  1.00  0.00    -0.252 NA 
HETATM   18  C   UNL     1     -12.125  15.086  69.254  1.00  0.00    -0.247 A  
HETATM   19  H   UNL     1     -12.668  16.620  67.952  1.00  0.00     0.000 HD 
HETATM   20  C   UNL     1     -11.446  13.883  69.260  1.00  0.00    -0.348 A  
HETATM   21  C   UNL     1     -11.797  13.119  70.431  1.00  0.00    -0.259 A  
HETATM   22  C   UNL     1     -12.795  13.705  71.179  1.00  0.00    -0.323 A  
HETATM   23  C   UNL     1     -13.411  13.229  72.447  1.00  0.00    -0.670 C  
HETATM   24  S   UNL     1     -13.317  15.169  70.479  1.00  0.00    -0.048 SA 
ENDBRANCH   5   8
TORSDOF 1
ENDMDL
MODEL       45
REMARK 921   NORMALIZED FREE ENERGY PREDICTED BY IDOCK:   -5.38 KCAL/MOL
REMARK 922        TOTAL FREE ENERGY PREDICTED BY IDOCK:   -6.10 KCAL/MOL
REMARK 923 INTER-LIGAND FREE ENERGY PREDICTED BY IDOCK:   -6.22 KCAL/MOL
REMARK 924 INTRA-LIGAND FREE ENERGY PREDICTED BY IDOCK:    0.11 KCAL/MOL
REMARK 927      BINDING AFFINITY PREDICTED BY RF-SCORE:    0.00 PKD
ROOT
HETATM    1  C   UNL     1     -12.903   7.759  71.608  1.00  0.00    -0.340 C  
HETATM    2  N   UNL     1     -12.340   8.978  72.186  1.00  0.00    -0.377 NA 
HETATM    3  C   UNL     1     -10.996   9.269  71.649  1.00  0.00    -0.363 C  
HETATM    4  C   UNL     1     -10.954   9.732  70.175  1.00  0.00    -0.291 C  
HETATM    5  N   UNL     1     -11.889  10.839  69.918  1.00  0.00    -0.306 NA 
HETATM    6  C   UNL     1     -13.200  10.155  71.935  1.00  0.00    -0.452 C  
HETATM    7  C   UNL     1     -13.242  10.631  70.468  1.00  0.00     0.025 C  
ENDROOT
BRANCH   5   8
HETATM    8  C   UNL     1     -11.524  12.087  69.420  1.00  0.00    -0.296 C  
HETATM    9  N   UNL     1     -10.725  12.200  68.400  1.00  0.00    -0.220 NA 
HETATM   10  C   UNL     1     -10.253  13.414  67.868  1.00  0.00    -0.241 A  
HETATM   11  H   UNL     1     -10.414  11.339  67.950  1.00  0.00     0.000 HD 
HETATM   12  C   UNL     1      -8.925  13.405  67.417  1.00  0.00    -0.215 A  
HETATM   13  C   UNL     1      -8.336  14.540  66.858  1.00  0.00    -0.133 A  
HETATM   14  C   UNL     1      -9.080  15.705  66.716  1.00  0.00    -0.281 A  
HETATM   15  C   UNL     1     -10.414  15.728  67.122  1.00  0.00    -0.309 A  
HETATM   16  C   UNL     1     -11.015  14.592  67.700  1.00  0.00    -0.293 A  
HETATM   17  N   UNL     1     -12.334  14.726  68.220  1.00  0.00    -0.586 NA 
HETATM   18  C   UNL     1     -12.504  14.383  69.522  1.00  0.00    -0.125 A  
HETATM   19  H   UNL     1     -13.107  15.061  67.646  1.00  0.00     0.000 HD 
HETATM   20  C   UNL     1     -12.073  13.230  70.152  1.00  0.00    -0.403 A  
HETATM   21  C   UNL     1     -12.215  13.361  71.580  1.00  0.00     0.033 A  
HETATM   22  C   UNL     1     -12.847  14.526  71.956  1.00  0.00    -0.337 A  
HETATM   23  C   UNL     1     -13.162  15.016  73.325  1.00  0.00    -0.537 C  
HETATM   24  S   UNL     1     -13.276  15.465  70.600  1.00  0.00    -0.173 SA 
ENDBRANCH   5   8
TORSDOF 1
ENDMDL
MODEL       46
REMARK 921   NORMALIZED FREE ENERGY PREDICTED BY IDOCK:   -5.37 KCAL/MOL
REMARK 922        TOTAL FREE ENERGY PREDICTED BY IDOCK:   -6.09 KCAL/MOL
REMARK 923 INTER-LIGAND FREE ENERGY PREDICTED BY IDOCK:   -5.69 KCAL/MOL
REMARK 924 INTRA-LIGAND FREE ENERGY PREDICTED BY IDOCK:   -0.40 KCAL/MOL
REMARK 927      BINDING AFFINITY PREDICTED BY RF-SCORE:    0.00 PKD
ROOT
HETATM    1  C   UNL     1      -6.007   6.571  66.807  1.00  0.00    -0.025 C  
HETATM    2  N   UNL     1      -6.633   6.281  68.095  1.00  0.00    -0.063 NA 
HETATM    3  C   UNL     1      -6.613   7.454  68.991  1.00  0.00    -0.044 C  
HETATM    4  C   UNL     1      -7.553   8.613  68.591  1.00  0.00    -0.097 C  
HETATM    5  N   UNL     1      -8.927   8.149  68.342  1.00  0.00    -0.137 NA 
HETATM    6  C   UNL     1      -8.039   5.846  67.939  1.00  0.00    -0.105 C  
HETATM    7  C   UNL     1      -9.016   6.950  67.486  1.00  0.00    -0.116 C  
ENDROOT
BRANCH   5   8
HETATM    8  C   UNL     1     -10.055   8.610  69.013  1.00  0.00    -0.199 C  
HETATM    9  N   UNL     1     -10.566   7.947  70.010  1.00  0.00    -0.239 NA 
HETATM   10  C   UNL     1     -11.736   8.300  70.707  1.00  0.00    -0.202 A  
HETATM   11  H   UNL     1     -10.079   7.102  70.309  1.00  0.00     0.000 HD 
HETATM   12  C   UNL     1     -12.553   7.231  71.103  1.00  0.00    -0.362 A  
HETATM   13  C   UNL     1     -13.738   7.442  71.810  1.00  0.00    -0.417 A  
HETATM   14  C   UNL     1     -14.114   8.733  72.159  1.00  0.00    -0.519 A  
HETATM   15  C   UNL     1     -13.299   9.809  71.809  1.00  0.00    -0.506 A  
HETATM   16  C   UNL     1     -12.108   9.610  71.083  1.00  0.00    -0.362 A  
HETATM   17  N   UNL     1     -11.397  10.761  70.638  1.00  0.00    -0.421 NA 
HETATM   18  C   UNL     1     -11.151  10.836  69.305  1.00  0.00    -0.256 A  
HETATM   19  H   UNL     1     -11.089  11.487  71.284  1.00  0.00     0.000 HD 
HETATM   20  C   UNL     1     -10.626   9.852  68.489  1.00  0.00    -0.248 A  
HETATM   21  C   UNL     1     -10.766  10.226  67.105  1.00  0.00    -0.303 A  
HETATM   22  C   UNL     1     -11.265  11.500  66.937  1.00  0.00    -0.298 A  
HETATM   23  C   UNL     1     -11.557  12.228  65.673  1.00  0.00    -0.433 C  
HETATM   24  S   UNL     1     -11.562  12.253  68.437  1.00  0.00    -0.343 SA 
ENDBRANCH   5   8
TORSDOF 1
ENDMDL
MODEL       47
REMARK 921   NORMALIZED FREE ENERGY PREDICTED BY IDOCK:   -5.35 KCAL/MOL
REMARK 922        TOTAL FREE ENERGY PREDICTED BY IDOCK:   -6.07 KCAL/MOL
REMARK 923 INTER-LIGAND FREE ENERGY PREDICTED BY IDOCK:   -5.93 KCAL/MOL
REMARK 924 INTRA-LIGAND FREE ENERGY PREDICTED BY IDOCK:   -0.14 KCAL/MOL
REMARK 927      BINDING AFFINITY PREDICTED BY RF-SCORE:    0.00 PKD
ROOT
HETATM    1  C   UNL     1      -8.146   8.376  63.116  1.00  0.00    -0.159 C  
HETATM    2  N   UNL     1      -7.923   9.819  63.047  1.00  0.00    -0.131 NA 
HETATM    3  C   UNL     1      -9.187  10.562  62.875  1.00  0.00    -0.304 C  
HETATM    4  C   UNL     1     -10.120  10.582  64.106  1.00  0.00    -0.281 C  
HETATM    5  N   UNL     1      -9.414  10.997  65.328  1.00  0.00    -0.215 NA 
HETATM    6  C   UNL     1      -7.251  10.330  64.263  1.00  0.00    -0.063 C  
HETATM    7  C   UNL     1      -8.118  10.322  65.539  1.00  0.00    -0.156 C  
ENDROOT
BRANCH   5   8
HETATM    8  C   UNL     1      -9.767  12.086  66.119  1.00  0.00    -0.238 C  
HETATM    9  N   UNL     1      -9.597  13.307  65.703  1.00  0.00    -0.490 NA 
HETATM   10  C   UNL     1      -9.865  14.467  66.453  1.00  0.00    -0.295 A  
HETATM   11  H   UNL     1      -9.238  13.434  64.756  1.00  0.00     0.000 HD 
HETATM   12  C   UNL     1      -8.963  15.527  66.277  1.00  0.00    -0.362 A  
HETATM   13  C   UNL     1      -9.119  16.737  66.954  1.00  0.00    -0.248 A  
HETATM   14  C   UNL     1     -10.203  16.919  67.804  1.00  0.00    -0.308 A  
HETATM   15  C   UNL     1     -11.134  15.893  67.966  1.00  0.00    -0.334 A  
HETATM   16  C   UNL     1     -10.980  14.662  67.299  1.00  0.00    -0.317 A  
HETATM   17  N   UNL     1     -11.887  13.612  67.617  1.00  0.00    -0.361 NA 
HETATM   18  C   UNL     1     -11.332  12.444  68.033  1.00  0.00    -0.287 A  
HETATM   19  H   UNL     1     -12.897  13.729  67.536  1.00  0.00     0.000 HD 
HETATM   20  C   UNL     1     -10.297  11.747  67.442  1.00  0.00    -0.228 A  
HETATM   21  C   UNL     1      -9.828  10.708  68.324  1.00  0.00    -0.174 A  
HETATM   22  C   UNL     1     -10.590  10.584  69.465  1.00  0.00    -0.246 A  
HETATM   23  C   UNL     1     -10.417   9.643  70.604  1.00  0.00    -0.379 C  
HETATM   24  S   UNL     1     -11.872  11.708  69.481  1.00  0.00    -0.350 SA 
ENDBRANCH   5   8
TORSDOF 1
ENDMDL
MODEL       48
REMARK 921   NORMALIZED FREE ENERGY PREDICTED BY IDOCK:   -5.31 KCAL/MOL
REMARK 922        TOTAL FREE ENERGY PREDICTED BY IDOCK:   -6.02 KCAL/MOL
REMARK 923 INTER-LIGAND FREE ENERGY PREDICTED BY IDOCK:   -5.60 KCAL/MOL
REMARK 924 INTRA-LIGAND FREE ENERGY PREDICTED BY IDOCK:   -0.43 KCAL/MOL
REMARK 927      BINDING AFFINITY PREDICTED BY RF-SCORE:    0.00 PKD
ROOT
HETATM    1  C   UNL     1      -9.921  13.613  66.397  1.00  0.00    -0.296 C  
HETATM    2  N   UNL     1      -9.472  12.246  66.141  1.00  0.00    -0.237 NA 
HETATM    3  C   UNL     1      -8.493  11.792  67.149  1.00  0.00    -0.170 C  
HETATM    4  C   UNL     1      -9.063  11.534  68.562  1.00  0.00    -0.157 C  
HETATM    5  N   UNL     1     -10.246  10.660  68.528  1.00  0.00    -0.167 NA 
HETATM    6  C   UNL     1     -10.601  11.288  66.133  1.00  0.00    -0.258 C  
HETATM    7  C   UNL     1     -11.248  11.033  67.510  1.00  0.00    -0.302 C  
ENDROOT
BRANCH   5   8
HETATM    8  C   UNL     1     -10.357   9.446  69.201  1.00  0.00    -0.211 C  
HETATM    9  N   UNL     1     -10.596   9.402  70.479  1.00  0.00    -0.248 NA 
HETATM   10  C   UNL     1     -10.663   8.228  71.253  1.00  0.00    -0.227 A  
HETATM   11  H   UNL     1     -10.748  10.289  70.959  1.00  0.00     0.000 HD 
HETATM   12  C   UNL     1     -10.129   8.323  72.547  1.00  0.00    -0.376 A  
HETATM   13  C   UNL     1     -10.140   7.236  73.422  1.00  0.00    -0.367 A  
HETATM   14  C   UNL     1     -10.713   6.035  73.024  1.00  0.00    -0.279 A  
HETATM   15  C   UNL     1     -11.285   5.928  71.756  1.00  0.00    -0.311 A  
HETATM   16  C   UNL     1     -11.267   7.014  70.859  1.00  0.00    -0.282 A  
HETATM   17  N   UNL     1     -11.741   6.794  69.534  1.00  0.00    -0.637 NA 
HETATM   18  C   UNL     1     -10.878   7.097  68.530  1.00  0.00    -0.095 A  
HETATM   19  H   UNL     1     -12.675   6.429  69.350  1.00  0.00     0.000 HD 
HETATM   20  C   UNL     1     -10.144   8.257  68.373  1.00  0.00    -0.227 A  
HETATM   21  C   UNL     1      -9.160   8.086  67.335  1.00  0.00    -0.147 A  
HETATM   22  C   UNL     1      -9.269   6.879  66.680  1.00  0.00    -0.157 A  
HETATM   23  C   UNL     1      -8.436   6.341  65.571  1.00  0.00    -0.145 C  
HETATM   24  S   UNL     1     -10.554   5.948  67.304  1.00  0.00    -0.303 SA 
ENDBRANCH   5   8
TORSDOF 1
ENDMDL
MODEL       49
REMARK 921   NORMALIZED FREE ENERGY PREDICTED BY IDOCK:   -5.29 KCAL/MOL
REMARK 922        TOTAL FREE ENERGY PREDICTED BY IDOCK:   -6.00 KCAL/MOL
REMARK 923 INTER-LIGAND FREE ENERGY PREDICTED BY IDOCK:   -5.65 KCAL/MOL
REMARK 924 INTRA-LIGAND FREE ENERGY PREDICTED BY IDOCK:   -0.35 KCAL/MOL
REMARK 927      BINDING AFFINITY PREDICTED BY RF-SCORE:    0.00 PKD
ROOT
HETATM    1  C   UNL     1     -10.552  17.696  66.714  1.00  0.00    -0.224 C  
HETATM    2  N   UNL     1      -9.843  16.868  65.740  1.00  0.00    -0.554 NA 
HETATM    3  C   UNL     1      -8.651  16.226  66.330  1.00  0.00    -0.339 C  
HETATM    4  C   UNL     1      -8.937  15.101  67.350  1.00  0.00    -0.183 C  
HETATM    5  N   UNL     1      -9.880  14.103  66.822  1.00  0.00    -0.264 NA 
HETATM    6  C   UNL     1     -10.710  15.805  65.186  1.00  0.00    -0.435 C  
HETATM    7  C   UNL     1     -11.076  14.680  66.178  1.00  0.00    -0.334 C  
ENDROOT
BRANCH   5   8
HETATM    8  C   UNL     1      -9.611  12.743  66.697  1.00  0.00    -0.255 C  
HETATM    9  N   UNL     1      -9.052  12.260  65.626  1.00  0.00    -0.423 NA 
HETATM   10  C   UNL     1      -8.799  10.898  65.385  1.00  0.00    -0.180 A  
HETATM   11  H   UNL     1      -8.776  12.924  64.901  1.00  0.00     0.000 HD 
HETATM   12  C   UNL     1      -8.984  10.470  64.061  1.00  0.00    -0.235 A  
HETATM   13  C   UNL     1      -8.757   9.145  63.685  1.00  0.00    -0.148 A  
HETATM   14  C   UNL     1      -8.314   8.225  64.626  1.00  0.00    -0.115 A  
HETATM   15  C   UNL     1      -8.087   8.635  65.940  1.00  0.00    -0.111 A  
HETATM   16  C   UNL     1      -8.325   9.967  66.336  1.00  0.00    -0.125 A  
HETATM   17  N   UNL     1      -8.207  10.284  67.719  1.00  0.00    -0.110 NA 
HETATM   18  C   UNL     1      -9.295  10.852  68.299  1.00  0.00    -0.168 A  
HETATM   19  H   UNL     1      -7.354  10.095  68.244  1.00  0.00     0.000 HD 
HETATM   20  C   UNL     1     -10.037  11.920  67.831  1.00  0.00    -0.199 A  
HETATM   21  C   UNL     1     -11.255  12.051  68.589  1.00  0.00    -0.309 A  
HETATM   22  C   UNL     1     -11.326  11.177  69.652  1.00  0.00    -0.294 A  
HETATM   23  C   UNL     1     -12.419  11.005  70.647  1.00  0.00    -0.465 C  
HETATM   24  S   UNL     1      -9.932  10.201  69.748  1.00  0.00    -0.183 SA 
ENDBRANCH   5   8
TORSDOF 1
ENDMDL
MODEL       50
REMARK 921   NORMALIZED FREE ENERGY PREDICTED BY IDOCK:   -5.26 KCAL/MOL
REMARK 922        TOTAL FREE ENERGY PREDICTED BY IDOCK:   -5.97 KCAL/MOL
REMARK 923 INTER-LIGAND FREE ENERGY PREDICTED BY IDOCK:   -5.56 KCAL/MOL
REMARK 924 INTRA-LIGAND FREE ENERGY PREDICTED BY IDOCK:   -0.41 KCAL/MOL
REMARK 927      BINDING AFFINITY PREDICTED BY RF-SCORE:    0.00 PKD
ROOT
HETATM    1  C   UNL     1      -8.838  16.899  66.124  1.00  0.00    -0.244 C  
HETATM    2  N   UNL     1     -10.147  16.495  66.635  1.00  0.00    -0.283 NA 
HETATM    3  C   UNL     1     -10.629  15.257  65.991  1.00  0.00    -0.319 C  
HETATM    4  C   UNL     1      -9.877  13.966  66.383  1.00  0.00    -0.295 C  
HETATM    5  N   UNL     1      -9.773  13.809  67.842  1.00  0.00    -0.222 NA 
HETATM    6  C   UNL     1     -10.123  16.272  68.098  1.00  0.00    -0.244 C  
HETATM    7  C   UNL     1      -9.337  15.025  68.554  1.00  0.00    -0.196 C  
ENDROOT
BRANCH   5   8
HETATM    8  C   UNL     1     -10.256  12.718  68.560  1.00  0.00    -0.200 C  
HETATM    9  N   UNL     1     -11.375  12.787  69.221  1.00  0.00    -0.364 NA 
HETATM   10  C   UNL     1     -11.909  11.761  70.023  1.00  0.00    -0.342 A  
HETATM   11  H   UNL     1     -11.907  13.655  69.154  1.00  0.00     0.000 HD 
HETATM   12  C   UNL     1     -12.548  12.180  71.200  1.00  0.00    -0.360 A  
HETATM   13  C   UNL     1     -13.130  11.266  72.079  1.00  0.00    -0.431 A  
HETATM   14  C   UNL     1     -13.105   9.909  71.781  1.00  0.00    -0.553 A  
HETATM   15  C   UNL     1     -12.510   9.472  70.598  1.00  0.00    -0.105 A  
HETATM   16  C   UNL     1     -11.907  10.384  69.709  1.00  0.00    -0.207 A  
HETATM   17  N   UNL     1     -11.196   9.858  68.593  1.00  0.00    -0.472 NA 
HETATM   18  C   UNL     1      -9.901  10.247  68.469  1.00  0.00    -0.164 A  
HETATM   19  H   UNL     1     -11.634   9.226  67.924  1.00  0.00     0.000 HD 
HETATM   20  C   UNL     1      -9.398  11.532  68.539  1.00  0.00    -0.171 A  
HETATM   21  C   UNL     1      -7.960  11.500  68.622  1.00  0.00    -0.135 A  
HETATM   22  C   UNL     1      -7.439  10.231  68.489  1.00  0.00    -0.084 A  
HETATM   23  C   UNL     1      -6.016   9.798  68.531  1.00  0.00    -0.042 C  
HETATM   24  S   UNL     1      -8.671   9.075  68.260  1.00  0.00    -0.130 SA 
ENDBRANCH   5   8
TORSDOF 1
ENDMDL
MODEL       51
REMARK 921   NORMALIZED FREE ENERGY PREDICTED BY IDOCK:   -5.24 KCAL/MOL
REMARK 922        TOTAL FREE ENERGY PREDICTED BY IDOCK:   -5.95 KCAL/MOL
REMARK 923 INTER-LIGAND FREE ENERGY PREDICTED BY IDOCK:   -5.53 KCAL/MOL
REMARK 924 INTRA-LIGAND FREE ENERGY PREDICTED BY IDOCK:   -0.43 KCAL/MOL
REMARK 927      BINDING AFFINITY PREDICTED BY RF-SCORE:    0.00 PKD
ROOT
HETATM    1  C   UNL     1     -10.155  19.612  66.313  1.00  0.00    -0.480 C  
HETATM    2  N   UNL     1      -9.122  18.913  67.075  1.00  0.00    -0.287 NA 
HETATM    3  C   UNL     1      -9.607  18.501  68.407  1.00  0.00    -0.354 C  
HETATM    4  C   UNL     1     -10.641  17.353  68.413  1.00  0.00    -0.355 C  
HETATM    5  N   UNL     1     -10.188  16.198  67.623  1.00  0.00    -0.259 NA 
HETATM    6  C   UNL     1      -8.637  17.707  66.369  1.00  0.00    -0.238 C  
HETATM    7  C   UNL     1      -9.650  16.545  66.293  1.00  0.00    -0.306 C  
ENDROOT
BRANCH   5   8
HETATM    8  C   UNL     1     -10.035  14.907  68.119  1.00  0.00    -0.222 C  
HETATM    9  N   UNL     1     -11.055  14.109  68.255  1.00  0.00    -0.245 NA 
HETATM   10  C   UNL     1     -11.008  12.815  68.803  1.00  0.00    -0.250 A  
HETATM   11  H   UNL     1     -11.963  14.451  67.938  1.00  0.00     0.000 HD 
HETATM   12  C   UNL     1     -12.109  12.448  69.592  1.00  0.00    -0.271 A  
HETATM   13  C   UNL     1     -12.192  11.189  70.187  1.00  0.00    -0.417 A  
HETATM   14  C   UNL     1     -11.181  10.259  69.982  1.00  0.00    -0.376 A  
HETATM   15  C   UNL     1     -10.095  10.587  69.171  1.00  0.00    -0.240 A  
HETATM   16  C   UNL     1      -9.992  11.859  68.575  1.00  0.00    -0.192 A  
HETATM   17  N   UNL     1      -8.793  12.175  67.877  1.00  0.00    -0.169 NA 
HETATM   18  C   UNL     1      -8.137  13.292  68.285  1.00  0.00    -0.156 A  
HETATM   19  H   UNL     1      -8.446  11.596  67.113  1.00  0.00     0.000 HD 
HETATM   20  C   UNL     1      -8.669  14.548  68.504  1.00  0.00    -0.177 A  
HETATM   21  C   UNL     1      -7.709  15.385  69.177  1.00  0.00    -0.207 A  
HETATM   22  C   UNL     1      -6.477  14.784  69.324  1.00  0.00    -0.121 A  
HETATM   23  C   UNL     1      -5.249  15.321  69.969  1.00  0.00    -0.107 C  
HETATM   24  S   UNL     1      -6.466  13.217  68.652  1.00  0.00    -0.096 SA 
ENDBRANCH   5   8
TORSDOF 1
ENDMDL
MODEL       52
REMARK 921   NORMALIZED FREE ENERGY PREDICTED BY IDOCK:   -5.23 KCAL/MOL
REMARK 922        TOTAL FREE ENERGY PREDICTED BY IDOCK:   -5.94 KCAL/MOL
REMARK 923 INTER-LIGAND FREE ENERGY PREDICTED BY IDOCK:   -5.64 KCAL/MOL
REMARK 924 INTRA-LIGAND FREE ENERGY PREDICTED BY IDOCK:   -0.30 KCAL/MOL
REMARK 927      BINDING AFFINITY PREDICTED BY RF-SCORE:    0.00 PKD
ROOT
HETATM    1  C   UNL     1     -10.912  14.939  66.459  1.00  0.00    -0.327 C  
HETATM    2  N   UNL     1     -11.914  14.112  67.128  1.00  0.00    -0.421 NA 
HETATM    3  C   UNL     1     -12.151  12.846  66.407  1.00  0.00    -0.329 C  
HETATM    4  C   UNL     1     -10.998  11.819  66.469  1.00  0.00    -0.295 C  
HETATM    5  N   UNL     1     -10.548  11.577  67.849  1.00  0.00    -0.184 NA 
HETATM    6  C   UNL     1     -11.519  13.784  68.516  1.00  0.00    -0.307 C  
HETATM    7  C   UNL     1     -10.334  12.804  68.642  1.00  0.00    -0.179 C  
ENDROOT
BRANCH   5   8
HETATM    8  C   UNL     1     -10.539  10.334  68.476  1.00  0.00    -0.213 C  
HETATM    9  N   UNL     1     -11.107  10.157  69.633  1.00  0.00    -0.249 NA 
HETATM   10  C   UNL     1     -11.097   8.957  70.369  1.00  0.00    -0.239 A  
HETATM   11  H   UNL     1     -11.601  10.952  70.039  1.00  0.00     0.000 HD 
HETATM   12  C   UNL     1     -10.985   9.099  71.760  1.00  0.00    -0.429 A  
HETATM   13  C   UNL     1     -10.972   7.990  72.607  1.00  0.00    -0.448 A  
HETATM   14  C   UNL     1     -11.098   6.713  72.076  1.00  0.00    -0.289 A  
HETATM   15  C   UNL     1     -11.247   6.549  70.699  1.00  0.00    -0.386 A  
HETATM   16  C   UNL     1     -11.248   7.660  69.832  1.00  0.00    -0.085 A  
HETATM   17  N   UNL     1     -11.264   7.413  68.430  1.00  0.00    -0.371 NA 
HETATM   18  C   UNL     1     -10.258   7.973  67.710  1.00  0.00    -0.222 A  
HETATM   19  H   UNL     1     -11.990   6.847  67.990  1.00  0.00     0.000 HD 
HETATM   20  C   UNL     1      -9.818   9.282  67.756  1.00  0.00    -0.210 A  
HETATM   21  C   UNL     1      -8.573   9.414  67.044  1.00  0.00    -0.131 A  
HETATM   22  C   UNL     1      -8.194   8.257  66.399  1.00  0.00    -0.107 A  
HETATM   23  C   UNL     1      -6.978   8.001  65.580  1.00  0.00    -0.059 C  
HETATM   24  S   UNL     1      -9.331   7.011  66.640  1.00  0.00    -0.160 SA 
ENDBRANCH   5   8
TORSDOF 1
ENDMDL
MODEL       53
REMARK 921   NORMALIZED FREE ENERGY PREDICTED BY IDOCK:   -5.22 KCAL/MOL
REMARK 922        TOTAL FREE ENERGY PREDICTED BY IDOCK:   -5.93 KCAL/MOL
REMARK 923 INTER-LIGAND FREE ENERGY PREDICTED BY IDOCK:   -5.52 KCAL/MOL
REMARK 924 INTRA-LIGAND FREE ENERGY PREDICTED BY IDOCK:   -0.41 KCAL/MOL
REMARK 927      BINDING AFFINITY PREDICTED BY RF-SCORE:    0.00 PKD
ROOT
HETATM    1  C   UNL     1      -8.772   3.707  66.425  1.00  0.00    -0.121 C  
HETATM    2  N   UNL     1      -9.375   4.777  65.633  1.00  0.00    -0.157 NA 
HETATM    3  C   UNL     1     -10.701   5.166  66.155  1.00  0.00    -0.185 C  
HETATM    4  C   UNL     1     -10.690   5.922  67.502  1.00  0.00    -0.276 C  
HETATM    5  N   UNL     1      -9.761   7.063  67.488  1.00  0.00    -0.132 NA 
HETATM    6  C   UNL     1      -8.522   5.986  65.600  1.00  0.00    -0.151 C  
HETATM    7  C   UNL     1      -8.428   6.753  66.936  1.00  0.00    -0.115 C  
ENDROOT
BRANCH   5   8
HETATM    8  C   UNL     1     -10.123   8.385  67.733  1.00  0.00    -0.207 C  
HETATM    9  N   UNL     1     -10.264   9.238  66.760  1.00  0.00    -0.255 NA 
HETATM   10  C   UNL     1     -10.565  10.604  66.914  1.00  0.00    -0.254 A  
HETATM   11  H   UNL     1     -10.146   8.888  65.809  1.00  0.00     0.000 HD 
HETATM   12  C   UNL     1      -9.923  11.472  66.019  1.00  0.00    -0.258 A  
HETATM   13  C   UNL     1     -10.141  12.850  66.056  1.00  0.00    -0.290 A  
HETATM   14  C   UNL     1     -11.030  13.384  66.980  1.00  0.00    -0.298 A  
HETATM   15  C   UNL     1     -11.709  12.537  67.856  1.00  0.00    -0.416 A  
HETATM   16  C   UNL     1     -11.487  11.146  67.837  1.00  0.00    -0.284 A  
HETATM   17  N   UNL     1     -12.105  10.357  68.849  1.00  0.00    -0.716 NA 
HETATM   18  C   UNL     1     -11.276   9.583  69.596  1.00  0.00    -0.108 A  
HETATM   19  H   UNL     1     -13.112  10.371  69.003  1.00  0.00     0.000 HD 
HETATM   20  C   UNL     1     -10.286   8.731  69.146  1.00  0.00    -0.215 A  
HETATM   21  C   UNL     1      -9.463   8.299  70.246  1.00  0.00    -0.164 A  
HETATM   22  C   UNL     1      -9.926   8.730  71.471  1.00  0.00    -0.300 A  
HETATM   23  C   UNL     1      -9.348   8.498  72.821  1.00  0.00    -0.239 C  
HETATM   24  S   UNL     1     -11.352   9.650  71.305  1.00  0.00    -0.378 SA 
ENDBRANCH   5   8
TORSDOF 1
ENDMDL
MODEL       54
REMARK 921   NORMALIZED FREE ENERGY PREDICTED BY IDOCK:   -5.19 KCAL/MOL
REMARK 922        TOTAL FREE ENERGY PREDICTED BY IDOCK:   -5.90 KCAL/MOL
REMARK 923 INTER-LIGAND FREE ENERGY PREDICTED BY IDOCK:   -5.52 KCAL/MOL
REMARK 924 INTRA-LIGAND FREE ENERGY PREDICTED BY IDOCK:   -0.38 KCAL/MOL
REMARK 927      BINDING AFFINITY PREDICTED BY RF-SCORE:    0.00 PKD
ROOT
HETATM    1  C   UNL     1     -10.278  14.732  66.317  1.00  0.00    -0.298 C  
HETATM    2  N   UNL     1     -11.113  14.076  67.321  1.00  0.00    -0.295 NA 
HETATM    3  C   UNL     1     -11.916  12.983  66.738  1.00  0.00    -0.369 C  
HETATM    4  C   UNL     1     -11.122  11.726  66.315  1.00  0.00    -0.311 C  
HETATM    5  N   UNL     1     -10.248  11.237  67.393  1.00  0.00    -0.184 NA 
HETATM    6  C   UNL     1     -10.306  13.514  68.427  1.00  0.00    -0.248 C  
HETATM    7  C   UNL     1      -9.447  12.288  68.050  1.00  0.00    -0.206 C  
ENDROOT
BRANCH   5   8
HETATM    8  C   UNL     1     -10.305   9.960  67.944  1.00  0.00    -0.212 C  
HETATM    9  N   UNL     1      -9.905   8.917  67.276  1.00  0.00    -0.183 NA 
HETATM   10  C   UNL     1      -9.982   7.586  67.724  1.00  0.00    -0.171 A  
HETATM   11  H   UNL     1      -9.504   9.078  66.351  1.00  0.00     0.000 HD 
HETATM   12  C   UNL     1     -10.299   6.632  66.745  1.00  0.00    -0.280 A  
HETATM   13  C   UNL     1     -10.397   5.275  67.054  1.00  0.00    -0.286 A  
HETATM   14  C   UNL     1     -10.152   4.842  68.351  1.00  0.00    -0.111 A  
HETATM   15  C   UNL     1      -9.798   5.767  69.334  1.00  0.00    -0.219 A  
HETATM   16  C   UNL     1      -9.709   7.141  69.037  1.00  0.00    -0.150 A  
HETATM   17  N   UNL     1      -9.481   8.044  70.115  1.00  0.00    -0.160 NA 
HETATM   18  C   UNL     1     -10.390   9.041  70.265  1.00  0.00    -0.209 A  
HETATM   19  H   UNL     1      -8.680   7.947  70.738  1.00  0.00     0.000 HD 
HETATM   20  C   UNL     1     -10.877   9.890  69.290  1.00  0.00    -0.255 A  
HETATM   21  C   UNL     1     -12.009  10.627  69.791  1.00  0.00    -0.363 A  
HETATM   22  C   UNL     1     -12.250  10.403  71.130  1.00  0.00    -0.394 A  
HETATM   23  C   UNL     1     -13.324  10.967  71.991  1.00  0.00    -0.393 C  
HETATM   24  S   UNL     1     -11.117   9.314  71.790  1.00  0.00    -0.225 SA 
ENDBRANCH   5   8
TORSDOF 1
ENDMDL
MODEL       55
REMARK 921   NORMALIZED FREE ENERGY PREDICTED BY IDOCK:   -5.14 KCAL/MOL
REMARK 922        TOTAL FREE ENERGY PREDICTED BY IDOCK:   -5.85 KCAL/MOL
REMARK 923 INTER-LIGAND FREE ENERGY PREDICTED BY IDOCK:   -5.45 KCAL/MOL
REMARK 924 INTRA-LIGAND FREE ENERGY PREDICTED BY IDOCK:   -0.40 KCAL/MOL
REMARK 927      BINDING AFFINITY PREDICTED BY RF-SCORE:    0.00 PKD
ROOT
HETATM    1  C   UNL     1     -12.815  12.496  64.557  1.00  0.00    -0.262 C  
HETATM    2  N   UNL     1     -11.584  12.018  65.184  1.00  0.00    -0.308 NA 
HETATM    3  C   UNL     1     -10.383  12.546  64.508  1.00  0.00    -0.336 C  
HETATM    4  C   UNL     1     -10.114  14.054  64.710  1.00  0.00    -0.190 C  
HETATM    5  N   UNL     1     -10.143  14.435  66.131  1.00  0.00    -0.296 NA 
HETATM    6  C   UNL     1     -11.511  12.396  66.613  1.00  0.00    -0.370 C  
HETATM    7  C   UNL     1     -11.299  13.902  66.878  1.00  0.00    -0.328 C  
ENDROOT
BRANCH   5   8
HETATM    8  C   UNL     1      -9.090  15.035  66.814  1.00  0.00    -0.262 C  
HETATM    9  N   UNL     1      -8.283  14.337  67.560  1.00  0.00    -0.176 NA 
HETATM   10  C   UNL     1      -7.233  14.862  68.334  1.00  0.00    -0.116 A  
HETATM   11  H   UNL     1      -8.425  13.327  67.585  1.00  0.00     0.000 HD 
HETATM   12  C   UNL     1      -7.029  14.247  69.579  1.00  0.00    -0.083 A  
HETATM   13  C   UNL     1      -6.014  14.664  70.441  1.00  0.00    -0.165 A  
HETATM   14  C   UNL     1      -5.163  15.694  70.060  1.00  0.00    -0.118 A  
HETATM   15  C   UNL     1      -5.323  16.296  68.812  1.00  0.00    -0.105 A  
HETATM   16  C   UNL     1      -6.352  15.893  67.938  1.00  0.00    -0.137 A  
HETATM   17  N   UNL     1      -6.545  16.642  66.742  1.00  0.00    -0.206 NA 
HETATM   18  C   UNL     1      -7.789  17.150  66.547  1.00  0.00    -0.290 A  
HETATM   19  H   UNL     1      -5.792  16.787  66.071  1.00  0.00     0.000 HD 
HETATM   20  C   UNL     1      -8.996  16.488  66.658  1.00  0.00    -0.285 A  
HETATM   21  C   UNL     1     -10.085  17.430  66.633  1.00  0.00    -0.317 A  
HETATM   22  C   UNL     1      -9.676  18.723  66.385  1.00  0.00    -0.353 A  
HETATM   23  C   UNL     1     -10.497  19.960  66.295  1.00  0.00    -0.590 C  
HETATM   24  S   UNL     1      -7.986  18.810  66.177  1.00  0.00    -0.157 SA 
ENDBRANCH   5   8
TORSDOF 1
ENDMDL
MODEL       56
REMARK 921   NORMALIZED FREE ENERGY PREDICTED BY IDOCK:   -5.13 KCAL/MOL
REMARK 922        TOTAL FREE ENERGY PREDICTED BY IDOCK:   -5.83 KCAL/MOL
REMARK 923 INTER-LIGAND FREE ENERGY PREDICTED BY IDOCK:   -5.43 KCAL/MOL
REMARK 924 INTRA-LIGAND FREE ENERGY PREDICTED BY IDOCK:   -0.40 KCAL/MOL
REMARK 927      BINDING AFFINITY PREDICTED BY RF-SCORE:    0.00 PKD
ROOT
HETATM    1  C   UNL     1      -8.798   4.165  66.463  1.00  0.00    -0.118 C  
HETATM    2  N   UNL     1      -9.427   5.366  65.916  1.00  0.00    -0.150 NA 
HETATM    3  C   UNL     1     -10.775   5.584  66.477  1.00  0.00    -0.240 C  
HETATM    4  C   UNL     1     -10.816   6.018  67.960  1.00  0.00    -0.287 C  
HETATM    5  N   UNL     1      -9.930   7.162  68.225  1.00  0.00    -0.152 NA 
HETATM    6  C   UNL     1      -8.618   6.578  66.177  1.00  0.00    -0.145 C  
HETATM    7  C   UNL     1      -8.577   7.028  67.652  1.00  0.00    -0.122 C  
ENDROOT
BRANCH   5   8
HETATM    8  C   UNL     1     -10.345   8.382  68.751  1.00  0.00    -0.206 C  
HETATM    9  N   UNL     1     -10.367   9.460  68.021  1.00  0.00    -0.208 NA 
HETATM   10  C   UNL     1     -10.710  10.745  68.479  1.00  0.00    -0.210 A  
HETATM   11  H   UNL     1     -10.114   9.365  67.037  1.00  0.00     0.000 HD 
HETATM   12  C   UNL     1      -9.967  11.803  67.934  1.00  0.00    -0.187 A  
HETATM   13  C   UNL     1     -10.213  13.129  68.295  1.00  0.00    -0.250 A  
HETATM   14  C   UNL     1     -11.229  13.423  69.195  1.00  0.00    -0.300 A  
HETATM   15  C   UNL     1     -12.006  12.391  69.722  1.00  0.00    -0.359 A  
HETATM   16  C   UNL     1     -11.759  11.048  69.376  1.00  0.00    -0.323 A  
HETATM   17  N   UNL     1     -12.495  10.036  70.056  1.00  0.00    -0.506 NA 
HETATM   18  C   UNL     1     -11.762   9.081  70.685  1.00  0.00    -0.198 A  
HETATM   19  H   UNL     1     -13.514  10.029  70.070  1.00  0.00     0.000 HD 
HETATM   20  C   UNL     1     -10.705   8.356  70.170  1.00  0.00    -0.238 A  
HETATM   21  C   UNL     1     -10.033   7.640  71.223  1.00  0.00    -0.195 A  
HETATM   22  C   UNL     1     -10.667   7.749  72.442  1.00  0.00    -0.290 A  
HETATM   23  C   UNL     1     -10.274   7.166  73.753  1.00  0.00    -0.395 C  
HETATM   24  S   UNL     1     -12.073   8.707  72.326  1.00  0.00    -0.349 SA 
ENDBRANCH   5   8
TORSDOF 1
ENDMDL
MODEL       57
REMARK 921   NORMALIZED FREE ENERGY PREDICTED BY IDOCK:   -5.12 KCAL/MOL
REMARK 922        TOTAL FREE ENERGY PREDICTED BY IDOCK:   -5.82 KCAL/MOL
REMARK 923 INTER-LIGAND FREE ENERGY PREDICTED BY IDOCK:   -5.42 KCAL/MOL
REMARK 924 INTRA-LIGAND FREE ENERGY PREDICTED BY IDOCK:   -0.40 KCAL/MOL
REMARK 927      BINDING AFFINITY PREDICTED BY RF-SCORE:    0.00 PKD
ROOT
HETATM    1  C   UNL     1      -6.208   9.651  63.342  1.00  0.00    -0.106 C  
HETATM    2  N   UNL     1      -6.238   8.963  64.631  1.00  0.00    -0.066 NA 
HETATM    3  C   UNL     1      -6.105   9.905  65.760  1.00  0.00    -0.076 C  
HETATM    4  C   UNL     1      -7.327  10.816  66.014  1.00  0.00    -0.114 C  
HETATM    5  N   UNL     1      -8.580  10.049  66.097  1.00  0.00    -0.131 NA 
HETATM    6  C   UNL     1      -7.490   8.196  64.817  1.00  0.00    -0.094 C  
HETATM    7  C   UNL     1      -8.756   9.055  65.020  1.00  0.00    -0.183 C  
ENDROOT
BRANCH   5   8
HETATM    8  C   UNL     1      -9.439  10.047  67.192  1.00  0.00    -0.155 C  
HETATM    9  N   UNL     1      -9.398   9.098  68.081  1.00  0.00    -0.138 NA 
HETATM   10  C   UNL     1     -10.264   8.978  69.183  1.00  0.00    -0.205 A  
HETATM   11  H   UNL     1      -8.680   8.382  67.969  1.00  0.00     0.000 HD 
HETATM   12  C   UNL     1     -10.648   7.671  69.516  1.00  0.00    -0.227 A  
HETATM   13  C   UNL     1     -11.496   7.411  70.594  1.00  0.00    -0.307 A  
HETATM   14  C   UNL     1     -11.957   8.460  71.378  1.00  0.00    -0.337 A  
HETATM   15  C   UNL     1     -11.559   9.766  71.090  1.00  0.00    -0.469 A  
HETATM   16  C   UNL     1     -10.714  10.042  69.997  1.00  0.00    -0.299 A  
HETATM   17  N   UNL     1     -10.461  11.406  69.676  1.00  0.00    -0.431 NA 
HETATM   18  C   UNL     1     -10.755  11.788  68.406  1.00  0.00    -0.219 A  
HETATM   19  H   UNL     1     -10.081  12.059  70.360  1.00  0.00     0.000 HD 
HETATM   20  C   UNL     1     -10.395  11.155  67.232  1.00  0.00    -0.243 A  
HETATM   21  C   UNL     1     -11.116  11.721  66.120  1.00  0.00    -0.358 A  
HETATM   22  C   UNL     1     -11.879  12.814  66.470  1.00  0.00    -0.405 A  
HETATM   23  C   UNL     1     -12.760  13.650  65.612  1.00  0.00    -0.505 C  
HETATM   24  S   UNL     1     -11.730  13.168  68.132  1.00  0.00    -0.357 SA 
ENDBRANCH   5   8
TORSDOF 1
ENDMDL
MODEL       58
REMARK 921   NORMALIZED FREE ENERGY PREDICTED BY IDOCK:   -5.10 KCAL/MOL
REMARK 922        TOTAL FREE ENERGY PREDICTED BY IDOCK:   -5.81 KCAL/MOL
REMARK 923 INTER-LIGAND FREE ENERGY PREDICTED BY IDOCK:   -5.43 KCAL/MOL
REMARK 924 INTRA-LIGAND FREE ENERGY PREDICTED BY IDOCK:   -0.37 KCAL/MOL
REMARK 927      BINDING AFFINITY PREDICTED BY RF-SCORE:    0.00 PKD
ROOT
HETATM    1  C   UNL     1     -11.137  15.368  67.328  1.00  0.00    -0.302 C  
HETATM    2  N   UNL     1     -12.028  14.232  67.560  1.00  0.00    -0.393 NA 
HETATM    3  C   UNL     1     -12.078  13.326  66.397  1.00  0.00    -0.394 C  
HETATM    4  C   UNL     1     -10.797  12.500  66.142  1.00  0.00    -0.272 C  
HETATM    5  N   UNL     1     -10.342  11.798  67.352  1.00  0.00    -0.202 NA 
HETATM    6  C   UNL     1     -11.616  13.442  68.742  1.00  0.00    -0.325 C  
HETATM    7  C   UNL     1     -10.311  12.639  68.565  1.00  0.00    -0.221 C  
ENDROOT
BRANCH   5   8
HETATM    8  C   UNL     1     -10.174  10.421  67.456  1.00  0.00    -0.210 C  
HETATM    9  N   UNL     1     -10.878   9.716  68.294  1.00  0.00    -0.406 NA 
HETATM   10  C   UNL     1     -10.736   8.333  68.513  1.00  0.00    -0.017 A  
HETATM   11  H   UNL     1     -11.590  10.206  68.836  1.00  0.00     0.000 HD 
HETATM   12  C   UNL     1     -10.892   7.909  69.841  1.00  0.00    -0.221 A  
HETATM   13  C   UNL     1     -10.786   6.563  70.194  1.00  0.00    -0.336 A  
HETATM   14  C   UNL     1     -10.546   5.609  69.214  1.00  0.00    -0.359 A  
HETATM   15  C   UNL     1     -10.424   6.002  67.881  1.00  0.00    -0.294 A  
HETATM   16  C   UNL     1     -10.516   7.359  67.514  1.00  0.00    -0.268 A  
HETATM   17  N   UNL     1     -10.243   7.704  66.160  1.00  0.00    -0.355 NA 
HETATM   18  C   UNL     1      -9.273   8.634  65.962  1.00  0.00    -0.216 A  
HETATM   19  H   UNL     1     -10.747   7.279  65.383  1.00  0.00     0.000 HD 
HETATM   20  C   UNL     1      -9.136   9.855  66.593  1.00  0.00    -0.171 A  
HETATM   21  C   UNL     1      -7.845  10.425  66.300  1.00  0.00    -0.132 A  
HETATM   22  C   UNL     1      -7.126   9.691  65.382  1.00  0.00    -0.100 A  
HETATM   23  C   UNL     1      -5.764   9.949  64.841  1.00  0.00    -0.090 C  
HETATM   24  S   UNL     1      -7.996   8.319  64.866  1.00  0.00    -0.150 SA 
ENDBRANCH   5   8
TORSDOF 1
ENDMDL
MODEL       59
REMARK 921   NORMALIZED FREE ENERGY PREDICTED BY IDOCK:   -5.09 KCAL/MOL
REMARK 922        TOTAL FREE ENERGY PREDICTED BY IDOCK:   -5.79 KCAL/MOL
REMARK 923 INTER-LIGAND FREE ENERGY PREDICTED BY IDOCK:   -5.43 KCAL/MOL
REMARK 924 INTRA-LIGAND FREE ENERGY PREDICTED BY IDOCK:   -0.36 KCAL/MOL
REMARK 927      BINDING AFFINITY PREDICTED BY RF-SCORE:    0.00 PKD
ROOT
HETATM    1  C   UNL     1      -7.485   3.441  67.240  1.00  0.00    -0.067 C  
HETATM    2  N   UNL     1      -8.150   4.591  66.631  1.00  0.00    -0.102 NA 
HETATM    3  C   UNL     1      -9.616   4.525  66.791  1.00  0.00    -0.190 C  
HETATM    4  C   UNL     1     -10.141   4.752  68.226  1.00  0.00    -0.039 C  
HETATM    5  N   UNL     1      -9.588   5.975  68.829  1.00  0.00    -0.127 NA 
HETATM    6  C   UNL     1      -7.682   5.869  67.212  1.00  0.00    -0.101 C  
HETATM    7  C   UNL     1      -8.129   6.126  68.667  1.00  0.00    -0.108 C  
ENDROOT
BRANCH   5   8
HETATM    8  C   UNL     1     -10.348   7.039  69.307  1.00  0.00    -0.200 C  
HETATM    9  N   UNL     1     -11.071   6.923  70.383  1.00  0.00    -0.279 NA 
HETATM   10  C   UNL     1     -11.916   7.918  70.906  1.00  0.00    -0.196 A  
HETATM   11  H   UNL     1     -11.020   6.038  70.889  1.00  0.00     0.000 HD 
HETATM   12  C   UNL     1     -13.121   7.462  71.462  1.00  0.00    -0.424 A  
HETATM   13  C   UNL     1     -14.045   8.344  72.024  1.00  0.00    -0.495 A  
HETATM   14  C   UNL     1     -13.767   9.705  72.062  1.00  0.00    -0.396 A  
HETATM   15  C   UNL     1     -12.559  10.178  71.549  1.00  0.00    -0.537 A  
HETATM   16  C   UNL     1     -11.624   9.299  70.968  1.00  0.00    -0.313 A  
HETATM   17  N   UNL     1     -10.478   9.864  70.339  1.00  0.00    -0.288 NA 
HETATM   18  C   UNL     1     -10.276   9.521  69.041  1.00  0.00    -0.200 A  
HETATM   19  H   UNL     1      -9.844  10.489  70.836  1.00  0.00     0.000 HD 
HETATM   20  C   UNL     1     -10.297   8.254  68.491  1.00  0.00    -0.230 A  
HETATM   21  C   UNL     1     -10.300   8.334  67.053  1.00  0.00    -0.393 A  
HETATM   22  C   UNL     1     -10.158   9.622  66.583  1.00  0.00    -0.239 A  
HETATM   23  C   UNL     1     -10.126  10.104  65.176  1.00  0.00    -0.329 C  
HETATM   24  S   UNL     1     -10.016  10.738  67.865  1.00  0.00    -0.179 SA 
ENDBRANCH   5   8
TORSDOF 1
ENDMDL
MODEL       60
REMARK 921   NORMALIZED FREE ENERGY PREDICTED BY IDOCK:   -5.07 KCAL/MOL
REMARK 922        TOTAL FREE ENERGY PREDICTED BY IDOCK:   -5.77 KCAL/MOL
REMARK 923 INTER-LIGAND FREE ENERGY PREDICTED BY IDOCK:   -5.81 KCAL/MOL
REMARK 924 INTRA-LIGAND FREE ENERGY PREDICTED BY IDOCK:    0.04 KCAL/MOL
REMARK 927      BINDING AFFINITY PREDICTED BY RF-SCORE:    0.00 PKD
ROOT
HETATM    1  C   UNL     1     -12.207   8.061  72.005  1.00  0.00    -0.331 C  
HETATM    2  N   UNL     1     -11.490   9.327  71.859  1.00  0.00    -0.367 NA 
HETATM    3  C   UNL     1     -10.264   9.173  71.052  1.00  0.00    -0.302 C  
HETATM    4  C   UNL     1     -10.488   8.918  69.544  1.00  0.00    -0.226 C  
HETATM    5  N   UNL     1     -11.406   9.902  68.948  1.00  0.00    -0.079 NA 
HETATM    6  C   UNL     1     -12.331  10.366  71.226  1.00  0.00    -0.401 C  
HETATM    7  C   UNL     1     -12.636  10.136  69.730  1.00  0.00     0.290 C  
ENDROOT
BRANCH   5   8
HETATM    8  C   UNL     1     -11.091  10.737  67.881  1.00  0.00    -0.308 C  
HETATM    9  N   UNL     1     -11.705  11.872  67.707  1.00  0.00    -0.516 NA 
HETATM   10  C   UNL     1     -11.499  12.750  66.628  1.00  0.00    -0.350 A  
HETATM   11  H   UNL     1     -12.391  12.146  68.411  1.00  0.00     0.000 HD 
HETATM   12  C   UNL     1     -12.646  13.397  66.143  1.00  0.00    -0.294 A  
HETATM   13  C   UNL     1     -12.581  14.301  65.082  1.00  0.00    -0.384 A  
HETATM   14  C   UNL     1     -11.354  14.596  64.501  1.00  0.00    -0.316 A  
HETATM   15  C   UNL     1     -10.195  13.995  64.990  1.00  0.00    -0.395 A  
HETATM   16  C   UNL     1     -10.250  13.070  66.051  1.00  0.00    -0.287 A  
HETATM   17  N   UNL     1      -9.051  12.389  66.407  1.00  0.00    -0.358 NA 
HETATM   18  C   UNL     1      -9.105  11.032  66.395  1.00  0.00    -0.178 A  
HETATM   19  H   UNL     1      -8.200  12.892  66.657  1.00  0.00     0.000 HD 
HETATM   20  C   UNL     1     -10.065  10.223  66.972  1.00  0.00    -0.268 A  
HETATM   21  C   UNL     1      -9.911   8.865  66.516  1.00  0.00    -0.344 A  
HETATM   22  C   UNL     1      -8.793   8.682  65.730  1.00  0.00    -0.193 A  
HETATM   23  C   UNL     1      -8.309   7.439  65.073  1.00  0.00    -0.057 C  
HETATM   24  S   UNL     1      -7.923  10.136  65.542  1.00  0.00    -0.150 SA 
ENDBRANCH   5   8
TORSDOF 1
ENDMDL
MODEL       61
REMARK 921   NORMALIZED FREE ENERGY PREDICTED BY IDOCK:   -5.06 KCAL/MOL
REMARK 922        TOTAL FREE ENERGY PREDICTED BY IDOCK:   -5.76 KCAL/MOL
REMARK 923 INTER-LIGAND FREE ENERGY PREDICTED BY IDOCK:   -5.37 KCAL/MOL
REMARK 924 INTRA-LIGAND FREE ENERGY PREDICTED BY IDOCK:   -0.39 KCAL/MOL
REMARK 927      BINDING AFFINITY PREDICTED BY RF-SCORE:    0.00 PKD
ROOT
HETATM    1  C   UNL     1      -8.444   7.565  65.553  1.00  0.00    -0.119 C  
HETATM    2  N   UNL     1      -8.959   7.579  66.920  1.00  0.00    -0.129 NA 
HETATM    3  C   UNL     1      -8.136   8.421  67.809  1.00  0.00    -0.122 C  
HETATM    4  C   UNL     1      -8.236   9.944  67.564  1.00  0.00    -0.114 C  
HETATM    5  N   UNL     1      -9.633  10.406  67.525  1.00  0.00    -0.155 NA 
HETATM    6  C   UNL     1     -10.353   8.073  66.979  1.00  0.00    -0.344 C  
HETATM    7  C   UNL     1     -10.522   9.579  66.687  1.00  0.00    -0.171 C  
ENDROOT
BRANCH   5   8
HETATM    8  C   UNL     1     -10.172  11.377  68.364  1.00  0.00    -0.198 C  
HETATM    9  N   UNL     1     -10.078  12.643  68.080  1.00  0.00    -0.225 NA 
HETATM   10  C   UNL     1     -10.535  13.695  68.894  1.00  0.00    -0.150 A  
HETATM   11  H   UNL     1      -9.636  12.893  67.195  1.00  0.00     0.000 HD 
HETATM   12  C   UNL     1      -9.727  14.842  68.918  1.00  0.00    -0.215 A  
HETATM   13  C   UNL     1     -10.071  15.961  69.677  1.00  0.00    -0.271 A  
HETATM   14  C   UNL     1     -11.250  15.963  70.410  1.00  0.00    -0.392 A  
HETATM   15  C   UNL     1     -12.089  14.849  70.374  1.00  0.00    -0.386 A  
HETATM   16  C   UNL     1     -11.746  13.708  69.622  1.00  0.00    -0.320 A  
HETATM   17  N   UNL     1     -12.576  12.556  69.740  1.00  0.00     0.171 NA 
HETATM   18  C   UNL     1     -11.957  11.406  70.111  1.00  0.00    -0.377 A  
HETATM   19  H   UNL     1     -13.578  12.593  69.556  1.00  0.00     0.000 HD 
HETATM   20  C   UNL     1     -10.802  10.863  69.582  1.00  0.00    -0.271 A  
HETATM   21  C   UNL     1     -10.330   9.787  70.416  1.00  0.00    -0.354 A  
HETATM   22  C   UNL     1     -11.192   9.485  71.448  1.00  0.00    -0.382 A  
HETATM   23  C   UNL     1     -11.049   8.455  72.511  1.00  0.00    -0.397 C  
HETATM   24  S   UNL     1     -12.572  10.486  71.417  1.00  0.00    -0.446 SA 
ENDBRANCH   5   8
TORSDOF 1
ENDMDL
MODEL       62
REMARK 921   NORMALIZED FREE ENERGY PREDICTED BY IDOCK:   -5.06 KCAL/MOL
REMARK 922        TOTAL FREE ENERGY PREDICTED BY IDOCK:   -5.76 KCAL/MOL
REMARK 923 INTER-LIGAND FREE ENERGY PREDICTED BY IDOCK:   -5.37 KCAL/MOL
REMARK 924 INTRA-LIGAND FREE ENERGY PREDICTED BY IDOCK:   -0.39 KCAL/MOL
REMARK 927      BINDING AFFINITY PREDICTED BY RF-SCORE:    0.00 PKD
ROOT
HETATM    1  C   UNL     1     -10.704   6.562  73.613  1.00  0.00    -0.222 C  
HETATM    2  N   UNL     1     -10.644   7.960  73.192  1.00  0.00    -0.344 NA 
HETATM    3  C   UNL     1      -9.371   8.276  72.516  1.00  0.00    -0.280 C  
HETATM    4  C   UNL     1      -9.191   7.657  71.111  1.00  0.00    -0.147 C  
HETATM    5  N   UNL     1     -10.345   7.925  70.239  1.00  0.00    -0.208 NA 
HETATM    6  C   UNL     1     -11.751   8.306  72.272  1.00  0.00    -0.388 C  
HETATM    7  C   UNL     1     -11.655   7.670  70.869  1.00  0.00    -0.280 C  
ENDROOT
BRANCH   5   8
HETATM    8  C   UNL     1     -10.279   8.582  69.013  1.00  0.00    -0.207 C  
HETATM    9  N   UNL     1     -10.523   9.856  68.916  1.00  0.00    -0.202 NA 
HETATM   10  C   UNL     1     -10.541  10.592  67.717  1.00  0.00    -0.243 A  
HETATM   11  H   UNL     1     -10.717  10.363  69.780  1.00  0.00     0.000 HD 
HETATM   12  C   UNL     1     -11.521  11.591  67.631  1.00  0.00    -0.357 A  
HETATM   13  C   UNL     1     -11.642  12.400  66.500  1.00  0.00    -0.447 A  
HETATM   14  C   UNL     1     -10.761  12.238  65.439  1.00  0.00    -0.320 A  
HETATM   15  C   UNL     1      -9.754  11.276  65.516  1.00  0.00    -0.268 A  
HETATM   16  C   UNL     1      -9.630  10.445  66.646  1.00  0.00    -0.177 A  
HETATM   17  N   UNL     1      -8.672   9.393  66.601  1.00  0.00    -0.130 NA 
HETATM   18  C   UNL     1      -9.143   8.141  66.833  1.00  0.00    -0.154 A  
HETATM   19  H   UNL     1      -7.687   9.571  66.405  1.00  0.00     0.000 HD 
HETATM   20  C   UNL     1      -9.959   7.728  67.868  1.00  0.00    -0.212 A  
HETATM   21  C   UNL     1     -10.445   6.395  67.616  1.00  0.00    -0.284 A  
HETATM   22  C   UNL     1      -9.893   5.821  66.492  1.00  0.00    -0.161 A  
HETATM   23  C   UNL     1     -10.150   4.477  65.908  1.00  0.00    -0.279 C  
HETATM   24  S   UNL     1      -8.785   6.876  65.737  1.00  0.00    -0.057 SA 
ENDBRANCH   5   8
TORSDOF 1
ENDMDL
MODEL       63
REMARK 921   NORMALIZED FREE ENERGY PREDICTED BY IDOCK:   -5.04 KCAL/MOL
REMARK 922        TOTAL FREE ENERGY PREDICTED BY IDOCK:   -5.74 KCAL/MOL
REMARK 923 INTER-LIGAND FREE ENERGY PREDICTED BY IDOCK:   -5.31 KCAL/MOL
REMARK 924 INTRA-LIGAND FREE ENERGY PREDICTED BY IDOCK:   -0.43 KCAL/MOL
REMARK 927      BINDING AFFINITY PREDICTED BY RF-SCORE:    0.00 PKD
ROOT
HETATM    1  C   UNL     1      -7.752   8.311  64.542  1.00  0.00    -0.123 C  
HETATM    2  N   UNL     1      -8.236   8.357  65.920  1.00  0.00    -0.116 NA 
HETATM    3  C   UNL     1      -7.435   9.274  66.754  1.00  0.00    -0.087 C  
HETATM    4  C   UNL     1      -7.615  10.779  66.449  1.00  0.00    -0.141 C  
HETATM    5  N   UNL     1      -9.033  11.171  66.426  1.00  0.00    -0.177 NA 
HETATM    6  C   UNL     1      -9.651   8.786  65.993  1.00  0.00    -0.226 C  
HETATM    7  C   UNL     1      -9.901  10.268  65.644  1.00  0.00    -0.268 C  
ENDROOT
BRANCH   5   8
HETATM    8  C   UNL     1      -9.600  12.149  67.239  1.00  0.00    -0.185 C  
HETATM    9  N   UNL     1      -9.481  13.414  66.957  1.00  0.00    -0.239 NA 
HETATM   10  C   UNL     1      -9.964  14.472  67.748  1.00  0.00    -0.225 A  
HETATM   11  H   UNL     1      -8.997  13.658  66.092  1.00  0.00     0.000 HD 
HETATM   12  C   UNL     1      -9.146  15.611  67.805  1.00  0.00    -0.181 A  
HETATM   13  C   UNL     1      -9.513  16.735  68.546  1.00  0.00    -0.245 A  
HETATM   14  C   UNL     1     -10.724  16.750  69.226  1.00  0.00    -0.324 A  
HETATM   15  C   UNL     1     -11.571  15.645  69.153  1.00  0.00    -0.393 A  
HETATM   16  C   UNL     1     -11.207  14.498  68.420  1.00  0.00    -0.271 A  
HETATM   17  N   UNL     1     -12.052  13.355  68.503  1.00  0.00    -0.318 NA 
HETATM   18  C   UNL     1     -11.461  12.200  68.904  1.00  0.00    -0.297 A  
HETATM   19  H   UNL     1     -13.044  13.402  68.273  1.00  0.00     0.000 HD 
HETATM   20  C   UNL     1     -10.289  11.645  68.428  1.00  0.00    -0.215 A  
HETATM   21  C   UNL     1      -9.867  10.566  69.284  1.00  0.00    -0.225 A  
HETATM   22  C   UNL     1     -10.777  10.274  70.276  1.00  0.00    -0.250 A  
HETATM   23  C   UNL     1     -10.693   9.245  71.347  1.00  0.00    -0.432 C  
HETATM   24  S   UNL     1     -12.144  11.289  70.182  1.00  0.00    -0.370 SA 
ENDBRANCH   5   8
TORSDOF 1
ENDMDL
MODEL       64
REMARK 921   NORMALIZED FREE ENERGY PREDICTED BY IDOCK:   -4.98 KCAL/MOL
REMARK 922        TOTAL FREE ENERGY PREDICTED BY IDOCK:   -5.68 KCAL/MOL
REMARK 923 INTER-LIGAND FREE ENERGY PREDICTED BY IDOCK:   -5.29 KCAL/MOL
REMARK 924 INTRA-LIGAND FREE ENERGY PREDICTED BY IDOCK:   -0.39 KCAL/MOL
REMARK 927      BINDING AFFINITY PREDICTED BY RF-SCORE:    0.00 PKD
ROOT
HETATM    1  C   UNL     1      -9.435   6.184  68.842  1.00  0.00    -0.123 C  
HETATM    2  N   UNL     1     -10.635   6.973  68.571  1.00  0.00    -0.206 NA 
HETATM    3  C   UNL     1     -10.685   8.196  69.395  1.00  0.00    -0.156 C  
HETATM    4  C   UNL     1      -9.661   9.292  69.022  1.00  0.00    -0.162 C  
HETATM    5  N   UNL     1      -9.690   9.608  67.586  1.00  0.00    -0.146 NA 
HETATM    6  C   UNL     1     -10.723   7.372  67.149  1.00  0.00    -0.330 C  
HETATM    7  C   UNL     1      -9.686   8.425  66.703  1.00  0.00    -0.251 C  
ENDROOT
BRANCH   5   8
HETATM    8  C   UNL     1      -9.939  10.871  67.055  1.00  0.00    -0.192 C  
HETATM    9  N   UNL     1     -11.009  11.110  66.353  1.00  0.00    -0.233 NA 
HETATM   10  C   UNL     1     -11.314  12.332  65.727  1.00  0.00    -0.355 A  
HETATM   11  H   UNL     1     -11.680  10.348  66.249  1.00  0.00     0.000 HD 
HETATM   12  C   UNL     1     -11.936  12.234  64.474  1.00  0.00    -0.459 A  
HETATM   13  C   UNL     1     -12.302  13.370  63.750  1.00  0.00    -0.418 A  
HETATM   14  C   UNL     1     -12.073  14.632  64.283  1.00  0.00    -0.437 A  
HETATM   15  C   UNL     1     -11.490  14.755  65.544  1.00  0.00    -0.329 A  
HETATM   16  C   UNL     1     -11.104  13.616  66.279  1.00  0.00    -0.301 A  
HETATM   17  N   UNL     1     -10.389  13.815  67.493  1.00  0.00    -0.240 NA 
HETATM   18  C   UNL     1      -9.187  13.191  67.591  1.00  0.00    -0.207 A  
HETATM   19  H   UNL     1     -10.759  14.393  68.248  1.00  0.00     0.000 HD 
HETATM   20  C   UNL     1      -8.899  11.869  67.314  1.00  0.00    -0.179 A  
HETATM   21  C   UNL     1      -7.474  11.664  67.287  1.00  0.00    -0.143 A  
HETATM   22  C   UNL     1      -6.760  12.783  67.659  1.00  0.00    -0.147 A  
HETATM   23  C   UNL     1      -5.285  12.963  67.743  1.00  0.00    -0.108 C  
HETATM   24  S   UNL     1      -7.796  14.080  68.046  1.00  0.00    -0.170 SA 
ENDBRANCH   5   8
TORSDOF 1
ENDMDL
MODEL       65
REMARK 921   NORMALIZED FREE ENERGY PREDICTED BY IDOCK:   -4.94 KCAL/MOL
REMARK 922        TOTAL FREE ENERGY PREDICTED BY IDOCK:   -5.63 KCAL/MOL
REMARK 923 INTER-LIGAND FREE ENERGY PREDICTED BY IDOCK:   -5.24 KCAL/MOL
REMARK 924 INTRA-LIGAND FREE ENERGY PREDICTED BY IDOCK:   -0.40 KCAL/MOL
REMARK 927      BINDING AFFINITY PREDICTED BY RF-SCORE:    0.00 PKD
ROOT
HETATM    1  C   UNL     1      -7.318   4.465  66.394  1.00  0.00    -0.081 C  
HETATM    2  N   UNL     1      -8.570   5.214  66.305  1.00  0.00    -0.113 NA 
HETATM    3  C   UNL     1      -9.660   4.552  67.048  1.00  0.00    -0.190 C  
HETATM    4  C   UNL     1      -9.536   4.590  68.587  1.00  0.00    -0.158 C  
HETATM    5  N   UNL     1      -9.294   5.953  69.088  1.00  0.00    -0.120 NA 
HETATM    6  C   UNL     1      -8.427   6.591  66.830  1.00  0.00    -0.113 C  
HETATM    7  C   UNL     1      -8.243   6.689  68.359  1.00  0.00    -0.115 C  
ENDROOT
BRANCH   5   8
HETATM    8  C   UNL     1     -10.107   6.621  69.998  1.00  0.00    -0.177 C  
HETATM    9  N   UNL     1     -10.809   7.658  69.642  1.00  0.00    -0.345 NA 
HETATM   10  C   UNL     1     -11.609   8.432  70.503  1.00  0.00    -0.128 A  
HETATM   11  H   UNL     1     -10.775   7.932  68.660  1.00  0.00     0.000 HD 
HETATM   12  C   UNL     1     -11.610   9.813  70.252  1.00  0.00    -0.283 A  
HETATM   13  C   UNL     1     -12.369  10.693  71.025  1.00  0.00    -0.507 A  
HETATM   14  C   UNL     1     -13.164  10.201  72.053  1.00  0.00    -0.534 A  
HETATM   15  C   UNL     1     -13.208   8.829  72.296  1.00  0.00    -0.456 A  
HETATM   16  C   UNL     1     -12.437   7.931  71.532  1.00  0.00    -0.318 A  
HETATM   17  N   UNL     1     -12.421   6.563  71.923  1.00  0.00    -0.427 NA 
HETATM   18  C   UNL     1     -11.199   6.021  72.163  1.00  0.00    -0.291 A  
HETATM   19  H   UNL     1     -13.278   6.019  72.018  1.00  0.00     0.000 HD 
HETATM   20  C   UNL     1     -10.075   6.094  71.363  1.00  0.00    -0.230 A  
HETATM   21  C   UNL     1      -8.920   5.622  72.084  1.00  0.00    -0.140 A  
HETATM   22  C   UNL     1      -9.230   5.107  73.324  1.00  0.00    -0.131 A  
HETATM   23  C   UNL     1      -8.317   4.541  74.354  1.00  0.00    -0.097 C  
HETATM   24  S   UNL     1     -10.906   5.184  73.627  1.00  0.00    -0.283 SA 
ENDBRANCH   5   8
TORSDOF 1
ENDMDL
MODEL       66
REMARK 921   NORMALIZED FREE ENERGY PREDICTED BY IDOCK:   -4.94 KCAL/MOL
REMARK 922        TOTAL FREE ENERGY PREDICTED BY IDOCK:   -5.63 KCAL/MOL
REMARK 923 INTER-LIGAND FREE ENERGY PREDICTED BY IDOCK:   -5.29 KCAL/MOL
REMARK 924 INTRA-LIGAND FREE ENERGY PREDICTED BY IDOCK:   -0.34 KCAL/MOL
REMARK 927      BINDING AFFINITY PREDICTED BY RF-SCORE:    0.00 PKD
ROOT
HETATM    1  C   UNL     1      -6.032  18.969  66.567  1.00  0.00    -0.165 C  
HETATM    2  N   UNL     1      -6.512  17.599  66.393  1.00  0.00    -0.212 NA 
HETATM    3  C   UNL     1      -6.383  16.811  67.634  1.00  0.00    -0.151 C  
HETATM    4  C   UNL     1      -7.353  17.198  68.773  1.00  0.00    -0.241 C  
HETATM    5  N   UNL     1      -8.749  17.255  68.313  1.00  0.00    -0.243 NA 
HETATM    6  C   UNL     1      -7.930  17.563  65.970  1.00  0.00    -0.157 C  
HETATM    7  C   UNL     1      -8.943  17.994  67.051  1.00  0.00    -0.258 C  
ENDROOT
BRANCH   5   8
HETATM    8  C   UNL     1      -9.792  16.503  68.846  1.00  0.00    -0.260 C  
HETATM    9  N   UNL     1     -10.241  16.725  70.047  1.00  0.00     0.127 NA 
HETATM   10  C   UNL     1     -11.246  15.979  70.691  1.00  0.00    -0.372 A  
HETATM   11  H   UNL     1      -9.831  17.504  70.564  1.00  0.00     0.000 HD 
HETATM   12  C   UNL     1     -11.060  15.770  72.066  1.00  0.00     0.037 A  
HETATM   13  C   UNL     1     -11.987  15.055  72.826  1.00  0.00    -0.414 A  
HETATM   14  C   UNL     1     -13.135  14.555  72.225  1.00  0.00    -0.458 A  
HETATM   15  C   UNL     1     -13.360  14.783  70.867  1.00  0.00    -0.372 A  
HETATM   16  C   UNL     1     -12.426  15.492  70.086  1.00  0.00    -0.318 A  
HETATM   17  N   UNL     1     -12.649  15.566  68.682  1.00  0.00    -0.135 NA 
HETATM   18  C   UNL     1     -11.640  15.121  67.889  1.00  0.00    -0.311 A  
HETATM   19  H   UNL     1     -13.516  15.934  68.293  1.00  0.00     0.000 HD 
HETATM   20  C   UNL     1     -10.299  15.440  67.975  1.00  0.00    -0.249 A  
HETATM   21  C   UNL     1      -9.524  14.566  67.131  1.00  0.00    -0.236 A  
HETATM   22  C   UNL     1     -10.301  13.724  66.366  1.00  0.00    -0.290 A  
HETATM   23  C   UNL     1      -9.871  12.684  65.393  1.00  0.00    -0.157 C  
HETATM   24  S   UNL     1     -11.962  13.982  66.653  1.00  0.00    -0.452 SA 
ENDBRANCH   5   8
TORSDOF 1
ENDMDL
MODEL       67
REMARK 921   NORMALIZED FREE ENERGY PREDICTED BY IDOCK:   -4.92 KCAL/MOL
REMARK 922        TOTAL FREE ENERGY PREDICTED BY IDOCK:   -5.61 KCAL/MOL
REMARK 923 INTER-LIGAND FREE ENERGY PREDICTED BY IDOCK:   -5.20 KCAL/MOL
REMARK 924 INTRA-LIGAND FREE ENERGY PREDICTED BY IDOCK:   -0.41 KCAL/MOL
REMARK 927      BINDING AFFINITY PREDICTED BY RF-SCORE:    0.00 PKD
ROOT
HETATM    1  C   UNL     1      -6.840  18.589  68.541  1.00  0.00    -0.264 C  
HETATM    2  N   UNL     1      -7.849  18.140  67.584  1.00  0.00    -0.223 NA 
HETATM    3  C   UNL     1      -7.334  17.073  66.704  1.00  0.00    -0.261 C  
HETATM    4  C   UNL     1      -7.108  15.703  67.382  1.00  0.00    -0.207 C  
HETATM    5  N   UNL     1      -8.291  15.257  68.135  1.00  0.00    -0.146 NA 
HETATM    6  C   UNL     1      -9.063  17.633  68.261  1.00  0.00    -0.276 C  
HETATM    7  C   UNL     1      -8.883  16.293  69.004  1.00  0.00    -0.243 C  
ENDROOT
BRANCH   5   8
HETATM    8  C   UNL     1      -8.973  14.065  67.910  1.00  0.00    -0.188 C  
HETATM    9  N   UNL     1      -8.576  12.948  68.447  1.00  0.00    -0.290 NA 
HETATM   10  C   UNL     1      -9.163  11.688  68.228  1.00  0.00    -0.187 A  
HETATM   11  H   UNL     1      -7.775  12.990  69.077  1.00  0.00     0.000 HD 
HETATM   12  C   UNL     1      -8.271  10.607  68.155  1.00  0.00    -0.116 A  
HETATM   13  C   UNL     1      -8.721   9.302  67.952  1.00  0.00    -0.124 A  
HETATM   14  C   UNL     1     -10.083   9.050  67.843  1.00  0.00    -0.246 A  
HETATM   15  C   UNL     1     -10.992  10.103  67.950  1.00  0.00    -0.335 A  
HETATM   16  C   UNL     1     -10.548  11.427  68.142  1.00  0.00    -0.189 A  
HETATM   17  N   UNL     1     -11.518  12.469  68.102  1.00  0.00    -0.295 NA 
HETATM   18  C   UNL     1     -11.293  13.464  67.207  1.00  0.00    -0.319 A  
HETATM   19  H   UNL     1     -12.335  12.468  68.712  1.00  0.00     0.000 HD 
HETATM   20  C   UNL     1     -10.121  14.168  67.007  1.00  0.00    -0.261 A  
HETATM   21  C   UNL     1     -10.209  14.949  65.800  1.00  0.00    -0.358 A  
HETATM   22  C   UNL     1     -11.456  14.903  65.216  1.00  0.00    -0.336 A  
HETATM   23  C   UNL     1     -11.927  15.562  63.968  1.00  0.00     0.040 C  
HETATM   24  S   UNL     1     -12.527  13.928  66.115  1.00  0.00    -0.373 SA 
ENDBRANCH   5   8
TORSDOF 1
ENDMDL
MODEL       68
REMARK 921   NORMALIZED FREE ENERGY PREDICTED BY IDOCK:   -4.91 KCAL/MOL
REMARK 922        TOTAL FREE ENERGY PREDICTED BY IDOCK:   -5.60 KCAL/MOL
REMARK 923 INTER-LIGAND FREE ENERGY PREDICTED BY IDOCK:   -5.21 KCAL/MOL
REMARK 924 INTRA-LIGAND FREE ENERGY PREDICTED BY IDOCK:   -0.39 KCAL/MOL
REMARK 927      BINDING AFFINITY PREDICTED BY RF-SCORE:    0.00 PKD
ROOT
HETATM    1  C   UNL     1     -10.438  16.383  66.865  1.00  0.00    -0.289 C  
HETATM    2  N   UNL     1      -9.577  15.392  66.222  1.00  0.00    -0.288 NA 
HETATM    3  C   UNL     1      -8.596  14.821  67.165  1.00  0.00    -0.226 C  
HETATM    4  C   UNL     1      -9.180  13.881  68.243  1.00  0.00    -0.207 C  
HETATM    5  N   UNL     1     -10.037  12.837  67.660  1.00  0.00    -0.216 NA 
HETATM    6  C   UNL     1     -10.359  14.278  65.641  1.00  0.00    -0.336 C  
HETATM    7  C   UNL     1     -11.014  13.335  66.672  1.00  0.00    -0.283 C  
ENDROOT
BRANCH   5   8
HETATM    8  C   UNL     1      -9.832  11.468  67.806  1.00  0.00    -0.177 C  
HETATM    9  N   UNL     1      -9.188  10.781  66.907  1.00  0.00    -0.155 NA 
HETATM   10  C   UNL     1      -8.986   9.389  66.938  1.00  0.00    -0.131 A  
HETATM   11  H   UNL     1      -8.798  11.294  66.116  1.00  0.00     0.000 HD 
HETATM   12  C   UNL     1      -9.049   8.739  65.696  1.00  0.00    -0.247 A  
HETATM   13  C   UNL     1      -8.858   7.361  65.584  1.00  0.00    -0.056 A  
HETATM   14  C   UNL     1      -8.572   6.609  66.716  1.00  0.00    -0.118 A  
HETATM   15  C   UNL     1      -8.467   7.238  67.957  1.00  0.00    -0.123 A  
HETATM   16  C   UNL     1      -8.672   8.626  68.085  1.00  0.00    -0.142 A  
HETATM   17  N   UNL     1      -8.689   9.181  69.396  1.00  0.00    -0.135 NA 
HETATM   18  C   UNL     1      -9.800   9.883  69.737  1.00  0.00    -0.236 A  
HETATM   19  H   UNL     1      -7.910   9.059  70.042  1.00  0.00     0.000 HD 
HETATM   20  C   UNL     1     -10.425  10.876  69.007  1.00  0.00    -0.244 A  
HETATM   21  C   UNL     1     -11.709  11.183  69.583  1.00  0.00    -0.410 A  
HETATM   22  C   UNL     1     -11.945  10.517  70.765  1.00  0.00    -0.370 A  
HETATM   23  C   UNL     1     -13.148  10.565  71.639  1.00  0.00    -0.551 C  
HETATM   24  S   UNL     1     -10.626   9.525  71.192  1.00  0.00    -0.264 SA 
ENDBRANCH   5   8
TORSDOF 1
ENDMDL
MODEL       69
REMARK 921   NORMALIZED FREE ENERGY PREDICTED BY IDOCK:   -4.88 KCAL/MOL
REMARK 922        TOTAL FREE ENERGY PREDICTED BY IDOCK:   -5.58 KCAL/MOL
REMARK 923 INTER-LIGAND FREE ENERGY PREDICTED BY IDOCK:   -5.31 KCAL/MOL
REMARK 924 INTRA-LIGAND FREE ENERGY PREDICTED BY IDOCK:   -0.27 KCAL/MOL
REMARK 927      BINDING AFFINITY PREDICTED BY RF-SCORE:    0.00 PKD
ROOT
HETATM    1  C   UNL     1     -12.136  14.680  64.249  1.00  0.00    -0.415 C  
HETATM    2  N   UNL     1     -12.537  13.291  64.461  1.00  0.00    -0.646 NA 
HETATM    3  C   UNL     1     -11.827  12.369  63.552  1.00  0.00    -0.521 C  
HETATM    4  C   UNL     1     -10.323  12.170  63.849  1.00  0.00    -0.415 C  
HETATM    5  N   UNL     1     -10.080  11.830  65.260  1.00  0.00    -0.254 NA 
HETATM    6  C   UNL     1     -12.286  12.850  65.851  1.00  0.00    -0.407 C  
HETATM    7  C   UNL     1     -10.797  12.687  66.224  1.00  0.00    -0.273 C  
ENDROOT
BRANCH   5   8
HETATM    8  C   UNL     1      -9.438  10.676  65.700  1.00  0.00    -0.212 C  
HETATM    9  N   UNL     1     -10.066   9.538  65.769  1.00  0.00    -0.310 NA 
HETATM   10  C   UNL     1      -9.520   8.337  66.257  1.00  0.00    -0.203 A  
HETATM   11  H   UNL     1     -11.032   9.516  65.443  1.00  0.00     0.000 HD 
HETATM   12  C   UNL     1     -10.396   7.528  66.997  1.00  0.00    -0.395 A  
HETATM   13  C   UNL     1      -9.985   6.306  67.530  1.00  0.00    -0.159 A  
HETATM   14  C   UNL     1      -8.689   5.856  67.309  1.00  0.00    -0.108 A  
HETATM   15  C   UNL     1      -7.811   6.625  66.545  1.00  0.00    -0.104 A  
HETATM   16  C   UNL     1      -8.210   7.867  66.013  1.00  0.00    -0.122 A  
HETATM   17  N   UNL     1      -7.225   8.663  65.363  1.00  0.00    -0.082 NA 
HETATM   18  C   UNL     1      -7.060   9.923  65.841  1.00  0.00    -0.107 A  
HETATM   19  H   UNL     1      -6.674   8.307  64.583  1.00  0.00     0.000 HD 
HETATM   20  C   UNL     1      -8.042  10.858  66.105  1.00  0.00    -0.160 A  
HETATM   21  C   UNL     1      -7.490  11.966  66.843  1.00  0.00    -0.079 A  
HETATM   22  C   UNL     1      -6.123  11.886  66.995  1.00  0.00    -0.149 A  
HETATM   23  C   UNL     1      -5.207  12.824  67.698  1.00  0.00    -0.101 C  
HETATM   24  S   UNL     1      -5.496  10.486  66.251  1.00  0.00    -0.086 SA 
ENDBRANCH   5   8
TORSDOF 1
ENDMDL
MODEL       70
REMARK 921   NORMALIZED FREE ENERGY PREDICTED BY IDOCK:   -4.87 KCAL/MOL
REMARK 922        TOTAL FREE ENERGY PREDICTED BY IDOCK:   -5.56 KCAL/MOL
REMARK 923 INTER-LIGAND FREE ENERGY PREDICTED BY IDOCK:   -5.28 KCAL/MOL
REMARK 924 INTRA-LIGAND FREE ENERGY PREDICTED BY IDOCK:   -0.28 KCAL/MOL
REMARK 927      BINDING AFFINITY PREDICTED BY RF-SCORE:    0.00 PKD
ROOT
HETATM    1  C   UNL     1      -9.663  20.278  67.618  1.00  0.00    -0.417 C  
HETATM    2  N   UNL     1     -10.509  19.131  67.294  1.00  0.00    -0.428 NA 
HETATM    3  C   UNL     1      -9.979  18.364  66.150  1.00  0.00    -0.319 C  
HETATM    4  C   UNL     1      -8.687  17.563  66.426  1.00  0.00    -0.242 C  
HETATM    5  N   UNL     1      -8.804  16.724  67.629  1.00  0.00    -0.204 NA 
HETATM    6  C   UNL     1     -10.647  18.207  68.442  1.00  0.00    -0.197 C  
HETATM    7  C   UNL     1      -9.369  17.419  68.802  1.00  0.00    -0.244 C  
ENDROOT
BRANCH   5   8
HETATM    8  C   UNL     1      -8.639  15.342  67.653  1.00  0.00    -0.169 C  
HETATM    9  N   UNL     1      -7.490  14.803  67.943  1.00  0.00    -0.129 NA 
HETATM   10  C   UNL     1      -7.213  13.424  67.932  1.00  0.00    -0.133 A  
HETATM   11  H   UNL     1      -6.729  15.433  68.199  1.00  0.00     0.000 HD 
HETATM   12  C   UNL     1      -5.939  13.064  67.466  1.00  0.00    -0.113 A  
HETATM   13  C   UNL     1      -5.533  11.730  67.413  1.00  0.00    -0.094 A  
HETATM   14  C   UNL     1      -6.389  10.728  67.851  1.00  0.00    -0.061 A  
HETATM   15  C   UNL     1      -7.646  11.065  68.354  1.00  0.00    -0.108 A  
HETATM   16  C   UNL     1      -8.073  12.406  68.400  1.00  0.00    -0.143 A  
HETATM   17  N   UNL     1      -9.417  12.666  68.792  1.00  0.00    -0.408 NA 
HETATM   18  C   UNL     1     -10.169  13.385  67.920  1.00  0.00    -0.241 A  
HETATM   19  H   UNL     1      -9.794  12.332  69.679  1.00  0.00     0.000 HD 
HETATM   20  C   UNL     1      -9.829  14.569  67.293  1.00  0.00    -0.236 A  
HETATM   21  C   UNL     1     -10.778  14.871  66.252  1.00  0.00    -0.320 A  
HETATM   22  C   UNL     1     -11.840  13.994  66.217  1.00  0.00    -0.411 A  
HETATM   23  C   UNL     1     -13.003  13.972  65.289  1.00  0.00    -0.315 C  
HETATM   24  S   UNL     1     -11.705  12.807  67.434  1.00  0.00    -0.348 SA 
ENDBRANCH   5   8
TORSDOF 1
ENDMDL
MODEL       71
REMARK 921   NORMALIZED FREE ENERGY PREDICTED BY IDOCK:   -4.85 KCAL/MOL
REMARK 922        TOTAL FREE ENERGY PREDICTED BY IDOCK:   -5.54 KCAL/MOL
REMARK 923 INTER-LIGAND FREE ENERGY PREDICTED BY IDOCK:   -5.96 KCAL/MOL
REMARK 924 INTRA-LIGAND FREE ENERGY PREDICTED BY IDOCK:    0.42 KCAL/MOL
REMARK 927      BINDING AFFINITY PREDICTED BY RF-SCORE:    0.00 PKD
ROOT
HETATM    1  C   UNL     1      -6.646  11.196  69.708  1.00  0.00    -0.138 C  
HETATM    2  N   UNL     1      -6.507  11.897  68.433  1.00  0.00    -0.052 NA 
HETATM    3  C   UNL     1      -7.750  11.843  67.639  1.00  0.00    -0.141 C  
HETATM    4  C   UNL     1      -8.924  12.688  68.182  1.00  0.00    -0.199 C  
HETATM    5  N   UNL     1      -8.523  14.076  68.462  1.00  0.00    -0.160 NA 
HETATM    6  C   UNL     1      -6.144  13.319  68.624  1.00  0.00    -0.085 C  
HETATM    7  C   UNL     1      -7.261  14.203  69.218  1.00  0.00    -0.049 C  
ENDROOT
BRANCH   5   8
HETATM    8  C   UNL     1      -9.107  15.202  67.890  1.00  0.00    -0.179 C  
HETATM    9  N   UNL     1      -8.830  16.399  68.319  1.00  0.00    -0.196 NA 
HETATM   10  C   UNL     1      -9.414  17.588  67.846  1.00  0.00    -0.277 A  
HETATM   11  H   UNL     1      -8.132  16.481  69.059  1.00  0.00     0.000 HD 
HETATM   12  C   UNL     1      -9.666  18.569  68.817  1.00  0.00    -0.390 A  
HETATM   13  C   UNL     1     -10.234  19.799  68.481  1.00  0.00    -0.547 A  
HETATM   14  C   UNL     1     -10.539  20.080  67.156  1.00  0.00    -0.447 A  
HETATM   15  C   UNL     1     -10.263  19.135  66.167  1.00  0.00    -0.535 A  
HETATM   16  C   UNL     1      -9.702  17.885  66.496  1.00  0.00    -0.329 A  
HETATM   17  N   UNL     1      -9.577  16.916  65.460  1.00  0.00    -0.460 NA 
HETATM   18  C   UNL     1     -10.167  15.715  65.687  1.00  0.00    -0.375 A  
HETATM   19  H   UNL     1      -9.071  17.113  64.596  1.00  0.00     0.000 HD 
HETATM   20  C   UNL     1     -10.065  14.927  66.817  1.00  0.00    -0.254 A  
HETATM   21  C   UNL     1     -11.041  13.868  66.776  1.00  0.00    -0.310 A  
HETATM   22  C   UNL     1     -11.740  13.823  65.589  1.00  0.00    -0.347 A  
HETATM   23  C   UNL     1     -12.824  12.890  65.180  1.00  0.00    -0.295 C  
HETATM   24  S   UNL     1     -11.226  15.047  64.519  1.00  0.00    -0.196 SA 
ENDBRANCH   5   8
TORSDOF 1
ENDMDL
MODEL       72
REMARK 921   NORMALIZED FREE ENERGY PREDICTED BY IDOCK:   -4.82 KCAL/MOL
REMARK 922        TOTAL FREE ENERGY PREDICTED BY IDOCK:   -5.51 KCAL/MOL
REMARK 923 INTER-LIGAND FREE ENERGY PREDICTED BY IDOCK:   -5.11 KCAL/MOL
REMARK 924 INTRA-LIGAND FREE ENERGY PREDICTED BY IDOCK:   -0.40 KCAL/MOL
REMARK 927      BINDING AFFINITY PREDICTED BY RF-SCORE:    0.00 PKD
ROOT
HETATM    1  C   UNL     1      -8.410  20.568  67.410  1.00  0.00    -0.283 C  
HETATM    2  N   UNL     1      -8.929  19.628  66.418  1.00  0.00    -0.366 NA 
HETATM    3  C   UNL     1      -7.891  18.686  65.957  1.00  0.00    -0.156 C  
HETATM    4  C   UNL     1      -7.445  17.628  66.992  1.00  0.00    -0.199 C  
HETATM    5  N   UNL     1      -8.591  16.919  67.585  1.00  0.00    -0.206 NA 
HETATM    6  C   UNL     1     -10.063  18.839  66.949  1.00  0.00    -0.358 C  
HETATM    7  C   UNL     1      -9.687  17.802  68.028  1.00  0.00    -0.304 C  
ENDROOT
BRANCH   5   8
HETATM    8  C   UNL     1      -8.782  15.542  67.540  1.00  0.00    -0.172 C  
HETATM    9  N   UNL     1      -9.746  15.016  66.842  1.00  0.00    -0.231 NA 
HETATM   10  C   UNL     1     -10.055  13.644  66.785  1.00  0.00    -0.269 A  
HETATM   11  H   UNL     1     -10.326  15.650  66.291  1.00  0.00     0.000 HD 
HETATM   12  C   UNL     1     -11.421  13.331  66.729  1.00  0.00    -0.387 A  
HETATM   13  C   UNL     1     -11.864  12.009  66.660  1.00  0.00    -0.239 A  
HETATM   14  C   UNL     1     -10.940  10.972  66.619  1.00  0.00    -0.253 A  
HETATM   15  C   UNL     1      -9.576  11.261  66.635  1.00  0.00    -0.218 A  
HETATM   16  C   UNL     1      -9.117  12.590  66.719  1.00  0.00    -0.214 A  
HETATM   17  N   UNL     1      -7.718  12.806  66.873  1.00  0.00    -0.395 NA 
HETATM   18  C   UNL     1      -7.339  13.544  67.947  1.00  0.00    -0.149 A  
HETATM   19  H   UNL     1      -7.039  12.427  66.213  1.00  0.00     0.000 HD 
HETATM   20  C   UNL     1      -7.853  14.759  68.357  1.00  0.00    -0.128 A  
HETATM   21  C   UNL     1      -7.372  15.084  69.676  1.00  0.00    -0.181 A  
HETATM   22  C   UNL     1      -6.438  14.186  70.147  1.00  0.00    -0.086 A  
HETATM   23  C   UNL     1      -5.728  14.179  71.454  1.00  0.00    -0.223 C  
HETATM   24  S   UNL     1      -6.133  12.954  69.009  1.00  0.00    -0.096 SA 
ENDBRANCH   5   8
TORSDOF 1
ENDMDL
MODEL       73
REMARK 921   NORMALIZED FREE ENERGY PREDICTED BY IDOCK:   -4.78 KCAL/MOL
REMARK 922        TOTAL FREE ENERGY PREDICTED BY IDOCK:   -5.46 KCAL/MOL
REMARK 923 INTER-LIGAND FREE ENERGY PREDICTED BY IDOCK:   -5.06 KCAL/MOL
REMARK 924 INTRA-LIGAND FREE ENERGY PREDICTED BY IDOCK:   -0.40 KCAL/MOL
REMARK 927      BINDING AFFINITY PREDICTED BY RF-SCORE:    0.00 PKD
ROOT
HETATM    1  C   UNL     1      -9.540   9.259  65.382  1.00  0.00    -0.167 C  
HETATM    2  N   UNL     1      -8.935  10.436  64.761  1.00  0.00    -0.189 NA 
HETATM    3  C   UNL     1      -9.947  11.448  64.401  1.00  0.00    -0.274 C  
HETATM    4  C   UNL     1     -10.600  12.188  65.590  1.00  0.00    -0.262 C  
HETATM    5  N   UNL     1      -9.598  12.734  66.518  1.00  0.00    -0.254 NA 
HETATM    6  C   UNL     1      -7.939  11.076  65.649  1.00  0.00     0.034 C  
HETATM    7  C   UNL     1      -8.530  11.785  66.886  1.00  0.00    -0.174 C  
ENDROOT
BRANCH   5   8
HETATM    8  C   UNL     1      -9.482  14.078  66.861  1.00  0.00    -0.265 C  
HETATM    9  N   UNL     1      -8.609  14.850  66.281  1.00  0.00    -0.414 NA 
HETATM   10  C   UNL     1      -8.377  16.200  66.603  1.00  0.00    -0.286 A  
HETATM   11  H   UNL     1      -8.047  14.443  65.533  1.00  0.00     0.000 HD 
HETATM   12  C   UNL     1      -7.039  16.617  66.549  1.00  0.00    -0.212 A  
HETATM   13  C   UNL     1      -6.672  17.933  66.835  1.00  0.00    -0.209 A  
HETATM   14  C   UNL     1      -7.648  18.867  67.158  1.00  0.00    -0.240 A  
HETATM   15  C   UNL     1      -8.989  18.486  67.182  1.00  0.00    -0.281 A  
HETATM   16  C   UNL     1      -9.371  17.158  66.908  1.00  0.00    -0.249 A  
HETATM   17  N   UNL     1     -10.739  16.805  67.087  1.00  0.00    -0.246 NA 
HETATM   18  C   UNL     1     -10.986  15.766  67.925  1.00  0.00    -0.324 A  
HETATM   19  H   UNL     1     -11.490  17.304  66.612  1.00  0.00     0.000 HD 
HETATM   20  C   UNL     1     -10.377  14.526  67.930  1.00  0.00    -0.231 A  
HETATM   21  C   UNL     1     -10.726  13.805  69.128  1.00  0.00    -0.154 A  
HETATM   22  C   UNL     1     -11.661  14.460  69.900  1.00  0.00    -0.284 A  
HETATM   23  C   UNL     1     -12.256  14.043  71.198  1.00  0.00    -0.417 C  
HETATM   24  S   UNL     1     -12.125  15.939  69.190  1.00  0.00     0.031 SA 
ENDBRANCH   5   8
TORSDOF 1
ENDMDL
MODEL       74
REMARK 921   NORMALIZED FREE ENERGY PREDICTED BY IDOCK:   -4.77 KCAL/MOL
REMARK 922        TOTAL FREE ENERGY PREDICTED BY IDOCK:   -5.46 KCAL/MOL
REMARK 923 INTER-LIGAND FREE ENERGY PREDICTED BY IDOCK:   -5.07 KCAL/MOL
REMARK 924 INTRA-LIGAND FREE ENERGY PREDICTED BY IDOCK:   -0.39 KCAL/MOL
REMARK 927      BINDING AFFINITY PREDICTED BY RF-SCORE:    0.00 PKD
ROOT
HETATM    1  C   UNL     1     -11.574  15.082  64.725  1.00  0.00    -0.395 C  
HETATM    2  N   UNL     1     -12.029  14.206  65.803  1.00  0.00    -0.385 NA 
HETATM    3  C   UNL     1     -12.408  12.870  65.301  1.00  0.00    -0.490 C  
HETATM    4  C   UNL     1     -11.238  11.980  64.827  1.00  0.00    -0.318 C  
HETATM    5  N   UNL     1     -10.167  11.894  65.833  1.00  0.00    -0.228 NA 
HETATM    6  C   UNL     1     -10.992  14.029  66.843  1.00  0.00    -0.298 C  
HETATM    7  C   UNL     1      -9.769  13.193  66.409  1.00  0.00    -0.269 C  
ENDROOT
BRANCH   5   8
HETATM    8  C   UNL     1      -9.705  10.710  66.401  1.00  0.00    -0.196 C  
HETATM    9  N   UNL     1      -8.982   9.871  65.718  1.00  0.00    -0.148 NA 
HETATM   10  C   UNL     1      -8.522   8.626  66.186  1.00  0.00    -0.133 A  
HETATM   11  H   UNL     1      -8.728  10.137  64.767  1.00  0.00     0.000 HD 
HETATM   12  C   UNL     1      -8.515   7.587  65.243  1.00  0.00    -0.075 A  
HETATM   13  C   UNL     1      -8.074   6.305  65.573  1.00  0.00    -0.129 A  
HETATM   14  C   UNL     1      -7.605   6.044  66.854  1.00  0.00    -0.096 A  
HETATM   15  C   UNL     1      -7.568   7.070  67.799  1.00  0.00    -0.111 A  
HETATM   16  C   UNL     1      -8.023   8.365  67.482  1.00  0.00    -0.106 A  
HETATM   17  N   UNL     1      -8.088   9.326  68.531  1.00  0.00    -0.105 NA 
HETATM   18  C   UNL     1      -9.296   9.913  68.733  1.00  0.00    -0.157 A  
HETATM   19  H   UNL     1      -7.274   9.560  69.097  1.00  0.00     0.000 HD 
HETATM   20  C   UNL     1     -10.125  10.480  67.785  1.00  0.00    -0.205 A  
HETATM   21  C   UNL     1     -11.419  10.754  68.355  1.00  0.00    -0.358 A  
HETATM   22  C   UNL     1     -11.477  10.506  69.710  1.00  0.00    -0.294 A  
HETATM   23  C   UNL     1     -12.630  10.656  70.638  1.00  0.00    -0.454 C  
HETATM   24  S   UNL     1      -9.979   9.947  70.302  1.00  0.00    -0.124 SA 
ENDBRANCH   5   8
TORSDOF 1
ENDMDL
MODEL       75
REMARK 921   NORMALIZED FREE ENERGY PREDICTED BY IDOCK:   -4.76 KCAL/MOL
REMARK 922        TOTAL FREE ENERGY PREDICTED BY IDOCK:   -5.45 KCAL/MOL
REMARK 923 INTER-LIGAND FREE ENERGY PREDICTED BY IDOCK:   -5.04 KCAL/MOL
REMARK 924 INTRA-LIGAND FREE ENERGY PREDICTED BY IDOCK:   -0.41 KCAL/MOL
REMARK 927      BINDING AFFINITY PREDICTED BY RF-SCORE:    0.00 PKD
ROOT
HETATM    1  C   UNL     1      -8.190   7.922  71.796  1.00  0.00    -0.117 C  
HETATM    2  N   UNL     1      -8.545   9.259  71.324  1.00  0.00    -0.313 NA 
HETATM    3  C   UNL     1      -7.555   9.782  70.362  1.00  0.00    -0.148 C  
HETATM    4  C   UNL     1      -7.547   9.097  68.976  1.00  0.00    -0.074 C  
HETATM    5  N   UNL     1      -8.892   9.034  68.384  1.00  0.00    -0.133 NA 
HETATM    6  C   UNL     1      -9.873   9.278  70.672  1.00  0.00    -0.270 C  
HETATM    7  C   UNL     1      -9.940   8.559  69.308  1.00  0.00    -0.195 C  
ENDROOT
BRANCH   5   8
HETATM    8  C   UNL     1      -9.244   9.581  67.154  1.00  0.00    -0.134 C  
HETATM    9  N   UNL     1      -9.943  10.676  67.077  1.00  0.00    -0.195 NA 
HETATM   10  C   UNL     1     -10.398  11.269  65.885  1.00  0.00    -0.253 A  
HETATM   11  H   UNL     1     -10.181  11.143  67.953  1.00  0.00     0.000 HD 
HETATM   12  C   UNL     1     -11.675  11.847  65.942  1.00  0.00    -0.208 A  
HETATM   13  C   UNL     1     -12.241  12.477  64.833  1.00  0.00    -0.534 A  
HETATM   14  C   UNL     1     -11.525  12.561  63.646  1.00  0.00    -0.568 A  
HETATM   15  C   UNL     1     -10.238  12.027  63.576  1.00  0.00    -0.477 A  
HETATM   16  C   UNL     1      -9.661  11.377  64.685  1.00  0.00    -0.240 A  
HETATM   17  N   UNL     1      -8.405  10.732  64.502  1.00  0.00    -0.366 NA 
HETATM   18  C   UNL     1      -8.353   9.415  64.826  1.00  0.00    -0.154 A  
HETATM   19  H   UNL     1      -7.589  11.232  64.148  1.00  0.00     0.000 HD 
HETATM   20  C   UNL     1      -8.807   8.815  65.985  1.00  0.00    -0.210 A  
HETATM   21  C   UNL     1      -8.810   7.382  65.836  1.00  0.00    -0.149 A  
HETATM   22  C   UNL     1      -8.256   6.961  64.646  1.00  0.00    -0.025 A  
HETATM   23  C   UNL     1      -8.092   5.575  64.132  1.00  0.00    -0.124 C  
HETATM   24  S   UNL     1      -7.725   8.282  63.708  1.00  0.00    -0.151 SA 
ENDBRANCH   5   8
TORSDOF 1
ENDMDL
MODEL       76
REMARK 921   NORMALIZED FREE ENERGY PREDICTED BY IDOCK:   -4.75 KCAL/MOL
REMARK 922        TOTAL FREE ENERGY PREDICTED BY IDOCK:   -5.44 KCAL/MOL
REMARK 923 INTER-LIGAND FREE ENERGY PREDICTED BY IDOCK:   -5.04 KCAL/MOL
REMARK 924 INTRA-LIGAND FREE ENERGY PREDICTED BY IDOCK:   -0.39 KCAL/MOL
REMARK 927      BINDING AFFINITY PREDICTED BY RF-SCORE:    0.00 PKD
ROOT
HETATM    1  C   UNL     1      -7.265   9.664  66.044  1.00  0.00    -0.098 C  
HETATM    2  N   UNL     1      -7.457   9.965  67.462  1.00  0.00    -0.090 NA 
HETATM    3  C   UNL     1      -7.021  11.335  67.796  1.00  0.00    -0.075 C  
HETATM    4  C   UNL     1      -7.915  12.470  67.248  1.00  0.00    -0.173 C  
HETATM    5  N   UNL     1      -9.335  12.261  67.574  1.00  0.00    -0.178 NA 
HETATM    6  C   UNL     1      -8.873   9.820  67.868  1.00  0.00    -0.122 C  
HETATM    7  C   UNL     1      -9.825  10.896  67.305  1.00  0.00    -0.175 C  
ENDROOT
BRANCH   5   8
HETATM    8  C   UNL     1     -10.124  13.155  68.293  1.00  0.00    -0.247 C  
HETATM    9  N   UNL     1     -10.584  12.852  69.472  1.00  0.00    -0.297 NA 
HETATM   10  C   UNL     1     -11.438  13.662  70.244  1.00  0.00     0.020 A  
HETATM   11  H   UNL     1     -10.304  11.955  69.868  1.00  0.00     0.000 HD 
HETATM   12  C   UNL     1     -12.423  12.982  70.975  1.00  0.00    -0.385 A  
HETATM   13  C   UNL     1     -13.328  13.665  71.789  1.00  0.00    -0.469 A  
HETATM   14  C   UNL     1     -13.246  15.046  71.907  1.00  0.00    -0.455 A  
HETATM   15  C   UNL     1     -12.251  15.741  71.219  1.00  0.00    -0.491 A  
HETATM   16  C   UNL     1     -11.340  15.064  70.383  1.00  0.00    -0.270 A  
HETATM   17  N   UNL     1     -10.441  15.846  69.603  1.00  0.00    -0.274 NA 
HETATM   18  C   UNL     1     -10.465  15.629  68.263  1.00  0.00    -0.252 A  
HETATM   19  H   UNL     1      -9.815  16.530  70.027  1.00  0.00     0.000 HD 
HETATM   20  C   UNL     1     -10.417  14.414  67.606  1.00  0.00    -0.245 A  
HETATM   21  C   UNL     1     -10.729  14.591  66.211  1.00  0.00    -0.309 A  
HETATM   22  C   UNL     1     -10.873  15.913  65.852  1.00  0.00    -0.233 A  
HETATM   23  C   UNL     1     -11.202  16.487  64.520  1.00  0.00    -0.033 C  
HETATM   24  S   UNL     1     -10.630  16.948  67.185  1.00  0.00    -0.194 SA 
ENDBRANCH   5   8
TORSDOF 1
ENDMDL
MODEL       77
REMARK 921   NORMALIZED FREE ENERGY PREDICTED BY IDOCK:   -4.75 KCAL/MOL
REMARK 922        TOTAL FREE ENERGY PREDICTED BY IDOCK:   -5.44 KCAL/MOL
REMARK 923 INTER-LIGAND FREE ENERGY PREDICTED BY IDOCK:   -5.03 KCAL/MOL
REMARK 924 INTRA-LIGAND FREE ENERGY PREDICTED BY IDOCK:   -0.41 KCAL/MOL
REMARK 927      BINDING AFFINITY PREDICTED BY RF-SCORE:    0.00 PKD
ROOT
HETATM    1  C   UNL     1     -10.552  19.164  67.534  1.00  0.00    -0.471 C  
HETATM    2  N   UNL     1      -9.671  18.363  68.381  1.00  0.00    -0.338 NA 
HETATM    3  C   UNL     1     -10.407  17.289  69.077  1.00  0.00    -0.330 C  
HETATM    4  C   UNL     1     -10.899  16.130  68.181  1.00  0.00    -0.329 C  
HETATM    5  N   UNL     1      -9.821  15.587  67.340  1.00  0.00    -0.223 NA 
HETATM    6  C   UNL     1      -8.576  17.740  67.604  1.00  0.00    -0.230 C  
HETATM    7  C   UNL     1      -9.016  16.611  66.648  1.00  0.00    -0.255 C  
ENDROOT
BRANCH   5   8
HETATM    8  C   UNL     1      -9.401  14.259  67.347  1.00  0.00    -0.203 C  
HETATM    9  N   UNL     1     -10.114  13.323  66.790  1.00  0.00    -0.253 NA 
HETATM   10  C   UNL     1      -9.803  11.951  66.799  1.00  0.00    -0.197 A  
HETATM   11  H   UNL     1     -10.967  13.607  66.308  1.00  0.00     0.000 HD 
HETATM   12  C   UNL     1     -10.896  11.081  66.928  1.00  0.00    -0.324 A  
HETATM   13  C   UNL     1     -10.728   9.696  66.942  1.00  0.00    -0.185 A  
HETATM   14  C   UNL     1      -9.458   9.152  66.800  1.00  0.00    -0.230 A  
HETATM   15  C   UNL     1      -8.359   9.996  66.633  1.00  0.00    -0.125 A  
HETATM   16  C   UNL     1      -8.514  11.396  66.631  1.00  0.00    -0.171 A  
HETATM   17  N   UNL     1      -7.338  12.199  66.598  1.00  0.00    -0.377 NA 
HETATM   18  C   UNL     1      -7.201  13.105  67.600  1.00  0.00    -0.159 A  
HETATM   19  H   UNL     1      -6.639  12.099  65.863  1.00  0.00     0.000 HD 
HETATM   20  C   UNL     1      -8.142  14.010  68.051  1.00  0.00    -0.152 A  
HETATM   21  C   UNL     1      -7.708  14.605  69.289  1.00  0.00    -0.091 A  
HETATM   22  C   UNL     1      -6.433  14.228  69.652  1.00  0.00    -0.140 A  
HETATM   23  C   UNL     1      -5.651  14.620  70.855  1.00  0.00    -0.160 C  
HETATM   24  S   UNL     1      -5.751  13.165  68.507  1.00  0.00    -0.085 SA 
ENDBRANCH   5   8
TORSDOF 1
ENDMDL
MODEL       78
REMARK 921   NORMALIZED FREE ENERGY PREDICTED BY IDOCK:   -4.67 KCAL/MOL
REMARK 922        TOTAL FREE ENERGY PREDICTED BY IDOCK:   -5.34 KCAL/MOL
REMARK 923 INTER-LIGAND FREE ENERGY PREDICTED BY IDOCK:   -5.60 KCAL/MOL
REMARK 924 INTRA-LIGAND FREE ENERGY PREDICTED BY IDOCK:    0.26 KCAL/MOL
REMARK 927      BINDING AFFINITY PREDICTED BY RF-SCORE:    0.00 PKD
ROOT
HETATM    1  C   UNL     1      -6.298  17.119  69.573  1.00  0.00    -0.230 C  
HETATM    2  N   UNL     1      -6.075  15.720  69.212  1.00  0.00    -0.126 NA 
HETATM    3  C   UNL     1      -7.142  14.842  69.731  1.00  0.00    -0.156 C  
HETATM    4  C   UNL     1      -8.518  14.989  69.042  1.00  0.00    -0.200 C  
HETATM    5  N   UNL     1      -8.414  14.903  67.577  1.00  0.00    -0.173 NA 
HETATM    6  C   UNL     1      -6.000  15.535  67.745  1.00  0.00    -0.149 C  
HETATM    7  C   UNL     1      -7.335  15.725  66.995  1.00  0.00    -0.191 C  
ENDROOT
BRANCH   5   8
HETATM    8  C   UNL     1      -9.082  13.972  66.787  1.00  0.00    -0.232 C  
HETATM    9  N   UNL     1      -9.812  14.344  65.776  1.00  0.00    -0.422 NA 
HETATM   10  C   UNL     1     -10.571  13.484  64.961  1.00  0.00    -0.372 A  
HETATM   11  H   UNL     1      -9.837  15.340  65.557  1.00  0.00     0.000 HD 
HETATM   12  C   UNL     1     -11.810  13.986  64.536  1.00  0.00    -0.452 A  
HETATM   13  C   UNL     1     -12.657  13.239  63.715  1.00  0.00    -0.216 A  
HETATM   14  C   UNL     1     -12.265  11.979  63.282  1.00  0.00    -0.531 A  
HETATM   15  C   UNL     1     -11.021  11.474  63.661  1.00  0.00    -0.482 A  
HETATM   16  C   UNL     1     -10.163  12.213  64.500  1.00  0.00    -0.293 A  
HETATM   17  N   UNL     1      -8.973  11.581  64.961  1.00  0.00    -0.406 NA 
HETATM   18  C   UNL     1      -8.800  11.537  66.307  1.00  0.00    -0.186 A  
HETATM   19  H   UNL     1      -8.289  11.185  64.317  1.00  0.00     0.000 HD 
HETATM   20  C   UNL     1      -8.928  12.578  67.207  1.00  0.00    -0.192 A  
HETATM   21  C   UNL     1      -8.923  12.073  68.556  1.00  0.00    -0.098 A  
HETATM   22  C   UNL     1      -8.673  10.719  68.626  1.00  0.00    -0.152 A  
HETATM   23  C   UNL     1      -8.599   9.845  69.827  1.00  0.00    -0.219 C  
HETATM   24  S   UNL     1      -8.437  10.051  67.075  1.00  0.00    -0.125 SA 
ENDBRANCH   5   8
TORSDOF 1
ENDMDL
MODEL       79
REMARK 921   NORMALIZED FREE ENERGY PREDICTED BY IDOCK:   -4.64 KCAL/MOL
REMARK 922        TOTAL FREE ENERGY PREDICTED BY IDOCK:   -5.32 KCAL/MOL
REMARK 923 INTER-LIGAND FREE ENERGY PREDICTED BY IDOCK:   -5.38 KCAL/MOL
REMARK 924 INTRA-LIGAND FREE ENERGY PREDICTED BY IDOCK:    0.07 KCAL/MOL
REMARK 927      BINDING AFFINITY PREDICTED BY RF-SCORE:    0.00 PKD
ROOT
HETATM    1  C   UNL     1      -9.672   1.922  74.292  1.00  0.00    -0.078 C  
HETATM    2  N   UNL     1     -10.333   2.235  73.026  1.00  0.00    -0.133 NA 
HETATM    3  C   UNL     1     -11.573   3.010  73.232  1.00  0.00     0.102 C  
HETATM    4  C   UNL     1     -11.375   4.470  73.698  1.00  0.00    -0.204 C  
HETATM    5  N   UNL     1     -10.420   5.197  72.846  1.00  0.00    -0.198 NA 
HETATM    6  C   UNL     1      -9.453   3.006  72.121  1.00  0.00    -0.128 C  
HETATM    7  C   UNL     1      -9.174   4.458  72.564  1.00  0.00    -0.123 C  
ENDROOT
BRANCH   5   8
HETATM    8  C   UNL     1     -10.707   6.366  72.149  1.00  0.00    -0.227 C  
HETATM    9  N   UNL     1     -11.294   7.372  72.730  1.00  0.00    -0.469 NA 
HETATM   10  C   UNL     1     -11.680   8.567  72.094  1.00  0.00    -0.378 A  
HETATM   11  H   UNL     1     -11.491   7.287  73.727  1.00  0.00     0.000 HD 
HETATM   12  C   UNL     1     -12.894   9.121  72.526  1.00  0.00    -0.387 A  
HETATM   13  C   UNL     1     -13.387  10.309  71.985  1.00  0.00    -0.466 A  
HETATM   14  C   UNL     1     -12.656  10.981  71.013  1.00  0.00    -0.512 A  
HETATM   15  C   UNL     1     -11.428  10.469  70.594  1.00  0.00    -0.418 A  
HETATM   16  C   UNL     1     -10.926   9.264  71.123  1.00  0.00    -0.339 A  
HETATM   17  N   UNL     1      -9.738   8.727  70.551  1.00  0.00    -0.179 NA 
HETATM   18  C   UNL     1      -9.819   7.455  70.083  1.00  0.00    -0.180 A  
HETATM   19  H   UNL     1      -8.875   9.266  70.496  1.00  0.00     0.000 HD 
HETATM   20  C   UNL     1     -10.338   6.351  70.732  1.00  0.00    -0.244 A  
HETATM   21  C   UNL     1     -10.482   5.253  69.810  1.00  0.00    -0.340 A  
HETATM   22  C   UNL     1      -9.963   5.524  68.562  1.00  0.00    -0.157 A  
HETATM   23  C   UNL     1      -9.933   4.654  67.356  1.00  0.00    -0.190 C  
HETATM   24  S   UNL     1      -9.297   7.092  68.494  1.00  0.00    -0.135 SA 
ENDBRANCH   5   8
TORSDOF 1
ENDMDL
MODEL       80
REMARK 921   NORMALIZED FREE ENERGY PREDICTED BY IDOCK:   -4.60 KCAL/MOL
REMARK 922        TOTAL FREE ENERGY PREDICTED BY IDOCK:   -5.27 KCAL/MOL
REMARK 923 INTER-LIGAND FREE ENERGY PREDICTED BY IDOCK:   -4.84 KCAL/MOL
REMARK 924 INTRA-LIGAND FREE ENERGY PREDICTED BY IDOCK:   -0.43 KCAL/MOL
REMARK 927      BINDING AFFINITY PREDICTED BY RF-SCORE:    0.00 PKD
ROOT
HETATM    1  C   UNL     1      -9.844  17.073  67.158  1.00  0.00    -0.269 C  
HETATM    2  N   UNL     1     -10.499  15.950  67.825  1.00  0.00    -0.279 NA 
HETATM    3  C   UNL     1     -11.173  15.057  66.863  1.00  0.00    -0.323 C  
HETATM    4  C   UNL     1     -10.237  14.213  65.969  1.00  0.00    -0.308 C  
HETATM    5  N   UNL     1      -9.225  13.491  66.757  1.00  0.00    -0.251 NA 
HETATM    6  C   UNL     1      -9.541  15.141  68.611  1.00  0.00    -0.213 C  
HETATM    7  C   UNL     1      -8.541  14.318  67.770  1.00  0.00    -0.177 C  
ENDROOT
BRANCH   5   8
HETATM    8  C   UNL     1      -9.054  12.110  66.756  1.00  0.00    -0.205 C  
HETATM    9  N   UNL     1      -8.428  11.507  65.787  1.00  0.00    -0.377 NA 
HETATM   10  C   UNL     1      -8.261  10.115  65.669  1.00  0.00    -0.150 A  
HETATM   11  H   UNL     1      -8.025  12.092  65.054  1.00  0.00     0.000 HD 
HETATM   12  C   UNL     1      -8.340   9.602  64.366  1.00  0.00    -0.171 A  
HETATM   13  C   UNL     1      -8.183   8.240  64.107  1.00  0.00    -0.107 A  
HETATM   14  C   UNL     1      -7.916   7.365  65.152  1.00  0.00    -0.128 A  
HETATM   15  C   UNL     1      -7.795   7.856  66.452  1.00  0.00    -0.097 A  
HETATM   16  C   UNL     1      -7.965   9.228  66.727  1.00  0.00    -0.108 A  
HETATM   17  N   UNL     1      -7.968   9.640  68.090  1.00  0.00    -0.100 NA 
HETATM   18  C   UNL     1      -9.061  10.329  68.507  1.00  0.00    -0.138 A  
HETATM   19  H   UNL     1      -7.192   9.431  68.718  1.00  0.00     0.000 HD 
HETATM   20  C   UNL     1      -9.661  11.409  67.889  1.00  0.00    -0.186 A  
HETATM   21  C   UNL     1     -10.938  11.685  68.498  1.00  0.00    -0.264 A  
HETATM   22  C   UNL     1     -11.190  10.903  69.604  1.00  0.00    -0.282 A  
HETATM   23  C   UNL     1     -12.391  10.887  70.481  1.00  0.00    -0.463 C  
HETATM   24  S   UNL     1      -9.895   9.838  69.919  1.00  0.00    -0.248 SA 
ENDBRANCH   5   8
TORSDOF 1
ENDMDL
MODEL       81
REMARK 921   NORMALIZED FREE ENERGY PREDICTED BY IDOCK:   -4.60 KCAL/MOL
REMARK 922        TOTAL FREE ENERGY PREDICTED BY IDOCK:   -5.27 KCAL/MOL
REMARK 923 INTER-LIGAND FREE ENERGY PREDICTED BY IDOCK:   -4.84 KCAL/MOL
REMARK 924 INTRA-LIGAND FREE ENERGY PREDICTED BY IDOCK:   -0.43 KCAL/MOL
REMARK 927      BINDING AFFINITY PREDICTED BY RF-SCORE:    0.00 PKD
ROOT
HETATM    1  C   UNL     1     -11.565  12.247  65.847  1.00  0.00    -0.393 C  
HETATM    2  N   UNL     1     -10.435  12.108  66.764  1.00  0.00    -0.216 NA 
HETATM    3  C   UNL     1     -10.868  12.117  68.175  1.00  0.00    -0.222 C  
HETATM    4  C   UNL     1     -11.636  10.860  68.643  1.00  0.00    -0.303 C  
HETATM    5  N   UNL     1     -10.921   9.619  68.307  1.00  0.00    -0.172 NA 
HETATM    6  C   UNL     1      -9.681  10.857  66.522  1.00  0.00    -0.198 C  
HETATM    7  C   UNL     1     -10.421   9.563  66.919  1.00  0.00    -0.208 C  
ENDROOT
BRANCH   5   8
HETATM    8  C   UNL     1     -10.515   8.660  69.231  1.00  0.00    -0.217 C  
HETATM    9  N   UNL     1     -11.349   7.778  69.699  1.00  0.00    -0.446 NA 
HETATM   10  C   UNL     1     -11.048   6.813  70.678  1.00  0.00    -0.291 A  
HETATM   11  H   UNL     1     -12.299   7.786  69.326  1.00  0.00     0.000 HD 
HETATM   12  C   UNL     1     -12.070   6.544  71.601  1.00  0.00    -0.381 A  
HETATM   13  C   UNL     1     -11.905   5.602  72.617  1.00  0.00    -0.192 A  
HETATM   14  C   UNL     1     -10.717   4.889  72.713  1.00  0.00    -0.289 A  
HETATM   15  C   UNL     1      -9.700   5.112  71.784  1.00  0.00    -0.212 A  
HETATM   16  C   UNL     1      -9.849   6.070  70.762  1.00  0.00    -0.181 A  
HETATM   17  N   UNL     1      -8.723   6.346  69.935  1.00  0.00    -0.141 NA 
HETATM   18  C   UNL     1      -8.327   7.643  69.875  1.00  0.00    -0.132 A  
HETATM   19  H   UNL     1      -8.242   5.611  69.418  1.00  0.00     0.000 HD 
HETATM   20  C   UNL     1      -9.115   8.755  69.649  1.00  0.00    -0.149 A  
HETATM   21  C   UNL     1      -8.370   9.958  69.922  1.00  0.00    -0.200 A  
HETATM   22  C   UNL     1      -7.045   9.718  70.214  1.00  0.00    -0.143 A  
HETATM   23  C   UNL     1      -5.974  10.693  70.556  1.00  0.00    -0.121 C  
HETATM   24  S   UNL     1      -6.689   8.052  70.158  1.00  0.00    -0.037 SA 
ENDBRANCH   5   8
TORSDOF 1
ENDMDL
MODEL       82
REMARK 921   NORMALIZED FREE ENERGY PREDICTED BY IDOCK:   -4.57 KCAL/MOL
REMARK 922        TOTAL FREE ENERGY PREDICTED BY IDOCK:   -5.24 KCAL/MOL
REMARK 923 INTER-LIGAND FREE ENERGY PREDICTED BY IDOCK:   -4.96 KCAL/MOL
REMARK 924 INTRA-LIGAND FREE ENERGY PREDICTED BY IDOCK:   -0.28 KCAL/MOL
REMARK 927      BINDING AFFINITY PREDICTED BY RF-SCORE:    0.00 PKD
ROOT
HETATM    1  C   UNL     1     -12.173  13.213  65.424  1.00  0.00    -0.461 C  
HETATM    2  N   UNL     1     -11.184  13.412  66.481  1.00  0.00    -0.301 NA 
HETATM    3  C   UNL     1     -11.707  13.016  67.804  1.00  0.00    -0.359 C  
HETATM    4  C   UNL     1     -11.897  11.498  68.017  1.00  0.00    -0.217 C  
HETATM    5  N   UNL     1     -10.689  10.735  67.666  1.00  0.00    -0.238 NA 
HETATM    6  C   UNL     1      -9.945  12.643  66.229  1.00  0.00    -0.258 C  
HETATM    7  C   UNL     1     -10.087  11.113  66.372  1.00  0.00    -0.226 C  
ENDROOT
BRANCH   5   8
HETATM    8  C   UNL     1      -9.997   9.898  68.537  1.00  0.00    -0.159 C  
HETATM    9  N   UNL     1      -9.153  10.375  69.405  1.00  0.00    -0.323 NA 
HETATM   10  C   UNL     1      -8.365   9.605  70.280  1.00  0.00    -0.186 A  
HETATM   11  H   UNL     1      -9.054  11.389  69.454  1.00  0.00     0.000 HD 
HETATM   12  C   UNL     1      -7.065  10.083  70.507  1.00  0.00    -0.080 A  
HETATM   13  C   UNL     1      -6.183   9.419  71.361  1.00  0.00    -0.042 A  
HETATM   14  C   UNL     1      -6.597   8.273  72.027  1.00  0.00    -0.069 A  
HETATM   15  C   UNL     1      -7.897   7.800  71.847  1.00  0.00    -0.106 A  
HETATM   16  C   UNL     1      -8.792   8.453  70.977  1.00  0.00    -0.161 A  
HETATM   17  N   UNL     1     -10.053   7.839  70.733  1.00  0.00    -0.192 NA 
HETATM   18  C   UNL     1     -10.360   7.595  69.433  1.00  0.00    -0.214 A  
HETATM   19  H   UNL     1     -10.691   7.598  71.491  1.00  0.00     0.000 HD 
HETATM   20  C   UNL     1     -10.265   8.469  68.367  1.00  0.00    -0.236 A  
HETATM   21  C   UNL     1     -10.428   7.758  67.124  1.00  0.00    -0.413 A  
HETATM   22  C   UNL     1     -10.756   6.431  67.299  1.00  0.00    -0.353 A  
HETATM   23  C   UNL     1     -10.992   5.384  66.269  1.00  0.00    -0.053 C  
HETATM   24  S   UNL     1     -10.874   6.034  68.953  1.00  0.00    -0.315 SA 
ENDBRANCH   5   8
TORSDOF 1
ENDMDL
MODEL       83
REMARK 921   NORMALIZED FREE ENERGY PREDICTED BY IDOCK:   -4.55 KCAL/MOL
REMARK 922        TOTAL FREE ENERGY PREDICTED BY IDOCK:   -5.22 KCAL/MOL
REMARK 923 INTER-LIGAND FREE ENERGY PREDICTED BY IDOCK:   -4.86 KCAL/MOL
REMARK 924 INTRA-LIGAND FREE ENERGY PREDICTED BY IDOCK:   -0.36 KCAL/MOL
REMARK 927      BINDING AFFINITY PREDICTED BY RF-SCORE:    0.00 PKD
ROOT
HETATM    1  C   UNL     1      -7.053   5.643  66.027  1.00  0.00    -0.068 C  
HETATM    2  N   UNL     1      -8.318   6.111  65.464  1.00  0.00    -0.143 NA 
HETATM    3  C   UNL     1      -9.213   6.656  66.504  1.00  0.00    -0.158 C  
HETATM    4  C   UNL     1      -8.778   8.006  67.116  1.00  0.00    -0.131 C  
HETATM    5  N   UNL     1      -8.478   9.010  66.083  1.00  0.00    -0.123 NA 
HETATM    6  C   UNL     1      -8.111   7.159  64.440  1.00  0.00    -0.056 C  
HETATM    7  C   UNL     1      -7.621   8.516  64.988  1.00  0.00    -0.093 C  
ENDROOT
BRANCH   5   8
HETATM    8  C   UNL     1      -9.107  10.246  65.971  1.00  0.00    -0.161 C  
HETATM    9  N   UNL     1     -10.184  10.393  65.255  1.00  0.00    -0.291 NA 
HETATM   10  C   UNL     1     -10.853  11.611  65.033  1.00  0.00    -0.288 A  
HETATM   11  H   UNL     1     -10.575   9.557  64.820  1.00  0.00     0.000 HD 
HETATM   12  C   UNL     1     -11.388  11.785  63.748  1.00  0.00    -0.524 A  
HETATM   13  C   UNL     1     -12.083  12.943  63.398  1.00  0.00    -0.610 A  
HETATM   14  C   UNL     1     -12.279  13.943  64.342  1.00  0.00    -0.449 A  
HETATM   15  C   UNL     1     -11.789  13.777  65.637  1.00  0.00    -0.383 A  
HETATM   16  C   UNL     1     -11.074  12.618  65.999  1.00  0.00    -0.287 A  
HETATM   17  N   UNL     1     -10.482  12.575  67.293  1.00  0.00    -0.219 NA 
HETATM   18  C   UNL     1      -9.146  12.338  67.335  1.00  0.00    -0.184 A  
HETATM   19  H   UNL     1     -11.031  12.714  68.141  1.00  0.00     0.000 HD 
HETATM   20  C   UNL     1      -8.446  11.345  66.676  1.00  0.00    -0.171 A  
HETATM   21  C   UNL     1      -7.029  11.591  66.768  1.00  0.00    -0.108 A  
HETATM   22  C   UNL     1      -6.717  12.662  67.577  1.00  0.00    -0.156 A  
HETATM   23  C   UNL     1      -5.379  13.224  67.906  1.00  0.00    -0.108 C  
HETATM   24  S   UNL     1      -8.120  13.374  68.232  1.00  0.00    -0.149 SA 
ENDBRANCH   5   8
TORSDOF 1
ENDMDL
MODEL       84
REMARK 921   NORMALIZED FREE ENERGY PREDICTED BY IDOCK:   -4.53 KCAL/MOL
REMARK 922        TOTAL FREE ENERGY PREDICTED BY IDOCK:   -5.20 KCAL/MOL
REMARK 923 INTER-LIGAND FREE ENERGY PREDICTED BY IDOCK:   -4.78 KCAL/MOL
REMARK 924 INTRA-LIGAND FREE ENERGY PREDICTED BY IDOCK:   -0.43 KCAL/MOL
REMARK 927      BINDING AFFINITY PREDICTED BY RF-SCORE:    0.00 PKD
ROOT
HETATM    1  C   UNL     1     -11.401   5.073  72.920  1.00  0.00    -0.253 C  
HETATM    2  N   UNL     1     -11.653   6.492  72.676  1.00  0.00    -0.203 NA 
HETATM    3  C   UNL     1     -10.423   7.297  72.807  1.00  0.00    -0.260 C  
HETATM    4  C   UNL     1      -9.378   7.104  71.684  1.00  0.00    -0.152 C  
HETATM    5  N   UNL     1      -9.974   7.242  70.346  1.00  0.00    -0.190 NA 
HETATM    6  C   UNL     1     -12.216   6.728  71.328  1.00  0.00    -0.364 C  
HETATM    7  C   UNL     1     -11.233   6.495  70.162  1.00  0.00    -0.377 C  
ENDROOT
BRANCH   5   8
HETATM    8  C   UNL     1      -9.565   8.164  69.386  1.00  0.00    -0.167 C  
HETATM    9  N   UNL     1      -8.529   7.938  68.631  1.00  0.00    -0.128 NA 
HETATM   10  C   UNL     1      -8.005   8.833  67.680  1.00  0.00    -0.106 A  
HETATM   11  H   UNL     1      -8.058   7.039  68.738  1.00  0.00     0.000 HD 
HETATM   12  C   UNL     1      -6.606   8.860  67.576  1.00  0.00    -0.062 A  
HETATM   13  C   UNL     1      -5.959   9.695  66.666  1.00  0.00    -0.059 A  
HETATM   14  C   UNL     1      -6.705  10.506  65.820  1.00  0.00    -0.123 A  
HETATM   15  C   UNL     1      -8.098  10.469  65.878  1.00  0.00    -0.154 A  
HETATM   16  C   UNL     1      -8.763   9.640  66.803  1.00  0.00    -0.134 A  
HETATM   17  N   UNL     1     -10.179   9.755  66.905  1.00  0.00    -0.236 NA 
HETATM   18  C   UNL     1     -10.671  10.026  68.142  1.00  0.00    -0.239 A  
HETATM   19  H   UNL     1     -10.789   9.640  66.097  1.00  0.00     0.000 HD 
HETATM   20  C   UNL     1     -10.357   9.394  69.330  1.00  0.00    -0.217 A  
HETATM   21  C   UNL     1     -10.884  10.139  70.444  1.00  0.00    -0.365 A  
HETATM   22  C   UNL     1     -11.662  11.209  70.060  1.00  0.00    -0.356 A  
HETATM   23  C   UNL     1     -12.361  12.208  70.912  1.00  0.00    -0.370 C  
HETATM   24  S   UNL     1     -11.767  11.322  68.362  1.00  0.00    -0.260 SA 
ENDBRANCH   5   8
TORSDOF 1
ENDMDL
MODEL       85
REMARK 921   NORMALIZED FREE ENERGY PREDICTED BY IDOCK:   -4.49 KCAL/MOL
REMARK 922        TOTAL FREE ENERGY PREDICTED BY IDOCK:   -5.16 KCAL/MOL
REMARK 923 INTER-LIGAND FREE ENERGY PREDICTED BY IDOCK:   -4.77 KCAL/MOL
REMARK 924 INTRA-LIGAND FREE ENERGY PREDICTED BY IDOCK:   -0.39 KCAL/MOL
REMARK 927      BINDING AFFINITY PREDICTED BY RF-SCORE:    0.00 PKD
ROOT
HETATM    1  C   UNL     1     -12.658  13.603  64.005  1.00  0.00    -0.083 C  
HETATM    2  N   UNL     1     -11.566  14.117  64.830  1.00  0.00    -0.360 NA 
HETATM    3  C   UNL     1     -11.837  13.941  66.271  1.00  0.00    -0.408 C  
HETATM    4  C   UNL     1     -11.781  12.485  66.786  1.00  0.00    -0.384 C  
HETATM    5  N   UNL     1     -10.540  11.804  66.383  1.00  0.00    -0.245 NA 
HETATM    6  C   UNL     1     -10.281  13.452  64.519  1.00  0.00    -0.297 C  
HETATM    7  C   UNL     1     -10.187  11.977  64.961  1.00  0.00    -0.276 C  
ENDROOT
BRANCH   5   8
HETATM    8  C   UNL     1      -9.622  11.240  67.264  1.00  0.00    -0.173 C  
HETATM    9  N   UNL     1      -8.575  11.901  67.664  1.00  0.00    -0.149 NA 
HETATM   10  C   UNL     1      -7.564  11.395  68.501  1.00  0.00    -0.129 A  
HETATM   11  H   UNL     1      -8.480  12.866  67.344  1.00  0.00     0.000 HD 
HETATM   12  C   UNL     1      -6.259  11.812  68.199  1.00  0.00    -0.050 A  
HETATM   13  C   UNL     1      -5.165  11.391  68.956  1.00  0.00    -0.043 A  
HETATM   14  C   UNL     1      -5.362  10.560  70.052  1.00  0.00    -0.042 A  
HETATM   15  C   UNL     1      -6.654  10.162  70.395  1.00  0.00    -0.132 A  
HETATM   16  C   UNL     1      -7.765  10.570  69.630  1.00  0.00    -0.110 A  
HETATM   17  N   UNL     1      -9.037  10.015  69.951  1.00  0.00    -0.353 NA 
HETATM   18  C   UNL     1      -9.691   9.389  68.940  1.00  0.00    -0.164 A  
HETATM   19  H   UNL     1      -9.434  10.085  70.888  1.00  0.00     0.000 HD 
HETATM   20  C   UNL     1      -9.909   9.860  67.659  1.00  0.00    -0.198 A  
HETATM   21  C   UNL     1     -10.404   8.801  66.817  1.00  0.00    -0.328 A  
HETATM   22  C   UNL     1     -10.653   7.634  67.506  1.00  0.00    -0.252 A  
HETATM   23  C   UNL     1     -11.155   6.333  66.986  1.00  0.00    -0.379 C  
HETATM   24  S   UNL     1     -10.299   7.804  69.165  1.00  0.00    -0.210 SA 
ENDBRANCH   5   8
TORSDOF 1
ENDMDL
MODEL       86
REMARK 921   NORMALIZED FREE ENERGY PREDICTED BY IDOCK:   -4.48 KCAL/MOL
REMARK 922        TOTAL FREE ENERGY PREDICTED BY IDOCK:   -5.15 KCAL/MOL
REMARK 923 INTER-LIGAND FREE ENERGY PREDICTED BY IDOCK:   -4.79 KCAL/MOL
REMARK 924 INTRA-LIGAND FREE ENERGY PREDICTED BY IDOCK:   -0.36 KCAL/MOL
REMARK 927      BINDING AFFINITY PREDICTED BY RF-SCORE:    0.00 PKD
ROOT
HETATM    1  C   UNL     1      -9.783  12.948  66.701  1.00  0.00    -0.254 C  
HETATM    2  N   UNL     1      -9.102  11.688  66.407  1.00  0.00    -0.203 NA 
HETATM    3  C   UNL     1      -8.219  11.270  67.514  1.00  0.00    -0.124 C  
HETATM    4  C   UNL     1      -8.938  10.792  68.795  1.00  0.00    -0.170 C  
HETATM    5  N   UNL     1      -9.960   9.773  68.507  1.00  0.00    -0.156 NA 
HETATM    6  C   UNL     1     -10.062  10.592  66.146  1.00  0.00    -0.246 C  
HETATM    7  C   UNL     1     -10.852  10.109  67.380  1.00  0.00    -0.261 C  
ENDROOT
BRANCH   5   8
HETATM    8  C   UNL     1      -9.981   8.493  69.053  1.00  0.00    -0.193 C  
HETATM    9  N   UNL     1      -9.379   7.499  68.467  1.00  0.00    -0.143 NA 
HETATM   10  C   UNL     1      -9.397   6.163  68.909  1.00  0.00    -0.124 A  
HETATM   11  H   UNL     1      -8.851   7.706  67.619  1.00  0.00     0.000 HD 
HETATM   12  C   UNL     1      -9.457   5.191  67.900  1.00  0.00    -0.155 A  
HETATM   13  C   UNL     1      -9.471   3.828  68.200  1.00  0.00    -0.216 A  
HETATM   14  C   UNL     1      -9.398   3.411  69.523  1.00  0.00    -0.240 A  
HETATM   15  C   UNL     1      -9.300   4.359  70.542  1.00  0.00    -0.213 A  
HETATM   16  C   UNL     1      -9.299   5.738  70.252  1.00  0.00    -0.156 A  
HETATM   17  N   UNL     1      -9.338   6.650  71.345  1.00  0.00    -0.152 NA 
HETATM   18  C   UNL     1     -10.352   7.553  71.337  1.00  0.00    -0.194 A  
HETATM   19  H   UNL     1      -8.643   6.628  72.090  1.00  0.00     0.000 HD 
HETATM   20  C   UNL     1     -10.754   8.358  70.289  1.00  0.00    -0.240 A  
HETATM   21  C   UNL     1     -12.019   8.976  70.594  1.00  0.00    -0.138 A  
HETATM   22  C   UNL     1     -12.451   8.720  71.877  1.00  0.00    -0.372 A  
HETATM   23  C   UNL     1     -13.700   9.171  72.548  1.00  0.00    -0.499 C  
HETATM   24  S   UNL     1     -11.340   7.742  72.722  1.00  0.00    -0.341 SA 
ENDBRANCH   5   8
TORSDOF 1
ENDMDL
MODEL       87
REMARK 921   NORMALIZED FREE ENERGY PREDICTED BY IDOCK:   -4.47 KCAL/MOL
REMARK 922        TOTAL FREE ENERGY PREDICTED BY IDOCK:   -5.14 KCAL/MOL
REMARK 923 INTER-LIGAND FREE ENERGY PREDICTED BY IDOCK:   -4.73 KCAL/MOL
REMARK 924 INTRA-LIGAND FREE ENERGY PREDICTED BY IDOCK:   -0.40 KCAL/MOL
REMARK 927      BINDING AFFINITY PREDICTED BY RF-SCORE:    0.00 PKD
ROOT
HETATM    1  C   UNL     1      -7.339   6.417  65.110  1.00  0.00    -0.077 C  
HETATM    2  N   UNL     1      -7.392   6.185  66.553  1.00  0.00    -0.080 NA 
HETATM    3  C   UNL     1      -7.016   7.391  67.316  1.00  0.00    -0.083 C  
HETATM    4  C   UNL     1      -8.041   8.547  67.282  1.00  0.00    -0.105 C  
HETATM    5  N   UNL     1      -9.398   8.093  67.626  1.00  0.00    -0.139 NA 
HETATM    6  C   UNL     1      -8.740   5.763  66.994  1.00  0.00    -0.109 C  
HETATM    7  C   UNL     1      -9.821   6.863  66.928  1.00  0.00    -0.183 C  
ENDROOT
BRANCH   5   8
HETATM    8  C   UNL     1     -10.161   8.594  68.676  1.00  0.00    -0.194 C  
HETATM    9  N   UNL     1     -10.888   9.665  68.532  1.00  0.00    -0.375 NA 
HETATM   10  C   UNL     1     -11.641  10.279  69.549  1.00  0.00    -0.168 A  
HETATM   11  H   UNL     1     -10.913  10.093  67.606  1.00  0.00     0.000 HD 
HETATM   12  C   UNL     1     -11.664  11.682  69.525  1.00  0.00    -0.410 A  
HETATM   13  C   UNL     1     -12.382  12.415  70.471  1.00  0.00    -0.346 A  
HETATM   14  C   UNL     1     -13.113  11.753  71.449  1.00  0.00    -0.322 A  
HETATM   15  C   UNL     1     -13.136  10.359  71.470  1.00  0.00    -0.532 A  
HETATM   16  C   UNL     1     -12.405   9.607  70.529  1.00  0.00    -0.038 A  
HETATM   17  N   UNL     1     -12.359   8.194  70.694  1.00  0.00    -0.481 NA 
HETATM   18  C   UNL     1     -11.123   7.639  70.774  1.00  0.00    -0.264 A  
HETATM   19  H   UNL     1     -13.207   7.630  70.748  1.00  0.00     0.000 HD 
HETATM   20  C   UNL     1     -10.047   7.855  69.934  1.00  0.00    -0.197 A  
HETATM   21  C   UNL     1      -8.850   7.291  70.504  1.00  0.00    -0.153 A  
HETATM   22  C   UNL     1      -9.084   6.580  71.660  1.00  0.00    -0.143 A  
HETATM   23  C   UNL     1      -8.111   5.869  72.532  1.00  0.00    -0.106 C  
HETATM   24  S   UNL     1     -10.741   6.582  72.065  1.00  0.00    -0.231 SA 
ENDBRANCH   5   8
TORSDOF 1
ENDMDL
MODEL       88
REMARK 921   NORMALIZED FREE ENERGY PREDICTED BY IDOCK:   -4.44 KCAL/MOL
REMARK 922        TOTAL FREE ENERGY PREDICTED BY IDOCK:   -5.11 KCAL/MOL
REMARK 923 INTER-LIGAND FREE ENERGY PREDICTED BY IDOCK:   -4.68 KCAL/MOL
REMARK 924 INTRA-LIGAND FREE ENERGY PREDICTED BY IDOCK:   -0.43 KCAL/MOL
REMARK 927      BINDING AFFINITY PREDICTED BY RF-SCORE:    0.00 PKD
ROOT
HETATM    1  C   UNL     1     -10.219   6.421  74.296  1.00  0.00    -0.344 C  
HETATM    2  N   UNL     1      -9.846   7.300  73.189  1.00  0.00    -0.210 NA 
HETATM    3  C   UNL     1      -8.636   6.821  72.491  1.00  0.00    -0.122 C  
HETATM    4  C   UNL     1      -8.819   5.538  71.649  1.00  0.00    -0.136 C  
HETATM    5  N   UNL     1      -9.965   5.638  70.733  1.00  0.00    -0.186 NA 
HETATM    6  C   UNL     1     -10.933   7.424  72.193  1.00  0.00    -0.245 C  
HETATM    7  C   UNL     1     -11.199   6.154  71.358  1.00  0.00    -0.287 C  
ENDROOT
BRANCH   5   8
HETATM    8  C   UNL     1      -9.891   5.502  69.349  1.00  0.00    -0.177 C  
HETATM    9  N   UNL     1      -9.860   4.329  68.787  1.00  0.00    -0.105 NA 
HETATM   10  C   UNL     1      -9.723   4.093  67.406  1.00  0.00    -0.154 A  
HETATM   11  H   UNL     1      -9.940   3.515  69.396  1.00  0.00     0.000 HD 
HETATM   12  C   UNL     1      -8.936   2.986  67.054  1.00  0.00    -0.176 A  
HETATM   13  C   UNL     1      -8.728   2.635  65.719  1.00  0.00    -0.127 A  
HETATM   14  C   UNL     1      -9.328   3.374  64.708  1.00  0.00    -0.148 A  
HETATM   15  C   UNL     1     -10.146   4.456  65.035  1.00  0.00    -0.165 A  
HETATM   16  C   UNL     1     -10.353   4.829  66.378  1.00  0.00    -0.273 A  
HETATM   17  N   UNL     1     -11.082   6.025  66.634  1.00  0.00    -0.747 NA 
HETATM   18  C   UNL     1     -10.458   6.957  67.399  1.00  0.00    -0.269 A  
HETATM   19  H   UNL     1     -12.021   6.173  66.265  1.00  0.00     0.000 HD 
HETATM   20  C   UNL     1      -9.813   6.761  68.606  1.00  0.00    -0.142 A  
HETATM   21  C   UNL     1      -9.060   7.935  68.964  1.00  0.00    -0.144 A  
HETATM   22  C   UNL     1      -9.259   8.990  68.100  1.00  0.00    -0.136 A  
HETATM   23  C   UNL     1      -8.656  10.349  68.132  1.00  0.00    -0.125 C  
HETATM   24  S   UNL     1     -10.354   8.577  66.859  1.00  0.00    -0.266 SA 
ENDBRANCH   5   8
TORSDOF 1
ENDMDL
MODEL       89
REMARK 921   NORMALIZED FREE ENERGY PREDICTED BY IDOCK:   -4.41 KCAL/MOL
REMARK 922        TOTAL FREE ENERGY PREDICTED BY IDOCK:   -5.07 KCAL/MOL
REMARK 923 INTER-LIGAND FREE ENERGY PREDICTED BY IDOCK:   -4.90 KCAL/MOL
REMARK 924 INTRA-LIGAND FREE ENERGY PREDICTED BY IDOCK:   -0.17 KCAL/MOL
REMARK 927      BINDING AFFINITY PREDICTED BY RF-SCORE:    0.00 PKD
ROOT
HETATM    1  C   UNL     1      -8.690   3.942  74.346  1.00  0.00    -0.094 C  
HETATM    2  N   UNL     1      -9.341   5.232  74.565  1.00  0.00    -0.123 NA 
HETATM    3  C   UNL     1      -8.484   6.358  74.144  1.00  0.00    -0.122 C  
HETATM    4  C   UNL     1      -8.289   6.511  72.619  1.00  0.00    -0.117 C  
HETATM    5  N   UNL     1      -9.570   6.509  71.895  1.00  0.00    -0.152 NA 
HETATM    6  C   UNL     1     -10.624   5.333  73.835  1.00  0.00    -0.292 C  
HETATM    7  C   UNL     1     -10.495   5.432  72.300  1.00  0.00    -0.219 C  
ENDROOT
BRANCH   5   8
HETATM    8  C   UNL     1     -10.019   7.538  71.072  1.00  0.00    -0.186 C  
HETATM    9  N   UNL     1     -10.429   8.669  71.567  1.00  0.00    -0.248 NA 
HETATM   10  C   UNL     1     -10.956   9.740  70.821  1.00  0.00    -0.336 A  
HETATM   11  H   UNL     1     -10.362   8.790  72.578  1.00  0.00     0.000 HD 
HETATM   12  C   UNL     1     -12.013  10.438  71.424  1.00  0.00    -0.379 A  
HETATM   13  C   UNL     1     -12.620  11.527  70.796  1.00  0.00    -0.390 A  
HETATM   14  C   UNL     1     -12.160  11.955  69.557  1.00  0.00    -0.288 A  
HETATM   15  C   UNL     1     -11.085  11.300  68.955  1.00  0.00    -0.295 A  
HETATM   16  C   UNL     1     -10.473  10.191  69.572  1.00  0.00    -0.241 A  
HETATM   17  N   UNL     1      -9.477   9.484  68.840  1.00  0.00    -0.152 NA 
HETATM   18  C   UNL     1      -9.686   8.153  68.674  1.00  0.00    -0.153 A  
HETATM   19  H   UNL     1      -8.653   9.952  68.463  1.00  0.00     0.000 HD 
HETATM   20  C   UNL     1     -10.028   7.228  69.641  1.00  0.00    -0.176 A  
HETATM   21  C   UNL     1     -10.414   5.984  69.025  1.00  0.00    -0.319 A  
HETATM   22  C   UNL     1     -10.232   5.978  67.659  1.00  0.00    -0.181 A  
HETATM   23  C   UNL     1     -10.521   4.892  66.684  1.00  0.00    -0.270 C  
HETATM   24  S   UNL     1      -9.594   7.461  67.111  1.00  0.00    -0.171 SA 
ENDBRANCH   5   8
TORSDOF 1
ENDMDL
MODEL       90
REMARK 921   NORMALIZED FREE ENERGY PREDICTED BY IDOCK:   -4.41 KCAL/MOL
REMARK 922        TOTAL FREE ENERGY PREDICTED BY IDOCK:   -5.07 KCAL/MOL
REMARK 923 INTER-LIGAND FREE ENERGY PREDICTED BY IDOCK:   -4.75 KCAL/MOL
REMARK 924 INTRA-LIGAND FREE ENERGY PREDICTED BY IDOCK:   -0.32 KCAL/MOL
REMARK 927      BINDING AFFINITY PREDICTED BY RF-SCORE:    0.00 PKD
ROOT
HETATM    1  C   UNL     1     -11.887  15.805  68.863  1.00  0.00    -0.341 C  
HETATM    2  N   UNL     1     -11.249  14.578  69.336  1.00  0.00    -0.271 NA 
HETATM    3  C   UNL     1     -11.933  13.373  68.826  1.00  0.00    -0.324 C  
HETATM    4  C   UNL     1     -11.757  13.097  67.315  1.00  0.00    -0.374 C  
HETATM    5  N   UNL     1     -10.343  13.127  66.909  1.00  0.00    -0.245 NA 
HETATM    6  C   UNL     1      -9.827  14.505  68.932  1.00  0.00    -0.191 C  
HETATM    7  C   UNL     1      -9.588  14.286  67.423  1.00  0.00    -0.214 C  
ENDROOT
BRANCH   5   8
HETATM    8  C   UNL     1      -9.669  12.072  66.302  1.00  0.00    -0.235 C  
HETATM    9  N   UNL     1      -9.605  11.966  65.007  1.00  0.00    -0.415 NA 
HETATM   10  C   UNL     1      -9.002  10.906  64.306  1.00  0.00    -0.100 A  
HETATM   11  H   UNL     1     -10.028  12.713  64.455  1.00  0.00     0.000 HD 
HETATM   12  C   UNL     1      -9.656  10.503  63.132  1.00  0.00    -0.375 A  
HETATM   13  C   UNL     1      -9.158   9.469  62.338  1.00  0.00    -0.257 A  
HETATM   14  C   UNL     1      -7.975   8.834  62.692  1.00  0.00    -0.150 A  
HETATM   15  C   UNL     1      -7.286   9.243  63.834  1.00  0.00    -0.102 A  
HETATM   16  C   UNL     1      -7.786  10.276  64.652  1.00  0.00    -0.114 A  
HETATM   17  N   UNL     1      -7.109  10.547  65.875  1.00  0.00    -0.134 NA 
HETATM   18  C   UNL     1      -7.863  10.495  67.003  1.00  0.00    -0.114 A  
HETATM   19  H   UNL     1      -6.114  10.768  65.902  1.00  0.00     0.000 HD 
HETATM   20  C   UNL     1      -9.087  11.095  67.225  1.00  0.00    -0.152 A  
HETATM   21  C   UNL     1      -9.677  10.588  68.438  1.00  0.00    -0.166 A  
HETATM   22  C   UNL     1      -8.841   9.740  69.132  1.00  0.00    -0.160 A  
HETATM   23  C   UNL     1      -9.095   9.019  70.408  1.00  0.00    -0.242 C  
HETATM   24  S   UNL     1      -7.346   9.553  68.335  1.00  0.00    -0.076 SA 
ENDBRANCH   5   8
TORSDOF 1
ENDMDL
MODEL       91
REMARK 921   NORMALIZED FREE ENERGY PREDICTED BY IDOCK:   -4.38 KCAL/MOL
REMARK 922        TOTAL FREE ENERGY PREDICTED BY IDOCK:   -5.05 KCAL/MOL
REMARK 923 INTER-LIGAND FREE ENERGY PREDICTED BY IDOCK:   -4.64 KCAL/MOL
REMARK 924 INTRA-LIGAND FREE ENERGY PREDICTED BY IDOCK:   -0.40 KCAL/MOL
REMARK 927      BINDING AFFINITY PREDICTED BY RF-SCORE:    0.00 PKD
ROOT
HETATM    1  C   UNL     1      -6.634  20.921  66.962  1.00  0.00    -0.324 C  
HETATM    2  N   UNL     1      -7.497  19.975  66.256  1.00  0.00    -0.290 NA 
HETATM    3  C   UNL     1      -6.715  18.948  65.540  1.00  0.00    -0.257 C  
HETATM    4  C   UNL     1      -6.003  17.909  66.435  1.00  0.00    -0.182 C  
HETATM    5  N   UNL     1      -6.919  17.303  67.414  1.00  0.00    -0.155 NA 
HETATM    6  C   UNL     1      -8.427  19.285  67.178  1.00  0.00    -0.285 C  
HETATM    7  C   UNL     1      -7.764  18.274  68.137  1.00  0.00    -0.279 C  
ENDROOT
BRANCH   5   8
HETATM    8  C   UNL     1      -7.179  15.940  67.521  1.00  0.00    -0.177 C  
HETATM    9  N   UNL     1      -6.305  15.124  68.034  1.00  0.00    -0.133 NA 
HETATM   10  C   UNL     1      -6.453  13.728  68.127  1.00  0.00    -0.124 A  
HETATM   11  H   UNL     1      -5.443  15.529  68.399  1.00  0.00     0.000 HD 
HETATM   12  C   UNL     1      -5.287  12.977  67.913  1.00  0.00    -0.113 A  
HETATM   13  C   UNL     1      -5.293  11.583  67.985  1.00  0.00    -0.044 A  
HETATM   14  C   UNL     1      -6.468  10.913  68.301  1.00  0.00    -0.057 A  
HETATM   15  C   UNL     1      -7.632  11.639  68.555  1.00  0.00    -0.127 A  
HETATM   16  C   UNL     1      -7.642  13.046  68.472  1.00  0.00    -0.121 A  
HETATM   17  N   UNL     1      -8.892  13.714  68.605  1.00  0.00    -0.352 NA 
HETATM   18  C   UNL     1      -9.244  14.537  67.584  1.00  0.00    -0.195 A  
HETATM   19  H   UNL     1      -9.488  13.583  69.421  1.00  0.00     0.000 HD 
HETATM   20  C   UNL     1      -8.471  15.511  66.983  1.00  0.00    -0.266 A  
HETATM   21  C   UNL     1      -9.107  15.978  65.777  1.00  0.00    -0.168 A  
HETATM   22  C   UNL     1     -10.362  15.442  65.585  1.00  0.00    -0.372 A  
HETATM   23  C   UNL     1     -11.313  15.671  64.465  1.00  0.00    -0.327 C  
HETATM   24  S   UNL     1     -10.784  14.381  66.852  1.00  0.00    -0.296 SA 
ENDBRANCH   5   8
TORSDOF 1
ENDMDL
MODEL       92
REMARK 921   NORMALIZED FREE ENERGY PREDICTED BY IDOCK:   -4.33 KCAL/MOL
REMARK 922        TOTAL FREE ENERGY PREDICTED BY IDOCK:   -4.99 KCAL/MOL
REMARK 923 INTER-LIGAND FREE ENERGY PREDICTED BY IDOCK:   -4.57 KCAL/MOL
REMARK 924 INTRA-LIGAND FREE ENERGY PREDICTED BY IDOCK:   -0.43 KCAL/MOL
REMARK 927      BINDING AFFINITY PREDICTED BY RF-SCORE:    0.00 PKD
ROOT
HETATM    1  C   UNL     1      -7.021  10.353  67.598  1.00  0.00    -0.083 C  
HETATM    2  N   UNL     1      -7.801  11.151  68.542  1.00  0.00    -0.128 NA 
HETATM    3  C   UNL     1      -7.035  12.307  69.049  1.00  0.00    -0.078 C  
HETATM    4  C   UNL     1      -6.780  13.436  68.026  1.00  0.00    -0.131 C  
HETATM    5  N   UNL     1      -8.018  13.863  67.355  1.00  0.00    -0.179 NA 
HETATM    6  C   UNL     1      -9.051  11.660  67.934  1.00  0.00    -0.171 C  
HETATM    7  C   UNL     1      -8.855  12.752  66.862  1.00  0.00    -0.194 C  
ENDROOT
BRANCH   5   8
HETATM    8  C   UNL     1      -8.520  15.161  67.366  1.00  0.00    -0.183 C  
HETATM    9  N   UNL     1      -8.015  16.088  66.605  1.00  0.00    -0.260 NA 
HETATM   10  C   UNL     1      -8.414  17.437  66.593  1.00  0.00    -0.261 A  
HETATM   11  H   UNL     1      -7.268  15.814  65.966  1.00  0.00     0.000 HD 
HETATM   12  C   UNL     1      -7.385  18.374  66.419  1.00  0.00    -0.279 A  
HETATM   13  C   UNL     1      -7.645  19.745  66.379  1.00  0.00    -0.310 A  
HETATM   14  C   UNL     1      -8.952  20.203  66.486  1.00  0.00    -0.392 A  
HETATM   15  C   UNL     1      -9.996  19.289  66.622  1.00  0.00    -0.461 A  
HETATM   16  C   UNL     1      -9.745  17.904  66.678  1.00  0.00    -0.319 A  
HETATM   17  N   UNL     1     -10.839  17.037  66.959  1.00  0.00    -0.131 NA 
HETATM   18  C   UNL     1     -10.691  16.208  68.024  1.00  0.00    -0.321 A  
HETATM   19  H   UNL     1     -11.686  17.038  66.391  1.00  0.00     0.000 HD 
HETATM   20  C   UNL     1      -9.612  15.395  68.314  1.00  0.00    -0.205 A  
HETATM   21  C   UNL     1      -9.724  14.878  69.654  1.00  0.00     0.016 A  
HETATM   22  C   UNL     1     -10.914  15.211  70.264  1.00  0.00    -0.251 A  
HETATM   23  C   UNL     1     -11.386  14.874  71.633  1.00  0.00    -0.205 C  
HETATM   24  S   UNL     1     -11.903  16.140  69.231  1.00  0.00    -0.041 SA 
ENDBRANCH   5   8
TORSDOF 1
ENDMDL
MODEL       93
REMARK 921   NORMALIZED FREE ENERGY PREDICTED BY IDOCK:   -4.32 KCAL/MOL
REMARK 922        TOTAL FREE ENERGY PREDICTED BY IDOCK:   -4.98 KCAL/MOL
REMARK 923 INTER-LIGAND FREE ENERGY PREDICTED BY IDOCK:   -4.58 KCAL/MOL
REMARK 924 INTRA-LIGAND FREE ENERGY PREDICTED BY IDOCK:   -0.41 KCAL/MOL
REMARK 927      BINDING AFFINITY PREDICTED BY RF-SCORE:    0.00 PKD
ROOT
HETATM    1  C   UNL     1     -10.979  13.516  67.181  1.00  0.00    -0.291 C  
HETATM    2  N   UNL     1     -10.938  14.651  66.261  1.00  0.00    -0.321 NA 
HETATM    3  C   UNL     1     -11.141  15.934  66.961  1.00  0.00    -0.119 C  
HETATM    4  C   UNL     1      -9.973  16.392  67.864  1.00  0.00    -0.243 C  
HETATM    5  N   UNL     1      -8.684  16.363  67.155  1.00  0.00    -0.180 NA 
HETATM    6  C   UNL     1      -9.652  14.723  65.533  1.00  0.00    -0.124 C  
HETATM    7  C   UNL     1      -8.436  15.122  66.396  1.00  0.00     0.001 C  
ENDROOT
BRANCH   5   8
HETATM    8  C   UNL     1      -7.847  17.462  66.984  1.00  0.00    -0.210 C  
HETATM    9  N   UNL     1      -7.739  18.055  65.831  1.00  0.00    -0.534 NA 
HETATM   10  C   UNL     1      -6.875  19.130  65.547  1.00  0.00    -0.245 A  
HETATM   11  H   UNL     1      -8.327  17.713  65.070  1.00  0.00     0.000 HD 
HETATM   12  C   UNL     1      -6.283  19.114  64.275  1.00  0.00     0.065 A  
HETATM   13  C   UNL     1      -5.414  20.125  63.863  1.00  0.00    -0.264 A  
HETATM   14  C   UNL     1      -5.141  21.190  64.712  1.00  0.00    -0.225 A  
HETATM   15  C   UNL     1      -5.748  21.247  65.967  1.00  0.00    -0.277 A  
HETATM   16  C   UNL     1      -6.616  20.226  66.400  1.00  0.00    -0.225 A  
HETATM   17  N   UNL     1      -7.089  20.275  67.742  1.00  0.00    -0.292 NA 
HETATM   18  C   UNL     1      -6.851  19.176  68.503  1.00  0.00    -0.277 A  
HETATM   19  H   UNL     1      -7.579  21.089  68.110  1.00  0.00     0.000 HD 
HETATM   20  C   UNL     1      -7.089  17.856  68.173  1.00  0.00    -0.224 A  
HETATM   21  C   UNL     1      -6.462  16.982  69.131  1.00  0.00    -0.221 A  
HETATM   22  C   UNL     1      -5.894  17.659  70.190  1.00  0.00    -0.187 A  
HETATM   23  C   UNL     1      -5.156  17.110  71.359  1.00  0.00     0.045 C  
HETATM   24  S   UNL     1      -6.116  19.342  70.040  1.00  0.00    -0.226 SA 
ENDBRANCH   5   8
TORSDOF 1
ENDMDL
MODEL       94
REMARK 921   NORMALIZED FREE ENERGY PREDICTED BY IDOCK:   -4.32 KCAL/MOL
REMARK 922        TOTAL FREE ENERGY PREDICTED BY IDOCK:   -4.97 KCAL/MOL
REMARK 923 INTER-LIGAND FREE ENERGY PREDICTED BY IDOCK:   -4.55 KCAL/MOL
REMARK 924 INTRA-LIGAND FREE ENERGY PREDICTED BY IDOCK:   -0.43 KCAL/MOL
REMARK 927      BINDING AFFINITY PREDICTED BY RF-SCORE:    0.00 PKD
ROOT
HETATM    1  C   UNL     1      -5.407   9.452  67.228  1.00  0.00    -0.036 C  
HETATM    2  N   UNL     1      -5.656   8.468  68.279  1.00  0.00    -0.034 NA 
HETATM    3  C   UNL     1      -6.024   9.110  69.556  1.00  0.00    -0.033 C  
HETATM    4  C   UNL     1      -7.422   9.769  69.591  1.00  0.00    -0.113 C  
HETATM    5  N   UNL     1      -8.476   8.855  69.125  1.00  0.00    -0.130 NA 
HETATM    6  C   UNL     1      -6.738   7.529  67.908  1.00  0.00    -0.066 C  
HETATM    7  C   UNL     1      -8.152   8.145  67.872  1.00  0.00    -0.128 C  
ENDROOT
BRANCH   5   8
HETATM    8  C   UNL     1      -9.586   8.474  69.873  1.00  0.00    -0.171 C  
HETATM    9  N   UNL     1     -10.633   9.241  69.967  1.00  0.00    -0.216 NA 
HETATM   10  C   UNL     1     -11.772   8.970  70.746  1.00  0.00    -0.242 A  
HETATM   11  H   UNL     1     -10.626  10.110  69.431  1.00  0.00     0.000 HD 
HETATM   12  C   UNL     1     -12.356  10.080  71.376  1.00  0.00    -0.512 A  
HETATM   13  C   UNL     1     -13.496   9.952  72.170  1.00  0.00    -0.454 A  
HETATM   14  C   UNL     1     -14.091   8.707  72.329  1.00  0.00    -0.491 A  
HETATM   15  C   UNL     1     -13.551   7.595  71.683  1.00  0.00    -0.431 A  
HETATM   16  C   UNL     1     -12.392   7.709  70.889  1.00  0.00    -0.130 A  
HETATM   17  N   UNL     1     -11.815   6.514  70.374  1.00  0.00    -0.448 NA 
HETATM   18  C   UNL     1     -10.509   6.298  70.679  1.00  0.00    -0.223 A  
HETATM   19  H   UNL     1     -12.351   5.857  69.808  1.00  0.00     0.000 HD 
HETATM   20  C   UNL     1      -9.459   7.187  70.560  1.00  0.00    -0.162 A  
HETATM   21  C   UNL     1      -8.292   6.672  71.229  1.00  0.00    -0.124 A  
HETATM   22  C   UNL     1      -8.464   5.391  71.707  1.00  0.00    -0.127 A  
HETATM   23  C   UNL     1      -7.502   4.536  72.453  1.00  0.00    -0.082 C  
HETATM   24  S   UNL     1     -10.024   4.801  71.352  1.00  0.00    -0.193 SA 
ENDBRANCH   5   8
TORSDOF 1
ENDMDL
MODEL       95
REMARK 921   NORMALIZED FREE ENERGY PREDICTED BY IDOCK:   -4.30 KCAL/MOL
REMARK 922        TOTAL FREE ENERGY PREDICTED BY IDOCK:   -4.96 KCAL/MOL
REMARK 923 INTER-LIGAND FREE ENERGY PREDICTED BY IDOCK:   -4.89 KCAL/MOL
REMARK 924 INTRA-LIGAND FREE ENERGY PREDICTED BY IDOCK:   -0.07 KCAL/MOL
REMARK 927      BINDING AFFINITY PREDICTED BY RF-SCORE:    0.00 PKD
ROOT
HETATM    1  C   UNL     1      -6.040   8.484  69.752  1.00  0.00    -0.035 C  
HETATM    2  N   UNL     1      -7.499   8.498  69.668  1.00  0.00    -0.074 NA 
HETATM    3  C   UNL     1      -8.071   9.728  70.252  1.00  0.00    -0.154 C  
HETATM    4  C   UNL     1      -7.832  11.022  69.442  1.00  0.00     0.010 C  
HETATM    5  N   UNL     1      -8.213  10.869  68.030  1.00  0.00    -0.117 NA 
HETATM    6  C   UNL     1      -7.972   8.390  68.270  1.00  0.00    -0.119 C  
HETATM    7  C   UNL     1      -7.710   9.635  67.396  1.00  0.00    -0.095 C  
ENDROOT
BRANCH   5   8
HETATM    8  C   UNL     1      -9.154  11.655  67.371  1.00  0.00    -0.169 C  
HETATM    9  N   UNL     1      -9.905  11.163  66.429  1.00  0.00    -0.205 NA 
HETATM   10  C   UNL     1     -10.836  11.892  65.667  1.00  0.00    -0.286 A  
HETATM   11  H   UNL     1      -9.810  10.167  66.225  1.00  0.00     0.000 HD 
HETATM   12  C   UNL     1     -10.929  11.533  64.314  1.00  0.00    -0.406 A  
HETATM   13  C   UNL     1     -11.821  12.171  63.450  1.00  0.00    -0.553 A  
HETATM   14  C   UNL     1     -12.658  13.168  63.933  1.00  0.00    -0.249 A  
HETATM   15  C   UNL     1     -12.611  13.516  65.283  1.00  0.00    -0.517 A  
HETATM   16  C   UNL     1     -11.706  12.890  66.162  1.00  0.00    -0.396 A  
HETATM   17  N   UNL     1     -11.612  13.390  67.492  1.00  0.00    -0.323 NA 
HETATM   18  C   UNL     1     -10.375  13.768  67.905  1.00  0.00    -0.244 A  
HETATM   19  H   UNL     1     -12.427  13.460  68.100  1.00  0.00     0.000 HD 
HETATM   20  C   UNL     1      -9.196  13.057  67.792  1.00  0.00    -0.200 A  
HETATM   21  C   UNL     1      -8.072  13.902  68.106  1.00  0.00    -0.150 A  
HETATM   22  C   UNL     1      -8.444  15.151  68.554  1.00  0.00    -0.160 A  
HETATM   23  C   UNL     1      -7.580  16.291  68.961  1.00  0.00    -0.219 C  
HETATM   24  S   UNL     1     -10.140  15.313  68.604  1.00  0.00    -0.229 SA 
ENDBRANCH   5   8
TORSDOF 1
ENDMDL
MODEL       96
REMARK 921   NORMALIZED FREE ENERGY PREDICTED BY IDOCK:   -4.21 KCAL/MOL
REMARK 922        TOTAL FREE ENERGY PREDICTED BY IDOCK:   -4.86 KCAL/MOL
REMARK 923 INTER-LIGAND FREE ENERGY PREDICTED BY IDOCK:   -4.97 KCAL/MOL
REMARK 924 INTRA-LIGAND FREE ENERGY PREDICTED BY IDOCK:    0.11 KCAL/MOL
REMARK 927      BINDING AFFINITY PREDICTED BY RF-SCORE:    0.00 PKD
ROOT
HETATM    1  C   UNL     1     -13.213  11.808  63.470  1.00  0.00     0.277 C  
HETATM    2  N   UNL     1     -12.392  12.984  63.752  1.00  0.00    -0.661 NA 
HETATM    3  C   UNL     1     -12.577  13.464  65.135  1.00  0.00    -0.440 C  
HETATM    4  C   UNL     1     -11.981  12.561  66.239  1.00  0.00    -0.343 C  
HETATM    5  N   UNL     1     -10.576  12.217  65.971  1.00  0.00    -0.249 NA 
HETATM    6  C   UNL     1     -10.952  12.713  63.548  1.00  0.00    -0.364 C  
HETATM    7  C   UNL     1     -10.313  11.769  64.589  1.00  0.00    -0.290 C  
ENDROOT
BRANCH   5   8
HETATM    8  C   UNL     1      -9.514  12.494  66.826  1.00  0.00    -0.231 C  
HETATM    9  N   UNL     1      -8.814  11.539  67.366  1.00  0.00    -0.153 NA 
HETATM   10  C   UNL     1      -7.766  11.719  68.287  1.00  0.00    -0.130 A  
HETATM   11  H   UNL     1      -9.045  10.581  67.100  1.00  0.00     0.000 HD 
HETATM   12  C   UNL     1      -7.686  10.764  69.312  1.00  0.00    -0.129 A  
HETATM   13  C   UNL     1      -6.688  10.821  70.286  1.00  0.00    -0.052 A  
HETATM   14  C   UNL     1      -5.731  11.826  70.236  1.00  0.00    -0.155 A  
HETATM   15  C   UNL     1      -5.767  12.765  69.206  1.00  0.00    -0.081 A  
HETATM   16  C   UNL     1      -6.777  12.726  68.225  1.00  0.00    -0.087 A  
HETATM   17  N   UNL     1      -6.838  13.795  67.285  1.00  0.00    -0.421 NA 
HETATM   18  C   UNL     1      -8.019  14.459  67.206  1.00  0.00    -0.180 A  
HETATM   19  H   UNL     1      -6.039  14.046  66.704  1.00  0.00     0.000 HD 
HETATM   20  C   UNL     1      -9.284  13.916  67.090  1.00  0.00    -0.242 A  
HETATM   21  C   UNL     1     -10.284  14.932  67.302  1.00  0.00    -0.241 A  
HETATM   22  C   UNL     1      -9.750  16.194  67.442  1.00  0.00    -0.233 A  
HETATM   23  C   UNL     1     -10.453  17.483  67.683  1.00  0.00    -0.370 C  
HETATM   24  S   UNL     1      -8.050  16.167  67.316  1.00  0.00    -0.192 SA 
ENDBRANCH   5   8
TORSDOF 1
ENDMDL
MODEL       97
REMARK 921   NORMALIZED FREE ENERGY PREDICTED BY IDOCK:   -4.20 KCAL/MOL
REMARK 922        TOTAL FREE ENERGY PREDICTED BY IDOCK:   -4.85 KCAL/MOL
REMARK 923 INTER-LIGAND FREE ENERGY PREDICTED BY IDOCK:   -4.56 KCAL/MOL
REMARK 924 INTRA-LIGAND FREE ENERGY PREDICTED BY IDOCK:   -0.28 KCAL/MOL
REMARK 927      BINDING AFFINITY PREDICTED BY RF-SCORE:    0.00 PKD
ROOT
HETATM    1  C   UNL     1     -13.459   7.775  71.331  1.00  0.00    -0.264 C  
HETATM    2  N   UNL     1     -12.055   8.001  71.668  1.00  0.00    -0.291 NA 
HETATM    3  C   UNL     1     -11.147   7.378  70.684  1.00  0.00    -0.266 C  
HETATM    4  C   UNL     1     -11.109   8.052  69.294  1.00  0.00     0.146 C  
HETATM    5  N   UNL     1     -10.887   9.503  69.390  1.00  0.00    -0.225 NA 
HETATM    6  C   UNL     1     -11.732   9.443  71.744  1.00  0.00    -0.374 C  
HETATM    7  C   UNL     1     -11.734  10.183  70.389  1.00  0.00    -0.308 C  
ENDROOT
BRANCH   5   8
HETATM    8  C   UNL     1      -9.829  10.186  68.796  1.00  0.00    -0.175 C  
HETATM    9  N   UNL     1      -8.651  10.218  69.347  1.00  0.00    -0.209 NA 
HETATM   10  C   UNL     1      -7.542  10.930  68.855  1.00  0.00    -0.128 A  
HETATM   11  H   UNL     1      -8.521   9.684  70.207  1.00  0.00     0.000 HD 
HETATM   12  C   UNL     1      -6.721  11.524  69.825  1.00  0.00    -0.047 A  
HETATM   13  C   UNL     1      -5.583  12.251  69.472  1.00  0.00    -0.081 A  
HETATM   14  C   UNL     1      -5.229  12.374  68.135  1.00  0.00    -0.065 A  
HETATM   15  C   UNL     1      -6.009  11.761  67.154  1.00  0.00    -0.140 A  
HETATM   16  C   UNL     1      -7.167  11.036  67.497  1.00  0.00    -0.096 A  
HETATM   17  N   UNL     1      -7.992  10.556  66.440  1.00  0.00    -0.131 NA 
HETATM   18  C   UNL     1      -9.294  10.937  66.474  1.00  0.00    -0.173 A  
HETATM   19  H   UNL     1      -7.624   9.959  65.699  1.00  0.00     0.000 HD 
HETATM   20  C   UNL     1     -10.160  10.879  67.549  1.00  0.00    -0.214 A  
HETATM   21  C   UNL     1     -11.364  11.614  67.259  1.00  0.00    -0.372 A  
HETATM   22  C   UNL     1     -11.413  12.081  65.963  1.00  0.00    -0.338 A  
HETATM   23  C   UNL     1     -12.477  12.882  65.300  1.00  0.00    -0.552 C  
HETATM   24  S   UNL     1     -10.018  11.636  65.090  1.00  0.00    -0.263 SA 
ENDBRANCH   5   8
TORSDOF 1
ENDMDL
MODEL       98
REMARK 921   NORMALIZED FREE ENERGY PREDICTED BY IDOCK:   -4.16 KCAL/MOL
REMARK 922        TOTAL FREE ENERGY PREDICTED BY IDOCK:   -4.81 KCAL/MOL
REMARK 923 INTER-LIGAND FREE ENERGY PREDICTED BY IDOCK:   -5.04 KCAL/MOL
REMARK 924 INTRA-LIGAND FREE ENERGY PREDICTED BY IDOCK:    0.23 KCAL/MOL
REMARK 927      BINDING AFFINITY PREDICTED BY RF-SCORE:    0.00 PKD
ROOT
HETATM    1  C   UNL     1     -11.814   8.392  72.136  1.00  0.00    -0.375 C  
HETATM    2  N   UNL     1     -10.531   8.815  71.579  1.00  0.00    -0.274 NA 
HETATM    3  C   UNL     1      -9.892   7.739  70.795  1.00  0.00    -0.180 C  
HETATM    4  C   UNL     1     -10.571   7.404  69.448  1.00  0.00    -0.226 C  
HETATM    5  N   UNL     1     -10.798   8.605  68.629  1.00  0.00    -0.039 NA 
HETATM    6  C   UNL     1     -10.673   9.999  70.703  1.00  0.00    -0.254 C  
HETATM    7  C   UNL     1     -11.395   9.737  69.365  1.00  0.00    -0.045 C  
ENDROOT
BRANCH   5   8
HETATM    8  C   UNL     1     -10.297   8.797  67.345  1.00  0.00    -0.280 C  
HETATM    9  N   UNL     1     -10.353   9.961  66.765  1.00  0.00    -0.229 NA 
HETATM   10  C   UNL     1      -9.931  10.236  65.452  1.00  0.00    -0.302 A  
HETATM   11  H   UNL     1     -10.733  10.737  67.308  1.00  0.00     0.000 HD 
HETATM   12  C   UNL     1     -10.720  11.151  64.739  1.00  0.00    -0.334 A  
HETATM   13  C   UNL     1     -10.408  11.519  63.429  1.00  0.00    -0.469 A  
HETATM   14  C   UNL     1      -9.278  10.994  62.815  1.00  0.00    -0.374 A  
HETATM   15  C   UNL     1      -8.457  10.112  63.517  1.00  0.00    -0.186 A  
HETATM   16  C   UNL     1      -8.769   9.722  64.834  1.00  0.00    -0.183 A  
HETATM   17  N   UNL     1      -7.968   8.713  65.440  1.00  0.00    -0.104 NA 
HETATM   18  C   UNL     1      -8.628   7.622  65.906  1.00  0.00    -0.148 A  
HETATM   19  H   UNL     1      -6.956   8.805  65.520  1.00  0.00     0.000 HD 
HETATM   20  C   UNL     1      -9.755   7.598  66.704  1.00  0.00    -0.283 A  
HETATM   21  C   UNL     1     -10.297   6.264  66.761  1.00  0.00    -0.285 A  
HETATM   22  C   UNL     1      -9.507   5.332  66.122  1.00  0.00    -0.158 A  
HETATM   23  C   UNL     1      -9.735   3.871  65.958  1.00  0.00    -0.172 C  
HETATM   24  S   UNL     1      -8.113   6.053  65.456  1.00  0.00    -0.139 SA 
ENDBRANCH   5   8
TORSDOF 1
ENDMDL
MODEL       99
REMARK 921   NORMALIZED FREE ENERGY PREDICTED BY IDOCK:   -4.13 KCAL/MOL
REMARK 922        TOTAL FREE ENERGY PREDICTED BY IDOCK:   -4.78 KCAL/MOL
REMARK 923 INTER-LIGAND FREE ENERGY PREDICTED BY IDOCK:   -5.41 KCAL/MOL
REMARK 924 INTRA-LIGAND FREE ENERGY PREDICTED BY IDOCK:    0.64 KCAL/MOL
REMARK 927      BINDING AFFINITY PREDICTED BY RF-SCORE:    0.00 PKD
ROOT
HETATM    1  C   UNL     1     -13.075  10.464  70.919  1.00  0.00    -0.330 C  
HETATM    2  N   UNL     1     -11.749  11.033  70.691  1.00  0.00    -0.321 NA 
HETATM    3  C   UNL     1     -10.746   9.990  70.399  1.00  0.00    -0.307 C  
HETATM    4  C   UNL     1     -10.885   9.300  69.023  1.00  0.00    -0.111 C  
HETATM    5  N   UNL     1     -10.984  10.274  67.925  1.00  0.00    -0.286 NA 
HETATM    6  C   UNL     1     -11.748  11.998  69.569  1.00  0.00    -0.342 C  
HETATM    7  C   UNL     1     -11.940  11.371  68.171  1.00  0.00    -0.130 C  
ENDROOT
BRANCH   5   8
HETATM    8  C   UNL     1     -10.114  10.339  66.840  1.00  0.00    -0.221 C  
HETATM    9  N   UNL     1      -8.978   9.704  66.846  1.00  0.00    -0.133 NA 
HETATM   10  C   UNL     1      -8.011   9.760  65.826  1.00  0.00    -0.116 A  
HETATM   11  H   UNL     1      -8.773   9.118  67.656  1.00  0.00     0.000 HD 
HETATM   12  C   UNL     1      -6.675   9.757  66.256  1.00  0.00    -0.087 A  
HETATM   13  C   UNL     1      -5.617   9.799  65.347  1.00  0.00    -0.058 A  
HETATM   14  C   UNL     1      -5.878   9.820  63.983  1.00  0.00    -0.108 A  
HETATM   15  C   UNL     1      -7.197   9.785  63.531  1.00  0.00    -0.117 A  
HETATM   16  C   UNL     1      -8.274   9.756  64.439  1.00  0.00    -0.162 A  
HETATM   17  N   UNL     1      -9.593   9.864  63.914  1.00  0.00    -0.432 NA 
HETATM   18  C   UNL     1     -10.357  10.870  64.412  1.00  0.00    -0.361 A  
HETATM   19  H   UNL     1      -9.945   9.222  63.204  1.00  0.00     0.000 HD 
HETATM   20  C   UNL     1     -10.559  11.196  65.739  1.00  0.00    -0.289 A  
HETATM   21  C   UNL     1     -11.214  12.475  65.844  1.00  0.00    -0.356 A  
HETATM   22  C   UNL     1     -11.584  12.995  64.623  1.00  0.00    -0.346 A  
HETATM   23  C   UNL     1     -12.264  14.284  64.325  1.00  0.00    -0.451 C  
HETATM   24  S   UNL     1     -11.152  11.949  63.347  1.00  0.00    -0.346 SA 
ENDBRANCH   5   8
TORSDOF 1
ENDMDL
MODEL      100
REMARK 921   NORMALIZED FREE ENERGY PREDICTED BY IDOCK:   -4.07 KCAL/MOL
REMARK 922        TOTAL FREE ENERGY PREDICTED BY IDOCK:   -4.72 KCAL/MOL
REMARK 923 INTER-LIGAND FREE ENERGY PREDICTED BY IDOCK:   -4.34 KCAL/MOL
REMARK 924 INTRA-LIGAND FREE ENERGY PREDICTED BY IDOCK:   -0.38 KCAL/MOL
REMARK 927      BINDING AFFINITY PREDICTED BY RF-SCORE:    0.00 PKD
ROOT
HETATM    1  C   UNL     1      -6.477   9.722  62.898  1.00  0.00    -0.110 C  
HETATM    2  N   UNL     1      -6.771   9.020  64.146  1.00  0.00    -0.083 NA 
HETATM    3  C   UNL     1      -6.312   9.781  65.325  1.00  0.00    -0.088 C  
HETATM    4  C   UNL     1      -7.116  11.061  65.645  1.00  0.00     0.159 C  
HETATM    5  N   UNL     1      -8.564  10.805  65.699  1.00  0.00    -0.181 NA 
HETATM    6  C   UNL     1      -8.219   8.758  64.303  1.00  0.00    -0.163 C  
HETATM    7  C   UNL     1      -9.082  10.009  64.569  1.00  0.00    -0.243 C  
ENDROOT
BRANCH   5   8
HETATM    8  C   UNL     1      -9.375  11.056  66.802  1.00  0.00    -0.181 C  
HETATM    9  N   UNL     1      -9.920  12.223  66.988  1.00  0.00    -0.209 NA 
HETATM   10  C   UNL     1     -10.700  12.588  68.100  1.00  0.00    -0.227 A  
HETATM   11  H   UNL     1      -9.769  12.931  66.269  1.00  0.00     0.000 HD 
HETATM   12  C   UNL     1     -10.523  13.901  68.563  1.00  0.00    -0.253 A  
HETATM   13  C   UNL     1     -11.242  14.394  69.652  1.00  0.00    -0.274 A  
HETATM   14  C   UNL     1     -12.176  13.584  70.287  1.00  0.00    -0.417 A  
HETATM   15  C   UNL     1     -12.397  12.288  69.822  1.00  0.00    -0.081 A  
HETATM   16  C   UNL     1     -11.667  11.775  68.731  1.00  0.00    -0.329 A  
HETATM   17  N   UNL     1     -11.841  10.401  68.398  1.00  0.00    -0.752 NA 
HETATM   18  C   UNL     1     -10.715   9.644  68.367  1.00  0.00    -0.209 A  
HETATM   19  H   UNL     1     -12.760  10.008  68.195  1.00  0.00     0.000 HD 
HETATM   20  C   UNL     1      -9.523   9.934  67.731  1.00  0.00    -0.158 A  
HETATM   21  C   UNL     1      -8.497   9.014  68.151  1.00  0.00    -0.129 A  
HETATM   22  C   UNL     1      -8.972   8.012  68.970  1.00  0.00    -0.145 A  
HETATM   23  C   UNL     1      -8.224   6.895  69.607  1.00  0.00    -0.131 C  
HETATM   24  S   UNL     1     -10.649   8.170  69.235  1.00  0.00    -0.135 SA 
ENDBRANCH   5   8
TORSDOF 1
ENDMDL
MODEL      101
REMARK 921   NORMALIZED FREE ENERGY PREDICTED BY IDOCK:   -4.04 KCAL/MOL
REMARK 922        TOTAL FREE ENERGY PREDICTED BY IDOCK:   -4.68 KCAL/MOL
REMARK 923 INTER-LIGAND FREE ENERGY PREDICTED BY IDOCK:   -4.37 KCAL/MOL
REMARK 924 INTRA-LIGAND FREE ENERGY PREDICTED BY IDOCK:   -0.31 KCAL/MOL
REMARK 927      BINDING AFFINITY PREDICTED BY RF-SCORE:    0.00 PKD
ROOT
HETATM    1  C   UNL     1     -10.834   7.800  73.026  1.00  0.00    -0.389 C  
HETATM    2  N   UNL     1     -10.807   7.176  71.705  1.00  0.00    -0.224 NA 
HETATM    3  C   UNL     1     -11.828   7.750  70.806  1.00  0.00    -0.187 C  
HETATM    4  C   UNL     1     -11.557   9.194  70.327  1.00  0.00    -0.086 C  
HETATM    5  N   UNL     1     -10.203   9.347  69.773  1.00  0.00    -0.206 NA 
HETATM    6  C   UNL     1      -9.487   7.321  71.053  1.00  0.00    -0.158 C  
HETATM    7  C   UNL     1      -9.136   8.755  70.603  1.00  0.00    -0.186 C  
ENDROOT
BRANCH   5   8
HETATM    8  C   UNL     1      -9.917   9.785  68.483  1.00  0.00    -0.160 C  
HETATM    9  N   UNL     1      -9.165   9.086  67.683  1.00  0.00    -0.135 NA 
HETATM   10  C   UNL     1      -8.772   9.475  66.389  1.00  0.00    -0.135 A  
HETATM   11  H   UNL     1      -8.832   8.183  68.023  1.00  0.00     0.000 HD 
HETATM   12  C   UNL     1      -7.464   9.128  66.021  1.00  0.00    -0.095 A  
HETATM   13  C   UNL     1      -6.952   9.445  64.762  1.00  0.00    -0.098 A  
HETATM   14  C   UNL     1      -7.754  10.097  63.834  1.00  0.00    -0.140 A  
HETATM   15  C   UNL     1      -9.071  10.419  64.164  1.00  0.00    -0.272 A  
HETATM   16  C   UNL     1      -9.595  10.116  65.436  1.00  0.00    -0.264 A  
HETATM   17  N   UNL     1     -10.897  10.597  65.754  1.00  0.00    -0.023 NA 
HETATM   18  C   UNL     1     -10.998  11.359  66.873  1.00  0.00    -0.299 A  
HETATM   19  H   UNL     1     -11.707  10.380  65.175  1.00  0.00     0.000 HD 
HETATM   20  C   UNL     1     -10.490  11.085  68.128  1.00  0.00    -0.216 A  
HETATM   21  C   UNL     1     -10.580  12.252  68.968  1.00  0.00    -0.104 A  
HETATM   22  C   UNL     1     -11.251  13.297  68.370  1.00  0.00    -0.280 A  
HETATM   23  C   UNL     1     -11.534  14.654  68.911  1.00  0.00    -0.323 C  
HETATM   24  S   UNL     1     -11.777  12.882  66.803  1.00  0.00    -0.385 SA 
ENDBRANCH   5   8
TORSDOF 1
ENDMDL
MODEL      102
REMARK 921   NORMALIZED FREE ENERGY PREDICTED BY IDOCK:   -4.02 KCAL/MOL
REMARK 922        TOTAL FREE ENERGY PREDICTED BY IDOCK:   -4.67 KCAL/MOL
REMARK 923 INTER-LIGAND FREE ENERGY PREDICTED BY IDOCK:   -4.24 KCAL/MOL
REMARK 924 INTRA-LIGAND FREE ENERGY PREDICTED BY IDOCK:   -0.43 KCAL/MOL
REMARK 927      BINDING AFFINITY PREDICTED BY RF-SCORE:    0.00 PKD
ROOT
HETATM    1  C   UNL     1     -10.229  17.944  68.750  1.00  0.00    -0.360 C  
HETATM    2  N   UNL     1     -10.381  17.004  67.641  1.00  0.00    -0.321 NA 
HETATM    3  C   UNL     1      -9.076  16.586  67.093  1.00  0.00    -0.213 C  
HETATM    4  C   UNL     1      -8.239  15.658  68.002  1.00  0.00    -0.144 C  
HETATM    5  N   UNL     1      -9.017  14.505  68.481  1.00  0.00    -0.185 NA 
HETATM    6  C   UNL     1     -11.120  15.788  68.048  1.00  0.00    -0.337 C  
HETATM    7  C   UNL     1     -10.354  14.849  69.003  1.00  0.00    -0.245 C  
ENDROOT
BRANCH   5   8
HETATM    8  C   UNL     1      -8.676  13.172  68.266  1.00  0.00    -0.165 C  
HETATM    9  N   UNL     1      -7.777  12.579  68.996  1.00  0.00    -0.330 NA 
HETATM   10  C   UNL     1      -7.324  11.259  68.815  1.00  0.00    -0.109 A  
HETATM   11  H   UNL     1      -7.367  13.115  69.762  1.00  0.00     0.000 HD 
HETATM   12  C   UNL     1      -5.955  11.050  69.043  1.00  0.00    -0.041 A  
HETATM   13  C   UNL     1      -5.378   9.786  68.908  1.00  0.00    -0.036 A  
HETATM   14  C   UNL     1      -6.171   8.698  68.565  1.00  0.00    -0.053 A  
HETATM   15  C   UNL     1      -7.540   8.875  68.370  1.00  0.00    -0.091 A  
HETATM   16  C   UNL     1      -8.132  10.147  68.490  1.00  0.00    -0.106 A  
HETATM   17  N   UNL     1      -9.506  10.281  68.140  1.00  0.00    -0.145 NA 
HETATM   18  C   UNL     1      -9.797  11.213  67.197  1.00  0.00    -0.187 A  
HETATM   19  H   UNL     1     -10.230   9.710  68.575  1.00  0.00     0.000 HD 
HETATM   20  C   UNL     1      -9.370  12.526  67.151  1.00  0.00    -0.201 A  
HETATM   21  C   UNL     1      -9.676  13.104  65.867  1.00  0.00    -0.190 A  
HETATM   22  C   UNL     1     -10.415  12.267  65.059  1.00  0.00    -0.290 A  
HETATM   23  C   UNL     1     -10.909  12.502  63.676  1.00  0.00    -0.486 C  
HETATM   24  S   UNL     1     -10.748  10.788  65.838  1.00  0.00    -0.002 SA 
ENDBRANCH   5   8
TORSDOF 1
ENDMDL
MODEL      103
REMARK 921   NORMALIZED FREE ENERGY PREDICTED BY IDOCK:   -4.02 KCAL/MOL
REMARK 922        TOTAL FREE ENERGY PREDICTED BY IDOCK:   -4.66 KCAL/MOL
REMARK 923 INTER-LIGAND FREE ENERGY PREDICTED BY IDOCK:   -4.26 KCAL/MOL
REMARK 924 INTRA-LIGAND FREE ENERGY PREDICTED BY IDOCK:   -0.40 KCAL/MOL
REMARK 927      BINDING AFFINITY PREDICTED BY RF-SCORE:    0.00 PKD
ROOT
HETATM    1  C   UNL     1     -11.324  14.025  66.269  1.00  0.00    -0.333 C  
HETATM    2  N   UNL     1     -10.105  13.249  66.053  1.00  0.00    -0.294 NA 
HETATM    3  C   UNL     1      -9.311  13.118  67.291  1.00  0.00    -0.225 C  
HETATM    4  C   UNL     1      -9.918  12.201  68.376  1.00  0.00    -0.206 C  
HETATM    5  N   UNL     1     -10.298  10.886  67.838  1.00  0.00    -0.180 NA 
HETATM    6  C   UNL     1     -10.399  11.889  65.549  1.00  0.00    -0.264 C  
HETATM    7  C   UNL     1     -11.059  10.944  66.575  1.00  0.00    -0.048 C  
ENDROOT
BRANCH   5   8
HETATM    8  C   UNL     1      -9.812   9.667  68.302  1.00  0.00    -0.150 C  
HETATM    9  N   UNL     1      -9.013   8.938  67.578  1.00  0.00    -0.133 NA 
HETATM   10  C   UNL     1      -8.522   7.669  67.935  1.00  0.00    -0.123 A  
HETATM   11  H   UNL     1      -8.720   9.319  66.677  1.00  0.00     0.000 HD 
HETATM   12  C   UNL     1      -8.413   6.743  66.887  1.00  0.00    -0.115 A  
HETATM   13  C   UNL     1      -7.930   5.451  67.103  1.00  0.00    -0.101 A  
HETATM   14  C   UNL     1      -7.522   5.070  68.375  1.00  0.00    -0.074 A  
HETATM   15  C   UNL     1      -7.586   5.985  69.425  1.00  0.00    -0.097 A  
HETATM   16  C   UNL     1      -8.084   7.288  69.223  1.00  0.00    -0.124 A  
HETATM   17  N   UNL     1      -8.253   8.123  70.363  1.00  0.00    -0.111 NA 
HETATM   18  C   UNL     1      -9.496   8.634  70.554  1.00  0.00    -0.178 A  
HETATM   19  H   UNL     1      -7.483   8.327  71.000  1.00  0.00     0.000 HD 
HETATM   20  C   UNL     1     -10.298   9.268  69.625  1.00  0.00    -0.227 A  
HETATM   21  C   UNL     1     -11.633   9.424  70.142  1.00  0.00    -0.117 A  
HETATM   22  C   UNL     1     -11.754   9.025  71.456  1.00  0.00    -0.345 A  
HETATM   23  C   UNL     1     -12.963   9.024  72.323  1.00  0.00    -0.490 C  
HETATM   24  S   UNL     1     -10.266   8.466  72.074  1.00  0.00    -0.321 SA 
ENDBRANCH   5   8
TORSDOF 1
ENDMDL
MODEL      104
REMARK 921   NORMALIZED FREE ENERGY PREDICTED BY IDOCK:   -3.96 KCAL/MOL
REMARK 922        TOTAL FREE ENERGY PREDICTED BY IDOCK:   -4.59 KCAL/MOL
REMARK 923 INTER-LIGAND FREE ENERGY PREDICTED BY IDOCK:   -4.25 KCAL/MOL
REMARK 924 INTRA-LIGAND FREE ENERGY PREDICTED BY IDOCK:   -0.34 KCAL/MOL
REMARK 927      BINDING AFFINITY PREDICTED BY RF-SCORE:    0.00 PKD
ROOT
HETATM    1  C   UNL     1     -11.379   5.505  72.832  1.00  0.00    -0.291 C  
HETATM    2  N   UNL     1     -11.272   6.871  72.323  1.00  0.00    -0.255 NA 
HETATM    3  C   UNL     1      -9.879   7.226  71.989  1.00  0.00    -0.161 C  
HETATM    4  C   UNL     1      -9.293   6.523  70.743  1.00  0.00    -0.158 C  
HETATM    5  N   UNL     1     -10.176   6.648  69.573  1.00  0.00    -0.176 NA 
HETATM    6  C   UNL     1     -12.100   7.075  71.113  1.00  0.00    -0.369 C  
HETATM    7  C   UNL     1     -11.595   6.350  69.848  1.00  0.00    -0.353 C  
ENDROOT
BRANCH   5   8
HETATM    8  C   UNL     1      -9.809   7.220  68.358  1.00  0.00    -0.155 C  
HETATM    9  N   UNL     1      -9.925   8.499  68.151  1.00  0.00    -0.174 NA 
HETATM   10  C   UNL     1      -9.639   9.157  66.940  1.00  0.00    -0.178 A  
HETATM   11  H   UNL     1     -10.251   9.072  68.930  1.00  0.00     0.000 HD 
HETATM   12  C   UNL     1     -10.499  10.213  66.604  1.00  0.00    -0.254 A  
HETATM   13  C   UNL     1     -10.321  10.954  65.435  1.00  0.00    -0.326 A  
HETATM   14  C   UNL     1      -9.258  10.666  64.590  1.00  0.00    -0.262 A  
HETATM   15  C   UNL     1      -8.367   9.645  64.922  1.00  0.00    -0.152 A  
HETATM   16  C   UNL     1      -8.544   8.881  66.092  1.00  0.00    -0.140 A  
HETATM   17  N   UNL     1      -7.682   7.766  66.298  1.00  0.00    -0.087 NA 
HETATM   18  C   UNL     1      -8.289   6.566  66.487  1.00  0.00    -0.116 A  
HETATM   19  H   UNL     1      -6.668   7.863  66.304  1.00  0.00     0.000 HD 
HETATM   20  C   UNL     1      -9.330   6.275  67.347  1.00  0.00    -0.117 A  
HETATM   21  C   UNL     1      -9.859   4.965  67.064  1.00  0.00    -0.214 A  
HETATM   22  C   UNL     1      -9.135   4.285  66.109  1.00  0.00    -0.133 A  
HETATM   23  C   UNL     1      -9.374   2.927  65.549  1.00  0.00    -0.084 C  
HETATM   24  S   UNL     1      -7.817   5.212  65.552  1.00  0.00    -0.094 SA 
ENDBRANCH   5   8
TORSDOF 1
ENDMDL
MODEL      105
REMARK 921   NORMALIZED FREE ENERGY PREDICTED BY IDOCK:   -3.89 KCAL/MOL
REMARK 922        TOTAL FREE ENERGY PREDICTED BY IDOCK:   -4.52 KCAL/MOL
REMARK 923 INTER-LIGAND FREE ENERGY PREDICTED BY IDOCK:   -4.14 KCAL/MOL
REMARK 924 INTRA-LIGAND FREE ENERGY PREDICTED BY IDOCK:   -0.39 KCAL/MOL
REMARK 927      BINDING AFFINITY PREDICTED BY RF-SCORE:    0.00 PKD
ROOT
HETATM    1  C   UNL     1     -13.266   9.417  72.084  1.00  0.00    -0.460 C  
HETATM    2  N   UNL     1     -12.187   8.486  72.410  1.00  0.00    -0.385 NA 
HETATM    3  C   UNL     1     -12.509   7.106  71.997  1.00  0.00    -0.242 C  
HETATM    4  C   UNL     1     -12.512   6.851  70.473  1.00  0.00    -0.033 C  
HETATM    5  N   UNL     1     -11.279   7.333  69.830  1.00  0.00    -0.214 NA 
HETATM    6  C   UNL     1     -10.912   8.874  71.767  1.00  0.00    -0.361 C  
HETATM    7  C   UNL     1     -10.875   8.694  70.234  1.00  0.00    -0.235 C  
ENDROOT
BRANCH   5   8
HETATM    8  C   UNL     1     -10.406   6.539  69.091  1.00  0.00    -0.193 C  
HETATM    9  N   UNL     1     -10.594   6.331  67.820  1.00  0.00    -0.228 NA 
HETATM   10  C   UNL     1      -9.804   5.498  67.007  1.00  0.00    -0.158 A  
HETATM   11  H   UNL     1     -11.378   6.812  67.378  1.00  0.00     0.000 HD 
HETATM   12  C   UNL     1     -10.498   4.765  66.033  1.00  0.00    -0.332 A  
HETATM   13  C   UNL     1      -9.833   3.909  65.154  1.00  0.00    -0.184 A  
HETATM   14  C   UNL     1      -8.451   3.789  65.219  1.00  0.00    -0.105 A  
HETATM   15  C   UNL     1      -7.735   4.536  66.155  1.00  0.00    -0.094 A  
HETATM   16  C   UNL     1      -8.396   5.394  67.056  1.00  0.00    -0.107 A  
HETATM   17  N   UNL     1      -7.621   6.017  68.075  1.00  0.00    -0.092 NA 
HETATM   18  C   UNL     1      -8.031   5.811  69.352  1.00  0.00    -0.097 A  
HETATM   19  H   UNL     1      -6.804   6.588  67.857  1.00  0.00     0.000 HD 
HETATM   20  C   UNL     1      -9.310   5.942  69.857  1.00  0.00    -0.173 A  
HETATM   21  C   UNL     1      -9.382   5.383  71.183  1.00  0.00    -0.186 A  
HETATM   22  C   UNL     1      -8.157   4.975  71.665  1.00  0.00    -0.114 A  
HETATM   23  C   UNL     1      -7.832   4.346  72.973  1.00  0.00    -0.091 C  
HETATM   24  S   UNL     1      -6.917   5.264  70.532  1.00  0.00    -0.054 SA 
ENDBRANCH   5   8
TORSDOF 1
ENDMDL
MODEL      106
REMARK 921   NORMALIZED FREE ENERGY PREDICTED BY IDOCK:   -3.87 KCAL/MOL
REMARK 922        TOTAL FREE ENERGY PREDICTED BY IDOCK:   -4.51 KCAL/MOL
REMARK 923 INTER-LIGAND FREE ENERGY PREDICTED BY IDOCK:   -4.48 KCAL/MOL
REMARK 924 INTRA-LIGAND FREE ENERGY PREDICTED BY IDOCK:   -0.03 KCAL/MOL
REMARK 927      BINDING AFFINITY PREDICTED BY RF-SCORE:    0.00 PKD
ROOT
HETATM    1  C   UNL     1     -13.388   7.539  71.695  1.00  0.00    -0.358 C  
HETATM    2  N   UNL     1     -12.345   8.469  72.124  1.00  0.00    -0.359 NA 
HETATM    3  C   UNL     1     -11.012   8.061  71.638  1.00  0.00    -0.239 C  
HETATM    4  C   UNL     1     -10.781   8.219  70.118  1.00  0.00    -0.239 C  
HETATM    5  N   UNL     1     -11.140   9.564  69.642  1.00  0.00    -0.211 NA 
HETATM    6  C   UNL     1     -12.606   9.846  71.649  1.00  0.00    -0.424 C  
HETATM    7  C   UNL     1     -12.445  10.052  70.128  1.00  0.00     0.049 C  
ENDROOT
BRANCH   5   8
HETATM    8  C   UNL     1     -10.270  10.435  68.992  1.00  0.00    -0.217 C  
HETATM    9  N   UNL     1     -10.402  11.725  69.097  1.00  0.00    -0.418 NA 
HETATM   10  C   UNL     1      -9.613  12.680  68.431  1.00  0.00    -0.173 A  
HETATM   11  H   UNL     1     -11.138  12.072  69.713  1.00  0.00     0.000 HD 
HETATM   12  C   UNL     1     -10.290  13.826  67.988  1.00  0.00    -0.246 A  
HETATM   13  C   UNL     1      -9.624  14.856  67.322  1.00  0.00    -0.216 A  
HETATM   14  C   UNL     1      -8.254  14.767  67.108  1.00  0.00    -0.239 A  
HETATM   15  C   UNL     1      -7.552  13.655  67.572  1.00  0.00    -0.180 A  
HETATM   16  C   UNL     1      -8.216  12.603  68.234  1.00  0.00    -0.164 A  
HETATM   17  N   UNL     1      -7.465  11.437  68.557  1.00  0.00    -0.106 NA 
HETATM   18  C   UNL     1      -7.950  10.261  68.083  1.00  0.00    -0.109 A  
HETATM   19  H   UNL     1      -6.611  11.483  69.112  1.00  0.00     0.000 HD 
HETATM   20  C   UNL     1      -9.245   9.789  68.169  1.00  0.00    -0.132 A  
HETATM   21  C   UNL     1      -9.412   8.636  67.322  1.00  0.00    -0.198 A  
HETATM   22  C   UNL     1      -8.235   8.217  66.740  1.00  0.00    -0.107 A  
HETATM   23  C   UNL     1      -8.009   7.082  65.806  1.00  0.00    -0.116 C  
HETATM   24  S   UNL     1      -6.926   9.202  67.212  1.00  0.00    -0.079 SA 
ENDBRANCH   5   8
TORSDOF 1
ENDMDL
MODEL      107
REMARK 921   NORMALIZED FREE ENERGY PREDICTED BY IDOCK:   -3.87 KCAL/MOL
REMARK 922        TOTAL FREE ENERGY PREDICTED BY IDOCK:   -4.50 KCAL/MOL
REMARK 923 INTER-LIGAND FREE ENERGY PREDICTED BY IDOCK:   -4.54 KCAL/MOL
REMARK 924 INTRA-LIGAND FREE ENERGY PREDICTED BY IDOCK:    0.04 KCAL/MOL
REMARK 927      BINDING AFFINITY PREDICTED BY RF-SCORE:    0.00 PKD
ROOT
HETATM    1  C   UNL     1      -8.343   7.314  71.865  1.00  0.00    -0.107 C  
HETATM    2  N   UNL     1      -8.315   8.772  71.772  1.00  0.00    -0.319 NA 
HETATM    3  C   UNL     1      -7.277   9.243  70.834  1.00  0.00    -0.102 C  
HETATM    4  C   UNL     1      -7.558   8.972  69.339  1.00  0.00    -0.078 C  
HETATM    5  N   UNL     1      -8.896   9.433  68.936  1.00  0.00    -0.133 NA 
HETATM    6  C   UNL     1      -9.616   9.321  71.329  1.00  0.00    -0.202 C  
HETATM    7  C   UNL     1      -9.978   9.033  69.857  1.00  0.00    -0.191 C  
ENDROOT
BRANCH   5   8
HETATM    8  C   UNL     1      -9.147  10.360  67.929  1.00  0.00    -0.132 C  
HETATM    9  N   UNL     1      -9.744  10.013  66.826  1.00  0.00    -0.181 NA 
HETATM   10  C   UNL     1      -9.985  10.863  65.730  1.00  0.00    -0.247 A  
HETATM   11  H   UNL     1     -10.063   9.047  66.749  1.00  0.00     0.000 HD 
HETATM   12  C   UNL     1      -9.852  10.274  64.464  1.00  0.00    -0.384 A  
HETATM   13  C   UNL     1     -10.072  11.002  63.294  1.00  0.00    -0.400 A  
HETATM   14  C   UNL     1     -10.457  12.334  63.371  1.00  0.00    -0.408 A  
HETATM   15  C   UNL     1     -10.633  12.931  64.620  1.00  0.00    -0.384 A  
HETATM   16  C   UNL     1     -10.401  12.210  65.808  1.00  0.00    -0.258 A  
HETATM   17  N   UNL     1     -10.462  12.918  67.042  1.00  0.00    -0.238 NA 
HETATM   18  C   UNL     1      -9.359  12.847  67.830  1.00  0.00    -0.208 A  
HETATM   19  H   UNL     1     -11.288  13.449  67.318  1.00  0.00     0.000 HD 
HETATM   20  C   UNL     1      -8.658  11.714  68.195  1.00  0.00    -0.158 A  
HETATM   21  C   UNL     1      -7.410  12.079  68.815  1.00  0.00    -0.098 A  
HETATM   22  C   UNL     1      -7.276  13.438  69.002  1.00  0.00    -0.018 A  
HETATM   23  C   UNL     1      -6.138  14.191  69.594  1.00  0.00    -0.121 C  
HETATM   24  S   UNL     1      -8.649  14.279  68.441  1.00  0.00    -0.174 SA 
ENDBRANCH   5   8
TORSDOF 1
ENDMDL
MODEL      108
REMARK 921   NORMALIZED FREE ENERGY PREDICTED BY IDOCK:   -3.85 KCAL/MOL
REMARK 922        TOTAL FREE ENERGY PREDICTED BY IDOCK:   -4.48 KCAL/MOL
REMARK 923 INTER-LIGAND FREE ENERGY PREDICTED BY IDOCK:   -4.08 KCAL/MOL
REMARK 924 INTRA-LIGAND FREE ENERGY PREDICTED BY IDOCK:   -0.40 KCAL/MOL
REMARK 927      BINDING AFFINITY PREDICTED BY RF-SCORE:    0.00 PKD
ROOT
HETATM    1  C   UNL     1      -8.422   4.764  63.603  1.00  0.00    -0.128 C  
HETATM    2  N   UNL     1      -8.444   4.380  65.014  1.00  0.00    -0.120 NA 
HETATM    3  C   UNL     1      -7.582   5.254  65.833  1.00  0.00    -0.083 C  
HETATM    4  C   UNL     1      -8.095   6.699  66.031  1.00  0.00    -0.122 C  
HETATM    5  N   UNL     1      -9.491   6.730  66.495  1.00  0.00    -0.165 NA 
HETATM    6  C   UNL     1      -9.812   4.426  65.576  1.00  0.00    -0.216 C  
HETATM    7  C   UNL     1     -10.400   5.843  65.744  1.00  0.00     0.534 C  
ENDROOT
BRANCH   5   8
HETATM    8  C   UNL     1      -9.923   7.334  67.673  1.00  0.00    -0.162 C  
HETATM    9  N   UNL     1     -10.132   6.637  68.752  1.00  0.00    -0.151 NA 
HETATM   10  C   UNL     1     -10.626   7.147  69.966  1.00  0.00    -0.232 A  
HETATM   11  H   UNL     1      -9.920   5.639  68.714  1.00  0.00     0.000 HD 
HETATM   12  C   UNL     1     -11.508   6.308  70.664  1.00  0.00    -0.397 A  
HETATM   13  C   UNL     1     -12.064   6.689  71.886  1.00  0.00    -0.385 A  
HETATM   14  C   UNL     1     -11.724   7.913  72.448  1.00  0.00    -0.423 A  
HETATM   15  C   UNL     1     -10.819   8.748  71.792  1.00  0.00    -0.416 A  
HETATM   16  C   UNL     1     -10.262   8.381  70.551  1.00  0.00    -0.196 A  
HETATM   17  N   UNL     1      -9.458   9.338  69.870  1.00  0.00    -0.183 NA 
HETATM   18  C   UNL     1      -9.837   9.650  68.604  1.00  0.00    -0.161 A  
HETATM   19  H   UNL     1      -8.642   9.765  70.308  1.00  0.00     0.000 HD 
HETATM   20  C   UNL     1     -10.154   8.777  67.582  1.00  0.00    -0.273 A  
HETATM   21  C   UNL     1     -10.756   9.492  66.485  1.00  0.00    -0.031 A  
HETATM   22  C   UNL     1     -10.757  10.858  66.666  1.00  0.00    -0.230 A  
HETATM   23  C   UNL     1     -11.293  11.917  65.769  1.00  0.00    -0.354 C  
HETATM   24  S   UNL     1     -10.031  11.288  68.147  1.00  0.00    -0.187 SA 
ENDBRANCH   5   8
TORSDOF 1
ENDMDL
MODEL      109
REMARK 921   NORMALIZED FREE ENERGY PREDICTED BY IDOCK:   -3.76 KCAL/MOL
REMARK 922        TOTAL FREE ENERGY PREDICTED BY IDOCK:   -4.39 KCAL/MOL
REMARK 923 INTER-LIGAND FREE ENERGY PREDICTED BY IDOCK:   -4.07 KCAL/MOL
REMARK 924 INTRA-LIGAND FREE ENERGY PREDICTED BY IDOCK:   -0.32 KCAL/MOL
REMARK 927      BINDING AFFINITY PREDICTED BY RF-SCORE:    0.00 PKD
ROOT
HETATM    1  C   UNL     1      -8.618  16.957  67.453  1.00  0.00    -0.202 C  
HETATM    2  N   UNL     1      -9.376  16.101  68.363  1.00  0.00    -0.201 NA 
HETATM    3  C   UNL     1     -10.428  15.344  67.657  1.00  0.00    -0.272 C  
HETATM    4  C   UNL     1      -9.926  14.217  66.726  1.00  0.00    -0.267 C  
HETATM    5  N   UNL     1      -8.981  13.318  67.407  1.00  0.00    -0.204 NA 
HETATM    6  C   UNL     1      -8.504  15.131  69.063  1.00  0.00    -0.214 C  
HETATM    7  C   UNL     1      -7.926  14.012  68.171  1.00  0.00    -0.149 C  
ENDROOT
BRANCH   5   8
HETATM    8  C   UNL     1      -9.154  11.945  67.551  1.00  0.00    -0.178 C  
HETATM    9  N   UNL     1      -9.863  11.452  68.526  1.00  0.00    -0.195 NA 
HETATM   10  C   UNL     1     -10.043  10.081  68.788  1.00  0.00    -0.185 A  
HETATM   11  H   UNL     1     -10.325  12.114  69.150  1.00  0.00     0.000 HD 
HETATM   12  C   UNL     1     -10.076   9.721  70.143  1.00  0.00    -0.317 A  
HETATM   13  C   UNL     1     -10.259   8.396  70.541  1.00  0.00    -0.216 A  
HETATM   14  C   UNL     1     -10.438   7.405  69.584  1.00  0.00    -0.237 A  
HETATM   15  C   UNL     1     -10.446   7.745  68.231  1.00  0.00    -0.215 A  
HETATM   16  C   UNL     1     -10.250   9.077  67.816  1.00  0.00    -0.230 A  
HETATM   17  N   UNL     1     -10.130   9.331  66.421  1.00  0.00    -0.279 NA 
HETATM   18  C   UNL     1      -9.003   9.975  66.022  1.00  0.00    -0.148 A  
HETATM   19  H   UNL     1     -10.850   9.045  65.757  1.00  0.00     0.000 HD 
HETATM   20  C   UNL     1      -8.455  11.123  66.561  1.00  0.00    -0.165 A  
HETATM   21  C   UNL     1      -7.131  11.337  66.036  1.00  0.00     0.143 A  
HETATM   22  C   UNL     1      -6.787  10.435  65.052  1.00  0.00    -0.065 A  
HETATM   23  C   UNL     1      -5.516  10.328  64.288  1.00  0.00    -0.131 C  
HETATM   24  S   UNL     1      -8.053   9.333  64.752  1.00  0.00    -0.143 SA 
ENDBRANCH   5   8
TORSDOF 1
ENDMDL
MODEL      110
REMARK 921   NORMALIZED FREE ENERGY PREDICTED BY IDOCK:   -3.69 KCAL/MOL
REMARK 922        TOTAL FREE ENERGY PREDICTED BY IDOCK:   -4.32 KCAL/MOL
REMARK 923 INTER-LIGAND FREE ENERGY PREDICTED BY IDOCK:   -3.92 KCAL/MOL
REMARK 924 INTRA-LIGAND FREE ENERGY PREDICTED BY IDOCK:   -0.39 KCAL/MOL
REMARK 927      BINDING AFFINITY PREDICTED BY RF-SCORE:    0.00 PKD
ROOT
HETATM    1  C   UNL     1     -11.284   4.862  73.062  1.00  0.00    -0.289 C  
HETATM    2  N   UNL     1     -11.584   6.283  72.898  1.00  0.00    -0.098 NA 
HETATM    3  C   UNL     1     -10.378   7.120  73.052  1.00  0.00    -0.271 C  
HETATM    4  C   UNL     1      -9.347   7.020  71.905  1.00  0.00    -0.140 C  
HETATM    5  N   UNL     1      -9.969   7.210  70.586  1.00  0.00    -0.190 NA 
HETATM    6  C   UNL     1     -12.177   6.572  71.574  1.00  0.00    -0.272 C  
HETATM    7  C   UNL     1     -11.208   6.433  70.381  1.00  0.00    -0.372 C  
ENDROOT
BRANCH   5   8
HETATM    8  C   UNL     1      -9.606   8.193  69.670  1.00  0.00    -0.168 C  
HETATM    9  N   UNL     1     -10.422   9.156  69.353  1.00  0.00    -0.216 NA 
HETATM   10  C   UNL     1     -10.168  10.155  68.396  1.00  0.00    -0.169 A  
HETATM   11  H   UNL     1     -11.320   9.188  69.838  1.00  0.00     0.000 HD 
HETATM   12  C   UNL     1     -11.269  10.547  67.620  1.00  0.00    -0.338 A  
HETATM   13  C   UNL     1     -11.156  11.535  66.641  1.00  0.00    -0.355 A  
HETATM   14  C   UNL     1      -9.938  12.172  66.439  1.00  0.00    -0.243 A  
HETATM   15  C   UNL     1      -8.839  11.826  67.224  1.00  0.00    -0.167 A  
HETATM   16  C   UNL     1      -8.936  10.820  68.206  1.00  0.00    -0.143 A  
HETATM   17  N   UNL     1      -7.744  10.420  68.873  1.00  0.00    -0.102 NA 
HETATM   18  C   UNL     1      -7.440   9.098  68.818  1.00  0.00    -0.076 A  
HETATM   19  H   UNL     1      -7.152  11.088  69.366  1.00  0.00     0.000 HD 
HETATM   20  C   UNL     1      -8.276   8.030  69.080  1.00  0.00    -0.128 A  
HETATM   21  C   UNL     1      -7.659   6.799  68.657  1.00  0.00    -0.105 A  
HETATM   22  C   UNL     1      -6.363   6.966  68.218  1.00  0.00    -0.035 A  
HETATM   23  C   UNL     1      -5.415   5.944  67.699  1.00  0.00    -0.005 C  
HETATM   24  S   UNL     1      -5.881   8.599  68.316  1.00  0.00    -0.042 SA 
ENDBRANCH   5   8
TORSDOF 1
ENDMDL
MODEL      111
REMARK 921   NORMALIZED FREE ENERGY PREDICTED BY IDOCK:   -3.63 KCAL/MOL
REMARK 922        TOTAL FREE ENERGY PREDICTED BY IDOCK:   -4.25 KCAL/MOL
REMARK 923 INTER-LIGAND FREE ENERGY PREDICTED BY IDOCK:   -4.53 KCAL/MOL
REMARK 924 INTRA-LIGAND FREE ENERGY PREDICTED BY IDOCK:    0.28 KCAL/MOL
REMARK 927      BINDING AFFINITY PREDICTED BY RF-SCORE:    0.00 PKD
ROOT
HETATM    1  C   UNL     1     -13.072  10.139  71.288  1.00  0.00    -0.396 C  
HETATM    2  N   UNL     1     -11.939   9.496  71.950  1.00  0.00    -0.358 NA 
HETATM    3  C   UNL     1     -12.233   8.093  72.303  1.00  0.00    -0.346 C  
HETATM    4  C   UNL     1     -12.326   7.113  71.112  1.00  0.00    -0.364 C  
HETATM    5  N   UNL     1     -11.157   7.211  70.223  1.00  0.00    -0.266 NA 
HETATM    6  C   UNL     1     -10.725   9.512  71.104  1.00  0.00    -0.338 C  
HETATM    7  C   UNL     1     -10.781   8.593  69.865  1.00  0.00    -0.225 C  
ENDROOT
BRANCH   5   8
HETATM    8  C   UNL     1     -10.305   6.156  69.911  1.00  0.00    -0.213 C  
HETATM    9  N   UNL     1     -10.019   5.860  68.677  1.00  0.00    -0.139 NA 
HETATM   10  C   UNL     1      -9.220   4.778  68.264  1.00  0.00    -0.124 A  
HETATM   11  H   UNL     1     -10.406   6.462  67.949  1.00  0.00     0.000 HD 
HETATM   12  C   UNL     1      -9.635   4.130  67.091  1.00  0.00    -0.229 A  
HETATM   13  C   UNL     1      -8.927   3.048  66.566  1.00  0.00    -0.164 A  
HETATM   14  C   UNL     1      -7.769   2.609  67.196  1.00  0.00    -0.070 A  
HETATM   15  C   UNL     1      -7.316   3.261  68.343  1.00  0.00    -0.050 A  
HETATM   16  C   UNL     1      -8.030   4.346  68.890  1.00  0.00    -0.073 A  
HETATM   17  N   UNL     1      -7.590   4.874  70.137  1.00  0.00    -0.058 NA 
HETATM   18  C   UNL     1      -8.514   4.914  71.131  1.00  0.00    -0.118 A  
HETATM   19  H   UNL     1      -6.636   5.205  70.275  1.00  0.00     0.000 HD 
HETATM   20  C   UNL     1      -9.804   5.402  71.063  1.00  0.00    -0.246 A  
HETATM   21  C   UNL     1     -10.542   5.026  72.241  1.00  0.00    -0.269 A  
HETATM   22  C   UNL     1      -9.765   4.392  73.187  1.00  0.00    -0.135 A  
HETATM   23  C   UNL     1     -10.165   3.852  74.513  1.00  0.00    -0.252 C  
HETATM   24  S   UNL     1      -8.148   4.250  72.666  1.00  0.00    -0.097 SA 
ENDBRANCH   5   8
TORSDOF 1
ENDMDL
MODEL      112
REMARK 921   NORMALIZED FREE ENERGY PREDICTED BY IDOCK:   -3.62 KCAL/MOL
REMARK 922        TOTAL FREE ENERGY PREDICTED BY IDOCK:   -4.24 KCAL/MOL
REMARK 923 INTER-LIGAND FREE ENERGY PREDICTED BY IDOCK:   -3.89 KCAL/MOL
REMARK 924 INTRA-LIGAND FREE ENERGY PREDICTED BY IDOCK:   -0.35 KCAL/MOL
REMARK 927      BINDING AFFINITY PREDICTED BY RF-SCORE:    0.00 PKD
ROOT
HETATM    1  C   UNL     1     -11.880  15.045  67.252  1.00  0.00    -0.145 C  
HETATM    2  N   UNL     1     -10.610  14.762  66.584  1.00  0.00    -0.293 NA 
HETATM    3  C   UNL     1      -9.624  14.169  67.508  1.00  0.00    -0.223 C  
HETATM    4  C   UNL     1      -9.919  12.719  67.955  1.00  0.00    -0.229 C  
HETATM    5  N   UNL     1     -10.188  11.833  66.811  1.00  0.00    -0.208 NA 
HETATM    6  C   UNL     1     -10.783  13.839  65.440  1.00  0.00    -0.317 C  
HETATM    7  C   UNL     1     -11.135  12.386  65.824  1.00  0.00    -0.315 C  
ENDROOT
BRANCH   5   8
HETATM    8  C   UNL     1      -9.467  10.680  66.514  1.00  0.00    -0.169 C  
HETATM    9  N   UNL     1      -8.866  10.536  65.369  1.00  0.00    -0.180 NA 
HETATM   10  C   UNL     1      -8.168   9.385  64.956  1.00  0.00    -0.138 A  
HETATM   11  H   UNL     1      -8.903  11.321  64.718  1.00  0.00     0.000 HD 
HETATM   12  C   UNL     1      -8.300   9.049  63.600  1.00  0.00    -0.178 A  
HETATM   13  C   UNL     1      -7.653   7.938  63.058  1.00  0.00    -0.126 A  
HETATM   14  C   UNL     1      -6.837   7.153  63.863  1.00  0.00    -0.048 A  
HETATM   15  C   UNL     1      -6.661   7.489  65.205  1.00  0.00    -0.044 A  
HETATM   16  C   UNL     1      -7.319   8.601  65.767  1.00  0.00    -0.081 A  
HETATM   17  N   UNL     1      -7.206   8.804  67.172  1.00  0.00    -0.079 NA 
HETATM   18  C   UNL     1      -8.373   8.884  67.862  1.00  0.00    -0.118 A  
HETATM   19  H   UNL     1      -6.301   8.885  67.633  1.00  0.00     0.000 HD 
HETATM   20  C   UNL     1      -9.479   9.654  67.558  1.00  0.00    -0.157 A  
HETATM   21  C   UNL     1     -10.597   9.263  68.378  1.00  0.00    -0.234 A  
HETATM   22  C   UNL     1     -10.267   8.324  69.332  1.00  0.00    -0.204 A  
HETATM   23  C   UNL     1     -11.142   7.676  70.345  1.00  0.00    -0.270 C  
HETATM   24  S   UNL     1      -8.615   7.912  69.250  1.00  0.00    -0.138 SA 
ENDBRANCH   5   8
TORSDOF 1
ENDMDL
MODEL      113
REMARK 921   NORMALIZED FREE ENERGY PREDICTED BY IDOCK:   -3.60 KCAL/MOL
REMARK 922        TOTAL FREE ENERGY PREDICTED BY IDOCK:   -4.22 KCAL/MOL
REMARK 923 INTER-LIGAND FREE ENERGY PREDICTED BY IDOCK:   -3.87 KCAL/MOL
REMARK 924 INTRA-LIGAND FREE ENERGY PREDICTED BY IDOCK:   -0.34 KCAL/MOL
REMARK 927      BINDING AFFINITY PREDICTED BY RF-SCORE:    0.00 PKD
ROOT
HETATM    1  C   UNL     1      -8.863   5.312  73.880  1.00  0.00    -0.117 C  
HETATM    2  N   UNL     1      -9.708   6.497  73.747  1.00  0.00    -0.185 NA 
HETATM    3  C   UNL     1      -8.937   7.744  73.920  1.00  0.00    -0.259 C  
HETATM    4  C   UNL     1      -7.961   8.088  72.772  1.00  0.00    -0.148 C  
HETATM    5  N   UNL     1      -8.617   8.039  71.456  1.00  0.00    -0.120 NA 
HETATM    6  C   UNL     1     -10.378   6.551  72.428  1.00  0.00    -0.188 C  
HETATM    7  C   UNL     1      -9.443   6.836  71.234  1.00  0.00    -0.165 C  
ENDROOT
BRANCH   5   8
HETATM    8  C   UNL     1      -8.685   9.104  70.562  1.00  0.00    -0.221 C  
HETATM    9  N   UNL     1      -7.623   9.540  69.950  1.00  0.00    -0.105 NA 
HETATM   10  C   UNL     1      -7.582  10.645  69.080  1.00  0.00    -0.122 A  
HETATM   11  H   UNL     1      -6.749   9.041  70.114  1.00  0.00     0.000 HD 
HETATM   12  C   UNL     1      -6.430  11.441  69.162  1.00  0.00    -0.085 A  
HETATM   13  C   UNL     1      -6.258  12.562  68.348  1.00  0.00    -0.058 A  
HETATM   14  C   UNL     1      -7.232  12.893  67.414  1.00  0.00    -0.130 A  
HETATM   15  C   UNL     1      -8.369  12.095  67.288  1.00  0.00    -0.179 A  
HETATM   16  C   UNL     1      -8.560  10.969  68.113  1.00  0.00    -0.140 A  
HETATM   17  N   UNL     1      -9.805  10.283  68.029  1.00  0.00    -0.149 NA 
HETATM   18  C   UNL     1     -10.494  10.145  69.190  1.00  0.00    -0.222 A  
HETATM   19  H   UNL     1     -10.158   9.915  67.146  1.00  0.00     0.000 HD 
HETATM   20  C   UNL     1     -10.013   9.700  70.406  1.00  0.00    -0.330 A  
HETATM   21  C   UNL     1     -10.981   9.947  71.445  1.00  0.00    -0.117 A  
HETATM   22  C   UNL     1     -12.174  10.443  70.965  1.00  0.00    -0.393 A  
HETATM   23  C   UNL     1     -13.396  10.827  71.722  1.00  0.00    -0.429 C  
HETATM   24  S   UNL     1     -12.140  10.608  69.269  1.00  0.00    -0.009 SA 
ENDBRANCH   5   8
TORSDOF 1
ENDMDL
MODEL      114
REMARK 921   NORMALIZED FREE ENERGY PREDICTED BY IDOCK:   -3.59 KCAL/MOL
REMARK 922        TOTAL FREE ENERGY PREDICTED BY IDOCK:   -4.20 KCAL/MOL
REMARK 923 INTER-LIGAND FREE ENERGY PREDICTED BY IDOCK:   -3.82 KCAL/MOL
REMARK 924 INTRA-LIGAND FREE ENERGY PREDICTED BY IDOCK:   -0.38 KCAL/MOL
REMARK 927      BINDING AFFINITY PREDICTED BY RF-SCORE:    0.00 PKD
ROOT
HETATM    1  C   UNL     1     -13.094  10.003  70.707  1.00  0.00    -0.249 C  
HETATM    2  N   UNL     1     -12.496   9.329  71.858  1.00  0.00    -0.366 NA 
HETATM    3  C   UNL     1     -12.943   7.926  71.966  1.00  0.00    -0.246 C  
HETATM    4  C   UNL     1     -12.390   6.966  70.888  1.00  0.00    -0.313 C  
HETATM    5  N   UNL     1     -10.926   7.058  70.766  1.00  0.00    -0.246 NA 
HETATM    6  C   UNL     1     -11.018   9.337  71.794  1.00  0.00    -0.313 C  
HETATM    7  C   UNL     1     -10.408   8.438  70.697  1.00  0.00    -0.197 C  
ENDROOT
BRANCH   5   8
HETATM    8  C   UNL     1     -10.047   5.993  70.935  1.00  0.00    -0.196 C  
HETATM    9  N   UNL     1      -9.494   5.750  72.088  1.00  0.00    -0.149 NA 
HETATM   10  C   UNL     1      -8.549   4.738  72.339  1.00  0.00    -0.119 A  
HETATM   11  H   UNL     1      -9.768   6.341  72.873  1.00  0.00     0.000 HD 
HETATM   12  C   UNL     1      -7.526   5.072  73.238  1.00  0.00    -0.088 A  
HETATM   13  C   UNL     1      -6.530   4.157  73.583  1.00  0.00    -0.046 A  
HETATM   14  C   UNL     1      -6.555   2.875  73.049  1.00  0.00    -0.025 A  
HETATM   15  C   UNL     1      -7.584   2.507  72.182  1.00  0.00    -0.048 A  
HETATM   16  C   UNL     1      -8.587   3.426  71.816  1.00  0.00    -0.084 A  
HETATM   17  N   UNL     1      -9.525   3.030  70.821  1.00  0.00    -0.154 NA 
HETATM   18  C   UNL     1      -9.628   3.841  69.737  1.00  0.00    -0.183 A  
HETATM   19  H   UNL     1     -10.088   2.185  70.916  1.00  0.00     0.000 HD 
HETATM   20  C   UNL     1      -9.774   5.215  69.725  1.00  0.00    -0.263 A  
HETATM   21  C   UNL     1      -9.582   5.724  68.391  1.00  0.00    -0.147 A  
HETATM   22  C   UNL     1      -9.427   4.730  67.449  1.00  0.00    -0.146 A  
HETATM   23  C   UNL     1      -9.199   4.859  65.985  1.00  0.00    -0.151 C  
HETATM   24  S   UNL     1      -9.516   3.183  68.161  1.00  0.00    -0.094 SA 
ENDBRANCH   5   8
TORSDOF 1
ENDMDL
MODEL      115
REMARK 921   NORMALIZED FREE ENERGY PREDICTED BY IDOCK:   -3.58 KCAL/MOL
REMARK 922        TOTAL FREE ENERGY PREDICTED BY IDOCK:   -4.20 KCAL/MOL
REMARK 923 INTER-LIGAND FREE ENERGY PREDICTED BY IDOCK:   -4.16 KCAL/MOL
REMARK 924 INTRA-LIGAND FREE ENERGY PREDICTED BY IDOCK:   -0.04 KCAL/MOL
REMARK 927      BINDING AFFINITY PREDICTED BY RF-SCORE:    0.00 PKD
ROOT
HETATM    1  C   UNL     1     -12.317  14.912  64.216  1.00  0.00    -0.277 C  
HETATM    2  N   UNL     1     -12.510  14.098  65.414  1.00  0.00    -0.471 NA 
HETATM    3  C   UNL     1     -12.487  12.654  65.106  1.00  0.00    -0.463 C  
HETATM    4  C   UNL     1     -11.107  12.078  64.717  1.00  0.00    -0.317 C  
HETATM    5  N   UNL     1     -10.064  12.438  65.691  1.00  0.00    -0.256 NA 
HETATM    6  C   UNL     1     -11.473  14.366  66.436  1.00  0.00    -0.360 C  
HETATM    7  C   UNL     1     -10.059  13.862  66.077  1.00  0.00    -0.313 C  
ENDROOT
BRANCH   5   8
HETATM    8  C   UNL     1      -9.286  11.524  66.395  1.00  0.00    -0.208 C  
HETATM    9  N   UNL     1      -8.844  11.792  67.590  1.00  0.00    -0.157 NA 
HETATM   10  C   UNL     1      -8.003  10.959  68.351  1.00  0.00    -0.127 A  
HETATM   11  H   UNL     1      -9.131  12.677  68.008  1.00  0.00     0.000 HD 
HETATM   12  C   UNL     1      -7.029  11.617  69.117  1.00  0.00    -0.105 A  
HETATM   13  C   UNL     1      -6.137  10.911  69.925  1.00  0.00    -0.105 A  
HETATM   14  C   UNL     1      -6.221   9.526  70.001  1.00  0.00    -0.051 A  
HETATM   15  C   UNL     1      -7.206   8.853  69.278  1.00  0.00    -0.066 A  
HETATM   16  C   UNL     1      -8.103   9.553  68.448  1.00  0.00    -0.101 A  
HETATM   17  N   UNL     1      -8.989   8.795  67.632  1.00  0.00    -0.135 NA 
HETATM   18  C   UNL     1      -8.945   9.051  66.299  1.00  0.00    -0.162 A  
HETATM   19  H   UNL     1      -9.622   8.099  68.025  1.00  0.00     0.000 HD 
HETATM   20  C   UNL     1      -8.982  10.284  65.677  1.00  0.00    -0.198 A  
HETATM   21  C   UNL     1      -8.648  10.149  64.282  1.00  0.00    -0.200 A  
HETATM   22  C   UNL     1      -8.499   8.837  63.887  1.00  0.00    -0.098 A  
HETATM   23  C   UNL     1      -8.149   8.301  62.544  1.00  0.00    -0.168 C  
HETATM   24  S   UNL     1      -8.762   7.764  65.186  1.00  0.00     0.181 SA 
ENDBRANCH   5   8
TORSDOF 1
ENDMDL
MODEL      116
REMARK 921   NORMALIZED FREE ENERGY PREDICTED BY IDOCK:   -3.56 KCAL/MOL
REMARK 922        TOTAL FREE ENERGY PREDICTED BY IDOCK:   -4.17 KCAL/MOL
REMARK 923 INTER-LIGAND FREE ENERGY PREDICTED BY IDOCK:   -4.62 KCAL/MOL
REMARK 924 INTRA-LIGAND FREE ENERGY PREDICTED BY IDOCK:    0.45 KCAL/MOL
REMARK 927      BINDING AFFINITY PREDICTED BY RF-SCORE:    0.00 PKD
ROOT
HETATM    1  C   UNL     1     -10.305   8.804  66.622  1.00  0.00    -0.228 C  
HETATM    2  N   UNL     1      -9.279   9.742  66.170  1.00  0.00    -0.166 NA 
HETATM    3  C   UNL     1      -9.836  10.776  65.276  1.00  0.00    -0.272 C  
HETATM    4  C   UNL     1     -10.749  11.822  65.954  1.00  0.00    -0.282 C  
HETATM    5  N   UNL     1     -10.117  12.419  67.141  1.00  0.00    -0.212 NA 
HETATM    6  C   UNL     1      -8.617  10.424  67.305  1.00  0.00    -0.126 C  
HETATM    7  C   UNL     1      -9.500  11.441  68.058  1.00  0.00    -0.181 C  
ENDROOT
BRANCH   5   8
HETATM    8  C   UNL     1      -9.882  13.780  67.315  1.00  0.00    -0.241 C  
HETATM    9  N   UNL     1     -10.649  14.674  66.762  1.00  0.00    -0.284 NA 
HETATM   10  C   UNL     1     -10.455  16.066  66.831  1.00  0.00    -0.306 A  
HETATM   11  H   UNL     1     -11.457  14.339  66.237  1.00  0.00     0.000 HD 
HETATM   12  C   UNL     1     -10.764  16.781  65.664  1.00  0.00    -0.199 A  
HETATM   13  C   UNL     1     -10.626  18.168  65.599  1.00  0.00    -0.104 A  
HETATM   14  C   UNL     1     -10.197  18.872  66.718  1.00  0.00    -0.451 A  
HETATM   15  C   UNL     1      -9.920  18.188  67.901  1.00  0.00    -0.340 A  
HETATM   16  C   UNL     1     -10.042  16.786  67.974  1.00  0.00    -0.284 A  
HETATM   17  N   UNL     1      -9.609  16.139  69.166  1.00  0.00    -0.241 NA 
HETATM   18  C   UNL     1      -8.680  15.161  69.014  1.00  0.00    -0.215 A  
HETATM   19  H   UNL     1      -9.977  16.394  70.082  1.00  0.00     0.000 HD 
HETATM   20  C   UNL     1      -8.704  14.108  68.120  1.00  0.00    -0.181 A  
HETATM   21  C   UNL     1      -7.422  13.450  68.091  1.00  0.00    -0.133 A  
HETATM   22  C   UNL     1      -6.542  13.940  69.032  1.00  0.00    -0.107 A  
HETATM   23  C   UNL     1      -5.138  13.527  69.298  1.00  0.00    -0.077 C  
HETATM   24  S   UNL     1      -7.250  15.186  69.955  1.00  0.00     0.009 SA 
ENDBRANCH   5   8
TORSDOF 1
ENDMDL
MODEL      117
REMARK 921   NORMALIZED FREE ENERGY PREDICTED BY IDOCK:   -3.52 KCAL/MOL
REMARK 922        TOTAL FREE ENERGY PREDICTED BY IDOCK:   -4.13 KCAL/MOL
REMARK 923 INTER-LIGAND FREE ENERGY PREDICTED BY IDOCK:   -3.72 KCAL/MOL
REMARK 924 INTRA-LIGAND FREE ENERGY PREDICTED BY IDOCK:   -0.41 KCAL/MOL
REMARK 927      BINDING AFFINITY PREDICTED BY RF-SCORE:    0.00 PKD
ROOT
HETATM    1  C   UNL     1     -12.121   8.072  71.494  1.00  0.00    -0.298 C  
HETATM    2  N   UNL     1     -10.823   8.736  71.380  1.00  0.00    -0.264 NA 
HETATM    3  C   UNL     1      -9.794   7.836  70.822  1.00  0.00    -0.180 C  
HETATM    4  C   UNL     1      -9.953   7.491  69.324  1.00  0.00    -0.179 C  
HETATM    5  N   UNL     1     -10.122   8.695  68.495  1.00  0.00    -0.185 NA 
HETATM    6  C   UNL     1     -10.894   9.940  70.523  1.00  0.00    -0.326 C  
HETATM    7  C   UNL     1     -11.108   9.659  69.020  1.00  0.00    -0.070 C  
ENDROOT
BRANCH   5   8
HETATM    8  C   UNL     1      -9.291   9.055  67.439  1.00  0.00    -0.139 C  
HETATM    9  N   UNL     1      -9.356   8.447  66.290  1.00  0.00    -0.210 NA 
HETATM   10  C   UNL     1      -8.518   8.699  65.188  1.00  0.00    -0.179 A  
HETATM   11  H   UNL     1     -10.072   7.728  66.180  1.00  0.00     0.000 HD 
HETATM   12  C   UNL     1      -8.144   7.573  64.439  1.00  0.00    -0.074 A  
HETATM   13  C   UNL     1      -7.324   7.685  63.315  1.00  0.00    -0.090 A  
HETATM   14  C   UNL     1      -6.881   8.935  62.904  1.00  0.00    -0.089 A  
HETATM   15  C   UNL     1      -7.270  10.073  63.611  1.00  0.00    -0.128 A  
HETATM   16  C   UNL     1      -8.087   9.973  64.755  1.00  0.00    -0.155 A  
HETATM   17  N   UNL     1      -8.330  11.156  65.508  1.00  0.00    -0.366 NA 
HETATM   18  C   UNL     1      -8.004  11.106  66.826  1.00  0.00    -0.156 A  
HETATM   19  H   UNL     1      -8.727  11.993  65.083  1.00  0.00     0.000 HD 
HETATM   20  C   UNL     1      -8.335  10.123  67.738  1.00  0.00    -0.114 A  
HETATM   21  C   UNL     1      -7.586  10.302  68.956  1.00  0.00    -0.102 A  
HETATM   22  C   UNL     1      -6.831  11.454  68.962  1.00  0.00    -0.102 A  
HETATM   23  C   UNL     1      -5.927  11.972  70.024  1.00  0.00    -0.159 C  
HETATM   24  S   UNL     1      -7.021  12.329  67.511  1.00  0.00    -0.154 SA 
ENDBRANCH   5   8
TORSDOF 1
ENDMDL
MODEL      118
REMARK 921   NORMALIZED FREE ENERGY PREDICTED BY IDOCK:   -3.51 KCAL/MOL
REMARK 922        TOTAL FREE ENERGY PREDICTED BY IDOCK:   -4.12 KCAL/MOL
REMARK 923 INTER-LIGAND FREE ENERGY PREDICTED BY IDOCK:   -3.92 KCAL/MOL
REMARK 924 INTRA-LIGAND FREE ENERGY PREDICTED BY IDOCK:   -0.20 KCAL/MOL
REMARK 927      BINDING AFFINITY PREDICTED BY RF-SCORE:    0.00 PKD
ROOT
HETATM    1  C   UNL     1      -5.264  16.588  68.367  1.00  0.00    -0.106 C  
HETATM    2  N   UNL     1      -5.818  15.891  69.526  1.00  0.00    -0.128 NA 
HETATM    3  C   UNL     1      -7.293  15.843  69.485  1.00  0.00    -0.170 C  
HETATM    4  C   UNL     1      -7.899  14.914  68.410  1.00  0.00    -0.121 C  
HETATM    5  N   UNL     1      -7.317  13.563  68.457  1.00  0.00    -0.109 NA 
HETATM    6  C   UNL     1      -5.315  14.503  69.626  1.00  0.00    -0.092 C  
HETATM    7  C   UNL     1      -5.844  13.539  68.543  1.00  0.00    -0.090 C  
ENDROOT
BRANCH   5   8
HETATM    8  C   UNL     1      -8.044  12.391  68.646  1.00  0.00    -0.020 C  
HETATM    9  N   UNL     1      -7.620  11.456  69.445  1.00  0.00    -0.348 NA 
HETATM   10  C   UNL     1      -8.252  10.216  69.653  1.00  0.00    -0.165 A  
HETATM   11  H   UNL     1      -6.760  11.636  69.964  1.00  0.00     0.000 HD 
HETATM   12  C   UNL     1      -7.396   9.117  69.816  1.00  0.00    -0.064 A  
HETATM   13  C   UNL     1      -7.892   7.832  70.038  1.00  0.00    -0.103 A  
HETATM   14  C   UNL     1      -9.263   7.626  70.127  1.00  0.00    -0.154 A  
HETATM   15  C   UNL     1     -10.134   8.710  70.006  1.00  0.00    -0.195 A  
HETATM   16  C   UNL     1      -9.645  10.009  69.768  1.00  0.00    -0.216 A  
HETATM   17  N   UNL     1     -10.591  11.043  69.515  1.00  0.00    -0.409 NA 
HETATM   18  C   UNL     1     -10.434  11.729  68.354  1.00  0.00    -0.215 A  
HETATM   19  H   UNL     1     -11.344  11.256  70.169  1.00  0.00     0.000 HD 
HETATM   20  C   UNL     1      -9.273  12.289  67.857  1.00  0.00    -0.190 A  
HETATM   21  C   UNL     1      -9.462  12.696  66.488  1.00  0.00    -0.247 A  
HETATM   22  C   UNL     1     -10.762  12.547  66.054  1.00  0.00    -0.262 A  
HETATM   23  C   UNL     1     -11.338  12.845  64.716  1.00  0.00    -0.349 C  
HETATM   24  S   UNL     1     -11.760  11.923  67.288  1.00  0.00    -0.166 SA 
ENDBRANCH   5   8
TORSDOF 1
ENDMDL
MODEL      119
REMARK 921   NORMALIZED FREE ENERGY PREDICTED BY IDOCK:   -3.50 KCAL/MOL
REMARK 922        TOTAL FREE ENERGY PREDICTED BY IDOCK:   -4.11 KCAL/MOL
REMARK 923 INTER-LIGAND FREE ENERGY PREDICTED BY IDOCK:   -3.70 KCAL/MOL
REMARK 924 INTRA-LIGAND FREE ENERGY PREDICTED BY IDOCK:   -0.41 KCAL/MOL
REMARK 927      BINDING AFFINITY PREDICTED BY RF-SCORE:    0.00 PKD
ROOT
HETATM    1  C   UNL     1     -10.793   6.236  72.735  1.00  0.00    -0.252 C  
HETATM    2  N   UNL     1     -11.222   6.013  71.355  1.00  0.00    -0.282 NA 
HETATM    3  C   UNL     1     -11.731   7.249  70.731  1.00  0.00    -0.299 C  
HETATM    4  C   UNL     1     -10.666   8.324  70.417  1.00  0.00    -0.232 C  
HETATM    5  N   UNL     1      -9.528   7.770  69.665  1.00  0.00    -0.157 NA 
HETATM    6  C   UNL     1     -10.121   5.492  70.514  1.00  0.00    -0.226 C  
HETATM    7  C   UNL     1      -8.997   6.506  70.212  1.00  0.00    -0.155 C  
ENDROOT
BRANCH   5   8
HETATM    8  C   UNL     1      -9.105   8.220  68.418  1.00  0.00    -0.136 C  
HETATM    9  N   UNL     1      -9.296   7.511  67.344  1.00  0.00    -0.137 NA 
HETATM   10  C   UNL     1      -8.851   7.853  66.054  1.00  0.00    -0.158 A  
HETATM   11  H   UNL     1      -9.810   6.635  67.445  1.00  0.00     0.000 HD 
HETATM   12  C   UNL     1      -8.401   6.785  65.263  1.00  0.00    -0.108 A  
HETATM   13  C   UNL     1      -7.942   6.986  63.960  1.00  0.00    -0.075 A  
HETATM   14  C   UNL     1      -7.949   8.263  63.414  1.00  0.00    -0.155 A  
HETATM   15  C   UNL     1      -8.427   9.335  64.167  1.00  0.00    -0.203 A  
HETATM   16  C   UNL     1      -8.880   9.147  65.488  1.00  0.00    -0.191 A  
HETATM   17  N   UNL     1      -9.222  10.303  66.247  1.00  0.00    -0.156 NA 
HETATM   18  C   UNL     1      -8.577  10.454  67.433  1.00  0.00    -0.125 A  
HETATM   19  H   UNL     1      -9.911  10.978  65.920  1.00  0.00     0.000 HD 
HETATM   20  C   UNL     1      -8.410   9.508  68.426  1.00  0.00    -0.118 A  
HETATM   21  C   UNL     1      -7.452   9.972  69.398  1.00  0.00    -0.113 A  
HETATM   22  C   UNL     1      -7.039  11.267  69.175  1.00  0.00    -0.122 A  
HETATM   23  C   UNL     1      -6.062  12.081  69.947  1.00  0.00    -0.150 C  
HETATM   24  S   UNL     1      -7.799  11.933  67.802  1.00  0.00    -0.150 SA 
ENDBRANCH   5   8
TORSDOF 1
ENDMDL
MODEL      120
REMARK 921   NORMALIZED FREE ENERGY PREDICTED BY IDOCK:   -3.49 KCAL/MOL
REMARK 922        TOTAL FREE ENERGY PREDICTED BY IDOCK:   -4.10 KCAL/MOL
REMARK 923 INTER-LIGAND FREE ENERGY PREDICTED BY IDOCK:   -3.74 KCAL/MOL
REMARK 924 INTRA-LIGAND FREE ENERGY PREDICTED BY IDOCK:   -0.36 KCAL/MOL
REMARK 927      BINDING AFFINITY PREDICTED BY RF-SCORE:    0.00 PKD
ROOT
HETATM    1  C   UNL     1      -7.806   5.890  72.846  1.00  0.00    -0.107 C  
HETATM    2  N   UNL     1      -7.859   7.350  72.895  1.00  0.00    -0.093 NA 
HETATM    3  C   UNL     1      -6.919   7.966  71.938  1.00  0.00    -0.070 C  
HETATM    4  C   UNL     1      -7.297   7.822  70.447  1.00  0.00    -0.069 C  
HETATM    5  N   UNL     1      -8.683   8.242  70.186  1.00  0.00    -0.131 NA 
HETATM    6  C   UNL     1      -9.216   7.862  72.600  1.00  0.00    -0.208 C  
HETATM    7  C   UNL     1      -9.672   7.695  71.135  1.00  0.00    -0.162 C  
ENDROOT
BRANCH   5   8
HETATM    8  C   UNL     1      -9.055   9.244  69.295  1.00  0.00    -0.151 C  
HETATM    9  N   UNL     1      -9.708  10.296  69.695  1.00  0.00    -0.352 NA 
HETATM   10  C   UNL     1     -10.179  11.327  68.861  1.00  0.00    -0.180 A  
HETATM   11  H   UNL     1      -9.893  10.380  70.695  1.00  0.00     0.000 HD 
HETATM   12  C   UNL     1     -11.426  11.867  69.208  1.00  0.00    -0.366 A  
HETATM   13  C   UNL     1     -12.004  12.901  68.471  1.00  0.00    -0.272 A  
HETATM   14  C   UNL     1     -11.327  13.434  67.381  1.00  0.00    -0.338 A  
HETATM   15  C   UNL     1     -10.068  12.939  67.039  1.00  0.00    -0.245 A  
HETATM   16  C   UNL     1      -9.481  11.886  67.768  1.00  0.00    -0.184 A  
HETATM   17  N   UNL     1      -8.261  11.336  67.281  1.00  0.00    -0.134 NA 
HETATM   18  C   UNL     1      -8.256   9.998  67.052  1.00  0.00    -0.117 A  
HETATM   19  H   UNL     1      -7.438  11.914  67.115  1.00  0.00     0.000 HD 
HETATM   20  C   UNL     1      -8.693   8.997  67.897  1.00  0.00    -0.129 A  
HETATM   21  C   UNL     1      -8.765   7.744  67.190  1.00  0.00    -0.125 A  
HETATM   22  C   UNL     1      -8.272   7.819  65.906  1.00  0.00    -0.128 A  
HETATM   23  C   UNL     1      -8.188   6.749  64.875  1.00  0.00    -0.082 C  
HETATM   24  S   UNL     1      -7.718   9.390  65.544  1.00  0.00    -0.101 SA 
ENDBRANCH   5   8
TORSDOF 1
ENDMDL
MODEL      121
REMARK 921   NORMALIZED FREE ENERGY PREDICTED BY IDOCK:   -3.47 KCAL/MOL
REMARK 922        TOTAL FREE ENERGY PREDICTED BY IDOCK:   -4.08 KCAL/MOL
REMARK 923 INTER-LIGAND FREE ENERGY PREDICTED BY IDOCK:   -3.72 KCAL/MOL
REMARK 924 INTRA-LIGAND FREE ENERGY PREDICTED BY IDOCK:   -0.36 KCAL/MOL
REMARK 927      BINDING AFFINITY PREDICTED BY RF-SCORE:    0.00 PKD
ROOT
HETATM    1  C   UNL     1      -9.930  12.907  66.500  1.00  0.00    -0.259 C  
HETATM    2  N   UNL     1      -9.372  11.565  66.344  1.00  0.00    -0.203 NA 
HETATM    3  C   UNL     1      -8.180  11.365  67.191  1.00  0.00    -0.157 C  
HETATM    4  C   UNL     1      -8.450  11.271  68.709  1.00  0.00    -0.112 C  
HETATM    5  N   UNL     1      -9.505  10.295  69.024  1.00  0.00    -0.189 NA 
HETATM    6  C   UNL     1     -10.359  10.516  66.683  1.00  0.00    -0.237 C  
HETATM    7  C   UNL     1     -10.711  10.412  68.182  1.00  0.00    -0.236 C  
ENDROOT
BRANCH   5   8
HETATM    8  C   UNL     1      -9.343   9.193  69.858  1.00  0.00    -0.186 C  
HETATM    9  N   UNL     1      -9.195   9.334  71.143  1.00  0.00    -0.252 NA 
HETATM   10  C   UNL     1      -8.965   8.288  72.055  1.00  0.00    -0.196 A  
HETATM   11  H   UNL     1      -9.250  10.281  71.520  1.00  0.00     0.000 HD 
HETATM   12  C   UNL     1      -8.081   8.580  73.105  1.00  0.00    -0.082 A  
HETATM   13  C   UNL     1      -7.774   7.634  74.084  1.00  0.00    -0.191 A  
HETATM   14  C   UNL     1      -8.369   6.379  74.044  1.00  0.00    -0.121 A  
HETATM   15  C   UNL     1      -9.280   6.078  73.031  1.00  0.00    -0.133 A  
HETATM   16  C   UNL     1      -9.588   7.020  72.030  1.00  0.00    -0.138 A  
HETATM   17  N   UNL     1     -10.415   6.600  70.950  1.00  0.00    -0.212 NA 
HETATM   18  C   UNL     1      -9.904   6.763  69.703  1.00  0.00    -0.165 A  
HETATM   19  H   UNL     1     -11.340   6.199  71.104  1.00  0.00     0.000 HD 
HETATM   20  C   UNL     1      -9.315   7.897  69.176  1.00  0.00    -0.154 A  
HETATM   21  C   UNL     1      -8.670   7.588  67.926  1.00  0.00    -0.124 A  
HETATM   22  C   UNL     1      -8.897   6.296  67.505  1.00  0.00    -0.103 A  
HETATM   23  C   UNL     1      -8.396   5.611  66.283  1.00  0.00    -0.114 C  
HETATM   24  S   UNL     1      -9.888   5.450  68.605  1.00  0.00    -0.159 SA 
ENDBRANCH   5   8
TORSDOF 1
ENDMDL
MODEL      122
REMARK 921   NORMALIZED FREE ENERGY PREDICTED BY IDOCK:   -3.47 KCAL/MOL
REMARK 922        TOTAL FREE ENERGY PREDICTED BY IDOCK:   -4.08 KCAL/MOL
REMARK 923 INTER-LIGAND FREE ENERGY PREDICTED BY IDOCK:   -3.68 KCAL/MOL
REMARK 924 INTRA-LIGAND FREE ENERGY PREDICTED BY IDOCK:   -0.40 KCAL/MOL
REMARK 927      BINDING AFFINITY PREDICTED BY RF-SCORE:    0.00 PKD
ROOT
HETATM    1  C   UNL     1     -10.422   5.555  66.929  1.00  0.00    -0.287 C  
HETATM    2  N   UNL     1      -9.097   5.956  67.400  1.00  0.00    -0.111 NA 
HETATM    3  C   UNL     1      -8.388   6.784  66.405  1.00  0.00    -0.121 C  
HETATM    4  C   UNL     1      -8.948   8.211  66.206  1.00  0.00    -0.177 C  
HETATM    5  N   UNL     1      -9.110   8.924  67.483  1.00  0.00    -0.133 NA 
HETATM    6  C   UNL     1      -9.171   6.720  68.666  1.00  0.00    -0.132 C  
HETATM    7  C   UNL     1      -9.775   8.135  68.538  1.00  0.00    -0.162 C  
ENDROOT
BRANCH   5   8
HETATM    8  C   UNL     1      -8.503  10.136  67.799  1.00  0.00    -0.114 C  
HETATM    9  N   UNL     1      -7.406  10.180  68.498  1.00  0.00    -0.080 NA 
HETATM   10  C   UNL     1      -6.756  11.355  68.917  1.00  0.00    -0.080 A  
HETATM   11  H   UNL     1      -6.984   9.290  68.763  1.00  0.00     0.000 HD 
HETATM   12  C   UNL     1      -6.183  11.309  70.196  1.00  0.00    -0.147 A  
HETATM   13  C   UNL     1      -5.500  12.403  70.730  1.00  0.00    -0.168 A  
HETATM   14  C   UNL     1      -5.356  13.562  69.977  1.00  0.00    -0.098 A  
HETATM   15  C   UNL     1      -5.886  13.619  68.687  1.00  0.00    -0.086 A  
HETATM   16  C   UNL     1      -6.588  12.525  68.143  1.00  0.00    -0.077 A  
HETATM   17  N   UNL     1      -7.222  12.700  66.880  1.00  0.00    -0.366 NA 
HETATM   18  C   UNL     1      -8.554  12.440  66.835  1.00  0.00    -0.171 A  
HETATM   19  H   UNL     1      -6.704  13.004  66.055  1.00  0.00     0.000 HD 
HETATM   20  C   UNL     1      -9.210  11.326  67.323  1.00  0.00    -0.170 A  
HETATM   21  C   UNL     1     -10.634  11.546  67.318  1.00  0.00    -0.266 A  
HETATM   22  C   UNL     1     -10.995  12.737  66.726  1.00  0.00    -0.270 A  
HETATM   23  C   UNL     1     -12.354  13.313  66.543  1.00  0.00    -0.311 C  
HETATM   24  S   UNL     1      -9.629  13.593  66.169  1.00  0.00    -0.152 SA 
ENDBRANCH   5   8
TORSDOF 1
ENDMDL
MODEL      123
REMARK 921   NORMALIZED FREE ENERGY PREDICTED BY IDOCK:   -3.46 KCAL/MOL
REMARK 922        TOTAL FREE ENERGY PREDICTED BY IDOCK:   -4.07 KCAL/MOL
REMARK 923 INTER-LIGAND FREE ENERGY PREDICTED BY IDOCK:   -3.73 KCAL/MOL
REMARK 924 INTRA-LIGAND FREE ENERGY PREDICTED BY IDOCK:   -0.34 KCAL/MOL
REMARK 927      BINDING AFFINITY PREDICTED BY RF-SCORE:    0.00 PKD
ROOT
HETATM    1  C   UNL     1      -9.712  10.795  68.143  1.00  0.00    -0.159 C  
HETATM    2  N   UNL     1      -9.098  10.121  67.001  1.00  0.00    -0.138 NA 
HETATM    3  C   UNL     1      -8.038   9.184  67.422  1.00  0.00    -0.107 C  
HETATM    4  C   UNL     1      -8.526   7.908  68.145  1.00  0.00    -0.124 C  
HETATM    5  N   UNL     1      -9.586   7.219  67.392  1.00  0.00    -0.137 NA 
HETATM    6  C   UNL     1     -10.093   9.363  66.209  1.00  0.00    -0.258 C  
HETATM    7  C   UNL     1     -10.658   8.107  66.903  1.00  0.00    -0.241 C  
ENDROOT
BRANCH   5   8
HETATM    8  C   UNL     1      -9.517   5.901  66.948  1.00  0.00    -0.135 C  
HETATM    9  N   UNL     1      -9.648   5.606  65.687  1.00  0.00    -0.366 NA 
HETATM   10  C   UNL     1      -9.654   4.304  65.154  1.00  0.00    -0.183 A  
HETATM   11  H   UNL     1      -9.755   6.382  65.033  1.00  0.00     0.000 HD 
HETATM   12  C   UNL     1     -10.543   4.088  64.090  1.00  0.00    -0.197 A  
HETATM   13  C   UNL     1     -10.642   2.845  63.463  1.00  0.00    -0.224 A  
HETATM   14  C   UNL     1      -9.829   1.796  63.876  1.00  0.00    -0.129 A  
HETATM   15  C   UNL     1      -8.911   1.998  64.907  1.00  0.00    -0.122 A  
HETATM   16  C   UNL     1      -8.812   3.244  65.556  1.00  0.00    -0.136 A  
HETATM   17  N   UNL     1      -7.956   3.340  66.690  1.00  0.00    -0.080 NA 
HETATM   18  C   UNL     1      -8.528   3.787  67.838  1.00  0.00    -0.094 A  
HETATM   19  H   UNL     1      -6.969   3.088  66.643  1.00  0.00     0.000 HD 
HETATM   20  C   UNL     1      -9.330   4.901  68.000  1.00  0.00    -0.160 A  
HETATM   21  C   UNL     1      -9.947   4.884  69.302  1.00  0.00    -0.270 A  
HETATM   22  C   UNL     1      -9.501   3.851  70.098  1.00  0.00    -0.191 A  
HETATM   23  C   UNL     1      -9.907   3.502  71.486  1.00  0.00    -0.219 C  
HETATM   24  S   UNL     1      -8.339   2.902  69.290  1.00  0.00    -0.062 SA 
ENDBRANCH   5   8
TORSDOF 1
ENDMDL
MODEL      124
REMARK 921   NORMALIZED FREE ENERGY PREDICTED BY IDOCK:   -3.45 KCAL/MOL
REMARK 922        TOTAL FREE ENERGY PREDICTED BY IDOCK:   -4.06 KCAL/MOL
REMARK 923 INTER-LIGAND FREE ENERGY PREDICTED BY IDOCK:   -3.63 KCAL/MOL
REMARK 924 INTRA-LIGAND FREE ENERGY PREDICTED BY IDOCK:   -0.43 KCAL/MOL
REMARK 927      BINDING AFFINITY PREDICTED BY RF-SCORE:    0.00 PKD
ROOT
HETATM    1  C   UNL     1     -12.143   8.952  72.118  1.00  0.00    -0.359 C  
HETATM    2  N   UNL     1     -10.780   8.441  71.987  1.00  0.00    -0.291 NA 
HETATM    3  C   UNL     1     -10.762   6.995  71.688  1.00  0.00    -0.220 C  
HETATM    4  C   UNL     1     -11.238   6.603  70.272  1.00  0.00    -0.353 C  
HETATM    5  N   UNL     1     -10.554   7.378  69.225  1.00  0.00    -0.220 NA 
HETATM    6  C   UNL     1     -10.029   9.140  70.921  1.00  0.00    -0.288 C  
HETATM    7  C   UNL     1     -10.498   8.830  69.483  1.00  0.00    -0.220 C  
ENDROOT
BRANCH   5   8
HETATM    8  C   UNL     1      -9.804   6.826  68.190  1.00  0.00    -0.137 C  
HETATM    9  N   UNL     1     -10.376   6.339  67.127  1.00  0.00    -0.196 NA 
HETATM   10  C   UNL     1      -9.708   5.708  66.061  1.00  0.00    -0.051 A  
HETATM   11  H   UNL     1     -11.391   6.421  67.062  1.00  0.00     0.000 HD 
HETATM   12  C   UNL     1     -10.374   4.613  65.490  1.00  0.00    -0.225 A  
HETATM   13  C   UNL     1      -9.826   3.904  64.420  1.00  0.00    -0.188 A  
HETATM   14  C   UNL     1      -8.607   4.297  63.882  1.00  0.00    -0.117 A  
HETATM   15  C   UNL     1      -7.944   5.406  64.409  1.00  0.00    -0.117 A  
HETATM   16  C   UNL     1      -8.480   6.121  65.498  1.00  0.00    -0.149 A  
HETATM   17  N   UNL     1      -7.687   7.153  66.075  1.00  0.00    -0.095 NA 
HETATM   18  C   UNL     1      -7.443   7.049  67.407  1.00  0.00    -0.097 A  
HETATM   19  H   UNL     1      -7.322   7.926  65.520  1.00  0.00     0.000 HD 
HETATM   20  C   UNL     1      -8.357   6.807  68.413  1.00  0.00    -0.123 A  
HETATM   21  C   UNL     1      -7.674   6.509  69.646  1.00  0.00    -0.103 A  
HETATM   22  C   UNL     1      -6.307   6.656  69.556  1.00  0.00    -0.042 A  
HETATM   23  C   UNL     1      -5.273   6.432  70.602  1.00  0.00    -0.014 C  
HETATM   24  S   UNL     1      -5.839   7.157  67.994  1.00  0.00    -0.027 SA 
ENDBRANCH   5   8
TORSDOF 1
ENDMDL
MODEL      125
REMARK 921   NORMALIZED FREE ENERGY PREDICTED BY IDOCK:   -3.44 KCAL/MOL
REMARK 922        TOTAL FREE ENERGY PREDICTED BY IDOCK:   -4.04 KCAL/MOL
REMARK 923 INTER-LIGAND FREE ENERGY PREDICTED BY IDOCK:   -3.66 KCAL/MOL
REMARK 924 INTRA-LIGAND FREE ENERGY PREDICTED BY IDOCK:   -0.39 KCAL/MOL
REMARK 927      BINDING AFFINITY PREDICTED BY RF-SCORE:    0.00 PKD
ROOT
HETATM    1  C   UNL     1     -10.506  14.478  67.678  1.00  0.00    -0.246 C  
HETATM    2  N   UNL     1      -9.592  13.877  66.708  1.00  0.00    -0.273 NA 
HETATM    3  C   UNL     1      -8.401  13.300  67.361  1.00  0.00    -0.192 C  
HETATM    4  C   UNL     1      -8.650  12.020  68.190  1.00  0.00    -0.173 C  
HETATM    5  N   UNL     1      -9.392  11.004  67.427  1.00  0.00    -0.155 NA 
HETATM    6  C   UNL     1     -10.248  12.809  65.921  1.00  0.00    -0.287 C  
HETATM    7  C   UNL     1     -10.574  11.524  66.712  1.00  0.00    -0.250 C  
ENDROOT
BRANCH   5   8
HETATM    8  C   UNL     1      -8.938   9.713  67.171  1.00  0.00    -0.134 C  
HETATM    9  N   UNL     1      -8.298   9.427  66.075  1.00  0.00    -0.117 NA 
HETATM   10  C   UNL     1      -7.856   8.145  65.702  1.00  0.00    -0.098 A  
HETATM   11  H   UNL     1      -8.101  10.196  65.433  1.00  0.00     0.000 HD 
HETATM   12  C   UNL     1      -7.954   7.841  64.336  1.00  0.00    -0.126 A  
HETATM   13  C   UNL     1      -7.542   6.606  63.832  1.00  0.00    -0.108 A  
HETATM   14  C   UNL     1      -6.996   5.658  64.688  1.00  0.00    -0.052 A  
HETATM   15  C   UNL     1      -6.853   5.951  66.044  1.00  0.00    -0.061 A  
HETATM   16  C   UNL     1      -7.278   7.188  66.567  1.00  0.00    -0.079 A  
HETATM   17  N   UNL     1      -7.232   7.368  67.979  1.00  0.00    -0.088 NA 
HETATM   18  C   UNL     1      -8.399   7.720  68.577  1.00  0.00    -0.129 A  
HETATM   19  H   UNL     1      -6.372   7.239  68.510  1.00  0.00     0.000 HD 
HETATM   20  C   UNL     1      -9.269   8.724  68.198  1.00  0.00    -0.145 A  
HETATM   21  C   UNL     1     -10.509   8.608  68.924  1.00  0.00    -0.211 A  
HETATM   22  C   UNL     1     -10.481   7.623  69.887  1.00  0.00    -0.231 A  
HETATM   23  C   UNL     1     -11.560   7.201  70.821  1.00  0.00    -0.358 C  
HETATM   24  S   UNL     1      -8.968   6.838  69.929  1.00  0.00    -0.144 SA 
ENDBRANCH   5   8
TORSDOF 1
ENDMDL
MODEL      126
REMARK 921   NORMALIZED FREE ENERGY PREDICTED BY IDOCK:   -3.43 KCAL/MOL
REMARK 922        TOTAL FREE ENERGY PREDICTED BY IDOCK:   -4.04 KCAL/MOL
REMARK 923 INTER-LIGAND FREE ENERGY PREDICTED BY IDOCK:   -3.66 KCAL/MOL
REMARK 924 INTRA-LIGAND FREE ENERGY PREDICTED BY IDOCK:   -0.38 KCAL/MOL
REMARK 927      BINDING AFFINITY PREDICTED BY RF-SCORE:    0.00 PKD
ROOT
HETATM    1  C   UNL     1      -5.507   2.437  68.676  1.00  0.00    -0.017 C  
HETATM    2  N   UNL     1      -6.626   2.534  69.611  1.00  0.00    -0.033 NA 
HETATM    3  C   UNL     1      -6.347   3.486  70.704  1.00  0.00    -0.027 C  
HETATM    4  C   UNL     1      -6.322   4.977  70.298  1.00  0.00    -0.026 C  
HETATM    5  N   UNL     1      -7.523   5.362  69.541  1.00  0.00    -0.068 NA 
HETATM    6  C   UNL     1      -7.872   2.960  68.937  1.00  0.00    -0.046 C  
HETATM    7  C   UNL     1      -7.884   4.427  68.458  1.00  0.00    -0.074 C  
ENDROOT
BRANCH   5   8
HETATM    8  C   UNL     1      -8.409   6.369  69.915  1.00  0.00    -0.130 C  
HETATM    9  N   UNL     1      -9.461   6.109  70.635  1.00  0.00    -0.167 NA 
HETATM   10  C   UNL     1     -10.442   7.046  71.009  1.00  0.00    -0.212 A  
HETATM   11  H   UNL     1      -9.585   5.147  70.955  1.00  0.00     0.000 HD 
HETATM   12  C   UNL     1     -11.762   6.571  71.021  1.00  0.00    -0.402 A  
HETATM   13  C   UNL     1     -12.830   7.393  71.383  1.00  0.00    -0.408 A  
HETATM   14  C   UNL     1     -12.591   8.707  71.765  1.00  0.00    -0.396 A  
HETATM   15  C   UNL     1     -11.283   9.191  71.797  1.00  0.00    -0.451 A  
HETATM   16  C   UNL     1     -10.199   8.374  71.422  1.00  0.00    -0.220 A  
HETATM   17  N   UNL     1      -8.909   8.972  71.342  1.00  0.00    -0.311 NA 
HETATM   18  C   UNL     1      -8.263   8.851  70.154  1.00  0.00    -0.125 A  
HETATM   19  H   UNL     1      -8.493   9.462  72.133  1.00  0.00     0.000 HD 
HETATM   20  C   UNL     1      -8.083   7.703  69.407  1.00  0.00    -0.127 A  
HETATM   21  C   UNL     1      -7.584   8.034  68.097  1.00  0.00    -0.109 A  
HETATM   22  C   UNL     1      -7.294   9.374  67.951  1.00  0.00    -0.083 A  
HETATM   23  C   UNL     1      -6.776  10.092  66.756  1.00  0.00    -0.076 C  
HETATM   24  S   UNL     1      -7.616  10.237  69.386  1.00  0.00    -0.151 SA 
ENDBRANCH   5   8
TORSDOF 1
ENDMDL
MODEL      127
REMARK 921   NORMALIZED FREE ENERGY PREDICTED BY IDOCK:   -3.41 KCAL/MOL
REMARK 922        TOTAL FREE ENERGY PREDICTED BY IDOCK:   -4.02 KCAL/MOL
REMARK 923 INTER-LIGAND FREE ENERGY PREDICTED BY IDOCK:   -4.23 KCAL/MOL
REMARK 924 INTRA-LIGAND FREE ENERGY PREDICTED BY IDOCK:    0.21 KCAL/MOL
REMARK 927      BINDING AFFINITY PREDICTED BY RF-SCORE:    0.00 PKD
ROOT
HETATM    1  C   UNL     1      -6.411   8.319  65.724  1.00  0.00    -0.052 C  
HETATM    2  N   UNL     1      -6.163   9.676  65.240  1.00  0.00    -0.075 NA 
HETATM    3  C   UNL     1      -7.272  10.171  64.401  1.00  0.00    -0.115 C  
HETATM    4  C   UNL     1      -8.586  10.484  65.151  1.00  0.00    -0.180 C  
HETATM    5  N   UNL     1      -8.363  11.354  66.317  1.00  0.00    -0.148 NA 
HETATM    6  C   UNL     1      -5.968  10.630  66.355  1.00  0.00    -0.098 C  
HETATM    7  C   UNL     1      -7.237  10.939  67.177  1.00  0.00    -0.104 C  
ENDROOT
BRANCH   5   8
HETATM    8  C   UNL     1      -8.966  12.593  66.510  1.00  0.00    -0.112 C  
HETATM    9  N   UNL     1      -8.550  13.410  67.433  1.00  0.00    -0.194 NA 
HETATM   10  C   UNL     1      -9.134  14.652  67.743  1.00  0.00    -0.191 A  
HETATM   11  H   UNL     1      -7.734  13.127  67.977  1.00  0.00     0.000 HD 
HETATM   12  C   UNL     1      -9.160  14.989  69.105  1.00  0.00    -0.183 A  
HETATM   13  C   UNL     1      -9.702  16.196  69.547  1.00  0.00    -0.179 A  
HETATM   14  C   UNL     1     -10.207  17.105  68.627  1.00  0.00    -0.336 A  
HETATM   15  C   UNL     1     -10.159  16.809  67.264  1.00  0.00    -0.281 A  
HETATM   16  C   UNL     1      -9.626  15.588  66.806  1.00  0.00    -0.235 A  
HETATM   17  N   UNL     1      -9.735  15.291  65.418  1.00  0.00    -0.327 NA 
HETATM   18  C   UNL     1     -10.350  14.122  65.101  1.00  0.00    -0.405 A  
HETATM   19  H   UNL     1      -9.372  15.919  64.703  1.00  0.00     0.000 HD 
HETATM   20  C   UNL     1     -10.106  12.871  65.634  1.00  0.00    -0.282 A  
HETATM   21  C   UNL     1     -11.137  11.949  65.231  1.00  0.00    -0.354 A  
HETATM   22  C   UNL     1     -12.027  12.493  64.331  1.00  0.00    -0.404 A  
HETATM   23  C   UNL     1     -13.218  11.862  63.700  1.00  0.00     0.029 C  
HETATM   24  S   UNL     1     -11.628  14.109  63.962  1.00  0.00    -0.006 SA 
ENDBRANCH   5   8
TORSDOF 1
ENDMDL
MODEL      128
REMARK 921   NORMALIZED FREE ENERGY PREDICTED BY IDOCK:   -3.39 KCAL/MOL
REMARK 922        TOTAL FREE ENERGY PREDICTED BY IDOCK:   -4.00 KCAL/MOL
REMARK 923 INTER-LIGAND FREE ENERGY PREDICTED BY IDOCK:   -3.57 KCAL/MOL
REMARK 924 INTRA-LIGAND FREE ENERGY PREDICTED BY IDOCK:   -0.43 KCAL/MOL
REMARK 927      BINDING AFFINITY PREDICTED BY RF-SCORE:    0.00 PKD
ROOT
HETATM    1  C   UNL     1      -6.446   2.736  64.839  1.00  0.00    -0.031 C  
HETATM    2  N   UNL     1      -7.048   2.969  66.151  1.00  0.00    -0.057 NA 
HETATM    3  C   UNL     1      -6.314   3.995  66.917  1.00  0.00    -0.040 C  
HETATM    4  C   UNL     1      -6.455   5.443  66.395  1.00  0.00    -0.044 C  
HETATM    5  N   UNL     1      -7.862   5.823  66.195  1.00  0.00    -0.099 NA 
HETATM    6  C   UNL     1      -8.460   3.399  66.041  1.00  0.00    -0.110 C  
HETATM    7  C   UNL     1      -8.666   4.818  65.471  1.00  0.00    -0.135 C  
ENDROOT
BRANCH   5   8
HETATM    8  C   UNL     1      -8.489   6.901  66.813  1.00  0.00    -0.118 C  
HETATM    9  N   UNL     1      -8.334   8.116  66.372  1.00  0.00    -0.111 NA 
HETATM   10  C   UNL     1      -8.876   9.271  66.965  1.00  0.00    -0.123 A  
HETATM   11  H   UNL     1      -7.774   8.241  65.528  1.00  0.00     0.000 HD 
HETATM   12  C   UNL     1      -8.056  10.409  66.938  1.00  0.00    -0.118 A  
HETATM   13  C   UNL     1      -8.475  11.624  67.483  1.00  0.00    -0.150 A  
HETATM   14  C   UNL     1      -9.741  11.728  68.046  1.00  0.00    -0.185 A  
HETATM   15  C   UNL     1     -10.589  10.620  68.050  1.00  0.00    -0.248 A  
HETATM   16  C   UNL     1     -10.172   9.385  67.516  1.00  0.00    -0.231 A  
HETATM   17  N   UNL     1     -11.031   8.262  67.679  1.00  0.00    -0.489 NA 
HETATM   18  C   UNL     1     -10.489   7.174  68.285  1.00  0.00    -0.198 A  
HETATM   19  H   UNL     1     -11.999   8.273  67.359  1.00  0.00     0.000 HD 
HETATM   20  C   UNL     1      -9.284   6.562  67.994  1.00  0.00    -0.111 A  
HETATM   21  C   UNL     1      -8.948   5.612  69.024  1.00  0.00    -0.117 A  
HETATM   22  C   UNL     1      -9.945   5.456  69.962  1.00  0.00    -0.233 A  
HETATM   23  C   UNL     1      -9.963   4.584  71.167  1.00  0.00    -0.257 C  
HETATM   24  S   UNL     1     -11.288   6.445  69.610  1.00  0.00    -0.363 SA 
ENDBRANCH   5   8
TORSDOF 1
ENDMDL
MODEL      129
REMARK 921   NORMALIZED FREE ENERGY PREDICTED BY IDOCK:   -3.39 KCAL/MOL
REMARK 922        TOTAL FREE ENERGY PREDICTED BY IDOCK:   -3.99 KCAL/MOL
REMARK 923 INTER-LIGAND FREE ENERGY PREDICTED BY IDOCK:   -3.95 KCAL/MOL
REMARK 924 INTRA-LIGAND FREE ENERGY PREDICTED BY IDOCK:   -0.03 KCAL/MOL
REMARK 927      BINDING AFFINITY PREDICTED BY RF-SCORE:    0.00 PKD
ROOT
HETATM    1  C   UNL     1      -5.487  12.728  68.271  1.00  0.00    -0.067 C  
HETATM    2  N   UNL     1      -5.476  11.271  68.154  1.00  0.00    -0.042 NA 
HETATM    3  C   UNL     1      -5.308  10.616  69.467  1.00  0.00    -0.038 C  
HETATM    4  C   UNL     1      -6.522  10.711  70.418  1.00  0.00    -0.100 C  
HETATM    5  N   UNL     1      -7.771  10.292  69.763  1.00  0.00    -0.164 NA 
HETATM    6  C   UNL     1      -6.720  10.757  67.540  1.00  0.00    -0.073 C  
HETATM    7  C   UNL     1      -7.980  10.877  68.424  1.00  0.00    -0.127 C  
ENDROOT
BRANCH   5   8
HETATM    8  C   UNL     1      -8.595   9.262  70.208  1.00  0.00    -0.210 C  
HETATM    9  N   UNL     1      -9.035   9.231  71.432  1.00  0.00    -0.307 NA 
HETATM   10  C   UNL     1      -9.819   8.204  71.988  1.00  0.00    -0.232 A  
HETATM   11  H   UNL     1      -8.793  10.016  72.038  1.00  0.00     0.000 HD 
HETATM   12  C   UNL     1      -9.538   7.880  73.324  1.00  0.00    -0.351 A  
HETATM   13  C   UNL     1     -10.248   6.886  73.999  1.00  0.00    -0.384 A  
HETATM   14  C   UNL     1     -11.276   6.212  73.353  1.00  0.00     0.028 A  
HETATM   15  C   UNL     1     -11.599   6.542  72.036  1.00  0.00    -0.354 A  
HETATM   16  C   UNL     1     -10.881   7.534  71.340  1.00  0.00    -0.229 A  
HETATM   17  N   UNL     1     -11.169   7.722  69.959  1.00  0.00    -0.428 NA 
HETATM   18  C   UNL     1     -10.118   7.617  69.106  1.00  0.00    -0.194 A  
HETATM   19  H   UNL     1     -12.112   7.924  69.628  1.00  0.00     0.000 HD 
HETATM   20  C   UNL     1      -8.881   8.224  69.216  1.00  0.00    -0.143 A  
HETATM   21  C   UNL     1      -7.962   7.658  68.262  1.00  0.00    -0.123 A  
HETATM   22  C   UNL     1      -8.558   6.757  67.406  1.00  0.00    -0.120 A  
HETATM   23  C   UNL     1      -7.941   5.967  66.307  1.00  0.00    -0.106 C  
HETATM   24  S   UNL     1     -10.221   6.591  67.740  1.00  0.00    -0.190 SA 
ENDBRANCH   5   8
TORSDOF 1
ENDMDL
MODEL      130
REMARK 921   NORMALIZED FREE ENERGY PREDICTED BY IDOCK:   -3.39 KCAL/MOL
REMARK 922        TOTAL FREE ENERGY PREDICTED BY IDOCK:   -3.99 KCAL/MOL
REMARK 923 INTER-LIGAND FREE ENERGY PREDICTED BY IDOCK:   -3.58 KCAL/MOL
REMARK 924 INTRA-LIGAND FREE ENERGY PREDICTED BY IDOCK:   -0.41 KCAL/MOL
REMARK 927      BINDING AFFINITY PREDICTED BY RF-SCORE:    0.00 PKD
ROOT
HETATM    1  C   UNL     1     -12.528  10.935  70.723  1.00  0.00    -0.394 C  
HETATM    2  N   UNL     1     -11.096  10.824  70.452  1.00  0.00    -0.204 NA 
HETATM    3  C   UNL     1     -10.559   9.511  70.860  1.00  0.00    -0.325 C  
HETATM    4  C   UNL     1     -11.000   8.312  69.990  1.00  0.00    -0.197 C  
HETATM    5  N   UNL     1     -10.783   8.561  68.556  1.00  0.00    -0.099 NA 
HETATM    6  C   UNL     1     -10.790  11.020  69.017  1.00  0.00    -0.229 C  
HETATM    7  C   UNL     1     -11.258   9.878  68.090  1.00  0.00    -0.077 C  
ENDROOT
BRANCH   5   8
HETATM    8  C   UNL     1      -9.997   7.770  67.723  1.00  0.00    -0.174 C  
HETATM    9  N   UNL     1     -10.414   6.612  67.300  1.00  0.00    -0.235 NA 
HETATM   10  C   UNL     1      -9.669   5.719  66.509  1.00  0.00    -0.159 A  
HETATM   11  H   UNL     1     -11.358   6.329  67.564  1.00  0.00     0.000 HD 
HETATM   12  C   UNL     1      -9.839   4.358  66.805  1.00  0.00    -0.241 A  
HETATM   13  C   UNL     1      -9.166   3.366  66.089  1.00  0.00    -0.169 A  
HETATM   14  C   UNL     1      -8.325   3.720  65.042  1.00  0.00    -0.101 A  
HETATM   15  C   UNL     1      -8.169   5.065  64.704  1.00  0.00    -0.128 A  
HETATM   16  C   UNL     1      -8.833   6.076  65.428  1.00  0.00    -0.031 A  
HETATM   17  N   UNL     1      -8.520   7.431  65.122  1.00  0.00    -0.314 NA 
HETATM   18  C   UNL     1      -8.097   8.198  66.159  1.00  0.00    -0.109 A  
HETATM   19  H   UNL     1      -8.609   7.804  64.178  1.00  0.00     0.000 HD 
HETATM   20  C   UNL     1      -8.678   8.322  67.406  1.00  0.00    -0.125 A  
HETATM   21  C   UNL     1      -7.790   9.018  68.303  1.00  0.00    -0.100 A  
HETATM   22  C   UNL     1      -6.655   9.490  67.680  1.00  0.00    -0.063 A  
HETATM   23  C   UNL     1      -5.513  10.240  68.268  1.00  0.00    -0.034 C  
HETATM   24  S   UNL     1      -6.652   9.105  66.019  1.00  0.00    -0.069 SA 
ENDBRANCH   5   8
TORSDOF 1
ENDMDL
MODEL      131
REMARK 921   NORMALIZED FREE ENERGY PREDICTED BY IDOCK:   -3.35 KCAL/MOL
REMARK 922        TOTAL FREE ENERGY PREDICTED BY IDOCK:   -3.95 KCAL/MOL
REMARK 923 INTER-LIGAND FREE ENERGY PREDICTED BY IDOCK:   -3.68 KCAL/MOL
REMARK 924 INTRA-LIGAND FREE ENERGY PREDICTED BY IDOCK:   -0.27 KCAL/MOL
REMARK 927      BINDING AFFINITY PREDICTED BY RF-SCORE:    0.00 PKD
ROOT
HETATM    1  C   UNL     1     -10.189  14.243  65.702  1.00  0.00    -0.347 C  
HETATM    2  N   UNL     1     -10.893  13.551  66.780  1.00  0.00    -0.281 NA 
HETATM    3  C   UNL     1     -11.506  12.291  66.315  1.00  0.00    -0.380 C  
HETATM    4  C   UNL     1     -10.517  11.151  65.985  1.00  0.00    -0.256 C  
HETATM    5  N   UNL     1      -9.563  10.914  67.080  1.00  0.00    -0.164 NA 
HETATM    6  C   UNL     1      -9.993  13.234  67.911  1.00  0.00    -0.233 C  
HETATM    7  C   UNL     1      -8.944  12.139  67.622  1.00  0.00    -0.178 C  
ENDROOT
BRANCH   5   8
HETATM    8  C   UNL     1      -9.400   9.701  67.743  1.00  0.00    -0.127 C  
HETATM    9  N   UNL     1      -9.398   9.636  69.042  1.00  0.00    -0.153 NA 
HETATM   10  C   UNL     1      -9.179   8.469  69.798  1.00  0.00    -0.157 A  
HETATM   11  H   UNL     1      -9.569  10.502  69.555  1.00  0.00     0.000 HD 
HETATM   12  C   UNL     1      -8.436   8.639  70.976  1.00  0.00    -0.199 A  
HETATM   13  C   UNL     1      -8.156   7.565  71.822  1.00  0.00    -0.107 A  
HETATM   14  C   UNL     1      -8.639   6.299  71.515  1.00  0.00    -0.131 A  
HETATM   15  C   UNL     1      -9.412   6.113  70.369  1.00  0.00    -0.179 A  
HETATM   16  C   UNL     1      -9.690   7.186  69.500  1.00  0.00    -0.157 A  
HETATM   17  N   UNL     1     -10.364   6.900  68.279  1.00  0.00    -0.183 NA 
HETATM   18  C   UNL     1      -9.741   7.301  67.141  1.00  0.00    -0.168 A  
HETATM   19  H   UNL     1     -11.264   6.421  68.260  1.00  0.00     0.000 HD 
HETATM   20  C   UNL     1      -9.195   8.541  66.872  1.00  0.00    -0.197 A  
HETATM   21  C   UNL     1      -8.401   8.486  65.672  1.00  0.00    -0.154 A  
HETATM   22  C   UNL     1      -8.477   7.270  65.029  1.00  0.00     0.025 A  
HETATM   23  C   UNL     1      -7.797   6.831  63.780  1.00  0.00    -0.107 C  
HETATM   24  S   UNL     1      -9.504   6.192  65.859  1.00  0.00     0.155 SA 
ENDBRANCH   5   8
TORSDOF 1
ENDMDL
MODEL      132
REMARK 921   NORMALIZED FREE ENERGY PREDICTED BY IDOCK:   -3.32 KCAL/MOL
REMARK 922        TOTAL FREE ENERGY PREDICTED BY IDOCK:   -3.92 KCAL/MOL
REMARK 923 INTER-LIGAND FREE ENERGY PREDICTED BY IDOCK:   -3.49 KCAL/MOL
REMARK 924 INTRA-LIGAND FREE ENERGY PREDICTED BY IDOCK:   -0.43 KCAL/MOL
REMARK 927      BINDING AFFINITY PREDICTED BY RF-SCORE:    0.00 PKD
ROOT
HETATM    1  C   UNL     1      -9.907  12.882  67.363  1.00  0.00    -0.207 C  
HETATM    2  N   UNL     1      -8.993  11.832  66.917  1.00  0.00    -0.189 NA 
HETATM    3  C   UNL     1      -8.127  11.355  68.013  1.00  0.00    -0.134 C  
HETATM    4  C   UNL     1      -8.836  10.524  69.107  1.00  0.00    -0.151 C  
HETATM    5  N   UNL     1      -9.636   9.429  68.537  1.00  0.00    -0.145 NA 
HETATM    6  C   UNL     1      -9.720  10.667  66.365  1.00  0.00    -0.196 C  
HETATM    7  C   UNL     1     -10.494   9.830  67.404  1.00  0.00    -0.259 C  
ENDROOT
BRANCH   5   8
HETATM    8  C   UNL     1      -9.465   8.081  68.836  1.00  0.00    -0.151 C  
HETATM    9  N   UNL     1      -9.935   7.568  69.936  1.00  0.00    -0.187 NA 
HETATM   10  C   UNL     1      -9.759   6.235  70.352  1.00  0.00    -0.165 A  
HETATM   11  H   UNL     1     -10.475   8.182  70.546  1.00  0.00     0.000 HD 
HETATM   12  C   UNL     1      -9.569   6.049  71.730  1.00  0.00    -0.168 A  
HETATM   13  C   UNL     1      -9.392   4.777  72.276  1.00  0.00    -0.158 A  
HETATM   14  C   UNL     1      -9.428   3.660  71.451  1.00  0.00    -0.227 A  
HETATM   15  C   UNL     1      -9.653   3.817  70.084  1.00  0.00    -0.258 A  
HETATM   16  C   UNL     1      -9.820   5.096  69.518  1.00  0.00    -0.208 A  
HETATM   17  N   UNL     1      -9.905   5.195  68.100  1.00  0.00    -0.147 NA 
HETATM   18  C   UNL     1      -9.008   6.020  67.501  1.00  0.00    -0.111 A  
HETATM   19  H   UNL     1     -10.600   4.675  67.565  1.00  0.00     0.000 HD 
HETATM   20  C   UNL     1      -8.695   7.319  67.851  1.00  0.00    -0.123 A  
HETATM   21  C   UNL     1      -7.519   7.756  67.143  1.00  0.00    -0.096 A  
HETATM   22  C   UNL     1      -7.073   6.838  66.217  1.00  0.00    -0.067 A  
HETATM   23  C   UNL     1      -5.897   6.923  65.311  1.00  0.00    -0.035 C  
HETATM   24  S   UNL     1      -8.066   5.452  66.189  1.00  0.00    -0.108 SA 
ENDBRANCH   5   8
TORSDOF 1
ENDMDL
MODEL      133
REMARK 921   NORMALIZED FREE ENERGY PREDICTED BY IDOCK:   -3.30 KCAL/MOL
REMARK 922        TOTAL FREE ENERGY PREDICTED BY IDOCK:   -3.90 KCAL/MOL
REMARK 923 INTER-LIGAND FREE ENERGY PREDICTED BY IDOCK:   -3.49 KCAL/MOL
REMARK 924 INTRA-LIGAND FREE ENERGY PREDICTED BY IDOCK:   -0.41 KCAL/MOL
REMARK 927      BINDING AFFINITY PREDICTED BY RF-SCORE:    0.00 PKD
ROOT
HETATM    1  C   UNL     1     -13.872   9.644  71.552  1.00  0.00    -0.146 C  
HETATM    2  N   UNL     1     -12.558   9.428  72.156  1.00  0.00    -0.365 NA 
HETATM    3  C   UNL     1     -12.348   8.012  72.519  1.00  0.00    -0.194 C  
HETATM    4  C   UNL     1     -12.162   7.042  71.331  1.00  0.00    -0.366 C  
HETATM    5  N   UNL     1     -11.138   7.514  70.386  1.00  0.00    -0.262 NA 
HETATM    6  C   UNL     1     -11.462   9.839  71.252  1.00  0.00    -0.385 C  
HETATM    7  C   UNL     1     -11.264   8.937  70.015  1.00  0.00    -0.110 C  
ENDROOT
BRANCH   5   8
HETATM    8  C   UNL     1      -9.996   6.802  70.031  1.00  0.00    -0.176 C  
HETATM    9  N   UNL     1     -10.028   5.900  69.092  1.00  0.00    -0.154 NA 
HETATM   10  C   UNL     1      -8.944   5.090  68.708  1.00  0.00    -0.102 A  
HETATM   11  H   UNL     1     -10.910   5.771  68.596  1.00  0.00     0.000 HD 
HETATM   12  C   UNL     1      -9.265   3.767  68.367  1.00  0.00    -0.213 A  
HETATM   13  C   UNL     1      -8.286   2.860  67.959  1.00  0.00    -0.094 A  
HETATM   14  C   UNL     1      -6.963   3.271  67.858  1.00  0.00    -0.050 A  
HETATM   15  C   UNL     1      -6.625   4.591  68.155  1.00  0.00    -0.042 A  
HETATM   16  C   UNL     1      -7.602   5.512  68.581  1.00  0.00    -0.080 A  
HETATM   17  N   UNL     1      -7.167   6.801  69.001  1.00  0.00    -0.088 NA 
HETATM   18  C   UNL     1      -7.537   7.182  70.251  1.00  0.00    -0.090 A  
HETATM   19  H   UNL     1      -6.609   7.405  68.398  1.00  0.00     0.000 HD 
HETATM   20  C   UNL     1      -8.799   7.119  70.811  1.00  0.00    -0.148 A  
HETATM   21  C   UNL     1      -8.727   7.366  72.229  1.00  0.00    -0.138 A  
HETATM   22  C   UNL     1      -7.465   7.722  72.652  1.00  0.00    -0.088 A  
HETATM   23  C   UNL     1      -6.998   8.041  74.028  1.00  0.00    -0.159 C  
HETATM   24  S   UNL     1      -6.363   7.764  71.352  1.00  0.00    -0.035 SA 
ENDBRANCH   5   8
TORSDOF 1
ENDMDL
MODEL      134
REMARK 921   NORMALIZED FREE ENERGY PREDICTED BY IDOCK:   -3.28 KCAL/MOL
REMARK 922        TOTAL FREE ENERGY PREDICTED BY IDOCK:   -3.88 KCAL/MOL
REMARK 923 INTER-LIGAND FREE ENERGY PREDICTED BY IDOCK:   -4.54 KCAL/MOL
REMARK 924 INTRA-LIGAND FREE ENERGY PREDICTED BY IDOCK:    0.66 KCAL/MOL
REMARK 927      BINDING AFFINITY PREDICTED BY RF-SCORE:    0.00 PKD
ROOT
HETATM    1  C   UNL     1      -6.411   9.717  67.858  1.00  0.00    -0.060 C  
HETATM    2  N   UNL     1      -7.524  10.362  68.552  1.00  0.00    -0.086 NA 
HETATM    3  C   UNL     1      -7.129  11.658  69.138  1.00  0.00    -0.090 C  
HETATM    4  C   UNL     1      -6.867  12.794  68.124  1.00  0.00    -0.094 C  
HETATM    5  N   UNL     1      -7.975  12.950  67.169  1.00  0.00    -0.142 NA 
HETATM    6  C   UNL     1      -8.674  10.596  67.650  1.00  0.00    -0.121 C  
HETATM    7  C   UNL     1      -8.450  11.684  66.578  1.00  0.00    -0.141 C  
ENDROOT
BRANCH   5   8
HETATM    8  C   UNL     1      -8.705  14.120  66.984  1.00  0.00    -0.204 C  
HETATM    9  N   UNL     1      -8.346  15.237  67.547  1.00  0.00    -0.163 NA 
HETATM   10  C   UNL     1      -9.052  16.452  67.468  1.00  0.00    -0.193 A  
HETATM   11  H   UNL     1      -7.482  15.231  68.090  1.00  0.00     0.000 HD 
HETATM   12  C   UNL     1      -9.060  17.227  68.637  1.00  0.00    -0.260 A  
HETATM   13  C   UNL     1      -9.715  18.458  68.692  1.00  0.00    -0.387 A  
HETATM   14  C   UNL     1     -10.356  18.950  67.562  1.00  0.00    -0.496 A  
HETATM   15  C   UNL     1     -10.330  18.215  66.377  1.00  0.00    -0.404 A  
HETATM   16  C   UNL     1      -9.683  16.965  66.313  1.00  0.00    -0.280 A  
HETATM   17  N   UNL     1      -9.815  16.205  65.116  1.00  0.00    -0.330 NA 
HETATM   18  C   UNL     1     -10.307  14.947  65.254  1.00  0.00    -0.396 A  
HETATM   19  H   UNL     1      -9.553  16.583  64.206  1.00  0.00     0.000 HD 
HETATM   20  C   UNL     1      -9.904  13.979  66.154  1.00  0.00    -0.319 A  
HETATM   21  C   UNL     1     -10.840  12.885  66.161  1.00  0.00    -0.300 A  
HETATM   22  C   UNL     1     -11.822  13.006  65.202  1.00  0.00    -0.369 A  
HETATM   23  C   UNL     1     -12.959  12.093  64.909  1.00  0.00     0.484 C  
HETATM   24  S   UNL     1     -11.621  14.431  64.286  1.00  0.00    -0.193 SA 
ENDBRANCH   5   8
TORSDOF 1
ENDMDL
MODEL      135
REMARK 921   NORMALIZED FREE ENERGY PREDICTED BY IDOCK:   -3.26 KCAL/MOL
REMARK 922        TOTAL FREE ENERGY PREDICTED BY IDOCK:   -3.85 KCAL/MOL
REMARK 923 INTER-LIGAND FREE ENERGY PREDICTED BY IDOCK:   -3.58 KCAL/MOL
REMARK 924 INTRA-LIGAND FREE ENERGY PREDICTED BY IDOCK:   -0.27 KCAL/MOL
REMARK 927      BINDING AFFINITY PREDICTED BY RF-SCORE:    0.00 PKD
ROOT
HETATM    1  C   UNL     1     -11.171  14.812  68.761  1.00  0.00    -0.270 C  
HETATM    2  N   UNL     1     -11.793  13.670  68.093  1.00  0.00    -0.361 NA 
HETATM    3  C   UNL     1     -11.093  13.318  66.842  1.00  0.00    -0.289 C  
HETATM    4  C   UNL     1      -9.694  12.684  67.018  1.00  0.00    -0.225 C  
HETATM    5  N   UNL     1      -9.714  11.555  67.960  1.00  0.00    -0.180 NA 
HETATM    6  C   UNL     1     -11.816  12.471  68.960  1.00  0.00    -0.296 C  
HETATM    7  C   UNL     1     -10.438  11.826  69.218  1.00  0.00     0.060 C  
ENDROOT
BRANCH   5   8
HETATM    8  C   UNL     1      -9.315  10.257  67.654  1.00  0.00    -0.144 C  
HETATM    9  N   UNL     1     -10.105   9.440  67.019  1.00  0.00    -0.222 NA 
HETATM   10  C   UNL     1      -9.814   8.096  66.721  1.00  0.00    -0.259 A  
HETATM   11  H   UNL     1     -11.008   9.803  66.714  1.00  0.00     0.000 HD 
HETATM   12  C   UNL     1     -10.894   7.205  66.814  1.00  0.00    -0.184 A  
HETATM   13  C   UNL     1     -10.745   5.846  66.535  1.00  0.00    -0.251 A  
HETATM   14  C   UNL     1      -9.510   5.355  66.130  1.00  0.00    -0.171 A  
HETATM   15  C   UNL     1      -8.430   6.228  65.994  1.00  0.00    -0.143 A  
HETATM   16  C   UNL     1      -8.565   7.599  66.286  1.00  0.00    -0.144 A  
HETATM   17  N   UNL     1      -7.392   8.406  66.262  1.00  0.00    -0.084 NA 
HETATM   18  C   UNL     1      -7.117   9.100  67.396  1.00  0.00    -0.079 A  
HETATM   19  H   UNL     1      -6.792   8.460  65.439  1.00  0.00     0.000 HD 
HETATM   20  C   UNL     1      -7.981   9.889  68.131  1.00  0.00    -0.100 A  
HETATM   21  C   UNL     1      -7.385  10.234  69.396  1.00  0.00    -0.115 A  
HETATM   22  C   UNL     1      -6.080   9.809  69.514  1.00  0.00    -0.044 A  
HETATM   23  C   UNL     1      -5.148   9.966  70.662  1.00  0.00    -0.041 C  
HETATM   24  S   UNL     1      -5.563   8.998  68.106  1.00  0.00    -0.038 SA 
ENDBRANCH   5   8
TORSDOF 1
ENDMDL
MODEL      136
REMARK 921   NORMALIZED FREE ENERGY PREDICTED BY IDOCK:   -3.21 KCAL/MOL
REMARK 922        TOTAL FREE ENERGY PREDICTED BY IDOCK:   -3.80 KCAL/MOL
REMARK 923 INTER-LIGAND FREE ENERGY PREDICTED BY IDOCK:   -3.44 KCAL/MOL
REMARK 924 INTRA-LIGAND FREE ENERGY PREDICTED BY IDOCK:   -0.36 KCAL/MOL
REMARK 927      BINDING AFFINITY PREDICTED BY RF-SCORE:    0.00 PKD
ROOT
HETATM    1  C   UNL     1      -5.574   2.520  68.397  1.00  0.00    -0.018 C  
HETATM    2  N   UNL     1      -6.588   2.880  69.386  1.00  0.00    -0.033 NA 
HETATM    3  C   UNL     1      -6.197   4.071  70.165  1.00  0.00    -0.027 C  
HETATM    4  C   UNL     1      -6.216   5.409  69.392  1.00  0.00    -0.029 C  
HETATM    5  N   UNL     1      -7.489   5.621  68.687  1.00  0.00    -0.082 NA 
HETATM    6  C   UNL     1      -7.899   3.154  68.755  1.00  0.00    -0.053 C  
HETATM    7  C   UNL     1      -7.962   4.451  67.921  1.00  0.00    -0.087 C  
ENDROOT
BRANCH   5   8
HETATM    8  C   UNL     1      -8.332   6.712  68.880  1.00  0.00    -0.120 C  
HETATM    9  N   UNL     1      -8.192   7.804  68.186  1.00  0.00    -0.123 NA 
HETATM   10  C   UNL     1      -8.953   8.976  68.352  1.00  0.00    -0.133 A  
HETATM   11  H   UNL     1      -7.473   7.811  67.462  1.00  0.00     0.000 HD 
HETATM   12  C   UNL     1      -8.252  10.182  68.198  1.00  0.00    -0.113 A  
HETATM   13  C   UNL     1      -8.889  11.417  68.328  1.00  0.00    -0.167 A  
HETATM   14  C   UNL     1     -10.252  11.467  68.590  1.00  0.00    -0.217 A  
HETATM   15  C   UNL     1     -10.978  10.282  68.710  1.00  0.00    -0.285 A  
HETATM   16  C   UNL     1     -10.343   9.029  68.595  1.00  0.00    -0.209 A  
HETATM   17  N   UNL     1     -11.114   7.863  68.867  1.00  0.00    -0.404 NA 
HETATM   18  C   UNL     1     -10.624   7.029  69.820  1.00  0.00    -0.233 A  
HETATM   19  H   UNL     1     -11.983   7.665  68.374  1.00  0.00     0.000 HD 
HETATM   20  C   UNL     1      -9.335   6.543  69.932  1.00  0.00    -0.155 A  
HETATM   21  C   UNL     1      -9.152   5.909  71.213  1.00  0.00    -0.148 A  
HETATM   22  C   UNL     1     -10.314   5.832  71.950  1.00  0.00    -0.214 A  
HETATM   23  C   UNL     1     -10.521   5.264  73.309  1.00  0.00    -0.262 C  
HETATM   24  S   UNL     1     -11.629   6.515  71.107  1.00  0.00    -0.330 SA 
ENDBRANCH   5   8
TORSDOF 1
ENDMDL
MODEL      137
REMARK 921   NORMALIZED FREE ENERGY PREDICTED BY IDOCK:   -3.18 KCAL/MOL
REMARK 922        TOTAL FREE ENERGY PREDICTED BY IDOCK:   -3.78 KCAL/MOL
REMARK 923 INTER-LIGAND FREE ENERGY PREDICTED BY IDOCK:   -3.40 KCAL/MOL
REMARK 924 INTRA-LIGAND FREE ENERGY PREDICTED BY IDOCK:   -0.37 KCAL/MOL
REMARK 927      BINDING AFFINITY PREDICTED BY RF-SCORE:    0.00 PKD
ROOT
HETATM    1  C   UNL     1      -7.247  11.257  66.761  1.00  0.00    -0.142 C  
HETATM    2  N   UNL     1      -6.807   9.912  66.396  1.00  0.00    -0.087 NA 
HETATM    3  C   UNL     1      -6.211   9.198  67.542  1.00  0.00    -0.058 C  
HETATM    4  C   UNL     1      -7.203   8.769  68.647  1.00  0.00    -0.073 C  
HETATM    5  N   UNL     1      -8.358   8.041  68.100  1.00  0.00    -0.126 NA 
HETATM    6  C   UNL     1      -7.922   9.091  65.872  1.00  0.00    -0.103 C  
HETATM    7  C   UNL     1      -8.976   8.679  66.922  1.00  0.00    -0.138 C  
ENDROOT
BRANCH   5   8
HETATM    8  C   UNL     1      -8.729   6.750  68.467  1.00  0.00    -0.124 C  
HETATM    9  N   UNL     1      -8.291   5.711  67.817  1.00  0.00    -0.101 NA 
HETATM   10  C   UNL     1      -8.658   4.377  68.074  1.00  0.00    -0.102 A  
HETATM   11  H   UNL     1      -7.628   5.877  67.059  1.00  0.00     0.000 HD 
HETATM   12  C   UNL     1      -8.804   3.559  66.944  1.00  0.00    -0.145 A  
HETATM   13  C   UNL     1      -9.155   2.213  67.059  1.00  0.00    -0.124 A  
HETATM   14  C   UNL     1      -9.343   1.653  68.316  1.00  0.00    -0.242 A  
HETATM   15  C   UNL     1      -9.168   2.437  69.456  1.00  0.00    -0.189 A  
HETATM   16  C   UNL     1      -8.826   3.800  69.352  1.00  0.00    -0.090 A  
HETATM   17  N   UNL     1      -8.800   4.575  70.547  1.00  0.00    -0.096 NA 
HETATM   18  C   UNL     1      -9.582   5.685  70.559  1.00  0.00    -0.174 A  
HETATM   19  H   UNL     1      -8.227   4.311  71.347  1.00  0.00     0.000 HD 
HETATM   20  C   UNL     1      -9.662   6.669  69.592  1.00  0.00    -0.162 A  
HETATM   21  C   UNL     1     -10.788   7.530  69.850  1.00  0.00    -0.250 A  
HETATM   22  C   UNL     1     -11.423   7.247  71.040  1.00  0.00    -0.287 A  
HETATM   23  C   UNL     1     -12.617   7.903  71.639  1.00  0.00    -0.344 C  
HETATM   24  S   UNL     1     -10.670   5.952  71.853  1.00  0.00    -0.246 SA 
ENDBRANCH   5   8
TORSDOF 1
ENDMDL
MODEL      138
REMARK 921   NORMALIZED FREE ENERGY PREDICTED BY IDOCK:   -3.18 KCAL/MOL
REMARK 922        TOTAL FREE ENERGY PREDICTED BY IDOCK:   -3.78 KCAL/MOL
REMARK 923 INTER-LIGAND FREE ENERGY PREDICTED BY IDOCK:   -3.38 KCAL/MOL
REMARK 924 INTRA-LIGAND FREE ENERGY PREDICTED BY IDOCK:   -0.40 KCAL/MOL
REMARK 927      BINDING AFFINITY PREDICTED BY RF-SCORE:    0.00 PKD
ROOT
HETATM    1  C   UNL     1     -12.737   9.494  71.142  1.00  0.00    -0.291 C  
HETATM    2  N   UNL     1     -12.239   8.452  72.038  1.00  0.00    -0.339 NA 
HETATM    3  C   UNL     1     -12.633   7.104  71.584  1.00  0.00    -0.375 C  
HETATM    4  C   UNL     1     -11.925   6.597  70.308  1.00  0.00    -0.240 C  
HETATM    5  N   UNL     1     -10.462   6.729  70.398  1.00  0.00    -0.202 NA 
HETATM    6  C   UNL     1     -10.764   8.485  72.154  1.00  0.00    -0.356 C  
HETATM    7  C   UNL     1     -10.000   8.042  70.888  1.00  0.00    -0.186 C  
ENDROOT
BRANCH   5   8
HETATM    8  C   UNL     1      -9.561   5.675  70.277  1.00  0.00    -0.168 C  
HETATM    9  N   UNL     1      -9.062   5.090  71.327  1.00  0.00    -0.140 NA 
HETATM   10  C   UNL     1      -8.101   4.062  71.305  1.00  0.00    -0.072 A  
HETATM   11  H   UNL     1      -9.394   5.401  72.240  1.00  0.00     0.000 HD 
HETATM   12  C   UNL     1      -7.136   4.110  72.322  1.00  0.00    -0.056 A  
HETATM   13  C   UNL     1      -6.132   3.145  72.421  1.00  0.00    -0.009 A  
HETATM   14  C   UNL     1      -6.091   2.095  71.513  1.00  0.00    -0.014 A  
HETATM   15  C   UNL     1      -7.062   2.005  70.515  1.00  0.00    -0.033 A  
HETATM   16  C   UNL     1      -8.072   2.980  70.397  1.00  0.00    -0.041 A  
HETATM   17  N   UNL     1      -8.944   2.905  69.274  1.00  0.00    -0.102 NA 
HETATM   18  C   UNL     1      -9.016   4.014  68.494  1.00  0.00    -0.117 A  
HETATM   19  H   UNL     1      -9.486   2.066  69.067  1.00  0.00     0.000 HD 
HETATM   20  C   UNL     1      -9.202   5.320  68.903  1.00  0.00    -0.150 A  
HETATM   21  C   UNL     1      -8.957   6.224  67.809  1.00  0.00    -0.112 A  
HETATM   22  C   UNL     1      -8.722   5.577  66.615  1.00  0.00    -0.116 A  
HETATM   23  C   UNL     1      -8.422   6.162  65.280  1.00  0.00    -0.121 C  
HETATM   24  S   UNL     1      -8.801   3.884  66.800  1.00  0.00    -0.135 SA 
ENDBRANCH   5   8
TORSDOF 1
ENDMDL
MODEL      139
REMARK 921   NORMALIZED FREE ENERGY PREDICTED BY IDOCK:   -3.15 KCAL/MOL
REMARK 922        TOTAL FREE ENERGY PREDICTED BY IDOCK:   -3.74 KCAL/MOL
REMARK 923 INTER-LIGAND FREE ENERGY PREDICTED BY IDOCK:   -3.33 KCAL/MOL
REMARK 924 INTRA-LIGAND FREE ENERGY PREDICTED BY IDOCK:   -0.41 KCAL/MOL
REMARK 927      BINDING AFFINITY PREDICTED BY RF-SCORE:    0.00 PKD
ROOT
HETATM    1  C   UNL     1     -10.337   4.281  65.258  1.00  0.00    -0.201 C  
HETATM    2  N   UNL     1      -9.852   4.533  66.614  1.00  0.00    -0.209 NA 
HETATM    3  C   UNL     1      -8.434   4.941  66.622  1.00  0.00    -0.106 C  
HETATM    4  C   UNL     1      -8.144   6.352  66.062  1.00  0.00    -0.120 C  
HETATM    5  N   UNL     1      -9.003   7.377  66.675  1.00  0.00    -0.140 NA 
HETATM    6  C   UNL     1     -10.638   5.587  67.293  1.00  0.00    -0.219 C  
HETATM    7  C   UNL     1     -10.432   7.012  66.739  1.00  0.00    -0.227 C  
ENDROOT
BRANCH   5   8
HETATM    8  C   UNL     1      -8.539   8.494  67.363  1.00  0.00    -0.127 C  
HETATM    9  N   UNL     1      -8.026   9.511  66.733  1.00  0.00    -0.108 NA 
HETATM   10  C   UNL     1      -7.476  10.653  67.343  1.00  0.00    -0.094 A  
HETATM   11  H   UNL     1      -8.021   9.475  65.713  1.00  0.00     0.000 HD 
HETATM   12  C   UNL     1      -6.340  11.189  66.718  1.00  0.00    -0.125 A  
HETATM   13  C   UNL     1      -5.703  12.326  67.215  1.00  0.00    -0.131 A  
HETATM   14  C   UNL     1      -6.210  12.967  68.339  1.00  0.00    -0.081 A  
HETATM   15  C   UNL     1      -7.360  12.475  68.955  1.00  0.00    -0.022 A  
HETATM   16  C   UNL     1      -8.005  11.320  68.471  1.00  0.00    -0.145 A  
HETATM   17  N   UNL     1      -9.089  10.793  69.228  1.00  0.00    -0.376 NA 
HETATM   18  C   UNL     1      -8.980   9.494  69.609  1.00  0.00    -0.188 A  
HETATM   19  H   UNL     1      -9.902  11.358  69.470  1.00  0.00     0.000 HD 
HETATM   20  C   UNL     1      -8.640   8.412  68.822  1.00  0.00    -0.135 A  
HETATM   21  C   UNL     1      -8.377   7.259  69.646  1.00  0.00    -0.132 A  
HETATM   22  C   UNL     1      -8.643   7.477  70.980  1.00  0.00    -0.132 A  
HETATM   23  C   UNL     1      -8.488   6.542  72.127  1.00  0.00    -0.113 C  
HETATM   24  S   UNL     1      -9.214   9.061  71.249  1.00  0.00    -0.200 SA 
ENDBRANCH   5   8
TORSDOF 1
ENDMDL
MODEL      140
REMARK 921   NORMALIZED FREE ENERGY PREDICTED BY IDOCK:   -3.13 KCAL/MOL
REMARK 922        TOTAL FREE ENERGY PREDICTED BY IDOCK:   -3.72 KCAL/MOL
REMARK 923 INTER-LIGAND FREE ENERGY PREDICTED BY IDOCK:   -4.02 KCAL/MOL
REMARK 924 INTRA-LIGAND FREE ENERGY PREDICTED BY IDOCK:    0.31 KCAL/MOL
REMARK 927      BINDING AFFINITY PREDICTED BY RF-SCORE:    0.00 PKD
ROOT
HETATM    1  C   UNL     1     -14.381  13.183  72.161  1.00  0.00     0.098 C  
HETATM    2  N   UNL     1     -12.940  12.959  72.255  1.00  0.00    -0.281 NA 
HETATM    3  C   UNL     1     -12.594  11.535  72.079  1.00  0.00     0.185 C  
HETATM    4  C   UNL     1     -12.770  10.979  70.648  1.00  0.00    -0.288 C  
HETATM    5  N   UNL     1     -12.106  11.823  69.642  1.00  0.00    -0.283 NA 
HETATM    6  C   UNL     1     -12.194  13.741  71.245  1.00  0.00    -0.227 C  
HETATM    7  C   UNL     1     -12.376  13.266  69.787  1.00  0.00    -0.128 C  
ENDROOT
BRANCH   5   8
HETATM    8  C   UNL     1     -11.119  11.385  68.764  1.00  0.00    -0.235 C  
HETATM    9  N   UNL     1     -11.189  11.636  67.489  1.00  0.00    -0.273 NA 
HETATM   10  C   UNL     1     -10.274  11.184  66.520  1.00  0.00    -0.231 A  
HETATM   11  H   UNL     1     -11.970  12.208  67.166  1.00  0.00     0.000 HD 
HETATM   12  C   UNL     1     -10.830  10.818  65.285  1.00  0.00    -0.064 A  
HETATM   13  C   UNL     1     -10.034  10.362  64.233  1.00  0.00    -0.368 A  
HETATM   14  C   UNL     1      -8.656  10.287  64.392  1.00  0.00    -0.195 A  
HETATM   15  C   UNL     1      -8.077  10.681  65.598  1.00  0.00    -0.146 A  
HETATM   16  C   UNL     1      -8.871  11.130  66.672  1.00  0.00    -0.166 A  
HETATM   17  N   UNL     1      -8.230  11.382  67.918  1.00  0.00    -0.126 NA 
HETATM   18  C   UNL     1      -8.723  10.715  68.992  1.00  0.00    -0.146 A  
HETATM   19  H   UNL     1      -7.445  12.028  67.999  1.00  0.00     0.000 HD 
HETATM   20  C   UNL     1     -10.045  10.602  69.379  1.00  0.00    -0.199 A  
HETATM   21  C   UNL     1     -10.179   9.603  70.409  1.00  0.00    -0.348 A  
HETATM   22  C   UNL     1      -8.968   9.104  70.838  1.00  0.00    -0.237 A  
HETATM   23  C   UNL     1      -8.701   8.064  71.867  1.00  0.00    -0.184 C  
HETATM   24  S   UNL     1      -7.668   9.833  70.011  1.00  0.00    -0.180 SA 
ENDBRANCH   5   8
TORSDOF 1
ENDMDL
MODEL      141
REMARK 921   NORMALIZED FREE ENERGY PREDICTED BY IDOCK:   -3.13 KCAL/MOL
REMARK 922        TOTAL FREE ENERGY PREDICTED BY IDOCK:   -3.71 KCAL/MOL
REMARK 923 INTER-LIGAND FREE ENERGY PREDICTED BY IDOCK:   -3.31 KCAL/MOL
REMARK 924 INTRA-LIGAND FREE ENERGY PREDICTED BY IDOCK:   -0.41 KCAL/MOL
REMARK 927      BINDING AFFINITY PREDICTED BY RF-SCORE:    0.00 PKD
ROOT
HETATM    1  C   UNL     1     -10.737   6.498  72.411  1.00  0.00    -0.224 C  
HETATM    2  N   UNL     1     -10.108   5.774  71.309  1.00  0.00    -0.194 NA 
HETATM    3  C   UNL     1     -10.927   5.821  70.082  1.00  0.00    -0.298 C  
HETATM    4  C   UNL     1     -10.995   7.196  69.379  1.00  0.00    -0.164 C  
HETATM    5  N   UNL     1      -9.658   7.769  69.157  1.00  0.00    -0.155 NA 
HETATM    6  C   UNL     1      -8.768   6.315  70.988  1.00  0.00    -0.136 C  
HETATM    7  C   UNL     1      -8.770   7.713  70.335  1.00  0.00    -0.143 C  
ENDROOT
BRANCH   5   8
HETATM    8  C   UNL     1      -9.142   8.123  67.914  1.00  0.00    -0.132 C  
HETATM    9  N   UNL     1      -8.207   7.420  67.344  1.00  0.00    -0.112 NA 
HETATM   10  C   UNL     1      -7.584   7.733  66.123  1.00  0.00    -0.087 A  
HETATM   11  H   UNL     1      -7.901   6.572  67.823  1.00  0.00     0.000 HD 
HETATM   12  C   UNL     1      -6.211   7.453  66.052  1.00  0.00    -0.041 A  
HETATM   13  C   UNL     1      -5.473   7.707  64.894  1.00  0.00    -0.033 A  
HETATM   14  C   UNL     1      -6.106   8.225  63.772  1.00  0.00    -0.071 A  
HETATM   15  C   UNL     1      -7.478   8.477  63.806  1.00  0.00    -0.118 A  
HETATM   16  C   UNL     1      -8.230   8.238  64.972  1.00  0.00    -0.158 A  
HETATM   17  N   UNL     1      -9.594   8.647  64.984  1.00  0.00    -0.092 NA 
HETATM   18  C   UNL     1      -9.960   9.486  65.987  1.00  0.00    -0.278 A  
HETATM   19  H   UNL     1     -10.258   8.329  64.279  1.00  0.00     0.000 HD 
HETATM   20  C   UNL     1      -9.701   9.347  67.337  1.00  0.00    -0.205 A  
HETATM   21  C   UNL     1     -10.023  10.567  68.033  1.00  0.00    -0.177 A  
HETATM   22  C   UNL     1     -10.615  11.512  67.223  1.00  0.00    -0.228 A  
HETATM   23  C   UNL     1     -11.075  12.883  67.572  1.00  0.00    -0.302 C  
HETATM   24  S   UNL     1     -10.791  10.939  65.627  1.00  0.00     0.040 SA 
ENDBRANCH   5   8
TORSDOF 1
ENDMDL
MODEL      142
REMARK 921   NORMALIZED FREE ENERGY PREDICTED BY IDOCK:   -3.12 KCAL/MOL
REMARK 922        TOTAL FREE ENERGY PREDICTED BY IDOCK:   -3.71 KCAL/MOL
REMARK 923 INTER-LIGAND FREE ENERGY PREDICTED BY IDOCK:   -4.32 KCAL/MOL
REMARK 924 INTRA-LIGAND FREE ENERGY PREDICTED BY IDOCK:    0.61 KCAL/MOL
REMARK 927      BINDING AFFINITY PREDICTED BY RF-SCORE:    0.00 PKD
ROOT
HETATM    1  C   UNL     1     -13.907  13.874  72.948  1.00  0.00     0.079 C  
HETATM    2  N   UNL     1     -13.846  14.910  71.918  1.00  0.00    -0.410 NA 
HETATM    3  C   UNL     1     -12.761  15.876  72.175  1.00  0.00    -0.436 C  
HETATM    4  C   UNL     1     -11.327  15.336  71.972  1.00  0.00    -0.343 C  
HETATM    5  N   UNL     1     -11.165  14.678  70.666  1.00  0.00    -0.136 NA 
HETATM    6  C   UNL     1     -13.641  14.335  70.570  1.00  0.00     0.381 C  
HETATM    7  C   UNL     1     -12.243  13.729  70.326  1.00  0.00    -0.359 C  
ENDROOT
BRANCH   5   8
HETATM    8  C   UNL     1     -10.237  15.051  69.698  1.00  0.00    -0.157 C  
HETATM    9  N   UNL     1      -9.222  15.812  69.993  1.00  0.00     0.080 NA 
HETATM   10  C   UNL     1      -8.271  16.289  69.073  1.00  0.00    -0.238 A  
HETATM   11  H   UNL     1      -9.109  16.084  70.970  1.00  0.00     0.000 HD 
HETATM   12  C   UNL     1      -7.816  17.598  69.294  1.00  0.00     0.133 A  
HETATM   13  C   UNL     1      -6.865  18.190  68.462  1.00  0.00    -0.240 A  
HETATM   14  C   UNL     1      -6.329  17.469  67.403  1.00  0.00    -0.166 A  
HETATM   15  C   UNL     1      -6.738  16.153  67.185  1.00  0.00    -0.227 A  
HETATM   16  C   UNL     1      -7.707  15.549  68.010  1.00  0.00    -0.127 A  
HETATM   17  N   UNL     1      -8.180  14.256  67.648  1.00  0.00    -0.170 NA 
HETATM   18  C   UNL     1      -9.523  14.131  67.489  1.00  0.00    -0.210 A  
HETATM   19  H   UNL     1      -7.547  13.468  67.517  1.00  0.00     0.000 HD 
HETATM   20  C   UNL     1     -10.516  14.559  68.348  1.00  0.00    -0.246 A  
HETATM   21  C   UNL     1     -11.802  14.478  67.702  1.00  0.00    -0.395 A  
HETATM   22  C   UNL     1     -11.746  13.889  66.458  1.00  0.00    -0.393 A  
HETATM   23  C   UNL     1     -12.850  13.641  65.493  1.00  0.00    -0.443 C  
HETATM   24  S   UNL     1     -10.153  13.428  66.061  1.00  0.00    -0.302 SA 
ENDBRANCH   5   8
TORSDOF 1
ENDMDL
MODEL      143
REMARK 921   NORMALIZED FREE ENERGY PREDICTED BY IDOCK:   -3.02 KCAL/MOL
REMARK 922        TOTAL FREE ENERGY PREDICTED BY IDOCK:   -3.61 KCAL/MOL
REMARK 923 INTER-LIGAND FREE ENERGY PREDICTED BY IDOCK:   -4.28 KCAL/MOL
REMARK 924 INTRA-LIGAND FREE ENERGY PREDICTED BY IDOCK:    0.67 KCAL/MOL
REMARK 927      BINDING AFFINITY PREDICTED BY RF-SCORE:    0.00 PKD
ROOT
HETATM    1  C   UNL     1     -12.875   9.381  72.200  1.00  0.00    -0.401 C  
HETATM    2  N   UNL     1     -11.523   8.824  72.191  1.00  0.00    -0.364 NA 
HETATM    3  C   UNL     1     -11.537   7.351  72.105  1.00  0.00    -0.293 C  
HETATM    4  C   UNL     1     -11.981   6.768  70.745  1.00  0.00    -0.378 C  
HETATM    5  N   UNL     1     -11.244   7.366  69.621  1.00  0.00    -0.114 NA 
HETATM    6  C   UNL     1     -10.721   9.343  71.061  1.00  0.00    -0.337 C  
HETATM    7  C   UNL     1     -11.154   8.838  69.669  1.00  0.00    -0.028 C  
ENDROOT
BRANCH   5   8
HETATM    8  C   UNL     1     -10.479   6.652  68.702  1.00  0.00    -0.211 C  
HETATM    9  N   UNL     1     -10.450   5.351  68.713  1.00  0.00    -0.181 NA 
HETATM   10  C   UNL     1      -9.663   4.548  67.868  1.00  0.00    -0.139 A  
HETATM   11  H   UNL     1     -11.047   4.875  69.390  1.00  0.00     0.000 HD 
HETATM   12  C   UNL     1      -9.120   3.396  68.457  1.00  0.00    -0.206 A  
HETATM   13  C   UNL     1      -8.328   2.508  67.727  1.00  0.00    -0.091 A  
HETATM   14  C   UNL     1      -8.085   2.746  66.381  1.00  0.00    -0.083 A  
HETATM   15  C   UNL     1      -8.644   3.865  65.764  1.00  0.00    -0.111 A  
HETATM   16  C   UNL     1      -9.434   4.776  66.493  1.00  0.00    -0.156 A  
HETATM   17  N   UNL     1      -9.856   5.967  65.838  1.00  0.00    -0.381 NA 
HETATM   18  C   UNL     1      -9.525   7.136  66.445  1.00  0.00    -0.123 A  
HETATM   19  H   UNL     1     -10.378   5.945  64.962  1.00  0.00     0.000 HD 
HETATM   20  C   UNL     1      -9.700   7.473  67.773  1.00  0.00    -0.176 A  
HETATM   21  C   UNL     1      -8.986   8.687  68.077  1.00  0.00    -0.141 A  
HETATM   22  C   UNL     1      -8.418   9.272  66.966  1.00  0.00    -0.124 A  
HETATM   23  C   UNL     1      -7.604  10.514  66.879  1.00  0.00    -0.110 C  
HETATM   24  S   UNL     1      -8.742   8.371  65.555  1.00  0.00    -0.130 SA 
ENDBRANCH   5   8
TORSDOF 1
ENDMDL
MODEL      144
REMARK 921   NORMALIZED FREE ENERGY PREDICTED BY IDOCK:   -3.00 KCAL/MOL
REMARK 922        TOTAL FREE ENERGY PREDICTED BY IDOCK:   -3.58 KCAL/MOL
REMARK 923 INTER-LIGAND FREE ENERGY PREDICTED BY IDOCK:   -4.03 KCAL/MOL
REMARK 924 INTRA-LIGAND FREE ENERGY PREDICTED BY IDOCK:    0.45 KCAL/MOL
REMARK 927      BINDING AFFINITY PREDICTED BY RF-SCORE:    0.00 PKD
ROOT
HETATM    1  C   UNL     1     -13.205   8.503  72.471  1.00  0.00    -0.223 C  
HETATM    2  N   UNL     1     -11.756   8.312  72.498  1.00  0.00    -0.397 NA 
HETATM    3  C   UNL     1     -11.371   6.965  72.031  1.00  0.00    -0.265 C  
HETATM    4  C   UNL     1     -11.559   6.707  70.519  1.00  0.00    -0.390 C  
HETATM    5  N   UNL     1     -10.941   7.759  69.698  1.00  0.00    -0.179 NA 
HETATM    6  C   UNL     1     -11.054   9.308  71.659  1.00  0.00    -0.368 C  
HETATM    7  C   UNL     1     -11.250   9.133  70.138  1.00  0.00    -0.187 C  
ENDROOT
BRANCH   5   8
HETATM    8  C   UNL     1      -9.959   7.542  68.736  1.00  0.00    -0.172 C  
HETATM    9  N   UNL     1      -9.692   8.437  67.829  1.00  0.00    -0.156 NA 
HETATM   10  C   UNL     1      -8.763   8.282  66.783  1.00  0.00    -0.133 A  
HETATM   11  H   UNL     1     -10.197   9.322  67.881  1.00  0.00     0.000 HD 
HETATM   12  C   UNL     1      -9.134   8.848  65.553  1.00  0.00    -0.248 A  
HETATM   13  C   UNL     1      -8.300   8.775  64.436  1.00  0.00    -0.165 A  
HETATM   14  C   UNL     1      -7.062   8.153  64.538  1.00  0.00    -0.077 A  
HETATM   15  C   UNL     1      -6.656   7.616  65.760  1.00  0.00    -0.045 A  
HETATM   16  C   UNL     1      -7.494   7.672  66.891  1.00  0.00    -0.094 A  
HETATM   17  N   UNL     1      -7.077   6.983  68.065  1.00  0.00    -0.083 NA 
HETATM   18  C   UNL     1      -7.948   6.069  68.566  1.00  0.00    -0.107 A  
HETATM   19  H   UNL     1      -6.177   7.166  68.506  1.00  0.00     0.000 HD 
HETATM   20  C   UNL     1      -9.298   6.237  68.806  1.00  0.00    -0.124 A  
HETATM   21  C   UNL     1      -9.916   4.966  69.086  1.00  0.00    -0.252 A  
HETATM   22  C   UNL     1      -9.010   3.931  69.166  1.00  0.00    -0.114 A  
HETATM   23  C   UNL     1      -9.263   2.488  69.425  1.00  0.00    -0.194 C  
HETATM   24  S   UNL     1      -7.416   4.480  68.912  1.00  0.00    -0.056 SA 
ENDBRANCH   5   8
TORSDOF 1
ENDMDL
MODEL      145
REMARK 921   NORMALIZED FREE ENERGY PREDICTED BY IDOCK:   -2.98 KCAL/MOL
REMARK 922        TOTAL FREE ENERGY PREDICTED BY IDOCK:   -3.56 KCAL/MOL
REMARK 923 INTER-LIGAND FREE ENERGY PREDICTED BY IDOCK:   -3.58 KCAL/MOL
REMARK 924 INTRA-LIGAND FREE ENERGY PREDICTED BY IDOCK:    0.02 KCAL/MOL
REMARK 927      BINDING AFFINITY PREDICTED BY RF-SCORE:    0.00 PKD
ROOT
HETATM    1  C   UNL     1     -12.470  12.354  71.056  1.00  0.00    -0.256 C  
HETATM    2  N   UNL     1     -12.823  11.202  70.229  1.00  0.00    -0.135 NA 
HETATM    3  C   UNL     1     -11.932  11.071  69.060  1.00  0.00    -0.293 C  
HETATM    4  C   UNL     1     -10.484  10.632  69.373  1.00  0.00    -0.225 C  
HETATM    5  N   UNL     1     -10.442   9.429  70.218  1.00  0.00    -0.231 NA 
HETATM    6  C   UNL     1     -12.766   9.936  70.995  1.00  0.00    -0.334 C  
HETATM    7  C   UNL     1     -11.345   9.475  71.385  1.00  0.00    -0.392 C  
ENDROOT
BRANCH   5   8
HETATM    8  C   UNL     1      -9.814   8.236  69.873  1.00  0.00    -0.186 C  
HETATM    9  N   UNL     1     -10.173   7.564  68.817  1.00  0.00    -0.193 NA 
HETATM   10  C   UNL     1      -9.640   6.323  68.423  1.00  0.00    -0.121 A  
HETATM   11  H   UNL     1     -10.899   7.971  68.228  1.00  0.00     0.000 HD 
HETATM   12  C   UNL     1     -10.557   5.417  67.870  1.00  0.00    -0.164 A  
HETATM   13  C   UNL     1     -10.159   4.154  67.430  1.00  0.00     0.047 A  
HETATM   14  C   UNL     1      -8.823   3.783  67.512  1.00  0.00    -0.140 A  
HETATM   15  C   UNL     1      -7.886   4.681  68.024  1.00  0.00    -0.081 A  
HETATM   16  C   UNL     1      -8.278   5.954  68.484  1.00  0.00    -0.109 A  
HETATM   17  N   UNL     1      -7.297   6.765  69.122  1.00  0.00    -0.091 NA 
HETATM   18  C   UNL     1      -7.598   7.198  70.373  1.00  0.00    -0.089 A  
HETATM   19  H   UNL     1      -6.418   7.007  68.665  1.00  0.00     0.000 HD 
HETATM   20  C   UNL     1      -8.769   7.794  70.799  1.00  0.00    -0.134 A  
HETATM   21  C   UNL     1      -8.798   7.864  72.237  1.00  0.00    -0.202 A  
HETATM   22  C   UNL     1      -7.624   7.444  72.823  1.00  0.00    -0.077 A  
HETATM   23  C   UNL     1      -7.279   7.361  74.268  1.00  0.00    -0.122 C  
HETATM   24  S   UNL     1      -6.481   6.968  71.650  1.00  0.00    -0.048 SA 
ENDBRANCH   5   8
TORSDOF 1
ENDMDL
MODEL      146
REMARK 921   NORMALIZED FREE ENERGY PREDICTED BY IDOCK:   -2.97 KCAL/MOL
REMARK 922        TOTAL FREE ENERGY PREDICTED BY IDOCK:   -3.55 KCAL/MOL
REMARK 923 INTER-LIGAND FREE ENERGY PREDICTED BY IDOCK:   -3.16 KCAL/MOL
REMARK 924 INTRA-LIGAND FREE ENERGY PREDICTED BY IDOCK:   -0.39 KCAL/MOL
REMARK 927      BINDING AFFINITY PREDICTED BY RF-SCORE:    0.00 PKD
ROOT
HETATM    1  C   UNL     1     -10.264   3.854  63.974  1.00  0.00    -0.208 C  
HETATM    2  N   UNL     1      -9.307   3.749  65.073  1.00  0.00    -0.147 NA 
HETATM    3  C   UNL     1      -8.117   4.593  64.847  1.00  0.00    -0.102 C  
HETATM    4  C   UNL     1      -8.351   6.116  64.958  1.00  0.00    -0.112 C  
HETATM    5  N   UNL     1      -9.041   6.480  66.205  1.00  0.00    -0.156 NA 
HETATM    6  C   UNL     1      -9.908   4.139  66.368  1.00  0.00    -0.195 C  
HETATM    7  C   UNL     1     -10.217   5.644  66.515  1.00  0.00    -0.211 C  
ENDROOT
BRANCH   5   8
HETATM    8  C   UNL     1      -8.541   7.358  67.163  1.00  0.00    -0.118 C  
HETATM    9  N   UNL     1      -7.910   6.923  68.215  1.00  0.00    -0.116 NA 
HETATM   10  C   UNL     1      -7.425   7.727  69.262  1.00  0.00    -0.093 A  
HETATM   11  H   UNL     1      -7.755   5.917  68.285  1.00  0.00     0.000 HD 
HETATM   12  C   UNL     1      -7.536   7.180  70.550  1.00  0.00    -0.089 A  
HETATM   13  C   UNL     1      -7.085   7.869  71.676  1.00  0.00    -0.067 A  
HETATM   14  C   UNL     1      -6.487   9.114  71.531  1.00  0.00    -0.045 A  
HETATM   15  C   UNL     1      -6.331   9.662  70.257  1.00  0.00    -0.076 A  
HETATM   16  C   UNL     1      -6.794   8.982  69.114  1.00  0.00    -0.054 A  
HETATM   17  N   UNL     1      -6.730   9.659  67.863  1.00  0.00    -0.065 NA 
HETATM   18  C   UNL     1      -7.899   9.772  67.180  1.00  0.00    -0.099 A  
HETATM   19  H   UNL     1      -5.856  10.037  67.499  1.00  0.00     0.000 HD 
HETATM   20  C   UNL     1      -8.815   8.774  66.909  1.00  0.00    -0.142 A  
HETATM   21  C   UNL     1     -10.035   9.344  66.398  1.00  0.00    -0.346 A  
HETATM   22  C   UNL     1      -9.952  10.703  66.191  1.00  0.00    -0.228 A  
HETATM   23  C   UNL     1     -10.996  11.636  65.688  1.00  0.00    -0.322 C  
HETATM   24  S   UNL     1      -8.409  11.300  66.603  1.00  0.00    -0.163 SA 
ENDBRANCH   5   8
TORSDOF 1
ENDMDL
MODEL      147
REMARK 921   NORMALIZED FREE ENERGY PREDICTED BY IDOCK:   -2.95 KCAL/MOL
REMARK 922        TOTAL FREE ENERGY PREDICTED BY IDOCK:   -3.53 KCAL/MOL
REMARK 923 INTER-LIGAND FREE ENERGY PREDICTED BY IDOCK:   -4.20 KCAL/MOL
REMARK 924 INTRA-LIGAND FREE ENERGY PREDICTED BY IDOCK:    0.66 KCAL/MOL
REMARK 927      BINDING AFFINITY PREDICTED BY RF-SCORE:    0.00 PKD
ROOT
HETATM    1  C   UNL     1     -12.329  10.984  69.418  1.00  0.00    -0.153 C  
HETATM    2  N   UNL     1     -11.305  10.636  70.401  1.00  0.00    -0.317 NA 
HETATM    3  C   UNL     1     -11.859   9.834  71.510  1.00  0.00    -0.399 C  
HETATM    4  C   UNL     1     -12.261   8.387  71.149  1.00  0.00    -0.226 C  
HETATM    5  N   UNL     1     -11.179   7.671  70.453  1.00  0.00    -0.264 NA 
HETATM    6  C   UNL     1     -10.194   9.873  69.792  1.00  0.00    -0.246 C  
HETATM    7  C   UNL     1     -10.551   8.436  69.358  1.00  0.00    -0.197 C  
ENDROOT
BRANCH   5   8
HETATM    8  C   UNL     1     -10.601   6.484  70.894  1.00  0.00    -0.230 C  
HETATM    9  N   UNL     1     -11.108   5.813  71.887  1.00  0.00    -0.262 NA 
HETATM   10  C   UNL     1     -10.560   4.641  72.440  1.00  0.00    -0.157 A  
HETATM   11  H   UNL     1     -11.973   6.166  72.298  1.00  0.00     0.000 HD 
HETATM   12  C   UNL     1     -10.670   4.518  73.833  1.00  0.00    -0.349 A  
HETATM   13  C   UNL     1     -10.177   3.400  74.508  1.00  0.00    -0.228 A  
HETATM   14  C   UNL     1      -9.585   2.367  73.793  1.00  0.00    -0.115 A  
HETATM   15  C   UNL     1      -9.498   2.449  72.403  1.00  0.00    -0.159 A  
HETATM   16  C   UNL     1      -9.980   3.579  71.712  1.00  0.00    -0.131 A  
HETATM   17  N   UNL     1      -9.734   3.661  70.312  1.00  0.00    -0.175 NA 
HETATM   18  C   UNL     1      -9.088   4.774  69.880  1.00  0.00    -0.104 A  
HETATM   19  H   UNL     1     -10.026   2.925  69.670  1.00  0.00     0.000 HD 
HETATM   20  C   UNL     1      -9.381   6.089  70.187  1.00  0.00    -0.172 A  
HETATM   21  C   UNL     1      -8.313   6.952  69.749  1.00  0.00    -0.132 A  
HETATM   22  C   UNL     1      -7.340   6.288  69.035  1.00  0.00    -0.085 A  
HETATM   23  C   UNL     1      -6.091   6.829  68.434  1.00  0.00    -0.026 C  
HETATM   24  S   UNL     1      -7.704   4.629  68.884  1.00  0.00    -0.071 SA 
ENDBRANCH   5   8
TORSDOF 1
ENDMDL
MODEL      148
REMARK 921   NORMALIZED FREE ENERGY PREDICTED BY IDOCK:   -2.91 KCAL/MOL
REMARK 922        TOTAL FREE ENERGY PREDICTED BY IDOCK:   -3.49 KCAL/MOL
REMARK 923 INTER-LIGAND FREE ENERGY PREDICTED BY IDOCK:   -3.11 KCAL/MOL
REMARK 924 INTRA-LIGAND FREE ENERGY PREDICTED BY IDOCK:   -0.38 KCAL/MOL
REMARK 927      BINDING AFFINITY PREDICTED BY RF-SCORE:    0.00 PKD
ROOT
HETATM    1  C   UNL     1      -8.677  11.902  68.282  1.00  0.00    -0.170 C  
HETATM    2  N   UNL     1      -8.301  10.954  67.235  1.00  0.00    -0.121 NA 
HETATM    3  C   UNL     1      -7.297   9.981  67.711  1.00  0.00    -0.089 C  
HETATM    4  C   UNL     1      -7.812   8.936  68.726  1.00  0.00    -0.101 C  
HETATM    5  N   UNL     1      -9.032   8.263  68.254  1.00  0.00    -0.136 NA 
HETATM    6  C   UNL     1      -9.469  10.199  66.731  1.00  0.00    -0.168 C  
HETATM    7  C   UNL     1     -10.063   9.177  67.723  1.00  0.00    -0.203 C  
ENDROOT
BRANCH   5   8
HETATM    8  C   UNL     1      -9.164   6.889  68.078  1.00  0.00    -0.121 C  
HETATM    9  N   UNL     1      -8.944   6.331  66.923  1.00  0.00    -0.117 NA 
HETATM   10  C   UNL     1      -9.111   4.965  66.634  1.00  0.00    -0.119 A  
HETATM   11  H   UNL     1      -8.624   6.935  66.165  1.00  0.00     0.000 HD 
HETATM   12  C   UNL     1      -9.622   4.670  65.361  1.00  0.00    -0.177 A  
HETATM   13  C   UNL     1      -9.827   3.354  64.944  1.00  0.00    -0.097 A  
HETATM   14  C   UNL     1      -9.498   2.302  65.789  1.00  0.00     0.155 A  
HETATM   15  C   UNL     1      -8.953   2.569  67.045  1.00  0.00    -0.167 A  
HETATM   16  C   UNL     1      -8.754   3.893  67.483  1.00  0.00    -0.107 A  
HETATM   17  N   UNL     1      -8.326   4.096  68.826  1.00  0.00    -0.081 NA 
HETATM   18  C   UNL     1      -9.108   4.901  69.590  1.00  0.00    -0.107 A  
HETATM   19  H   UNL     1      -7.481   3.661  69.194  1.00  0.00     0.000 HD 
HETATM   20  C   UNL     1      -9.601   6.150  69.264  1.00  0.00    -0.153 A  
HETATM   21  C   UNL     1     -10.595   6.559  70.224  1.00  0.00    -0.278 A  
HETATM   22  C   UNL     1     -10.721   5.681  71.279  1.00  0.00    -0.244 A  
HETATM   23  C   UNL     1     -11.639   5.753  72.448  1.00  0.00    -0.320 C  
HETATM   24  S   UNL     1      -9.646   4.367  71.125  1.00  0.00    -0.187 SA 
ENDBRANCH   5   8
TORSDOF 1
ENDMDL
MODEL      149
REMARK 921   NORMALIZED FREE ENERGY PREDICTED BY IDOCK:   -2.87 KCAL/MOL
REMARK 922        TOTAL FREE ENERGY PREDICTED BY IDOCK:   -3.45 KCAL/MOL
REMARK 923 INTER-LIGAND FREE ENERGY PREDICTED BY IDOCK:   -3.07 KCAL/MOL
REMARK 924 INTRA-LIGAND FREE ENERGY PREDICTED BY IDOCK:   -0.38 KCAL/MOL
REMARK 927      BINDING AFFINITY PREDICTED BY RF-SCORE:    0.00 PKD
ROOT
HETATM    1  C   UNL     1      -8.169   4.929  71.089  1.00  0.00    -0.109 C  
HETATM    2  N   UNL     1      -8.515   6.317  70.786  1.00  0.00    -0.133 NA 
HETATM    3  C   UNL     1      -7.370   7.058  70.223  1.00  0.00    -0.084 C  
HETATM    4  C   UNL     1      -6.959   6.659  68.788  1.00  0.00    -0.080 C  
HETATM    5  N   UNL     1      -8.105   6.655  67.866  1.00  0.00    -0.112 NA 
HETATM    6  C   UNL     1      -9.638   6.407  69.826  1.00  0.00    -0.151 C  
HETATM    7  C   UNL     1      -9.301   5.966  68.386  1.00  0.00    -0.120 C  
ENDROOT
BRANCH   5   8
HETATM    8  C   UNL     1      -8.191   7.417  66.704  1.00  0.00    -0.125 C  
HETATM    9  N   UNL     1      -8.749   8.593  66.708  1.00  0.00    -0.122 NA 
HETATM   10  C   UNL     1      -8.937   9.407  65.575  1.00  0.00    -0.204 A  
HETATM   11  H   UNL     1      -9.076   8.954  67.604  1.00  0.00     0.000 HD 
HETATM   12  C   UNL     1     -10.138  10.132  65.541  1.00  0.00    -0.338 A  
HETATM   13  C   UNL     1     -10.445  10.984  64.480  1.00  0.00    -0.411 A  
HETATM   14  C   UNL     1      -9.539  11.147  63.439  1.00  0.00    -0.355 A  
HETATM   15  C   UNL     1      -8.322  10.466  63.470  1.00  0.00    -0.154 A  
HETATM   16  C   UNL     1      -8.006   9.592  64.529  1.00  0.00    -0.140 A  
HETATM   17  N   UNL     1      -6.812   8.823  64.428  1.00  0.00    -0.077 NA 
HETATM   18  C   UNL     1      -6.954   7.477  64.535  1.00  0.00    -0.055 A  
HETATM   19  H   UNL     1      -5.902   9.259  64.283  1.00  0.00     0.000 HD 
HETATM   20  C   UNL     1      -7.652   6.779  65.502  1.00  0.00    -0.088 A  
HETATM   21  C   UNL     1      -7.782   5.396  65.120  1.00  0.00    -0.086 A  
HETATM   22  C   UNL     1      -7.088   5.084  63.971  1.00  0.00    -0.049 A  
HETATM   23  C   UNL     1      -6.990   3.778  63.266  1.00  0.00    -0.044 C  
HETATM   24  S   UNL     1      -6.274   6.447  63.349  1.00  0.00    -0.030 SA 
ENDBRANCH   5   8
TORSDOF 1
ENDMDL
MODEL      150
REMARK 921   NORMALIZED FREE ENERGY PREDICTED BY IDOCK:   -2.87 KCAL/MOL
REMARK 922        TOTAL FREE ENERGY PREDICTED BY IDOCK:   -3.45 KCAL/MOL
REMARK 923 INTER-LIGAND FREE ENERGY PREDICTED BY IDOCK:   -3.23 KCAL/MOL
REMARK 924 INTRA-LIGAND FREE ENERGY PREDICTED BY IDOCK:   -0.21 KCAL/MOL
REMARK 927      BINDING AFFINITY PREDICTED BY RF-SCORE:    0.00 PKD
ROOT
HETATM    1  C   UNL     1     -12.119  10.662  69.506  1.00  0.00    -0.214 C  
HETATM    2  N   UNL     1     -11.043  10.374  70.453  1.00  0.00    -0.311 NA 
HETATM    3  C   UNL     1     -11.369   9.225  71.321  1.00  0.00    -0.353 C  
HETATM    4  C   UNL     1     -11.372   7.845  70.626  1.00  0.00    -0.259 C  
HETATM    5  N   UNL     1     -10.137   7.610  69.861  1.00  0.00    -0.195 NA 
HETATM    6  C   UNL     1      -9.767  10.082  69.763  1.00  0.00    -0.226 C  
HETATM    7  C   UNL     1      -9.729   8.739  69.003  1.00  0.00    -0.172 C  
ENDROOT
BRANCH   5   8
HETATM    8  C   UNL     1      -9.267   6.543  70.067  1.00  0.00    -0.157 C  
HETATM    9  N   UNL     1      -8.454   6.521  71.083  1.00  0.00    -0.126 NA 
HETATM   10  C   UNL     1      -7.499   5.519  71.338  1.00  0.00    -0.098 A  
HETATM   11  H   UNL     1      -8.514   7.292  71.748  1.00  0.00     0.000 HD 
HETATM   12  C   UNL     1      -6.280   5.964  71.870  1.00  0.00    -0.044 A  
HETATM   13  C   UNL     1      -5.250   5.074  72.178  1.00  0.00    -0.005 A  
HETATM   14  C   UNL     1      -5.434   3.711  71.983  1.00  0.00    -0.007 A  
HETATM   15  C   UNL     1      -6.652   3.241  71.491  1.00  0.00    -0.022 A  
HETATM   16  C   UNL     1      -7.694   4.131  71.163  1.00  0.00    -0.066 A  
HETATM   17  N   UNL     1      -8.855   3.598  70.536  1.00  0.00    -0.074 NA 
HETATM   18  C   UNL     1      -9.203   4.152  69.346  1.00  0.00    -0.143 A  
HETATM   19  H   UNL     1      -9.396   2.843  70.956  1.00  0.00     0.000 HD 
HETATM   20  C   UNL     1      -9.316   5.496  69.045  1.00  0.00    -0.152 A  
HETATM   21  C   UNL     1      -9.446   5.677  67.621  1.00  0.00    -0.119 A  
HETATM   22  C   UNL     1      -9.548   4.489  66.932  1.00  0.00    -0.190 A  
HETATM   23  C   UNL     1      -9.682   4.269  65.467  1.00  0.00    -0.205 C  
HETATM   24  S   UNL     1      -9.494   3.152  67.988  1.00  0.00    -0.093 SA 
ENDBRANCH   5   8
TORSDOF 1
ENDMDL
MODEL      151
REMARK 921   NORMALIZED FREE ENERGY PREDICTED BY IDOCK:   -2.82 KCAL/MOL
REMARK 922        TOTAL FREE ENERGY PREDICTED BY IDOCK:   -3.39 KCAL/MOL
REMARK 923 INTER-LIGAND FREE ENERGY PREDICTED BY IDOCK:   -2.97 KCAL/MOL
REMARK 924 INTRA-LIGAND FREE ENERGY PREDICTED BY IDOCK:   -0.43 KCAL/MOL
REMARK 927      BINDING AFFINITY PREDICTED BY RF-SCORE:    0.00 PKD
ROOT
HETATM    1  C   UNL     1      -7.302   8.182  73.885  1.00  0.00    -0.162 C  
HETATM    2  N   UNL     1      -7.880   8.581  72.603  1.00  0.00    -0.336 NA 
HETATM    3  C   UNL     1      -6.893   8.503  71.508  1.00  0.00    -0.079 C  
HETATM    4  C   UNL     1      -6.482   7.075  71.083  1.00  0.00    -0.041 C  
HETATM    5  N   UNL     1      -7.649   6.220  70.819  1.00  0.00    -0.094 NA 
HETATM    6  C   UNL     1      -9.041   7.739  72.237  1.00  0.00    -0.149 C  
HETATM    7  C   UNL     1      -8.696   6.284  71.857  1.00  0.00    -0.136 C  
ENDROOT
BRANCH   5   8
HETATM    8  C   UNL     1      -7.905   5.576  69.611  1.00  0.00    -0.090 C  
HETATM    9  N   UNL     1      -7.298   4.469  69.294  1.00  0.00    -0.052 NA 
HETATM   10  C   UNL     1      -7.445   3.782  68.075  1.00  0.00    -0.062 A  
HETATM   11  H   UNL     1      -6.665   4.067  69.986  1.00  0.00     0.000 HD 
HETATM   12  C   UNL     1      -6.278   3.193  67.565  1.00  0.00    -0.032 A  
HETATM   13  C   UNL     1      -6.287   2.474  66.369  1.00  0.00    -0.024 A  
HETATM   14  C   UNL     1      -7.476   2.309  65.671  1.00  0.00    -0.067 A  
HETATM   15  C   UNL     1      -8.657   2.854  66.177  1.00  0.00    -0.119 A  
HETATM   16  C   UNL     1      -8.658   3.593  67.376  1.00  0.00    -0.104 A  
HETATM   17  N   UNL     1      -9.868   4.238  67.762  1.00  0.00    -0.120 NA 
HETATM   18  C   UNL     1      -9.792   5.577  67.975  1.00  0.00    -0.139 A  
HETATM   19  H   UNL     1     -10.741   3.724  67.872  1.00  0.00     0.000 HD 
HETATM   20  C   UNL     1      -8.860   6.257  68.735  1.00  0.00    -0.123 A  
HETATM   21  C   UNL     1      -8.962   7.674  68.498  1.00  0.00    -0.129 A  
HETATM   22  C   UNL     1     -10.022   8.011  67.684  1.00  0.00    -0.180 A  
HETATM   23  C   UNL     1     -10.442   9.357  67.208  1.00  0.00    -0.332 C  
HETATM   24  S   UNL     1     -10.900   6.630  67.206  1.00  0.00    -0.395 SA 
ENDBRANCH   5   8
TORSDOF 1
ENDMDL
MODEL      152
REMARK 921   NORMALIZED FREE ENERGY PREDICTED BY IDOCK:   -2.81 KCAL/MOL
REMARK 922        TOTAL FREE ENERGY PREDICTED BY IDOCK:   -3.38 KCAL/MOL
REMARK 923 INTER-LIGAND FREE ENERGY PREDICTED BY IDOCK:   -2.99 KCAL/MOL
REMARK 924 INTRA-LIGAND FREE ENERGY PREDICTED BY IDOCK:   -0.40 KCAL/MOL
REMARK 927      BINDING AFFINITY PREDICTED BY RF-SCORE:    0.00 PKD
ROOT
HETATM    1  C   UNL     1     -11.001   6.247  72.882  1.00  0.00    -0.254 C  
HETATM    2  N   UNL     1     -11.150   6.035  71.444  1.00  0.00    -0.281 NA 
HETATM    3  C   UNL     1     -11.434   7.295  70.729  1.00  0.00    -0.299 C  
HETATM    4  C   UNL     1     -10.256   8.291  70.644  1.00  0.00    -0.193 C  
HETATM    5  N   UNL     1      -9.028   7.654  70.144  1.00  0.00    -0.146 NA 
HETATM    6  C   UNL     1      -9.936   5.432  70.848  1.00  0.00    -0.202 C  
HETATM    7  C   UNL     1      -8.708   6.364  70.788  1.00  0.00    -0.140 C  
ENDROOT
BRANCH   5   8
HETATM    8  C   UNL     1      -8.327   8.059  69.012  1.00  0.00    -0.129 C  
HETATM    9  N   UNL     1      -7.612   9.147  69.013  1.00  0.00    -0.074 NA 
HETATM   10  C   UNL     1      -6.922   9.667  67.903  1.00  0.00    -0.079 A  
HETATM   11  H   UNL     1      -7.548   9.664  69.890  1.00  0.00     0.000 HD 
HETATM   12  C   UNL     1      -6.921  11.065  67.789  1.00  0.00    -0.080 A  
HETATM   13  C   UNL     1      -6.265  11.711  66.740  1.00  0.00    -0.123 A  
HETATM   14  C   UNL     1      -5.572  10.965  65.795  1.00  0.00    -0.138 A  
HETATM   15  C   UNL     1      -5.526   9.575  65.909  1.00  0.00    -0.040 A  
HETATM   16  C   UNL     1      -6.196   8.911  66.955  1.00  0.00    -0.059 A  
HETATM   17  N   UNL     1      -6.226   7.488  66.932  1.00  0.00    -0.046 NA 
HETATM   18  C   UNL     1      -7.455   6.912  66.971  1.00  0.00    -0.087 A  
HETATM   19  H   UNL     1      -5.373   6.932  66.890  1.00  0.00     0.000 HD 
HETATM   20  C   UNL     1      -8.491   7.198  67.839  1.00  0.00    -0.121 A  
HETATM   21  C   UNL     1      -9.706   6.566  67.390  1.00  0.00    -0.150 A  
HETATM   22  C   UNL     1      -9.517   5.747  66.298  1.00  0.00    -0.148 A  
HETATM   23  C   UNL     1     -10.521   4.942  65.551  1.00  0.00    -0.091 C  
HETATM   24  S   UNL     1      -7.883   5.729  65.810  1.00  0.00    -0.107 SA 
ENDBRANCH   5   8
TORSDOF 1
ENDMDL
MODEL      153
REMARK 921   NORMALIZED FREE ENERGY PREDICTED BY IDOCK:   -2.81 KCAL/MOL
REMARK 922        TOTAL FREE ENERGY PREDICTED BY IDOCK:   -3.38 KCAL/MOL
REMARK 923 INTER-LIGAND FREE ENERGY PREDICTED BY IDOCK:   -4.01 KCAL/MOL
REMARK 924 INTRA-LIGAND FREE ENERGY PREDICTED BY IDOCK:    0.63 KCAL/MOL
REMARK 927      BINDING AFFINITY PREDICTED BY RF-SCORE:    0.00 PKD
ROOT
HETATM    1  C   UNL     1     -12.194  12.450  70.938  1.00  0.00    -0.193 C  
HETATM    2  N   UNL     1     -12.629  11.236  70.249  1.00  0.00    -0.218 NA 
HETATM    3  C   UNL     1     -11.998  11.102  68.921  1.00  0.00    -0.298 C  
HETATM    4  C   UNL     1     -10.488  10.772  68.932  1.00  0.00    -0.205 C  
HETATM    5  N   UNL     1     -10.182   9.619  69.793  1.00  0.00    -0.220 NA 
HETATM    6  C   UNL     1     -12.319  10.018  71.030  1.00  0.00    -0.360 C  
HETATM    7  C   UNL     1     -10.819   9.668  71.123  1.00  0.00    -0.334 C  
ENDROOT
BRANCH   5   8
HETATM    8  C   UNL     1      -9.556   8.452  69.364  1.00  0.00    -0.170 C  
HETATM    9  N   UNL     1      -8.931   8.400  68.223  1.00  0.00    -0.139 NA 
HETATM   10  C   UNL     1      -8.324   7.252  67.681  1.00  0.00    -0.117 A  
HETATM   11  H   UNL     1      -8.878   9.261  67.679  1.00  0.00     0.000 HD 
HETATM   12  C   UNL     1      -8.440   7.104  66.290  1.00  0.00    -0.138 A  
HETATM   13  C   UNL     1      -7.875   6.016  65.623  1.00  0.00    -0.103 A  
HETATM   14  C   UNL     1      -7.158   5.064  66.337  1.00  0.00    -0.072 A  
HETATM   15  C   UNL     1      -6.998   5.210  67.715  1.00  0.00    -0.062 A  
HETATM   16  C   UNL     1      -7.574   6.297  68.402  1.00  0.00    -0.096 A  
HETATM   17  N   UNL     1      -7.491   6.309  69.823  1.00  0.00    -0.079 NA 
HETATM   18  C   UNL     1      -8.668   6.408  70.493  1.00  0.00    -0.144 A  
HETATM   19  H   UNL     1      -6.598   6.249  70.311  1.00  0.00     0.000 HD 
HETATM   20  C   UNL     1      -9.692   7.307  70.267  1.00  0.00    -0.175 A  
HETATM   21  C   UNL     1     -10.867   6.919  71.005  1.00  0.00    -0.272 A  
HETATM   22  C   UNL     1     -10.652   5.841  71.836  1.00  0.00    -0.232 A  
HETATM   23  C   UNL     1     -11.614   5.152  72.738  1.00  0.00    -0.241 C  
HETATM   24  S   UNL     1      -9.041   5.293  71.737  1.00  0.00    -0.138 SA 
ENDBRANCH   5   8
TORSDOF 1
ENDMDL
MODEL      154
REMARK 921   NORMALIZED FREE ENERGY PREDICTED BY IDOCK:   -2.80 KCAL/MOL
REMARK 922        TOTAL FREE ENERGY PREDICTED BY IDOCK:   -3.37 KCAL/MOL
REMARK 923 INTER-LIGAND FREE ENERGY PREDICTED BY IDOCK:   -3.02 KCAL/MOL
REMARK 924 INTRA-LIGAND FREE ENERGY PREDICTED BY IDOCK:   -0.35 KCAL/MOL
REMARK 927      BINDING AFFINITY PREDICTED BY RF-SCORE:    0.00 PKD
ROOT
HETATM    1  C   UNL     1      -9.652   7.482  73.052  1.00  0.00    -0.215 C  
HETATM    2  N   UNL     1     -10.354   6.453  72.287  1.00  0.00    -0.190 NA 
HETATM    3  C   UNL     1     -10.990   7.007  71.076  1.00  0.00    -0.251 C  
HETATM    4  C   UNL     1     -10.019   7.435  69.952  1.00  0.00    -0.188 C  
HETATM    5  N   UNL     1      -9.057   6.373  69.618  1.00  0.00    -0.143 NA 
HETATM    6  C   UNL     1      -9.447   5.360  71.872  1.00  0.00    -0.149 C  
HETATM    7  C   UNL     1      -8.416   5.745  70.789  1.00  0.00    -0.125 C  
ENDROOT
BRANCH   5   8
HETATM    8  C   UNL     1      -8.904   5.809  68.355  1.00  0.00    -0.109 C  
HETATM    9  N   UNL     1      -9.071   4.533  68.161  1.00  0.00    -0.117 NA 
HETATM   10  C   UNL     1      -8.878   3.865  66.938  1.00  0.00    -0.126 A  
HETATM   11  H   UNL     1      -9.366   3.972  68.960  1.00  0.00     0.000 HD 
HETATM   12  C   UNL     1      -8.311   2.584  67.028  1.00  0.00    -0.090 A  
HETATM   13  C   UNL     1      -8.076   1.810  65.891  1.00  0.00    -0.080 A  
HETATM   14  C   UNL     1      -8.429   2.295  64.638  1.00  0.00    -0.090 A  
HETATM   15  C   UNL     1      -9.028   3.550  64.527  1.00  0.00    -0.121 A  
HETATM   16  C   UNL     1      -9.259   4.347  65.666  1.00  0.00    -0.148 A  
HETATM   17  N   UNL     1      -9.743   5.671  65.467  1.00  0.00    -0.359 NA 
HETATM   18  C   UNL     1      -9.002   6.670  66.012  1.00  0.00    -0.112 A  
HETATM   19  H   UNL     1     -10.599   5.859  64.946  1.00  0.00     0.000 HD 
HETATM   20  C   UNL     1      -8.509   6.745  67.301  1.00  0.00    -0.120 A  
HETATM   21  C   UNL     1      -7.559   7.823  67.408  1.00  0.00    -0.105 A  
HETATM   22  C   UNL     1      -7.468   8.580  66.260  1.00  0.00    -0.090 A  
HETATM   23  C   UNL     1      -6.601   9.757  65.985  1.00  0.00    -0.082 C  
HETATM   24  S   UNL     1      -8.523   8.003  65.051  1.00  0.00    -0.009 SA 
ENDBRANCH   5   8
TORSDOF 1
ENDMDL
MODEL      155
REMARK 921   NORMALIZED FREE ENERGY PREDICTED BY IDOCK:   -2.78 KCAL/MOL
REMARK 922        TOTAL FREE ENERGY PREDICTED BY IDOCK:   -3.35 KCAL/MOL
REMARK 923 INTER-LIGAND FREE ENERGY PREDICTED BY IDOCK:   -3.96 KCAL/MOL
REMARK 924 INTRA-LIGAND FREE ENERGY PREDICTED BY IDOCK:    0.62 KCAL/MOL
REMARK 927      BINDING AFFINITY PREDICTED BY RF-SCORE:    0.00 PKD
ROOT
HETATM    1  C   UNL     1     -11.776  15.536  64.199  1.00  0.00    -0.086 C  
HETATM    2  N   UNL     1     -12.232  14.613  65.237  1.00  0.00    -0.298 NA 
HETATM    3  C   UNL     1     -12.137  13.206  64.801  1.00  0.00    -0.409 C  
HETATM    4  C   UNL     1     -10.703  12.643  64.677  1.00  0.00    -0.326 C  
HETATM    5  N   UNL     1      -9.908  12.886  65.891  1.00  0.00    -0.261 NA 
HETATM    6  C   UNL     1     -11.453  14.761  66.487  1.00  0.00    -0.327 C  
HETATM    7  C   UNL     1      -9.994  14.266  66.407  1.00  0.00    -0.292 C  
ENDROOT
BRANCH   5   8
HETATM    8  C   UNL     1      -9.307  11.893  66.658  1.00  0.00    -0.205 C  
HETATM    9  N   UNL     1      -9.667  10.646  66.553  1.00  0.00    -0.187 NA 
HETATM   10  C   UNL     1      -9.162   9.586  67.327  1.00  0.00    -0.134 A  
HETATM   11  H   UNL     1     -10.373  10.420  65.851  1.00  0.00     0.000 HD 
HETATM   12  C   UNL     1     -10.094   8.603  67.693  1.00  0.00    -0.271 A  
HETATM   13  C   UNL     1      -9.724   7.493  68.453  1.00  0.00    -0.161 A  
HETATM   14  C   UNL     1      -8.399   7.332  68.840  1.00  0.00    -0.126 A  
HETATM   15  C   UNL     1      -7.447   8.276  68.457  1.00  0.00    -0.095 A  
HETATM   16  C   UNL     1      -7.812   9.408  67.701  1.00  0.00    -0.095 A  
HETATM   17  N   UNL     1      -6.819  10.401  67.464  1.00  0.00    -0.075 NA 
HETATM   18  C   UNL     1      -7.127  11.664  67.857  1.00  0.00    -0.081 A  
HETATM   19  H   UNL     1      -5.927  10.177  67.024  1.00  0.00     0.000 HD 
HETATM   20  C   UNL     1      -8.289  12.366  67.598  1.00  0.00    -0.169 A  
HETATM   21  C   UNL     1      -8.338  13.560  68.402  1.00  0.00    -0.140 A  
HETATM   22  C   UNL     1      -7.185  13.773  69.125  1.00  0.00    -0.016 A  
HETATM   23  C   UNL     1      -6.865  14.880  70.067  1.00  0.00    -0.129 C  
HETATM   24  S   UNL     1      -6.038  12.545  68.839  1.00  0.00    -0.081 SA 
ENDBRANCH   5   8
TORSDOF 1
ENDMDL
MODEL      156
REMARK 921   NORMALIZED FREE ENERGY PREDICTED BY IDOCK:   -2.75 KCAL/MOL
REMARK 922        TOTAL FREE ENERGY PREDICTED BY IDOCK:   -3.32 KCAL/MOL
REMARK 923 INTER-LIGAND FREE ENERGY PREDICTED BY IDOCK:   -2.92 KCAL/MOL
REMARK 924 INTRA-LIGAND FREE ENERGY PREDICTED BY IDOCK:   -0.40 KCAL/MOL
REMARK 927      BINDING AFFINITY PREDICTED BY RF-SCORE:    0.00 PKD
ROOT
HETATM    1  C   UNL     1     -11.813   8.809  72.254  1.00  0.00    -0.333 C  
HETATM    2  N   UNL     1     -11.467   7.392  72.353  1.00  0.00    -0.292 NA 
HETATM    3  C   UNL     1     -11.911   6.634  71.167  1.00  0.00    -0.360 C  
HETATM    4  C   UNL     1     -11.130   6.919  69.864  1.00  0.00    -0.288 C  
HETATM    5  N   UNL     1      -9.675   6.813  70.058  1.00  0.00    -0.163 NA 
HETATM    6  C   UNL     1     -10.009   7.190  72.508  1.00  0.00    -0.168 C  
HETATM    7  C   UNL     1      -9.170   7.514  71.254  1.00  0.00    -0.149 C  
ENDROOT
BRANCH   5   8
HETATM    8  C   UNL     1      -8.841   5.951  69.352  1.00  0.00    -0.122 C  
HETATM    9  N   UNL     1      -8.470   4.809  69.852  1.00  0.00    -0.074 NA 
HETATM   10  C   UNL     1      -7.583   3.903  69.242  1.00  0.00    -0.053 A  
HETATM   11  H   UNL     1      -8.854   4.548  70.761  1.00  0.00     0.000 HD 
HETATM   12  C   UNL     1      -6.704   3.236  70.109  1.00  0.00    -0.033 A  
HETATM   13  C   UNL     1      -5.779   2.304  69.634  1.00  0.00    -0.018 A  
HETATM   14  C   UNL     1      -5.735   2.003  68.279  1.00  0.00    -0.019 A  
HETATM   15  C   UNL     1      -6.624   2.626  67.403  1.00  0.00    -0.036 A  
HETATM   16  C   UNL     1      -7.553   3.578  67.868  1.00  0.00    -0.065 A  
HETATM   17  N   UNL     1      -8.333   4.276  66.903  1.00  0.00    -0.101 NA 
HETATM   18  C   UNL     1      -8.265   5.632  66.943  1.00  0.00    -0.105 A  
HETATM   19  H   UNL     1      -8.911   3.786  66.221  1.00  0.00     0.000 HD 
HETATM   20  C   UNL     1      -8.395   6.449  68.049  1.00  0.00    -0.115 A  
HETATM   21  C   UNL     1      -7.999   7.795  67.723  1.00  0.00    -0.124 A  
HETATM   22  C   UNL     1      -7.712   7.966  66.386  1.00  0.00    -0.096 A  
HETATM   23  C   UNL     1      -7.264   9.194  65.677  1.00  0.00    -0.082 C  
HETATM   24  S   UNL     1      -7.921   6.514  65.517  1.00  0.00    -0.123 SA 
ENDBRANCH   5   8
TORSDOF 1
ENDMDL
MODEL      157
REMARK 921   NORMALIZED FREE ENERGY PREDICTED BY IDOCK:   -2.75 KCAL/MOL
REMARK 922        TOTAL FREE ENERGY PREDICTED BY IDOCK:   -3.32 KCAL/MOL
REMARK 923 INTER-LIGAND FREE ENERGY PREDICTED BY IDOCK:   -3.95 KCAL/MOL
REMARK 924 INTRA-LIGAND FREE ENERGY PREDICTED BY IDOCK:    0.63 KCAL/MOL
REMARK 927      BINDING AFFINITY PREDICTED BY RF-SCORE:    0.00 PKD
ROOT
HETATM    1  C   UNL     1     -14.008  12.161  71.966  1.00  0.00     0.419 C  
HETATM    2  N   UNL     1     -12.575  11.927  71.797  1.00  0.00    -0.138 NA 
HETATM    3  C   UNL     1     -12.300  10.593  71.228  1.00  0.00    -0.383 C  
HETATM    4  C   UNL     1     -12.689  10.409  69.744  1.00  0.00     0.200 C  
HETATM    5  N   UNL     1     -12.146  11.479  68.894  1.00  0.00    -0.430 NA 
HETATM    6  C   UNL     1     -11.953  12.940  70.915  1.00  0.00     0.119 C  
HETATM    7  C   UNL     1     -12.349  12.840  69.427  1.00  0.00     0.077 C  
ENDROOT
BRANCH   5   8
HETATM    8  C   UNL     1     -11.303  11.278  67.804  1.00  0.00    -0.285 C  
HETATM    9  N   UNL     1     -10.705  10.138  67.614  1.00  0.00    -0.267 NA 
HETATM   10  C   UNL     1      -9.792   9.861  66.580  1.00  0.00    -0.207 A  
HETATM   11  H   UNL     1     -10.916   9.383  68.268  1.00  0.00     0.000 HD 
HETATM   12  C   UNL     1      -8.713   9.034  66.928  1.00  0.00    -0.132 A  
HETATM   13  C   UNL     1      -7.740   8.674  65.995  1.00  0.00    -0.100 A  
HETATM   14  C   UNL     1      -7.843   9.117  64.683  1.00  0.00    -0.118 A  
HETATM   15  C   UNL     1      -8.927   9.909  64.304  1.00  0.00    -0.278 A  
HETATM   16  C   UNL     1      -9.909  10.291  65.240  1.00  0.00    -0.306 A  
HETATM   17  N   UNL     1     -10.909  11.213  64.820  1.00  0.00    -0.256 NA 
HETATM   18  C   UNL     1     -11.031  12.344  65.561  1.00  0.00    -0.293 A  
HETATM   19  H   UNL     1     -11.501  11.034  64.009  1.00  0.00     0.000 HD 
HETATM   20  C   UNL     1     -11.122  12.443  66.937  1.00  0.00    -0.335 A  
HETATM   21  C   UNL     1     -10.974  13.817  67.347  1.00  0.00    -0.296 A  
HETATM   22  C   UNL     1     -10.905  14.694  66.286  1.00  0.00    -0.321 A  
HETATM   23  C   UNL     1     -10.743  16.172  66.308  1.00  0.00    -0.213 C  
HETATM   24  S   UNL     1     -11.022  13.875  64.796  1.00  0.00    -0.408 SA 
ENDBRANCH   5   8
TORSDOF 1
ENDMDL
MODEL      158
REMARK 921   NORMALIZED FREE ENERGY PREDICTED BY IDOCK:   -2.73 KCAL/MOL
REMARK 922        TOTAL FREE ENERGY PREDICTED BY IDOCK:   -3.29 KCAL/MOL
REMARK 923 INTER-LIGAND FREE ENERGY PREDICTED BY IDOCK:   -2.90 KCAL/MOL
REMARK 924 INTRA-LIGAND FREE ENERGY PREDICTED BY IDOCK:   -0.39 KCAL/MOL
REMARK 927      BINDING AFFINITY PREDICTED BY RF-SCORE:    0.00 PKD
ROOT
HETATM    1  C   UNL     1      -8.067  13.206  67.328  1.00  0.00    -0.146 C  
HETATM    2  N   UNL     1      -7.122  12.099  67.196  1.00  0.00    -0.142 NA 
HETATM    3  C   UNL     1      -6.487  11.763  68.486  1.00  0.00    -0.056 C  
HETATM    4  C   UNL     1      -7.410  11.089  69.526  1.00  0.00    -0.061 C  
HETATM    5  N   UNL     1      -8.128   9.935  68.963  1.00  0.00    -0.103 NA 
HETATM    6  C   UNL     1      -7.773  10.877  66.672  1.00  0.00    -0.146 C  
HETATM    7  C   UNL     1      -8.751  10.191  67.649  1.00  0.00    -0.121 C  
ENDROOT
BRANCH   5   8
HETATM    8  C   UNL     1      -8.058   8.637  69.458  1.00  0.00    -0.110 C  
HETATM    9  N   UNL     1      -7.217   7.771  68.970  1.00  0.00    -0.078 NA 
HETATM   10  C   UNL     1      -7.117   6.424  69.363  1.00  0.00    -0.073 A  
HETATM   11  H   UNL     1      -6.580   8.097  68.242  1.00  0.00     0.000 HD 
HETATM   12  C   UNL     1      -6.847   5.510  68.333  1.00  0.00    -0.059 A  
HETATM   13  C   UNL     1      -6.712   4.144  68.588  1.00  0.00    -0.046 A  
HETATM   14  C   UNL     1      -6.822   3.670  69.889  1.00  0.00    -0.034 A  
HETATM   15  C   UNL     1      -7.053   4.564  70.934  1.00  0.00    -0.037 A  
HETATM   16  C   UNL     1      -7.204   5.943  70.688  1.00  0.00    -0.083 A  
HETATM   17  N   UNL     1      -7.577   6.779  71.778  1.00  0.00    -0.094 NA 
HETATM   18  C   UNL     1      -8.695   7.529  71.605  1.00  0.00    -0.116 A  
HETATM   19  H   UNL     1      -7.034   6.814  72.641  1.00  0.00     0.000 HD 
HETATM   20  C   UNL     1      -9.015   8.326  70.522  1.00  0.00    -0.151 A  
HETATM   21  C   UNL     1     -10.392   8.743  70.600  1.00  0.00    -0.253 A  
HETATM   22  C   UNL     1     -11.008   8.358  71.771  1.00  0.00    -0.291 A  
HETATM   23  C   UNL     1     -12.411   8.591  72.206  1.00  0.00    -0.450 C  
HETATM   24  S   UNL     1      -9.937   7.501  72.783  1.00  0.00    -0.253 SA 
ENDBRANCH   5   8
TORSDOF 1
ENDMDL
MODEL      159
REMARK 921   NORMALIZED FREE ENERGY PREDICTED BY IDOCK:   -2.72 KCAL/MOL
REMARK 922        TOTAL FREE ENERGY PREDICTED BY IDOCK:   -3.28 KCAL/MOL
REMARK 923 INTER-LIGAND FREE ENERGY PREDICTED BY IDOCK:   -2.90 KCAL/MOL
REMARK 924 INTRA-LIGAND FREE ENERGY PREDICTED BY IDOCK:   -0.39 KCAL/MOL
REMARK 927      BINDING AFFINITY PREDICTED BY RF-SCORE:    0.00 PKD
ROOT
HETATM    1  C   UNL     1      -8.780   4.168  73.863  1.00  0.00    -0.093 C  
HETATM    2  N   UNL     1      -8.675   3.265  72.718  1.00  0.00    -0.084 NA 
HETATM    3  C   UNL     1      -9.873   3.327  71.859  1.00  0.00    -0.168 C  
HETATM    4  C   UNL     1     -10.042   4.630  71.045  1.00  0.00    -0.175 C  
HETATM    5  N   UNL     1      -8.824   4.975  70.297  1.00  0.00    -0.112 NA 
HETATM    6  C   UNL     1      -7.493   3.571  71.882  1.00  0.00    -0.056 C  
HETATM    7  C   UNL     1      -7.580   4.891  71.088  1.00  0.00    -0.082 C  
ENDROOT
BRANCH   5   8
HETATM    8  C   UNL     1      -8.759   5.139  68.916  1.00  0.00    -0.089 C  
HETATM    9  N   UNL     1      -8.423   4.155  68.134  1.00  0.00    -0.092 NA 
HETATM   10  C   UNL     1      -8.272   4.242  66.737  1.00  0.00    -0.101 A  
HETATM   11  H   UNL     1      -8.256   3.247  68.568  1.00  0.00     0.000 HD 
HETATM   12  C   UNL     1      -7.222   3.487  66.192  1.00  0.00    -0.068 A  
HETATM   13  C   UNL     1      -6.968   3.476  64.820  1.00  0.00    -0.056 A  
HETATM   14  C   UNL     1      -7.781   4.204  63.961  1.00  0.00    -0.083 A  
HETATM   15  C   UNL     1      -8.854   4.932  64.475  1.00  0.00    -0.129 A  
HETATM   16  C   UNL     1      -9.113   4.962  65.860  1.00  0.00    -0.147 A  
HETATM   17  N   UNL     1     -10.135   5.834  66.330  1.00  0.00    -0.357 NA 
HETATM   18  C   UNL     1      -9.767   6.734  67.278  1.00  0.00    -0.140 A  
HETATM   19  H   UNL     1     -11.089   5.787  65.975  1.00  0.00     0.000 HD 
HETATM   20  C   UNL     1      -9.055   6.491  68.437  1.00  0.00    -0.123 A  
HETATM   21  C   UNL     1      -8.644   7.734  69.038  1.00  0.00    -0.135 A  
HETATM   22  C   UNL     1      -9.154   8.841  68.395  1.00  0.00    -0.141 A  
HETATM   23  C   UNL     1      -8.948  10.280  68.709  1.00  0.00    -0.155 C  
HETATM   24  S   UNL     1     -10.132   8.393  67.072  1.00  0.00    -0.311 SA 
ENDBRANCH   5   8
TORSDOF 1
ENDMDL
MODEL      160
REMARK 921   NORMALIZED FREE ENERGY PREDICTED BY IDOCK:   -2.66 KCAL/MOL
REMARK 922        TOTAL FREE ENERGY PREDICTED BY IDOCK:   -3.23 KCAL/MOL
REMARK 923 INTER-LIGAND FREE ENERGY PREDICTED BY IDOCK:   -2.85 KCAL/MOL
REMARK 924 INTRA-LIGAND FREE ENERGY PREDICTED BY IDOCK:   -0.38 KCAL/MOL
REMARK 927      BINDING AFFINITY PREDICTED BY RF-SCORE:    0.00 PKD
ROOT
HETATM    1  C   UNL     1      -8.155   4.927  71.112  1.00  0.00    -0.101 C  
HETATM    2  N   UNL     1      -8.543   6.327  70.951  1.00  0.00    -0.134 NA 
HETATM    3  C   UNL     1      -7.410   7.163  70.508  1.00  0.00    -0.075 C  
HETATM    4  C   UNL     1      -6.945   6.936  69.051  1.00  0.00    -0.082 C  
HETATM    5  N   UNL     1      -8.064   6.997  68.099  1.00  0.00    -0.118 NA 
HETATM    6  C   UNL     1      -9.641   6.485  69.972  1.00  0.00    -0.159 C  
HETATM    7  C   UNL     1      -9.249   6.216  68.504  1.00  0.00    -0.115 C  
ENDROOT
BRANCH   5   8
HETATM    8  C   UNL     1      -8.146   7.878  67.024  1.00  0.00    -0.116 C  
HETATM    9  N   UNL     1      -7.385   7.740  65.977  1.00  0.00    -0.073 NA 
HETATM   10  C   UNL     1      -7.353   8.613  64.875  1.00  0.00    -0.090 A  
HETATM   11  H   UNL     1      -6.762   6.932  65.955  1.00  0.00     0.000 HD 
HETATM   12  C   UNL     1      -6.087   8.834  64.311  1.00  0.00    -0.071 A  
HETATM   13  C   UNL     1      -5.916   9.671  63.208  1.00  0.00    -0.101 A  
HETATM   14  C   UNL     1      -7.020  10.284  62.628  1.00  0.00    -0.139 A  
HETATM   15  C   UNL     1      -8.293  10.050  63.147  1.00  0.00    -0.169 A  
HETATM   16  C   UNL     1      -8.477   9.218  64.269  1.00  0.00    -0.190 A  
HETATM   17  N   UNL     1      -9.782   9.134  64.832  1.00  0.00    -0.310 NA 
HETATM   18  C   UNL     1      -9.889   9.440  66.150  1.00  0.00    -0.285 A  
HETATM   19  H   UNL     1     -10.592   8.859  64.276  1.00  0.00     0.000 HD 
HETATM   20  C   UNL     1      -9.108   8.969  67.189  1.00  0.00    -0.158 A  
HETATM   21  C   UNL     1      -9.366   9.726  68.387  1.00  0.00    -0.135 A  
HETATM   22  C   UNL     1     -10.394  10.633  68.244  1.00  0.00    -0.177 A  
HETATM   23  C   UNL     1     -10.939  11.591  69.243  1.00  0.00    -0.261 C  
HETATM   24  S   UNL     1     -11.057  10.576  66.674  1.00  0.00     0.207 SA 
ENDBRANCH   5   8
TORSDOF 1
ENDMDL
MODEL      161
REMARK 921   NORMALIZED FREE ENERGY PREDICTED BY IDOCK:   -2.66 KCAL/MOL
REMARK 922        TOTAL FREE ENERGY PREDICTED BY IDOCK:   -3.22 KCAL/MOL
REMARK 923 INTER-LIGAND FREE ENERGY PREDICTED BY IDOCK:   -2.81 KCAL/MOL
REMARK 924 INTRA-LIGAND FREE ENERGY PREDICTED BY IDOCK:   -0.41 KCAL/MOL
REMARK 927      BINDING AFFINITY PREDICTED BY RF-SCORE:    0.00 PKD
ROOT
HETATM    1  C   UNL     1     -13.400  10.434  70.358  1.00  0.00     0.198 C  
HETATM    2  N   UNL     1     -12.610  10.351  71.585  1.00  0.00    -0.419 NA 
HETATM    3  C   UNL     1     -12.786   9.052  72.264  1.00  0.00    -0.387 C  
HETATM    4  C   UNL     1     -12.145   7.838  71.555  1.00  0.00    -0.309 C  
HETATM    5  N   UNL     1     -10.735   8.080  71.211  1.00  0.00    -0.226 NA 
HETATM    6  C   UNL     1     -11.166  10.541  71.324  1.00  0.00     0.476 C  
HETATM    7  C   UNL     1     -10.482   9.383  70.567  1.00  0.00    -0.274 C  
ENDROOT
BRANCH   5   8
HETATM    8  C   UNL     1      -9.667   7.299  71.643  1.00  0.00    -0.154 C  
HETATM    9  N   UNL     1      -8.895   7.688  72.616  1.00  0.00    -0.137 NA 
HETATM   10  C   UNL     1      -7.760   6.998  73.079  1.00  0.00    -0.090 A  
HETATM   11  H   UNL     1      -9.133   8.565  73.081  1.00  0.00     0.000 HD 
HETATM   12  C   UNL     1      -6.675   7.801  73.460  1.00  0.00    -0.098 A  
HETATM   13  C   UNL     1      -5.491   7.245  73.947  1.00  0.00    -0.050 A  
HETATM   14  C   UNL     1      -5.380   5.867  74.084  1.00  0.00    -0.032 A  
HETATM   15  C   UNL     1      -6.459   5.050  73.746  1.00  0.00    -0.063 A  
HETATM   16  C   UNL     1      -7.655   5.599  73.242  1.00  0.00    -0.096 A  
HETATM   17  N   UNL     1      -8.662   4.701  72.786  1.00  0.00    -0.113 NA 
HETATM   18  C   UNL     1      -9.085   4.873  71.507  1.00  0.00    -0.139 A  
HETATM   19  H   UNL     1      -9.044   3.971  73.386  1.00  0.00     0.000 HD 
HETATM   20  C   UNL     1      -9.469   6.053  70.899  1.00  0.00    -0.188 A  
HETATM   21  C   UNL     1      -9.594   5.862  69.477  1.00  0.00    -0.174 A  
HETATM   22  C   UNL     1      -9.427   4.550  69.091  1.00  0.00    -0.164 A  
HETATM   23  C   UNL     1      -9.473   3.967  67.723  1.00  0.00    -0.230 C  
HETATM   24  S   UNL     1      -9.124   3.542  70.432  1.00  0.00    -0.143 SA 
ENDBRANCH   5   8
TORSDOF 1
ENDMDL
MODEL      162
REMARK 921   NORMALIZED FREE ENERGY PREDICTED BY IDOCK:   -2.65 KCAL/MOL
REMARK 922        TOTAL FREE ENERGY PREDICTED BY IDOCK:   -3.21 KCAL/MOL
REMARK 923 INTER-LIGAND FREE ENERGY PREDICTED BY IDOCK:   -2.80 KCAL/MOL
REMARK 924 INTRA-LIGAND FREE ENERGY PREDICTED BY IDOCK:   -0.41 KCAL/MOL
REMARK 927      BINDING AFFINITY PREDICTED BY RF-SCORE:    0.00 PKD
ROOT
HETATM    1  C   UNL     1     -12.467  13.056  68.362  1.00  0.00     0.479 C  
HETATM    2  N   UNL     1     -12.287  14.348  67.702  1.00  0.00    -0.149 NA 
HETATM    3  C   UNL     1     -11.946  15.413  68.665  1.00  0.00    -0.216 C  
HETATM    4  C   UNL     1     -10.530  15.326  69.279  1.00  0.00    -0.258 C  
HETATM    5  N   UNL     1      -9.490  15.176  68.250  1.00  0.00    -0.197 NA 
HETATM    6  C   UNL     1     -11.223  14.298  66.675  1.00  0.00    -0.334 C  
HETATM    7  C   UNL     1      -9.790  14.155  67.228  1.00  0.00    -0.238 C  
ENDROOT
BRANCH   5   8
HETATM    8  C   UNL     1      -8.420  16.049  68.069  1.00  0.00    -0.164 C  
HETATM    9  N   UNL     1      -8.373  16.857  67.050  1.00  0.00    -0.189 NA 
HETATM   10  C   UNL     1      -7.308  17.726  66.751  1.00  0.00    -0.206 A  
HETATM   11  H   UNL     1      -9.173  16.859  66.416  1.00  0.00     0.000 HD 
HETATM   12  C   UNL     1      -7.007  17.873  65.388  1.00  0.00     0.261 A  
HETATM   13  C   UNL     1      -5.981  18.713  64.954  1.00  0.00    -0.254 A  
HETATM   14  C   UNL     1      -5.249  19.445  65.880  1.00  0.00    -0.170 A  
HETATM   15  C   UNL     1      -5.554  19.345  67.238  1.00  0.00    -0.171 A  
HETATM   16  C   UNL     1      -6.579  18.490  67.689  1.00  0.00    -0.205 A  
HETATM   17  N   UNL     1      -6.744  18.329  69.095  1.00  0.00    -0.262 NA 
HETATM   18  C   UNL     1      -6.690  17.056  69.563  1.00  0.00    -0.156 A  
HETATM   19  H   UNL     1      -6.894  19.125  69.714  1.00  0.00     0.000 HD 
HETATM   20  C   UNL     1      -7.362  15.951  69.077  1.00  0.00    -0.185 A  
HETATM   21  C   UNL     1      -6.840  14.748  69.673  1.00  0.00    -0.173 A  
HETATM   22  C   UNL     1      -5.905  14.993  70.655  1.00  0.00    -0.100 A  
HETATM   23  C   UNL     1      -5.143  14.019  71.481  1.00  0.00    -0.156 C  
HETATM   24  S   UNL     1      -5.652  16.666  70.867  1.00  0.00     0.242 SA 
ENDBRANCH   5   8
TORSDOF 1
ENDMDL
MODEL      163
REMARK 921   NORMALIZED FREE ENERGY PREDICTED BY IDOCK:   -2.64 KCAL/MOL
REMARK 922        TOTAL FREE ENERGY PREDICTED BY IDOCK:   -3.20 KCAL/MOL
REMARK 923 INTER-LIGAND FREE ENERGY PREDICTED BY IDOCK:   -3.39 KCAL/MOL
REMARK 924 INTRA-LIGAND FREE ENERGY PREDICTED BY IDOCK:    0.19 KCAL/MOL
REMARK 927      BINDING AFFINITY PREDICTED BY RF-SCORE:    0.00 PKD
ROOT
HETATM    1  C   UNL     1      -9.693  20.775  66.902  1.00  0.00    -0.178 C  
HETATM    2  N   UNL     1     -10.879  19.928  67.012  1.00  0.00    -0.362 NA 
HETATM    3  C   UNL     1     -11.094  19.123  65.794  1.00  0.00     0.209 C  
HETATM    4  C   UNL     1     -10.078  17.982  65.562  1.00  0.00     0.352 C  
HETATM    5  N   UNL     1      -9.925  17.129  66.751  1.00  0.00    -0.279 NA 
HETATM    6  C   UNL     1     -10.789  19.003  68.164  1.00  0.00     0.026 C  
HETATM    7  C   UNL     1      -9.749  17.873  68.013  1.00  0.00    -0.303 C  
ENDROOT
BRANCH   5   8
HETATM    8  C   UNL     1     -10.155  15.756  66.779  1.00  0.00    -0.271 C  
HETATM    9  N   UNL     1      -9.736  14.981  65.821  1.00  0.00    -0.358 NA 
HETATM   10  C   UNL     1      -9.973  13.597  65.732  1.00  0.00    -0.261 A  
HETATM   11  H   UNL     1      -9.191  15.413  65.073  1.00  0.00     0.000 HD 
HETATM   12  C   UNL     1     -10.209  13.103  64.440  1.00  0.00    -0.319 A  
HETATM   13  C   UNL     1     -10.449  11.748  64.210  1.00  0.00    -0.373 A  
HETATM   14  C   UNL     1     -10.431  10.853  65.273  1.00  0.00    -0.299 A  
HETATM   15  C   UNL     1     -10.162  11.315  66.561  1.00  0.00    -0.269 A  
HETATM   16  C   UNL     1      -9.932  12.683  66.807  1.00  0.00    -0.234 A  
HETATM   17  N   UNL     1      -9.802  13.105  68.161  1.00  0.00    -0.224 NA 
HETATM   18  C   UNL     1     -10.650  14.085  68.568  1.00  0.00    -0.254 A  
HETATM   19  H   UNL     1      -9.112  12.695  68.790  1.00  0.00     0.000 HD 
HETATM   20  C   UNL     1     -10.924  15.279  67.930  1.00  0.00    -0.306 A  
HETATM   21  C   UNL     1     -12.063  15.919  68.538  1.00  0.00     0.124 A  
HETATM   22  C   UNL     1     -12.516  15.262  69.661  1.00  0.00    -0.139 A  
HETATM   23  C   UNL     1     -13.662  15.606  70.544  1.00  0.00     0.499 C  
HETATM   24  S   UNL     1     -11.575  13.880  69.993  1.00  0.00    -0.165 SA 
ENDBRANCH   5   8
TORSDOF 1
ENDMDL
MODEL      164
REMARK 921   NORMALIZED FREE ENERGY PREDICTED BY IDOCK:   -2.63 KCAL/MOL
REMARK 922        TOTAL FREE ENERGY PREDICTED BY IDOCK:   -3.19 KCAL/MOL
REMARK 923 INTER-LIGAND FREE ENERGY PREDICTED BY IDOCK:   -3.05 KCAL/MOL
REMARK 924 INTRA-LIGAND FREE ENERGY PREDICTED BY IDOCK:   -0.14 KCAL/MOL
REMARK 927      BINDING AFFINITY PREDICTED BY RF-SCORE:    0.00 PKD
ROOT
HETATM    1  C   UNL     1     -12.398  13.719  70.120  1.00  0.00    -0.323 C  
HETATM    2  N   UNL     1     -12.407  13.216  68.748  1.00  0.00    -0.023 NA 
HETATM    3  C   UNL     1     -11.358  13.850  67.924  1.00  0.00    -0.292 C  
HETATM    4  C   UNL     1      -9.908  13.435  68.259  1.00  0.00    -0.235 C  
HETATM    5  N   UNL     1      -9.748  11.973  68.303  1.00  0.00    -0.202 NA 
HETATM    6  C   UNL     1     -12.208  11.750  68.697  1.00  0.00     0.092 C  
HETATM    7  C   UNL     1     -10.791  11.272  69.077  1.00  0.00    -0.222 C  
ENDROOT
BRANCH   5   8
HETATM    8  C   UNL     1      -8.859  11.247  67.516  1.00  0.00    -0.140 C  
HETATM    9  N   UNL     1      -9.046  11.113  66.235  1.00  0.00    -0.188 NA 
HETATM   10  C   UNL     1      -8.240  10.349  65.371  1.00  0.00    -0.159 A  
HETATM   11  H   UNL     1      -9.842  11.601  65.824  1.00  0.00     0.000 HD 
HETATM   12  C   UNL     1      -8.919   9.662  64.354  1.00  0.00    -0.276 A  
HETATM   13  C   UNL     1      -8.238   8.876  63.423  1.00  0.00    -0.181 A  
HETATM   14  C   UNL     1      -6.853   8.784  63.479  1.00  0.00    -0.089 A  
HETATM   15  C   UNL     1      -6.152   9.488  64.458  1.00  0.00    -0.082 A  
HETATM   16  C   UNL     1      -6.830  10.274  65.411  1.00  0.00    -0.140 A  
HETATM   17  N   UNL     1      -6.066  10.852  66.465  1.00  0.00    -0.108 NA 
HETATM   18  C   UNL     1      -6.468  10.558  67.728  1.00  0.00    -0.060 A  
HETATM   19  H   UNL     1      -5.263  11.453  66.282  1.00  0.00     0.000 HD 
HETATM   20  C   UNL     1      -7.748  10.629  68.242  1.00  0.00    -0.107 A  
HETATM   21  C   UNL     1      -7.804   9.988  69.531  1.00  0.00    -0.155 A  
HETATM   22  C   UNL     1      -6.568   9.579  69.985  1.00  0.00    -0.065 A  
HETATM   23  C   UNL     1      -6.225   8.879  71.252  1.00  0.00    -0.060 C  
HETATM   24  S   UNL     1      -5.338   9.966  68.870  1.00  0.00    -0.035 SA 
ENDBRANCH   5   8
TORSDOF 1
ENDMDL
MODEL      165
REMARK 921   NORMALIZED FREE ENERGY PREDICTED BY IDOCK:   -2.60 KCAL/MOL
REMARK 922        TOTAL FREE ENERGY PREDICTED BY IDOCK:   -3.16 KCAL/MOL
REMARK 923 INTER-LIGAND FREE ENERGY PREDICTED BY IDOCK:   -3.77 KCAL/MOL
REMARK 924 INTRA-LIGAND FREE ENERGY PREDICTED BY IDOCK:    0.61 KCAL/MOL
REMARK 927      BINDING AFFINITY PREDICTED BY RF-SCORE:    0.00 PKD
ROOT
HETATM    1  C   UNL     1     -11.433  11.334  68.579  1.00  0.00    -0.306 C  
HETATM    2  N   UNL     1     -10.100  10.742  68.679  1.00  0.00    -0.176 NA 
HETATM    3  C   UNL     1     -10.005   9.791  69.803  1.00  0.00    -0.236 C  
HETATM    4  C   UNL     1     -10.778   8.465  69.622  1.00  0.00    -0.198 C  
HETATM    5  N   UNL     1     -10.466   7.815  68.339  1.00  0.00    -0.192 NA 
HETATM    6  C   UNL     1      -9.721  10.028  67.439  1.00  0.00    -0.161 C  
HETATM    7  C   UNL     1     -10.500   8.722  67.175  1.00  0.00    -0.283 C  
ENDROOT
BRANCH   5   8
HETATM    8  C   UNL     1      -9.947   6.531  68.204  1.00  0.00    -0.139 C  
HETATM    9  N   UNL     1     -10.000   5.675  69.183  1.00  0.00    -0.168 NA 
HETATM   10  C   UNL     1      -9.450   4.380  69.162  1.00  0.00    -0.170 A  
HETATM   11  H   UNL     1     -10.480   5.967  70.035  1.00  0.00     0.000 HD 
HETATM   12  C   UNL     1      -8.876   3.944  70.366  1.00  0.00    -0.140 A  
HETATM   13  C   UNL     1      -8.304   2.676  70.484  1.00  0.00    -0.080 A  
HETATM   14  C   UNL     1      -8.319   1.808  69.400  1.00  0.00    -0.069 A  
HETATM   15  C   UNL     1      -8.916   2.206  68.204  1.00  0.00    -0.187 A  
HETATM   16  C   UNL     1      -9.485   3.487  68.068  1.00  0.00    -0.160 A  
HETATM   17  N   UNL     1      -9.951   3.878  66.781  1.00  0.00    -0.350 NA 
HETATM   18  C   UNL     1      -9.432   5.027  66.277  1.00  0.00    -0.157 A  
HETATM   19  H   UNL     1     -10.638   3.327  66.266  1.00  0.00     0.000 HD 
HETATM   20  C   UNL     1      -9.316   6.248  66.913  1.00  0.00    -0.148 A  
HETATM   21  C   UNL     1      -8.480   7.133  66.144  1.00  0.00    -0.143 A  
HETATM   22  C   UNL     1      -8.107   6.604  64.927  1.00  0.00    -0.115 A  
HETATM   23  C   UNL     1      -7.248   7.205  63.872  1.00  0.00    -0.077 C  
HETATM   24  S   UNL     1      -8.763   5.046  64.702  1.00  0.00    -0.111 SA 
ENDBRANCH   5   8
TORSDOF 1
ENDMDL
MODEL      166
REMARK 921   NORMALIZED FREE ENERGY PREDICTED BY IDOCK:   -2.57 KCAL/MOL
REMARK 922        TOTAL FREE ENERGY PREDICTED BY IDOCK:   -3.12 KCAL/MOL
REMARK 923 INTER-LIGAND FREE ENERGY PREDICTED BY IDOCK:   -2.80 KCAL/MOL
REMARK 924 INTRA-LIGAND FREE ENERGY PREDICTED BY IDOCK:   -0.32 KCAL/MOL
REMARK 927      BINDING AFFINITY PREDICTED BY RF-SCORE:    0.00 PKD
ROOT
HETATM    1  C   UNL     1      -9.281   9.846  62.359  1.00  0.00    -0.284 C  
HETATM    2  N   UNL     1      -8.973  10.906  63.317  1.00  0.00    -0.209 NA 
HETATM    3  C   UNL     1      -9.987  10.992  64.386  1.00  0.00    -0.312 C  
HETATM    4  C   UNL     1      -9.985   9.826  65.401  1.00  0.00    -0.232 C  
HETATM    5  N   UNL     1      -8.643   9.575  65.950  1.00  0.00    -0.128 NA 
HETATM    6  C   UNL     1      -7.651  10.708  63.952  1.00  0.00     0.184 C  
HETATM    7  C   UNL     1      -7.572   9.521  64.935  1.00  0.00    -0.111 C  
ENDROOT
BRANCH   5   8
HETATM    8  C   UNL     1      -8.318   9.615  67.303  1.00  0.00    -0.114 C  
HETATM    9  N   UNL     1      -8.372   8.545  68.042  1.00  0.00    -0.126 NA 
HETATM   10  C   UNL     1      -8.123   8.501  69.426  1.00  0.00    -0.112 A  
HETATM   11  H   UNL     1      -8.615   7.668  67.581  1.00  0.00     0.000 HD 
HETATM   12  C   UNL     1      -8.938   7.629  70.163  1.00  0.00    -0.146 A  
HETATM   13  C   UNL     1      -8.790   7.482  71.543  1.00  0.00    -0.133 A  
HETATM   14  C   UNL     1      -7.799   8.190  72.210  1.00  0.00    -0.167 A  
HETATM   15  C   UNL     1      -6.951   9.035  71.494  1.00  0.00    -0.045 A  
HETATM   16  C   UNL     1      -7.100   9.202  70.103  1.00  0.00    -0.059 A  
HETATM   17  N   UNL     1      -6.294  10.183  69.458  1.00  0.00    -0.047 NA 
HETATM   18  C   UNL     1      -6.957  11.131  68.747  1.00  0.00    -0.088 A  
HETATM   19  H   UNL     1      -5.277  10.174  69.525  1.00  0.00     0.000 HD 
HETATM   20  C   UNL     1      -7.959  10.938  67.815  1.00  0.00    -0.111 A  
HETATM   21  C   UNL     1      -8.580  12.195  67.484  1.00  0.00    -0.171 A  
HETATM   22  C   UNL     1      -7.957  13.277  68.069  1.00  0.00    -0.152 A  
HETATM   23  C   UNL     1      -8.309  14.719  67.974  1.00  0.00    -0.143 C  
HETATM   24  S   UNL     1      -6.623  12.789  69.013  1.00  0.00    -0.095 SA 
ENDBRANCH   5   8
TORSDOF 1
ENDMDL
MODEL      167
REMARK 921   NORMALIZED FREE ENERGY PREDICTED BY IDOCK:   -2.53 KCAL/MOL
REMARK 922        TOTAL FREE ENERGY PREDICTED BY IDOCK:   -3.08 KCAL/MOL
REMARK 923 INTER-LIGAND FREE ENERGY PREDICTED BY IDOCK:   -2.66 KCAL/MOL
REMARK 924 INTRA-LIGAND FREE ENERGY PREDICTED BY IDOCK:   -0.42 KCAL/MOL
REMARK 927      BINDING AFFINITY PREDICTED BY RF-SCORE:    0.00 PKD
ROOT
HETATM    1  C   UNL     1     -11.232   8.030  72.362  1.00  0.00    -0.369 C  
HETATM    2  N   UNL     1     -10.844   6.666  72.007  1.00  0.00    -0.227 NA 
HETATM    3  C   UNL     1     -11.407   6.256  70.706  1.00  0.00    -0.332 C  
HETATM    4  C   UNL     1     -10.792   6.945  69.468  1.00  0.00    -0.252 C  
HETATM    5  N   UNL     1      -9.322   6.870  69.467  1.00  0.00    -0.148 NA 
HETATM    6  C   UNL     1      -9.374   6.511  71.942  1.00  0.00    -0.148 C  
HETATM    7  C   UNL     1      -8.695   7.226  70.755  1.00  0.00    -0.146 C  
ENDROOT
BRANCH   5   8
HETATM    8  C   UNL     1      -8.557   6.295  68.456  1.00  0.00    -0.114 C  
HETATM    9  N   UNL     1      -8.350   6.914  67.330  1.00  0.00    -0.121 NA 
HETATM   10  C   UNL     1      -7.645   6.390  66.232  1.00  0.00    -0.090 A  
HETATM   11  H   UNL     1      -8.731   7.856  67.237  1.00  0.00     0.000 HD 
HETATM   12  C   UNL     1      -8.157   6.719  64.968  1.00  0.00    -0.126 A  
HETATM   13  C   UNL     1      -7.547   6.271  63.795  1.00  0.00    -0.091 A  
HETATM   14  C   UNL     1      -6.392   5.503  63.866  1.00  0.00    -0.022 A  
HETATM   15  C   UNL     1      -5.843   5.195  65.111  1.00  0.00    -0.017 A  
HETATM   16  C   UNL     1      -6.457   5.629  66.302  1.00  0.00    -0.044 A  
HETATM   17  N   UNL     1      -5.924   5.162  67.537  1.00  0.00    -0.022 NA 
HETATM   18  C   UNL     1      -6.794   4.528  68.365  1.00  0.00    -0.051 A  
HETATM   19  H   UNL     1      -4.944   5.296  67.786  1.00  0.00     0.000 HD 
HETATM   20  C   UNL     1      -8.051   4.953  68.748  1.00  0.00    -0.084 A  
HETATM   21  C   UNL     1      -8.755   3.886  69.415  1.00  0.00    -0.124 A  
HETATM   22  C   UNL     1      -7.976   2.767  69.615  1.00  0.00    -0.041 A  
HETATM   23  C   UNL     1      -8.347   1.475  70.252  1.00  0.00    -0.063 C  
HETATM   24  S   UNL     1      -6.398   2.992  69.009  1.00  0.00    -0.029 SA 
ENDBRANCH   5   8
TORSDOF 1
ENDMDL
MODEL      168
REMARK 921   NORMALIZED FREE ENERGY PREDICTED BY IDOCK:   -2.49 KCAL/MOL
REMARK 922        TOTAL FREE ENERGY PREDICTED BY IDOCK:   -3.04 KCAL/MOL
REMARK 923 INTER-LIGAND FREE ENERGY PREDICTED BY IDOCK:   -2.65 KCAL/MOL
REMARK 924 INTRA-LIGAND FREE ENERGY PREDICTED BY IDOCK:   -0.39 KCAL/MOL
REMARK 927      BINDING AFFINITY PREDICTED BY RF-SCORE:    0.00 PKD
ROOT
HETATM    1  C   UNL     1      -7.344   9.055  65.995  1.00  0.00    -0.094 C  
HETATM    2  N   UNL     1      -8.519   8.724  66.799  1.00  0.00    -0.110 NA 
HETATM    3  C   UNL     1      -8.735   7.266  66.883  1.00  0.00    -0.126 C  
HETATM    4  C   UNL     1      -7.707   6.489  67.736  1.00  0.00    -0.107 C  
HETATM    5  N   UNL     1      -7.534   7.086  69.070  1.00  0.00    -0.093 NA 
HETATM    6  C   UNL     1      -8.409   9.253  68.177  1.00  0.00    -0.120 C  
HETATM    7  C   UNL     1      -7.357   8.551  69.062  1.00  0.00    -0.081 C  
ENDROOT
BRANCH   5   8
HETATM    8  C   UNL     1      -7.747   6.418  70.273  1.00  0.00    -0.098 C  
HETATM    9  N   UNL     1      -6.918   5.510  70.697  1.00  0.00    -0.055 NA 
HETATM   10  C   UNL     1      -7.082   4.741  71.865  1.00  0.00    -0.062 A  
HETATM   11  H   UNL     1      -6.081   5.341  70.138  1.00  0.00     0.000 HD 
HETATM   12  C   UNL     1      -6.666   3.404  71.775  1.00  0.00    -0.022 A  
HETATM   13  C   UNL     1      -6.764   2.535  72.863  1.00  0.00    -0.022 A  
HETATM   14  C   UNL     1      -7.259   2.999  74.075  1.00  0.00    -0.043 A  
HETATM   15  C   UNL     1      -7.644   4.334  74.199  1.00  0.00    -0.080 A  
HETATM   16  C   UNL     1      -7.562   5.217  73.105  1.00  0.00    -0.096 A  
HETATM   17  N   UNL     1      -8.101   6.526  73.260  1.00  0.00    -0.109 NA 
HETATM   18  C   UNL     1      -9.041   6.900  72.355  1.00  0.00    -0.133 A  
HETATM   19  H   UNL     1      -7.798   7.148  74.010  1.00  0.00     0.000 HD 
HETATM   20  C   UNL     1      -8.975   6.789  70.979  1.00  0.00    -0.145 A  
HETATM   21  C   UNL     1     -10.267   7.050  70.396  1.00  0.00    -0.209 A  
HETATM   22  C   UNL     1     -11.204   7.459  71.320  1.00  0.00    -0.252 A  
HETATM   23  C   UNL     1     -12.634   7.807  71.106  1.00  0.00    -0.221 C  
HETATM   24  S   UNL     1     -10.538   7.537  72.887  1.00  0.00    -0.370 SA 
ENDBRANCH   5   8
TORSDOF 1
ENDMDL
MODEL      169
REMARK 921   NORMALIZED FREE ENERGY PREDICTED BY IDOCK:   -2.44 KCAL/MOL
REMARK 922        TOTAL FREE ENERGY PREDICTED BY IDOCK:   -2.99 KCAL/MOL
REMARK 923 INTER-LIGAND FREE ENERGY PREDICTED BY IDOCK:   -3.22 KCAL/MOL
REMARK 924 INTRA-LIGAND FREE ENERGY PREDICTED BY IDOCK:    0.22 KCAL/MOL
REMARK 927      BINDING AFFINITY PREDICTED BY RF-SCORE:    0.00 PKD
ROOT
HETATM    1  C   UNL     1      -8.991  11.277  66.497  1.00  0.00    -0.184 C  
HETATM    2  N   UNL     1      -9.307   9.870  66.257  1.00  0.00    -0.166 NA 
HETATM    3  C   UNL     1      -8.162   8.990  66.562  1.00  0.00    -0.114 C  
HETATM    4  C   UNL     1      -7.815   8.844  68.061  1.00  0.00    -0.102 C  
HETATM    5  N   UNL     1      -8.994   8.493  68.868  1.00  0.00    -0.145 NA 
HETATM    6  C   UNL     1     -10.461   9.419  67.067  1.00  0.00    -0.231 C  
HETATM    7  C   UNL     1     -10.191   9.307  68.582  1.00  0.00    -0.199 C  
ENDROOT
BRANCH   5   8
HETATM    8  C   UNL     1      -9.100   7.358  69.667  1.00  0.00    -0.140 C  
HETATM    9  N   UNL     1      -9.384   7.447  70.934  1.00  0.00    -0.155 NA 
HETATM   10  C   UNL     1      -9.451   6.365  71.830  1.00  0.00    -0.152 A  
HETATM   11  H   UNL     1      -9.572   8.378  71.307  1.00  0.00     0.000 HD 
HETATM   12  C   UNL     1      -8.964   6.615  73.122  1.00  0.00    -0.140 A  
HETATM   13  C   UNL     1      -8.982   5.630  74.112  1.00  0.00    -0.122 A  
HETATM   14  C   UNL     1      -9.514   4.378  73.831  1.00  0.00    -0.128 A  
HETATM   15  C   UNL     1     -10.038   4.118  72.564  1.00  0.00    -0.233 A  
HETATM   16  C   UNL     1     -10.014   5.099  71.554  1.00  0.00    -0.187 A  
HETATM   17  N   UNL     1     -10.436   4.723  70.247  1.00  0.00    -0.112 NA 
HETATM   18  C   UNL     1      -9.546   4.936  69.244  1.00  0.00    -0.171 A  
HETATM   19  H   UNL     1     -11.354   4.316  70.074  1.00  0.00     0.000 HD 
HETATM   20  C   UNL     1      -8.833   6.091  68.983  1.00  0.00    -0.121 A  
HETATM   21  C   UNL     1      -7.809   5.833  68.003  1.00  0.00    -0.100 A  
HETATM   22  C   UNL     1      -7.868   4.558  67.482  1.00  0.00    -0.089 A  
HETATM   23  C   UNL     1      -6.985   3.924  66.467  1.00  0.00    -0.059 C  
HETATM   24  S   UNL     1      -9.153   3.669  68.163  1.00  0.00    -0.165 SA 
ENDBRANCH   5   8
TORSDOF 1
ENDMDL
MODEL      170
REMARK 921   NORMALIZED FREE ENERGY PREDICTED BY IDOCK:   -2.44 KCAL/MOL
REMARK 922        TOTAL FREE ENERGY PREDICTED BY IDOCK:   -2.99 KCAL/MOL
REMARK 923 INTER-LIGAND FREE ENERGY PREDICTED BY IDOCK:   -2.67 KCAL/MOL
REMARK 924 INTRA-LIGAND FREE ENERGY PREDICTED BY IDOCK:   -0.32 KCAL/MOL
REMARK 927      BINDING AFFINITY PREDICTED BY RF-SCORE:    0.00 PKD
ROOT
HETATM    1  C   UNL     1     -10.877   5.203  65.952  1.00  0.00    -0.009 C  
HETATM    2  N   UNL     1      -9.914   4.751  66.954  1.00  0.00    -0.207 NA 
HETATM    3  C   UNL     1      -8.636   5.482  66.858  1.00  0.00    -0.110 C  
HETATM    4  C   UNL     1      -8.680   6.961  67.305  1.00  0.00    -0.119 C  
HETATM    5  N   UNL     1      -9.292   7.117  68.634  1.00  0.00    -0.135 NA 
HETATM    6  C   UNL     1     -10.434   4.913  68.330  1.00  0.00     0.130 C  
HETATM    7  C   UNL     1     -10.554   6.374  68.813  1.00  0.00    -0.251 C  
ENDROOT
BRANCH   5   8
HETATM    8  C   UNL     1      -8.667   7.701  69.732  1.00  0.00    -0.140 C  
HETATM    9  N   UNL     1      -8.564   7.069  70.866  1.00  0.00    -0.138 NA 
HETATM   10  C   UNL     1      -8.006   7.598  72.044  1.00  0.00    -0.100 A  
HETATM   11  H   UNL     1      -8.916   6.112  70.902  1.00  0.00     0.000 HD 
HETATM   12  C   UNL     1      -8.643   7.227  73.238  1.00  0.00    -0.168 A  
HETATM   13  C   UNL     1      -8.186   7.674  74.478  1.00  0.00    -0.258 A  
HETATM   14  C   UNL     1      -7.060   8.485  74.548  1.00  0.00    -0.214 A  
HETATM   15  C   UNL     1      -6.388   8.837  73.378  1.00  0.00    -0.026 A  
HETATM   16  C   UNL     1      -6.848   8.403  72.119  1.00  0.00    -0.086 A  
HETATM   17  N   UNL     1      -6.198   8.912  70.959  1.00  0.00    -0.046 NA 
HETATM   18  C   UNL     1      -6.994   9.529  70.047  1.00  0.00    -0.081 A  
HETATM   19  H   UNL     1      -5.193   8.819  70.819  1.00  0.00     0.000 HD 
HETATM   20  C   UNL     1      -8.184   9.066  69.519  1.00  0.00    -0.114 A  
HETATM   21  C   UNL     1      -8.849  10.118  68.793  1.00  0.00    -0.146 A  
HETATM   22  C   UNL     1      -8.096  11.269  68.698  1.00  0.00    -0.145 A  
HETATM   23  C   UNL     1      -8.443  12.559  68.043  1.00  0.00    -0.173 C  
HETATM   24  S   UNL     1      -6.589  11.090  69.474  1.00  0.00    -0.131 SA 
ENDBRANCH   5   8
TORSDOF 1
ENDMDL
MODEL      171
REMARK 921   NORMALIZED FREE ENERGY PREDICTED BY IDOCK:   -2.43 KCAL/MOL
REMARK 922        TOTAL FREE ENERGY PREDICTED BY IDOCK:   -2.98 KCAL/MOL
REMARK 923 INTER-LIGAND FREE ENERGY PREDICTED BY IDOCK:   -2.57 KCAL/MOL
REMARK 924 INTRA-LIGAND FREE ENERGY PREDICTED BY IDOCK:   -0.40 KCAL/MOL
REMARK 927      BINDING AFFINITY PREDICTED BY RF-SCORE:    0.00 PKD
ROOT
HETATM    1  C   UNL     1      -8.868   8.207  71.891  1.00  0.00    -0.159 C  
HETATM    2  N   UNL     1      -9.432   7.146  71.059  1.00  0.00    -0.159 NA 
HETATM    3  C   UNL     1     -10.128   7.688  69.875  1.00  0.00    -0.198 C  
HETATM    4  C   UNL     1      -9.216   8.302  68.790  1.00  0.00    -0.143 C  
HETATM    5  N   UNL     1      -8.127   7.392  68.404  1.00  0.00    -0.123 NA 
HETATM    6  C   UNL     1      -8.392   6.203  70.589  1.00  0.00    -0.126 C  
HETATM    7  C   UNL     1      -7.415   6.780  69.543  1.00  0.00    -0.093 C  
ENDROOT
BRANCH   5   8
HETATM    8  C   UNL     1      -7.899   6.928  67.112  1.00  0.00    -0.109 C  
HETATM    9  N   UNL     1      -8.120   5.687  66.790  1.00  0.00    -0.102 NA 
HETATM   10  C   UNL     1      -7.862   5.114  65.531  1.00  0.00    -0.092 A  
HETATM   11  H   UNL     1      -8.512   5.079  67.510  1.00  0.00     0.000 HD 
HETATM   12  C   UNL     1      -7.378   3.798  65.550  1.00  0.00    -0.072 A  
HETATM   13  C   UNL     1      -7.090   3.109  64.370  1.00  0.00    -0.057 A  
HETATM   14  C   UNL     1      -7.308   3.722  63.143  1.00  0.00    -0.050 A  
HETATM   15  C   UNL     1      -7.825   5.017  63.098  1.00  0.00    -0.078 A  
HETATM   16  C   UNL     1      -8.106   5.726  64.282  1.00  0.00    -0.127 A  
HETATM   17  N   UNL     1      -8.498   7.091  64.166  1.00  0.00    -0.341 NA 
HETATM   18  C   UNL     1      -7.750   7.990  64.856  1.00  0.00    -0.118 A  
HETATM   19  H   UNL     1      -9.294   7.376  63.597  1.00  0.00     0.000 HD 
HETATM   20  C   UNL     1      -7.365   7.924  66.181  1.00  0.00    -0.074 A  
HETATM   21  C   UNL     1      -6.369   8.927  66.460  1.00  0.00    -0.062 A  
HETATM   22  C   UNL     1      -6.139   9.772  65.395  1.00  0.00    -0.074 A  
HETATM   23  C   UNL     1      -5.187  10.911  65.297  1.00  0.00    -0.109 C  
HETATM   24  S   UNL     1      -7.118   9.368  64.060  1.00  0.00    -0.106 SA 
ENDBRANCH   5   8
TORSDOF 1
ENDMDL
MODEL      172
REMARK 921   NORMALIZED FREE ENERGY PREDICTED BY IDOCK:   -2.33 KCAL/MOL
REMARK 922        TOTAL FREE ENERGY PREDICTED BY IDOCK:   -2.88 KCAL/MOL
REMARK 923 INTER-LIGAND FREE ENERGY PREDICTED BY IDOCK:   -2.70 KCAL/MOL
REMARK 924 INTRA-LIGAND FREE ENERGY PREDICTED BY IDOCK:   -0.17 KCAL/MOL
REMARK 927      BINDING AFFINITY PREDICTED BY RF-SCORE:    0.00 PKD
ROOT
HETATM    1  C   UNL     1      -6.542   8.405  73.940  1.00  0.00    -0.119 C  
HETATM    2  N   UNL     1      -6.707   8.613  72.502  1.00  0.00    -0.227 NA 
HETATM    3  C   UNL     1      -5.831   7.722  71.716  1.00  0.00    -0.035 C  
HETATM    4  C   UNL     1      -6.221   6.226  71.727  1.00  0.00    -0.042 C  
HETATM    5  N   UNL     1      -7.639   6.022  71.392  1.00  0.00    -0.097 NA 
HETATM    6  C   UNL     1      -8.103   8.385  72.069  1.00  0.00    -0.141 C  
HETATM    7  C   UNL     1      -8.568   6.914  72.113  1.00  0.00    -0.116 C  
ENDROOT
BRANCH   5   8
HETATM    8  C   UNL     1      -8.101   5.247  70.332  1.00  0.00    -0.096 C  
HETATM    9  N   UNL     1      -7.985   5.650  69.100  1.00  0.00    -0.095 NA 
HETATM   10  C   UNL     1      -8.475   4.967  67.972  1.00  0.00    -0.103 A  
HETATM   11  H   UNL     1      -7.499   6.533  68.939  1.00  0.00     0.000 HD 
HETATM   12  C   UNL     1      -8.999   5.775  66.952  1.00  0.00    -0.114 A  
HETATM   13  C   UNL     1      -9.509   5.226  65.775  1.00  0.00    -0.132 A  
HETATM   14  C   UNL     1      -9.480   3.850  65.586  1.00  0.00    -0.176 A  
HETATM   15  C   UNL     1      -8.930   3.028  66.569  1.00  0.00    -0.164 A  
HETATM   16  C   UNL     1      -8.424   3.570  67.767  1.00  0.00    -0.095 A  
HETATM   17  N   UNL     1      -8.007   2.666  68.785  1.00  0.00    -0.053 NA 
HETATM   18  C   UNL     1      -8.591   2.820  70.001  1.00  0.00    -0.058 A  
HETATM   19  H   UNL     1      -7.308   1.944  68.611  1.00  0.00     0.000 HD 
HETATM   20  C   UNL     1      -8.748   3.992  70.718  1.00  0.00    -0.116 A  
HETATM   21  C   UNL     1      -9.642   3.781  71.827  1.00  0.00    -0.226 A  
HETATM   22  C   UNL     1     -10.018   2.463  71.976  1.00  0.00    -0.161 A  
HETATM   23  C   UNL     1     -10.929   1.862  72.986  1.00  0.00    -0.236 C  
HETATM   24  S   UNL     1      -9.297   1.474  70.789  1.00  0.00    -0.103 SA 
ENDBRANCH   5   8
TORSDOF 1
ENDMDL
MODEL      173
REMARK 921   NORMALIZED FREE ENERGY PREDICTED BY IDOCK:   -2.33 KCAL/MOL
REMARK 922        TOTAL FREE ENERGY PREDICTED BY IDOCK:   -2.87 KCAL/MOL
REMARK 923 INTER-LIGAND FREE ENERGY PREDICTED BY IDOCK:   -3.32 KCAL/MOL
REMARK 924 INTRA-LIGAND FREE ENERGY PREDICTED BY IDOCK:    0.44 KCAL/MOL
REMARK 927      BINDING AFFINITY PREDICTED BY RF-SCORE:    0.00 PKD
ROOT
HETATM    1  C   UNL     1     -13.247  10.217  70.682  1.00  0.00    -0.138 C  
HETATM    2  N   UNL     1     -11.919  10.016  71.259  1.00  0.00    -0.376 NA 
HETATM    3  C   UNL     1     -11.849   8.778  72.060  1.00  0.00    -0.372 C  
HETATM    4  C   UNL     1     -11.896   7.460  71.254  1.00  0.00    -0.301 C  
HETATM    5  N   UNL     1     -10.915   7.449  70.157  1.00  0.00    -0.256 NA 
HETATM    6  C   UNL     1     -10.870   9.949  70.217  1.00  0.00    -0.310 C  
HETATM    7  C   UNL     1     -10.902   8.679  69.341  1.00  0.00    -0.095 C  
ENDROOT
BRANCH   5   8
HETATM    8  C   UNL     1      -9.908   6.501  70.002  1.00  0.00    -0.165 C  
HETATM    9  N   UNL     1     -10.058   5.280  70.428  1.00  0.00    -0.234 NA 
HETATM   10  C   UNL     1      -9.076   4.273  70.372  1.00  0.00    -0.106 A  
HETATM   11  H   UNL     1     -10.960   5.034  70.836  1.00  0.00     0.000 HD 
HETATM   12  C   UNL     1      -9.033   3.406  71.474  1.00  0.00    -0.156 A  
HETATM   13  C   UNL     1      -8.113   2.358  71.541  1.00  0.00    -0.054 A  
HETATM   14  C   UNL     1      -7.233   2.142  70.488  1.00  0.00    -0.033 A  
HETATM   15  C   UNL     1      -7.283   2.969  69.365  1.00  0.00    -0.045 A  
HETATM   16  C   UNL     1      -8.197   4.038  69.292  1.00  0.00    -0.061 A  
HETATM   17  N   UNL     1      -8.100   4.926  68.182  1.00  0.00    -0.086 NA 
HETATM   18  C   UNL     1      -7.946   6.242  68.478  1.00  0.00    -0.105 A  
HETATM   19  H   UNL     1      -8.144   4.592  67.220  1.00  0.00     0.000 HD 
HETATM   20  C   UNL     1      -8.682   6.995  69.372  1.00  0.00    -0.133 A  
HETATM   21  C   UNL     1      -8.045   8.268  69.593  1.00  0.00    -0.116 A  
HETATM   22  C   UNL     1      -6.948   8.472  68.784  1.00  0.00    -0.063 A  
HETATM   23  C   UNL     1      -6.036   9.645  68.728  1.00  0.00    -0.042 C  
HETATM   24  S   UNL     1      -6.682   7.140  67.754  1.00  0.00    -0.067 SA 
ENDBRANCH   5   8
TORSDOF 1
ENDMDL
MODEL      174
REMARK 921   NORMALIZED FREE ENERGY PREDICTED BY IDOCK:   -2.23 KCAL/MOL
REMARK 922        TOTAL FREE ENERGY PREDICTED BY IDOCK:   -2.77 KCAL/MOL
REMARK 923 INTER-LIGAND FREE ENERGY PREDICTED BY IDOCK:   -2.93 KCAL/MOL
REMARK 924 INTRA-LIGAND FREE ENERGY PREDICTED BY IDOCK:    0.16 KCAL/MOL
REMARK 927      BINDING AFFINITY PREDICTED BY RF-SCORE:    0.00 PKD
ROOT
HETATM    1  C   UNL     1     -11.317  10.916  67.640  1.00  0.00    -0.270 C  
HETATM    2  N   UNL     1     -10.329  10.999  68.714  1.00  0.00    -0.192 NA 
HETATM    3  C   UNL     1     -10.864  10.495  69.993  1.00  0.00    -0.259 C  
HETATM    4  C   UNL     1     -11.082   8.967  70.067  1.00  0.00    -0.170 C  
HETATM    5  N   UNL     1      -9.886   8.217  69.651  1.00  0.00    -0.181 NA 
HETATM    6  C   UNL     1      -9.103  10.234  68.394  1.00  0.00    -0.136 C  
HETATM    7  C   UNL     1      -9.274   8.700  68.398  1.00  0.00    -0.138 C  
ENDROOT
BRANCH   5   8
HETATM    8  C   UNL     1      -9.213   7.292  70.443  1.00  0.00    -0.158 C  
HETATM    9  N   UNL     1      -8.823   7.591  71.648  1.00  0.00    -0.116 NA 
HETATM   10  C   UNL     1      -8.085   6.745  72.496  1.00  0.00    -0.104 A  
HETATM   11  H   UNL     1      -9.072   8.513  72.006  1.00  0.00     0.000 HD 
HETATM   12  C   UNL     1      -7.113   7.376  73.288  1.00  0.00    -0.081 A  
HETATM   13  C   UNL     1      -6.318   6.656  74.180  1.00  0.00    -0.065 A  
HETATM   14  C   UNL     1      -6.500   5.285  74.315  1.00  0.00    -0.070 A  
HETATM   15  C   UNL     1      -7.485   4.641  73.567  1.00  0.00    -0.083 A  
HETATM   16  C   UNL     1      -8.285   5.356  72.653  1.00  0.00    -0.114 A  
HETATM   17  N   UNL     1      -9.173   4.616  71.821  1.00  0.00    -0.134 NA 
HETATM   18  C   UNL     1      -9.036   4.800  70.483  1.00  0.00    -0.116 A  
HETATM   19  H   UNL     1      -9.872   3.983  72.209  1.00  0.00     0.000 HD 
HETATM   20  C   UNL     1      -8.954   6.000  69.803  1.00  0.00    -0.135 A  
HETATM   21  C   UNL     1      -8.552   5.773  68.439  1.00  0.00    -0.112 A  
HETATM   22  C   UNL     1      -8.470   4.436  68.115  1.00  0.00    -0.094 A  
HETATM   23  C   UNL     1      -8.081   3.811  66.822  1.00  0.00    -0.096 C  
HETATM   24  S   UNL     1      -8.878   3.449  69.444  1.00  0.00    -0.110 SA 
ENDBRANCH   5   8
TORSDOF 1
ENDMDL
MODEL      175
REMARK 921   NORMALIZED FREE ENERGY PREDICTED BY IDOCK:   -2.21 KCAL/MOL
REMARK 922        TOTAL FREE ENERGY PREDICTED BY IDOCK:   -2.75 KCAL/MOL
REMARK 923 INTER-LIGAND FREE ENERGY PREDICTED BY IDOCK:   -3.11 KCAL/MOL
REMARK 924 INTRA-LIGAND FREE ENERGY PREDICTED BY IDOCK:    0.36 KCAL/MOL
REMARK 927      BINDING AFFINITY PREDICTED BY RF-SCORE:    0.00 PKD
ROOT
HETATM    1  C   UNL     1     -10.493   5.676  74.048  1.00  0.00    -0.273 C  
HETATM    2  N   UNL     1      -9.659   6.300  73.023  1.00  0.00    -0.152 NA 
HETATM    3  C   UNL     1      -8.428   5.525  72.770  1.00  0.00    -0.120 C  
HETATM    4  C   UNL     1      -8.629   4.177  72.043  1.00  0.00    -0.106 C  
HETATM    5  N   UNL     1      -9.434   4.323  70.820  1.00  0.00    -0.156 NA 
HETATM    6  C   UNL     1     -10.382   6.448  71.740  1.00  0.00    -0.203 C  
HETATM    7  C   UNL     1     -10.660   5.126  70.994  1.00  0.00    -0.131 C  
ENDROOT
BRANCH   5   8
HETATM    8  C   UNL     1      -9.012   3.966  69.543  1.00  0.00    -0.106 C  
HETATM    9  N   UNL     1      -8.232   2.942  69.351  1.00  0.00    -0.050 NA 
HETATM   10  C   UNL     1      -7.705   2.542  68.109  1.00  0.00    -0.055 A  
HETATM   11  H   UNL     1      -7.982   2.384  70.168  1.00  0.00     0.000 HD 
HETATM   12  C   UNL     1      -6.391   2.053  68.136  1.00  0.00    -0.028 A  
HETATM   13  C   UNL     1      -5.752   1.614  66.975  1.00  0.00    -0.018 A  
HETATM   14  C   UNL     1      -6.432   1.633  65.763  1.00  0.00    -0.023 A  
HETATM   15  C   UNL     1      -7.752   2.080  65.718  1.00  0.00    -0.072 A  
HETATM   16  C   UNL     1      -8.403   2.538  66.881  1.00  0.00    -0.089 A  
HETATM   17  N   UNL     1      -9.699   3.111  66.739  1.00  0.00    -0.402 NA 
HETATM   18  C   UNL     1      -9.857   4.368  67.227  1.00  0.00    -0.162 A  
HETATM   19  H   UNL     1     -10.466   2.605  66.298  1.00  0.00     0.000 HD 
HETATM   20  C   UNL     1      -9.477   4.844  68.468  1.00  0.00    -0.194 A  
HETATM   21  C   UNL     1      -9.577   6.280  68.502  1.00  0.00    -0.128 A  
HETATM   22  C   UNL     1     -10.132   6.811  67.358  1.00  0.00    -0.175 A  
HETATM   23  C   UNL     1     -10.386   8.237  67.019  1.00  0.00    -0.393 C  
HETATM   24  S   UNL     1     -10.540   5.589  66.241  1.00  0.00    -0.074 SA 
ENDBRANCH   5   8
TORSDOF 1
ENDMDL
MODEL      176
REMARK 921   NORMALIZED FREE ENERGY PREDICTED BY IDOCK:   -2.16 KCAL/MOL
REMARK 922        TOTAL FREE ENERGY PREDICTED BY IDOCK:   -2.69 KCAL/MOL
REMARK 923 INTER-LIGAND FREE ENERGY PREDICTED BY IDOCK:   -3.32 KCAL/MOL
REMARK 924 INTRA-LIGAND FREE ENERGY PREDICTED BY IDOCK:    0.63 KCAL/MOL
REMARK 927      BINDING AFFINITY PREDICTED BY RF-SCORE:    0.00 PKD
ROOT
HETATM    1  C   UNL     1     -12.053  13.547  70.343  1.00  0.00    -0.345 C  
HETATM    2  N   UNL     1     -12.554  12.533  69.417  1.00  0.00     0.336 NA 
HETATM    3  C   UNL     1     -12.064  12.754  68.042  1.00  0.00    -0.121 C  
HETATM    4  C   UNL     1     -10.561  12.474  67.819  1.00  0.00    -0.219 C  
HETATM    5  N   UNL     1     -10.165  11.151  68.326  1.00  0.00    -0.175 NA 
HETATM    6  C   UNL     1     -12.163  11.167  69.831  1.00  0.00    -0.314 C  
HETATM    7  C   UNL     1     -10.661  10.847  69.682  1.00  0.00    -0.129 C  
ENDROOT
BRANCH   5   8
HETATM    8  C   UNL     1      -9.584  10.146  67.557  1.00  0.00    -0.156 C  
HETATM    9  N   UNL     1      -9.079  10.400  66.384  1.00  0.00    -0.154 NA 
HETATM   10  C   UNL     1      -8.529   9.443  65.512  1.00  0.00    -0.143 A  
HETATM   11  H   UNL     1      -9.083  11.372  66.073  1.00  0.00     0.000 HD 
HETATM   12  C   UNL     1      -8.786   9.646  64.147  1.00  0.00    -0.238 A  
HETATM   13  C   UNL     1      -8.290   8.777  63.175  1.00  0.00    -0.167 A  
HETATM   14  C   UNL     1      -7.503   7.696  63.551  1.00  0.00    -0.108 A  
HETATM   15  C   UNL     1      -7.203   7.494  64.898  1.00  0.00    -0.070 A  
HETATM   16  C   UNL     1      -7.708   8.357  65.890  1.00  0.00    -0.086 A  
HETATM   17  N   UNL     1      -7.481   8.014  67.253  1.00  0.00    -0.091 NA 
HETATM   18  C   UNL     1      -8.584   7.909  68.038  1.00  0.00    -0.126 A  
HETATM   19  H   UNL     1      -6.543   7.857  67.620  1.00  0.00     0.000 HD 
HETATM   20  C   UNL     1      -9.627   8.808  68.149  1.00  0.00    -0.162 A  
HETATM   21  C   UNL     1     -10.720   8.216  68.877  1.00  0.00    -0.090 A  
HETATM   22  C   UNL     1     -10.420   6.969  69.382  1.00  0.00    -0.214 A  
HETATM   23  C   UNL     1     -11.284   6.050  70.170  1.00  0.00    -0.412 C  
HETATM   24  S   UNL     1      -8.827   6.507  68.990  1.00  0.00    -0.130 SA 
ENDBRANCH   5   8
TORSDOF 1
ENDMDL
MODEL      177
REMARK 921   NORMALIZED FREE ENERGY PREDICTED BY IDOCK:   -1.95 KCAL/MOL
REMARK 922        TOTAL FREE ENERGY PREDICTED BY IDOCK:   -2.47 KCAL/MOL
REMARK 923 INTER-LIGAND FREE ENERGY PREDICTED BY IDOCK:   -2.10 KCAL/MOL
REMARK 924 INTRA-LIGAND FREE ENERGY PREDICTED BY IDOCK:   -0.37 KCAL/MOL
REMARK 927      BINDING AFFINITY PREDICTED BY RF-SCORE:    0.00 PKD
ROOT
HETATM    1  C   UNL     1     -10.508   5.236  66.603  1.00  0.00    -0.290 C  
HETATM    2  N   UNL     1      -9.596   4.497  67.473  1.00  0.00    -0.164 NA 
HETATM    3  C   UNL     1      -8.245   5.092  67.483  1.00  0.00    -0.106 C  
HETATM    4  C   UNL     1      -8.121   6.452  68.206  1.00  0.00    -0.113 C  
HETATM    5  N   UNL     1      -8.703   6.414  69.557  1.00  0.00    -0.133 NA 
HETATM    6  C   UNL     1     -10.086   4.446  68.868  1.00  0.00     0.095 C  
HETATM    7  C   UNL     1     -10.039   5.790  69.625  1.00  0.00    -0.212 C  
ENDROOT
BRANCH   5   8
HETATM    8  C   UNL     1      -8.010   6.703  70.728  1.00  0.00    -0.111 C  
HETATM    9  N   UNL     1      -7.639   7.918  71.011  1.00  0.00    -0.080 NA 
HETATM   10  C   UNL     1      -6.885   8.296  72.137  1.00  0.00    -0.083 A  
HETATM   11  H   UNL     1      -7.919   8.656  70.364  1.00  0.00     0.000 HD 
HETATM   12  C   UNL     1      -5.939   9.310  71.922  1.00  0.00    -0.021 A  
HETATM   13  C   UNL     1      -5.131   9.786  72.955  1.00  0.00    -0.045 A  
HETATM   14  C   UNL     1      -5.274   9.270  74.237  1.00  0.00    -0.127 A  
HETATM   15  C   UNL     1      -6.233   8.287  74.484  1.00  0.00    -0.135 A  
HETATM   16  C   UNL     1      -7.045   7.790  73.446  1.00  0.00    -0.092 A  
HETATM   17  N   UNL     1      -7.904   6.692  73.737  1.00  0.00    -0.095 NA 
HETATM   18  C   UNL     1      -7.760   5.593  72.952  1.00  0.00    -0.098 A  
HETATM   19  H   UNL     1      -8.588   6.728  74.492  1.00  0.00     0.000 HD 
HETATM   20  C   UNL     1      -7.708   5.545  71.572  1.00  0.00    -0.106 A  
HETATM   21  C   UNL     1      -7.287   4.239  71.135  1.00  0.00    -0.044 A  
HETATM   22  C   UNL     1      -7.163   3.336  72.169  1.00  0.00    -0.050 A  
HETATM   23  C   UNL     1      -6.745   1.910  72.117  1.00  0.00    -0.015 C  
HETATM   24  S   UNL     1      -7.554   4.051  73.667  1.00  0.00    -0.077 SA 
ENDBRANCH   5   8
TORSDOF 1
ENDMDL
MODEL      178
REMARK 921   NORMALIZED FREE ENERGY PREDICTED BY IDOCK:   -1.94 KCAL/MOL
REMARK 922        TOTAL FREE ENERGY PREDICTED BY IDOCK:   -2.46 KCAL/MOL
REMARK 923 INTER-LIGAND FREE ENERGY PREDICTED BY IDOCK:   -3.01 KCAL/MOL
REMARK 924 INTRA-LIGAND FREE ENERGY PREDICTED BY IDOCK:    0.56 KCAL/MOL
REMARK 927      BINDING AFFINITY PREDICTED BY RF-SCORE:    0.00 PKD
ROOT
HETATM    1  C   UNL     1      -7.948   2.398  67.824  1.00  0.00    -0.059 C  
HETATM    2  N   UNL     1      -6.946   3.462  67.800  1.00  0.00    -0.050 NA 
HETATM    3  C   UNL     1      -7.160   4.393  66.674  1.00  0.00    -0.067 C  
HETATM    4  C   UNL     1      -8.396   5.312  66.796  1.00  0.00    -0.108 C  
HETATM    5  N   UNL     1      -8.438   6.012  68.089  1.00  0.00    -0.115 NA 
HETATM    6  C   UNL     1      -6.949   4.249  69.054  1.00  0.00    -0.050 C  
HETATM    7  C   UNL     1      -8.188   5.146  69.257  1.00  0.00    -0.084 C  
ENDROOT
BRANCH   5   8
HETATM    8  C   UNL     1      -8.467   7.396  68.242  1.00  0.00    -0.125 C  
HETATM    9  N   UNL     1      -8.000   8.187  67.321  1.00  0.00    -0.112 NA 
HETATM   10  C   UNL     1      -7.930   9.590  67.414  1.00  0.00    -0.106 A  
HETATM   11  H   UNL     1      -7.656   7.756  66.463  1.00  0.00     0.000 HD 
HETATM   12  C   UNL     1      -6.790  10.180  66.847  1.00  0.00    -0.084 A  
HETATM   13  C   UNL     1      -6.602  11.563  66.862  1.00  0.00    -0.138 A  
HETATM   14  C   UNL     1      -7.569  12.386  67.424  1.00  0.00    -0.160 A  
HETATM   15  C   UNL     1      -8.728  11.825  67.960  1.00  0.00    -0.167 A  
HETATM   16  C   UNL     1      -8.924  10.430  67.963  1.00  0.00    -0.129 A  
HETATM   17  N   UNL     1     -10.061   9.917  68.650  1.00  0.00    -0.168 NA 
HETATM   18  C   UNL     1      -9.814   8.992  69.613  1.00  0.00    -0.178 A  
HETATM   19  H   UNL     1     -11.007  10.226  68.430  1.00  0.00     0.000 HD 
HETATM   20  C   UNL     1      -9.018   7.867  69.515  1.00  0.00    -0.142 A  
HETATM   21  C   UNL     1      -8.804   7.294  70.819  1.00  0.00    -0.150 A  
HETATM   22  C   UNL     1      -9.530   7.918  71.810  1.00  0.00    -0.158 A  
HETATM   23  C   UNL     1      -9.565   7.622  73.267  1.00  0.00    -0.326 C  
HETATM   24  S   UNL     1     -10.473   9.190  71.180  1.00  0.00    -0.338 SA 
ENDBRANCH   5   8
TORSDOF 1
ENDMDL
MODEL      179
REMARK 921   NORMALIZED FREE ENERGY PREDICTED BY IDOCK:   -1.59 KCAL/MOL
REMARK 922        TOTAL FREE ENERGY PREDICTED BY IDOCK:   -2.09 KCAL/MOL
REMARK 923 INTER-LIGAND FREE ENERGY PREDICTED BY IDOCK:   -2.27 KCAL/MOL
REMARK 924 INTRA-LIGAND FREE ENERGY PREDICTED BY IDOCK:    0.18 KCAL/MOL
REMARK 927      BINDING AFFINITY PREDICTED BY RF-SCORE:    0.00 PKD
ROOT
HETATM    1  C   UNL     1     -10.353   5.167  70.069  1.00  0.00    -0.276 C  
HETATM    2  N   UNL     1      -9.311   4.664  69.175  1.00  0.00    -0.129 NA 
HETATM    3  C   UNL     1      -9.811   4.480  67.799  1.00  0.00    -0.112 C  
HETATM    4  C   UNL     1     -10.104   5.781  67.018  1.00  0.00    -0.187 C  
HETATM    5  N   UNL     1      -8.971   6.718  67.059  1.00  0.00    -0.113 NA 
HETATM    6  C   UNL     1      -8.144   5.572  69.124  1.00  0.00    -0.095 C  
HETATM    7  C   UNL     1      -8.394   6.914  68.404  1.00  0.00    -0.120 C  
ENDROOT
BRANCH   5   8
HETATM    8  C   UNL     1      -8.310   7.215  65.940  1.00  0.00    -0.141 C  
HETATM    9  N   UNL     1      -8.244   8.494  65.707  1.00  0.00    -0.118 NA 
HETATM   10  C   UNL     1      -7.653   9.084  64.574  1.00  0.00    -0.108 A  
HETATM   11  H   UNL     1      -8.654   9.119  66.401  1.00  0.00     0.000 HD 
HETATM   12  C   UNL     1      -8.310  10.215  64.067  1.00  0.00    -0.172 A  
HETATM   13  C   UNL     1      -7.824  10.902  62.953  1.00  0.00     0.073 A  
HETATM   14  C   UNL     1      -6.651  10.482  62.339  1.00  0.00    -0.151 A  
HETATM   15  C   UNL     1      -5.960   9.382  62.848  1.00  0.00    -0.093 A  
HETATM   16  C   UNL     1      -6.448   8.672  63.964  1.00  0.00    -0.072 A  
HETATM   17  N   UNL     1      -5.770   7.479  64.344  1.00  0.00    -0.037 NA 
HETATM   18  C   UNL     1      -6.529   6.355  64.414  1.00  0.00    -0.034 A  
HETATM   19  H   UNL     1      -4.773   7.469  64.553  1.00  0.00     0.000 HD 
HETATM   20  C   UNL     1      -7.745   6.198  65.050  1.00  0.00    -0.099 A  
HETATM   21  C   UNL     1      -8.346   4.944  64.674  1.00  0.00    -0.134 A  
HETATM   22  C   UNL     1      -7.525   4.166  63.887  1.00  0.00    -0.062 A  
HETATM   23  C   UNL     1      -7.794   2.826  63.298  1.00  0.00    -0.068 C  
HETATM   24  S   UNL     1      -6.030   4.934  63.601  1.00  0.00    -0.018 SA 
ENDBRANCH   5   8
TORSDOF 1
ENDMDL
MODEL      180
REMARK 921   NORMALIZED FREE ENERGY PREDICTED BY IDOCK:   -1.34 KCAL/MOL
REMARK 922        TOTAL FREE ENERGY PREDICTED BY IDOCK:   -1.82 KCAL/MOL
REMARK 923 INTER-LIGAND FREE ENERGY PREDICTED BY IDOCK:   -1.50 KCAL/MOL
REMARK 924 INTRA-LIGAND FREE ENERGY PREDICTED BY IDOCK:   -0.32 KCAL/MOL
REMARK 927      BINDING AFFINITY PREDICTED BY RF-SCORE:    0.00 PKD
ROOT
HETATM    1  C   UNL     1      -7.673   2.016  67.835  1.00  0.00    -0.058 C  
HETATM    2  N   UNL     1      -6.452   2.710  68.242  1.00  0.00    -0.029 NA 
HETATM    3  C   UNL     1      -6.172   3.878  67.383  1.00  0.00    -0.036 C  
HETATM    4  C   UNL     1      -7.129   5.078  67.561  1.00  0.00    -0.066 C  
HETATM    5  N   UNL     1      -7.269   5.468  68.973  1.00  0.00    -0.067 NA 
HETATM    6  C   UNL     1      -6.524   3.176  69.644  1.00  0.00    -0.033 C  
HETATM    7  C   UNL     1      -7.508   4.340  69.893  1.00  0.00    -0.050 C  
ENDROOT
BRANCH   5   8
HETATM    8  C   UNL     1      -6.977   6.731  69.481  1.00  0.00    -0.067 C  
HETATM    9  N   UNL     1      -6.140   6.885  70.465  1.00  0.00    -0.027 NA 
HETATM   10  C   UNL     1      -5.829   8.110  71.084  1.00  0.00    -0.034 A  
HETATM   11  H   UNL     1      -5.670   6.050  70.817  1.00  0.00     0.000 HD 
HETATM   12  C   UNL     1      -5.634   8.058  72.472  1.00  0.00    -0.038 A  
HETATM   13  C   UNL     1      -5.312   9.199  73.207  1.00  0.00    -0.103 A  
HETATM   14  C   UNL     1      -5.153  10.417  72.558  1.00  0.00     0.102 A  
HETATM   15  C   UNL     1      -5.304  10.487  71.173  1.00  0.00    -0.091 A  
HETATM   16  C   UNL     1      -5.643   9.344  70.422  1.00  0.00    -0.036 A  
HETATM   17  N   UNL     1      -5.920   9.514  69.036  1.00  0.00    -0.042 NA 
HETATM   18  C   UNL     1      -7.127   9.065  68.605  1.00  0.00    -0.071 A  
HETATM   19  H   UNL     1      -5.250   9.948  68.402  1.00  0.00     0.000 HD 
HETATM   20  C   UNL     1      -7.706   7.835  68.855  1.00  0.00    -0.113 A  
HETATM   21  C   UNL     1      -9.088   7.844  68.449  1.00  0.00    -0.135 A  
HETATM   22  C   UNL     1      -9.457   9.008  67.811  1.00  0.00    -0.141 A  
HETATM   23  C   UNL     1     -10.786   9.391  67.263  1.00  0.00    -0.258 C  
HETATM   24  S   UNL     1      -8.146  10.092  67.691  1.00  0.00    -0.109 SA 
ENDBRANCH   5   8
TORSDOF 1
ENDMDL
MODEL      181
REMARK 921   NORMALIZED FREE ENERGY PREDICTED BY IDOCK:   -1.22 KCAL/MOL
REMARK 922        TOTAL FREE ENERGY PREDICTED BY IDOCK:   -1.70 KCAL/MOL
REMARK 923 INTER-LIGAND FREE ENERGY PREDICTED BY IDOCK:   -2.37 KCAL/MOL
REMARK 924 INTRA-LIGAND FREE ENERGY PREDICTED BY IDOCK:    0.66 KCAL/MOL
REMARK 927      BINDING AFFINITY PREDICTED BY RF-SCORE:    0.00 PKD
ROOT
HETATM    1  C   UNL     1     -10.313   8.984  66.924  1.00  0.00    -0.254 C  
HETATM    2  N   UNL     1     -10.434   9.687  68.200  1.00  0.00    -0.210 NA 
HETATM    3  C   UNL     1      -9.134   9.799  68.890  1.00  0.00    -0.148 C  
HETATM    4  C   UNL     1      -8.119  10.769  68.245  1.00  0.00    -0.121 C  
HETATM    5  N   UNL     1      -8.708  12.093  67.988  1.00  0.00    -0.173 NA 
HETATM    6  C   UNL     1     -10.982  11.051  68.028  1.00  0.00    -0.258 C  
HETATM    7  C   UNL     1     -10.032  12.052  67.337  1.00  0.00    -0.191 C  
ENDROOT
BRANCH   5   8
HETATM    8  C   UNL     1      -8.222  13.292  68.500  1.00  0.00    -0.084 C  
HETATM    9  N   UNL     1      -7.087  13.345  69.136  1.00  0.00    -0.265 NA 
HETATM   10  C   UNL     1      -6.547  14.494  69.740  1.00  0.00    -0.158 A  
HETATM   11  H   UNL     1      -6.547  12.482  69.201  1.00  0.00     0.000 HD 
HETATM   12  C   UNL     1      -5.876  14.284  70.955  1.00  0.00    -0.210 A  
HETATM   13  C   UNL     1      -5.285  15.337  71.653  1.00  0.00    -0.042 A  
HETATM   14  C   UNL     1      -5.333  16.624  71.133  1.00  0.00     0.005 A  
HETATM   15  C   UNL     1      -5.962  16.853  69.909  1.00  0.00    -0.219 A  
HETATM   16  C   UNL     1      -6.574  15.800  69.201  1.00  0.00    -0.148 A  
HETATM   17  N   UNL     1      -7.317  16.125  68.031  1.00  0.00    -0.126 NA 
HETATM   18  C   UNL     1      -8.610  15.710  68.007  1.00  0.00    -0.155 A  
HETATM   19  H   UNL     1      -6.902  16.640  67.255  1.00  0.00     0.000 HD 
HETATM   20  C   UNL     1      -9.095  14.451  68.303  1.00  0.00    -0.193 A  
HETATM   21  C   UNL     1     -10.531  14.485  68.416  1.00  0.00    -0.246 A  
HETATM   22  C   UNL     1     -11.071  15.709  68.086  1.00  0.00    -0.330 A  
HETATM   23  C   UNL     1     -12.497  16.132  68.090  1.00  0.00     1.427 C  
HETATM   24  S   UNL     1      -9.858  16.820  67.635  1.00  0.00    -0.268 SA 
ENDBRANCH   5   8
TORSDOF 1
ENDMDL
MODEL      182
REMARK 921   NORMALIZED FREE ENERGY PREDICTED BY IDOCK:   -1.20 KCAL/MOL
REMARK 922        TOTAL FREE ENERGY PREDICTED BY IDOCK:   -1.68 KCAL/MOL
REMARK 923 INTER-LIGAND FREE ENERGY PREDICTED BY IDOCK:   -1.28 KCAL/MOL
REMARK 924 INTRA-LIGAND FREE ENERGY PREDICTED BY IDOCK:   -0.40 KCAL/MOL
REMARK 927      BINDING AFFINITY PREDICTED BY RF-SCORE:    0.00 PKD
ROOT
HETATM    1  C   UNL     1      -9.030   9.226  62.459  1.00  0.00    -0.175 C  
HETATM    2  N   UNL     1      -9.681  10.138  63.397  1.00  0.00    -0.195 NA 
HETATM    3  C   UNL     1      -9.978   9.480  64.685  1.00  0.00     0.565 C  
HETATM    4  C   UNL     1      -8.751   9.159  65.567  1.00  0.00    -0.181 C  
HETATM    5  N   UNL     1      -7.880  10.331  65.749  1.00  0.00    -0.140 NA 
HETATM    6  C   UNL     1      -8.851  11.332  63.672  1.00  0.00     0.136 C  
HETATM    7  C   UNL     1      -7.579  11.063  64.504  1.00  0.00     0.638 C  
ENDROOT
BRANCH   5   8
HETATM    8  C   UNL     1      -7.540  10.885  66.980  1.00  0.00    -0.122 C  
HETATM    9  N   UNL     1      -6.539  10.426  67.674  1.00  0.00    -0.065 NA 
HETATM   10  C   UNL     1      -6.160  10.879  68.951  1.00  0.00    -0.040 A  
HETATM   11  H   UNL     1      -5.984   9.678  67.257  1.00  0.00     0.000 HD 
HETATM   12  C   UNL     1      -5.706   9.889  69.836  1.00  0.00    -0.042 A  
HETATM   13  C   UNL     1      -5.290  10.204  71.131  1.00  0.00    -0.081 A  
HETATM   14  C   UNL     1      -5.296  11.526  71.556  1.00  0.00     0.105 A  
HETATM   15  C   UNL     1      -5.707  12.532  70.681  1.00  0.00    -0.146 A  
HETATM   16  C   UNL     1      -6.142  12.226  69.377  1.00  0.00    -0.107 A  
HETATM   17  N   UNL     1      -6.680  13.281  68.587  1.00  0.00    -0.089 NA 
HETATM   18  C   UNL     1      -7.930  13.086  68.095  1.00  0.00    -0.154 A  
HETATM   19  H   UNL     1      -6.155  14.135  68.400  1.00  0.00     0.000 HD 
HETATM   20  C   UNL     1      -8.410  11.972  67.433  1.00  0.00    -0.171 A  
HETATM   21  C   UNL     1      -9.844  12.046  67.309  1.00  0.00    -0.200 A  
HETATM   22  C   UNL     1     -10.364  13.240  67.759  1.00  0.00    -0.233 A  
HETATM   23  C   UNL     1     -11.785  13.681  67.803  1.00  0.00    -0.397 C  
HETATM   24  S   UNL     1      -9.137  14.278  68.326  1.00  0.00    -0.191 SA 
ENDBRANCH   5   8
TORSDOF 1
ENDMDL
MODEL      183
REMARK 921   NORMALIZED FREE ENERGY PREDICTED BY IDOCK:   -0.75 KCAL/MOL
REMARK 922        TOTAL FREE ENERGY PREDICTED BY IDOCK:   -1.20 KCAL/MOL
REMARK 923 INTER-LIGAND FREE ENERGY PREDICTED BY IDOCK:   -1.33 KCAL/MOL
REMARK 924 INTRA-LIGAND FREE ENERGY PREDICTED BY IDOCK:    0.12 KCAL/MOL
REMARK 927      BINDING AFFINITY PREDICTED BY RF-SCORE:    0.00 PKD
ROOT
HETATM    1  C   UNL     1      -7.540   4.191  62.992  1.00  0.00    -0.057 C  
HETATM    2  N   UNL     1      -7.683   4.228  64.446  1.00  0.00    -0.082 NA 
HETATM    3  C   UNL     1      -6.509   4.842  65.098  1.00  0.00    -0.036 C  
HETATM    4  C   UNL     1      -6.355   6.366  64.893  1.00  0.00    -0.034 C  
HETATM    5  N   UNL     1      -7.592   7.094  65.215  1.00  0.00    -0.096 NA 
HETATM    6  C   UNL     1      -8.886   4.983  64.862  1.00  0.00    -0.140 C  
HETATM    7  C   UNL     1      -8.812   6.507  64.629  1.00  0.00     0.488 C  
ENDROOT
BRANCH   5   8
HETATM    8  C   UNL     1      -7.694   8.103  66.168  1.00  0.00    -0.090 C  
HETATM    9  N   UNL     1      -6.816   9.062  66.234  1.00  0.00    -0.077 NA 
HETATM   10  C   UNL     1      -6.802  10.086  67.199  1.00  0.00    -0.082 A  
HETATM   11  H   UNL     1      -6.078   9.070  65.530  1.00  0.00     0.000 HD 
HETATM   12  C   UNL     1      -5.533  10.480  67.649  1.00  0.00    -0.043 A  
HETATM   13  C   UNL     1      -5.377  11.492  68.597  1.00  0.00    -0.042 A  
HETATM   14  C   UNL     1      -6.495  12.150  69.095  1.00  0.00    -0.099 A  
HETATM   15  C   UNL     1      -7.765  11.802  68.635  1.00  0.00    -0.126 A  
HETATM   16  C   UNL     1      -7.936  10.773  67.688  1.00  0.00    -0.110 A  
HETATM   17  N   UNL     1      -9.265  10.374  67.368  1.00  0.00    -0.142 NA 
HETATM   18  C   UNL     1      -9.554   9.058  67.535  1.00  0.00    -0.144 A  
HETATM   19  H   UNL     1      -9.960  11.040  67.031  1.00  0.00     0.000 HD 
HETATM   20  C   UNL     1      -8.824   7.973  67.090  1.00  0.00    -0.138 A  
HETATM   21  C   UNL     1      -9.318   6.761  67.692  1.00  0.00    -0.121 A  
HETATM   22  C   UNL     1     -10.451   6.956  68.451  1.00  0.00    -0.204 A  
HETATM   23  C   UNL     1     -11.238   5.960  69.227  1.00  0.00    -0.255 C  
HETATM   24  S   UNL     1     -10.930   8.593  68.441  1.00  0.00     0.304 SA 
ENDBRANCH   5   8
TORSDOF 1
ENDMDL
MODEL      184
REMARK 921   NORMALIZED FREE ENERGY PREDICTED BY IDOCK:   -0.38 KCAL/MOL
REMARK 922        TOTAL FREE ENERGY PREDICTED BY IDOCK:   -0.80 KCAL/MOL
REMARK 923 INTER-LIGAND FREE ENERGY PREDICTED BY IDOCK:   -1.31 KCAL/MOL
REMARK 924 INTRA-LIGAND FREE ENERGY PREDICTED BY IDOCK:    0.51 KCAL/MOL
REMARK 927      BINDING AFFINITY PREDICTED BY RF-SCORE:    0.00 PKD
ROOT
HETATM    1  C   UNL     1     -11.453   4.108  73.085  1.00  0.00    -0.049 C  
HETATM    2  N   UNL     1     -11.626   5.329  72.300  1.00  0.00    -0.035 NA 
HETATM    3  C   UNL     1     -10.904   6.471  72.895  1.00  0.00    -0.258 C  
HETATM    4  C   UNL     1      -9.363   6.409  72.794  1.00  0.00    -0.140 C  
HETATM    5  N   UNL     1      -8.910   6.141  71.421  1.00  0.00    -0.139 NA 
HETATM    6  C   UNL     1     -11.153   5.161  70.908  1.00  0.00     0.341 C  
HETATM    7  C   UNL     1      -9.623   5.037  70.750  1.00  0.00    -0.180 C  
ENDROOT
BRANCH   5   8
HETATM    8  C   UNL     1      -8.064   6.968  70.688  1.00  0.00    -0.117 C  
HETATM    9  N   UNL     1      -8.032   8.253  70.891  1.00  0.00    -0.093 NA 
HETATM   10  C   UNL     1      -7.258   9.174  70.161  1.00  0.00    -0.070 A  
HETATM   11  H   UNL     1      -8.617   8.623  71.642  1.00  0.00     0.000 HD 
HETATM   12  C   UNL     1      -7.866  10.413  69.908  1.00  0.00    -0.050 A  
HETATM   13  C   UNL     1      -7.204  11.419  69.202  1.00  0.00    -0.102 A  
HETATM   14  C   UNL     1      -5.905  11.211  68.757  1.00  0.00    -0.043 A  
HETATM   15  C   UNL     1      -5.267  10.001  69.029  1.00  0.00    -0.035 A  
HETATM   16  C   UNL     1      -5.929   8.973  69.728  1.00  0.00    -0.035 A  
HETATM   17  N   UNL     1      -5.271   7.716  69.849  1.00  0.00    -0.023 NA 
HETATM   18  C   UNL     1      -5.954   6.634  69.393  1.00  0.00    -0.022 A  
HETATM   19  H   UNL     1      -4.339   7.632  70.255  1.00  0.00     0.000 HD 
HETATM   20  C   UNL     1      -7.263   6.289  69.667  1.00  0.00    -0.078 A  
HETATM   21  C   UNL     1      -7.692   5.228  68.792  1.00  0.00    -0.083 A  
HETATM   22  C   UNL     1      -6.677   4.740  67.997  1.00  0.00    -0.054 A  
HETATM   23  C   UNL     1      -6.732   3.664  66.971  1.00  0.00    -0.046 C  
HETATM   24  S   UNL     1      -5.207   5.549  68.300  1.00  0.00    -0.004 SA 
ENDBRANCH   5   8
TORSDOF 1
ENDMDL
MODEL      185
REMARK 921   NORMALIZED FREE ENERGY PREDICTED BY IDOCK:   -0.36 KCAL/MOL
REMARK 922        TOTAL FREE ENERGY PREDICTED BY IDOCK:   -0.78 KCAL/MOL
REMARK 923 INTER-LIGAND FREE ENERGY PREDICTED BY IDOCK:   -0.43 KCAL/MOL
REMARK 924 INTRA-LIGAND FREE ENERGY PREDICTED BY IDOCK:   -0.35 KCAL/MOL
REMARK 927      BINDING AFFINITY PREDICTED BY RF-SCORE:    0.00 PKD
ROOT
HETATM    1  C   UNL     1      -9.672   9.732  62.394  1.00  0.00     0.349 C  
HETATM    2  N   UNL     1      -9.884  10.866  63.292  1.00  0.00    -0.339 NA 
HETATM    3  C   UNL     1     -10.392  10.435  64.610  1.00  0.00    -0.120 C  
HETATM    4  C   UNL     1      -9.377   9.686  65.502  1.00  0.00    -0.248 C  
HETATM    5  N   UNL     1      -8.107  10.417  65.627  1.00  0.00    -0.152 NA 
HETATM    6  C   UNL     1      -8.640  11.637  63.509  1.00  0.00     0.683 C  
HETATM    7  C   UNL     1      -7.564  10.915  64.348  1.00  0.00     0.475 C  
ENDROOT
BRANCH   5   8
HETATM    8  C   UNL     1      -7.548  10.838  66.830  1.00  0.00    -0.123 C  
HETATM    9  N   UNL     1      -7.303  12.095  67.058  1.00  0.00    -0.308 NA 
HETATM   10  C   UNL     1      -6.685  12.606  68.215  1.00  0.00    -0.081 A  
HETATM   11  H   UNL     1      -7.581  12.765  66.340  1.00  0.00     0.000 HD 
HETATM   12  C   UNL     1      -5.808  13.682  68.010  1.00  0.00    -0.132 A  
HETATM   13  C   UNL     1      -5.138  14.289  69.073  1.00  0.00    -0.075 A  
HETATM   14  C   UNL     1      -5.354  13.843  70.371  1.00  0.00    -0.113 A  
HETATM   15  C   UNL     1      -6.249  12.799  70.603  1.00  0.00     0.321 A  
HETATM   16  C   UNL     1      -6.922  12.170  69.537  1.00  0.00     0.113 A  
HETATM   17  N   UNL     1      -7.712  11.023  69.831  1.00  0.00    -0.330 NA 
HETATM   18  C   UNL     1      -7.411   9.894  69.139  1.00  0.00    -0.083 A  
HETATM   19  H   UNL     1      -8.462  11.047  70.521  1.00  0.00     0.000 HD 
HETATM   20  C   UNL     1      -7.230   9.765  67.775  1.00  0.00    -0.088 A  
HETATM   21  C   UNL     1      -6.669   8.475  67.467  1.00  0.00    -0.063 A  
HETATM   22  C   UNL     1      -6.566   7.653  68.568  1.00  0.00    -0.053 A  
HETATM   23  C   UNL     1      -6.032   6.267  68.651  1.00  0.00    -0.020 C  
HETATM   24  S   UNL     1      -7.147   8.423  69.974  1.00  0.00    -0.047 SA 
ENDBRANCH   5   8
TORSDOF 1
ENDMDL
MODEL      186
REMARK 921   NORMALIZED FREE ENERGY PREDICTED BY IDOCK:    1.98 KCAL/MOL
REMARK 922        TOTAL FREE ENERGY PREDICTED BY IDOCK:    1.69 KCAL/MOL
REMARK 923 INTER-LIGAND FREE ENERGY PREDICTED BY IDOCK:    2.07 KCAL/MOL
REMARK 924 INTRA-LIGAND FREE ENERGY PREDICTED BY IDOCK:   -0.37 KCAL/MOL
REMARK 927      BINDING AFFINITY PREDICTED BY RF-SCORE:    0.00 PKD
ROOT
HETATM    1  C   UNL     1     -12.294  15.317  65.352  1.00  0.00     0.461 C  
HETATM    2  N   UNL     1     -11.100  15.965  64.813  1.00  0.00    -0.484 NA 
HETATM    3  C   UNL     1     -11.090  17.415  65.091  1.00  0.00     0.354 C  
HETATM    4  C   UNL     1     -10.857  17.807  66.567  1.00  0.00     0.042 C  
HETATM    5  N   UNL     1      -9.675  17.141  67.137  1.00  0.00    -0.254 NA 
HETATM    6  C   UNL     1      -9.859  15.381  65.368  1.00  0.00    -0.279 C  
HETATM    7  C   UNL     1      -9.601  15.694  66.857  1.00  0.00    -0.230 C  
ENDROOT
BRANCH   5   8
HETATM    8  C   UNL     1      -8.580  17.800  67.687  1.00  0.00    -0.230 C  
HETATM    9  N   UNL     1      -8.556  18.137  68.944  1.00  0.00    -0.181 NA 
HETATM   10  C   UNL     1      -7.524  18.857  69.573  1.00  0.00     0.116 A  
HETATM   11  H   UNL     1      -9.350  17.856  69.520  1.00  0.00     0.000 HD 
HETATM   12  C   UNL     1      -7.933  19.784  70.543  1.00  0.00     1.374 A  
HETATM   13  C   UNL     1      -7.011  20.557  71.249  1.00  0.00     1.037 A  
HETATM   14  C   UNL     1      -5.651  20.396  71.014  1.00  0.00    -0.283 A  
HETATM   15  C   UNL     1      -5.218  19.453  70.081  1.00  0.00    -0.218 A  
HETATM   16  C   UNL     1      -6.140  18.677  69.352  1.00  0.00    -0.261 A  
HETATM   17  N   UNL     1      -5.637  17.837  68.319  1.00  0.00    -0.156 NA 
HETATM   18  C   UNL     1      -6.167  18.023  67.083  1.00  0.00    -0.156 A  
HETATM   19  H   UNL     1      -4.919  17.135  68.497  1.00  0.00     0.000 HD 
HETATM   20  C   UNL     1      -7.504  18.109  66.744  1.00  0.00    -0.242 A  
HETATM   21  C   UNL     1      -7.645  18.569  65.386  1.00  0.00     0.513 A  
HETATM   22  C   UNL     1      -6.440  18.690  64.728  1.00  0.00     0.241 A  
HETATM   23  C   UNL     1      -6.179  19.141  63.335  1.00  0.00     1.088 C  
HETATM   24  S   UNL     1      -5.136  18.248  65.734  1.00  0.00    -0.186 SA 
ENDBRANCH   5   8
TORSDOF 1
ENDMDL
MODEL      187
REMARK 921   NORMALIZED FREE ENERGY PREDICTED BY IDOCK:    2.72 KCAL/MOL
REMARK 922        TOTAL FREE ENERGY PREDICTED BY IDOCK:    2.47 KCAL/MOL
REMARK 923 INTER-LIGAND FREE ENERGY PREDICTED BY IDOCK:    2.80 KCAL/MOL
REMARK 924 INTRA-LIGAND FREE ENERGY PREDICTED BY IDOCK:   -0.34 KCAL/MOL
REMARK 927      BINDING AFFINITY PREDICTED BY RF-SCORE:    0.00 PKD
ROOT
HETATM    1  C   UNL     1      -5.555  15.722  71.809  1.00  0.00     0.521 C  
HETATM    2  N   UNL     1      -5.846  14.453  71.145  1.00  0.00    -0.189 NA 
HETATM    3  C   UNL     1      -7.292  14.154  71.142  1.00  0.00     2.543 C  
HETATM    4  C   UNL     1      -8.154  15.043  70.218  1.00  0.00     0.757 C  
HETATM    5  N   UNL     1      -7.614  15.104  68.851  1.00  0.00    -0.136 NA 
HETATM    6  C   UNL     1      -5.372  14.443  69.743  1.00  0.00    -0.093 C  
HETATM    7  C   UNL     1      -6.161  15.358  68.782  1.00  0.00    -0.098 C  
ENDROOT
BRANCH   5   8
HETATM    8  C   UNL     1      -8.309  14.730  67.704  1.00  0.00    -0.170 C  
HETATM    9  N   UNL     1      -8.316  13.496  67.291  1.00  0.00    -0.243 NA 
HETATM   10  C   UNL     1      -8.936  13.036  66.115  1.00  0.00     0.200 A  
HETATM   11  H   UNL     1      -7.831  12.806  67.867  1.00  0.00     0.000 HD 
HETATM   12  C   UNL     1      -8.247  12.033  65.417  1.00  0.00     1.209 A  
HETATM   13  C   UNL     1      -8.756  11.481  64.240  1.00  0.00     0.544 A  
HETATM   14  C   UNL     1      -9.984  11.909  63.752  1.00  0.00    -0.379 A  
HETATM   15  C   UNL     1     -10.706  12.878  64.449  1.00  0.00    -0.407 A  
HETATM   16  C   UNL     1     -10.196  13.452  65.631  1.00  0.00    -0.292 A  
HETATM   17  N   UNL     1     -10.917  14.533  66.213  1.00  0.00    -0.317 NA 
HETATM   18  C   UNL     1     -10.221  15.682  66.409  1.00  0.00    -0.290 A  
HETATM   19  H   UNL     1     -11.900  14.448  66.470  1.00  0.00     0.000 HD 
HETATM   20  C   UNL     1      -8.980  15.824  67.001  1.00  0.00    -0.247 A  
HETATM   21  C   UNL     1      -8.474  17.155  66.782  1.00  0.00    -0.264 A  
HETATM   22  C   UNL     1      -9.382  17.983  66.157  1.00  0.00    -0.129 A  
HETATM   23  C   UNL     1      -9.224  19.407  65.758  1.00  0.00     0.165 C  
HETATM   24  S   UNL     1     -10.845  17.169  65.836  1.00  0.00     0.117 SA 
ENDBRANCH   5   8
TORSDOF 1
ENDMDL
MODEL      188
REMARK 921   NORMALIZED FREE ENERGY PREDICTED BY IDOCK:    3.13 KCAL/MOL
REMARK 922        TOTAL FREE ENERGY PREDICTED BY IDOCK:    2.91 KCAL/MOL
REMARK 923 INTER-LIGAND FREE ENERGY PREDICTED BY IDOCK:    3.32 KCAL/MOL
REMARK 924 INTRA-LIGAND FREE ENERGY PREDICTED BY IDOCK:   -0.42 KCAL/MOL
REMARK 927      BINDING AFFINITY PREDICTED BY RF-SCORE:    0.00 PKD
ROOT
HETATM    1  C   UNL     1     -10.215  21.082  70.991  1.00  0.00     3.299 C  
HETATM    2  N   UNL     1     -10.404  19.913  70.135  1.00  0.00     0.425 NA 
HETATM    3  C   UNL     1     -10.770  20.296  68.756  1.00  0.00     0.453 C  
HETATM    4  C   UNL     1      -9.642  20.947  67.925  1.00  0.00     0.045 C  
HETATM    5  N   UNL     1      -8.405  20.151  67.953  1.00  0.00    -0.254 NA 
HETATM    6  C   UNL     1      -9.187  19.074  70.071  1.00  0.00     1.168 C  
HETATM    7  C   UNL     1      -8.005  19.698  69.300  1.00  0.00    -0.034 C  
ENDROOT
BRANCH   5   8
HETATM    8  C   UNL     1      -7.763  19.641  66.829  1.00  0.00    -0.266 C  
HETATM    9  N   UNL     1      -7.054  20.406  66.050  1.00  0.00    -0.403 NA 
HETATM   10  C   UNL     1      -6.422  19.994  64.862  1.00  0.00    -0.281 A  
HETATM   11  H   UNL     1      -6.948  21.383  66.323  1.00  0.00     0.000 HD 
HETATM   12  C   UNL     1      -6.433  20.926  63.814  1.00  0.00    -0.216 A  
HETATM   13  C   UNL     1      -5.833  20.649  62.585  1.00  0.00    -0.266 A  
HETATM   14  C   UNL     1      -5.185  19.436  62.391  1.00  0.00    -0.352 A  
HETATM   15  C   UNL     1      -5.128  18.508  63.431  1.00  0.00     0.014 A  
HETATM   16  C   UNL     1      -5.742  18.771  64.672  1.00  0.00    -0.238 A  
HETATM   17  N   UNL     1      -5.767  17.727  65.639  1.00  0.00    -0.137 NA 
HETATM   18  C   UNL     1      -6.990  17.376  66.112  1.00  0.00    -0.263 A  
HETATM   19  H   UNL     1      -4.914  17.269  65.960  1.00  0.00     0.000 HD 
HETATM   20  C   UNL     1      -7.983  18.214  66.583  1.00  0.00    -0.276 A  
HETATM   21  C   UNL     1      -9.215  17.486  66.743  1.00  0.00    -0.277 A  
HETATM   22  C   UNL     1      -9.078  16.134  66.512  1.00  0.00    -0.277 A  
HETATM   23  C   UNL     1     -10.115  15.069  66.568  1.00  0.00    -0.286 C  
HETATM   24  S   UNL     1      -7.471  15.733  66.109  1.00  0.00     1.748 SA 
ENDBRANCH   5   8
TORSDOF 1
ENDMDL
MODEL      189
REMARK 921   NORMALIZED FREE ENERGY PREDICTED BY IDOCK:    6.66 KCAL/MOL
REMARK 922        TOTAL FREE ENERGY PREDICTED BY IDOCK:    6.64 KCAL/MOL
REMARK 923 INTER-LIGAND FREE ENERGY PREDICTED BY IDOCK:    6.43 KCAL/MOL
REMARK 924 INTRA-LIGAND FREE ENERGY PREDICTED BY IDOCK:    0.21 KCAL/MOL
REMARK 927      BINDING AFFINITY PREDICTED BY RF-SCORE:    0.00 PKD
ROOT
HETATM    1  C   UNL     1      -5.186  15.408  72.718  1.00  0.00     0.461 C  
HETATM    2  N   UNL     1      -5.725  14.270  71.976  1.00  0.00    -0.145 NA 
HETATM    3  C   UNL     1      -7.116  13.969  72.368  1.00  0.00     4.165 C  
HETATM    4  C   UNL     1      -8.175  14.998  71.913  1.00  0.00     5.337 C  
HETATM    5  N   UNL     1      -8.073  15.296  70.476  1.00  0.00     0.976 NA 
HETATM    6  C   UNL     1      -5.700  14.503  70.515  1.00  0.00    -0.159 C  
HETATM    7  C   UNL     1      -6.699  15.564  70.007  1.00  0.00    -0.052 C  
ENDROOT
BRANCH   5   8
HETATM    8  C   UNL     1      -9.100  15.120  69.553  1.00  0.00    -0.128 C  
HETATM    9  N   UNL     1      -8.873  15.163  68.273  1.00  0.00    -0.168 NA 
HETATM   10  C   UNL     1      -9.854  15.058  67.269  1.00  0.00    -0.228 A  
HETATM   11  H   UNL     1      -7.905  15.283  67.972  1.00  0.00     0.000 HD 
HETATM   12  C   UNL     1      -9.660  15.872  66.143  1.00  0.00    -0.365 A  
HETATM   13  C   UNL     1     -10.553  15.858  65.071  1.00  0.00    -0.372 A  
HETATM   14  C   UNL     1     -11.649  15.005  65.095  1.00  0.00    -0.294 A  
HETATM   15  C   UNL     1     -11.842  14.159  66.188  1.00  0.00    -0.420 A  
HETATM   16  C   UNL     1     -10.955  14.173  67.282  1.00  0.00    -0.297 A  
HETATM   17  N   UNL     1     -11.288  13.388  68.422  1.00  0.00    -0.273 NA 
HETATM   18  C   UNL     1     -11.357  14.049  69.607  1.00  0.00    -0.214 A  
HETATM   19  H   UNL     1     -11.465  12.387  68.354  1.00  0.00     0.000 HD 
HETATM   20  C   UNL     1     -10.430  14.927  70.135  1.00  0.00    -0.020 A  
HETATM   21  C   UNL     1     -10.987  15.612  71.274  1.00  0.00    -0.195 A  
HETATM   22  C   UNL     1     -12.234  15.146  71.629  1.00  0.00    -0.345 A  
HETATM   23  C   UNL     1     -13.122  15.604  72.731  1.00  0.00    -0.591 C  
HETATM   24  S   UNL     1     -12.740  13.884  70.601  1.00  0.00    -0.239 SA 
ENDBRANCH   5   8
TORSDOF 1
ENDMDL
MODEL      190
REMARK 921   NORMALIZED FREE ENERGY PREDICTED BY IDOCK:   10.38 KCAL/MOL
REMARK 922        TOTAL FREE ENERGY PREDICTED BY IDOCK:   10.58 KCAL/MOL
REMARK 923 INTER-LIGAND FREE ENERGY PREDICTED BY IDOCK:   10.68 KCAL/MOL
REMARK 924 INTRA-LIGAND FREE ENERGY PREDICTED BY IDOCK:   -0.10 KCAL/MOL
REMARK 927      BINDING AFFINITY PREDICTED BY RF-SCORE:    0.00 PKD
ROOT
HETATM    1  C   UNL     1     -10.124   9.890  67.307  1.00  0.00    -0.211 C  
HETATM    2  N   UNL     1      -9.300  10.789  68.112  1.00  0.00    -0.150 NA 
HETATM    3  C   UNL     1      -8.546  11.741  67.273  1.00  0.00    -0.162 C  
HETATM    4  C   UNL     1      -9.391  12.838  66.586  1.00  0.00    -0.242 C  
HETATM    5  N   UNL     1     -10.268  13.537  67.538  1.00  0.00    -0.232 NA 
HETATM    6  C   UNL     1     -10.112  11.568  69.073  1.00  0.00    -0.054 C  
HETATM    7  C   UNL     1     -11.020  12.642  68.439  1.00  0.00    -0.257 C  
ENDROOT
BRANCH   5   8
HETATM    8  C   UNL     1     -10.250  14.908  67.775  1.00  0.00    -0.236 C  
HETATM    9  N   UNL     1     -10.413  15.763  66.807  1.00  0.00    -0.301 NA 
HETATM   10  C   UNL     1     -10.350  17.162  66.939  1.00  0.00    -0.308 A  
HETATM   11  H   UNL     1     -10.602  15.387  65.877  1.00  0.00     0.000 HD 
HETATM   12  C   UNL     1      -9.751  17.847  65.870  1.00  0.00    -0.016 A  
HETATM   13  C   UNL     1      -9.633  19.237  65.870  1.00  0.00    -0.094 A  
HETATM   14  C   UNL     1     -10.138  19.974  66.933  1.00  0.00    -0.601 A  
HETATM   15  C   UNL     1     -10.771  19.319  67.990  1.00  0.00    -0.339 A  
HETATM   16  C   UNL     1     -10.884  17.915  68.008  1.00  0.00    -0.192 A  
HETATM   17  N   UNL     1     -11.415  17.303  69.179  1.00  0.00     0.216 NA 
HETATM   18  C   UNL     1     -10.635  16.361  69.770  1.00  0.00    -0.288 A  
HETATM   19  H   UNL     1     -12.329  17.557  69.553  1.00  0.00     0.000 HD 
HETATM   20  C   UNL     1      -9.998  15.295  69.164  1.00  0.00    -0.238 A  
HETATM   21  C   UNL     1      -9.065  14.688  70.079  1.00  0.00     0.772 A  
HETATM   22  C   UNL     1      -9.121  15.226  71.346  1.00  0.00     3.626 A  
HETATM   23  C   UNL     1      -8.315  14.874  72.546  1.00  0.00     7.376 C  
HETATM   24  S   UNL     1     -10.297  16.457  71.445  1.00  0.00     2.613 SA 
ENDBRANCH   5   8
TORSDOF 1
ENDMDL
MODEL      191
REMARK 921   NORMALIZED FREE ENERGY PREDICTED BY IDOCK:   11.38 KCAL/MOL
REMARK 922        TOTAL FREE ENERGY PREDICTED BY IDOCK:   11.63 KCAL/MOL
REMARK 923 INTER-LIGAND FREE ENERGY PREDICTED BY IDOCK:   11.19 KCAL/MOL
REMARK 924 INTRA-LIGAND FREE ENERGY PREDICTED BY IDOCK:    0.44 KCAL/MOL
REMARK 927      BINDING AFFINITY PREDICTED BY RF-SCORE:    0.00 PKD
ROOT
HETATM    1  C   UNL     1     -12.511  15.990  74.366  1.00  0.00    -0.572 C  
HETATM    2  N   UNL     1     -11.827  14.715  74.161  1.00  0.00    -0.154 NA 
HETATM    3  C   UNL     1     -12.604  13.807  73.294  1.00  0.00     0.732 C  
HETATM    4  C   UNL     1     -12.679  14.212  71.805  1.00  0.00    -0.337 C  
HETATM    5  N   UNL     1     -11.349  14.490  71.240  1.00  0.00    -0.012 NA 
HETATM    6  C   UNL     1     -10.490  14.899  73.554  1.00  0.00     4.175 C  
HETATM    7  C   UNL     1     -10.501  15.358  72.081  1.00  0.00     1.611 C  
ENDROOT
BRANCH   5   8
HETATM    8  C   UNL     1     -10.799  13.833  70.143  1.00  0.00     0.611 C  
HETATM    9  N   UNL     1      -9.884  14.395  69.408  1.00  0.00    -0.417 NA 
HETATM   10  C   UNL     1      -9.316  13.837  68.248  1.00  0.00    -0.209 A  
HETATM   11  H   UNL     1      -9.553  15.317  69.695  1.00  0.00     0.000 HD 
HETATM   12  C   UNL     1      -9.044  14.739  67.209  1.00  0.00    -0.214 A  
HETATM   13  C   UNL     1      -8.471  14.318  66.008  1.00  0.00     1.116 A  
HETATM   14  C   UNL     1      -8.136  12.982  65.834  1.00  0.00     1.927 A  
HETATM   15  C   UNL     1      -8.363  12.072  66.867  1.00  0.00    -0.159 A  
HETATM   16  C   UNL     1      -8.952  12.482  68.079  1.00  0.00    -0.192 A  
HETATM   17  N   UNL     1      -9.284  11.480  69.034  1.00  0.00    -0.400 NA 
HETATM   18  C   UNL     1     -10.578  11.445  69.443  1.00  0.00    -0.052 A  
HETATM   19  H   UNL     1      -8.589  10.825  69.391  1.00  0.00     0.000 HD 
HETATM   20  C   UNL     1     -11.353  12.505  69.873  1.00  0.00    -0.052 A  
HETATM   21  C   UNL     1     -12.735  12.106  69.966  1.00  0.00     0.250 A  
HETATM   22  C   UNL     1     -12.926  10.762  69.729  1.00  0.00     0.358 A  
HETATM   23  C   UNL     1     -14.196   9.987  69.724  1.00  0.00     3.190 C  
HETATM   24  S   UNL     1     -11.451   9.973  69.400  1.00  0.00    -0.013 SA 
ENDBRANCH   5   8
TORSDOF 1
ENDMDL
MODEL      192
REMARK 921   NORMALIZED FREE ENERGY PREDICTED BY IDOCK:   31.45 KCAL/MOL
REMARK 922        TOTAL FREE ENERGY PREDICTED BY IDOCK:   32.88 KCAL/MOL
REMARK 923 INTER-LIGAND FREE ENERGY PREDICTED BY IDOCK:   32.31 KCAL/MOL
REMARK 924 INTRA-LIGAND FREE ENERGY PREDICTED BY IDOCK:    0.58 KCAL/MOL
REMARK 927      BINDING AFFINITY PREDICTED BY RF-SCORE:    0.00 PKD
ROOT
HETATM    1  C   UNL     1      -6.234  17.304  64.980  1.00  0.00     2.177 C  
HETATM    2  N   UNL     1      -6.954  18.049  66.012  1.00  0.00    -0.287 NA 
HETATM    3  C   UNL     1      -8.350  17.589  66.147  1.00  0.00    -0.165 C  
HETATM    4  C   UNL     1      -8.531  16.189  66.776  1.00  0.00    -0.254 C  
HETATM    5  N   UNL     1      -7.793  16.052  68.041  1.00  0.00    -0.135 NA 
HETATM    6  C   UNL     1      -6.300  17.930  67.334  1.00  0.00    -0.159 C  
HETATM    7  C   UNL     1      -6.400  16.535  67.987  1.00  0.00    -0.131 C  
ENDROOT
BRANCH   5   8
HETATM    8  C   UNL     1      -8.370  15.729  69.266  1.00  0.00    -0.249 C  
HETATM    9  N   UNL     1      -9.533  15.149  69.333  1.00  0.00    -0.353 NA 
HETATM   10  C   UNL     1     -10.221  14.841  70.522  1.00  0.00     0.564 A  
HETATM   11  H   UNL     1      -9.982  14.897  68.453  1.00  0.00     0.000 HD 
HETATM   12  C   UNL     1     -11.613  15.005  70.478  1.00  0.00    -0.343 A  
HETATM   13  C   UNL     1     -12.416  14.726  71.585  1.00  0.00    -0.398 A  
HETATM   14  C   UNL     1     -11.838  14.250  72.755  1.00  0.00     0.486 A  
HETATM   15  C   UNL     1     -10.460  14.044  72.811  1.00  0.00     6.118 A  
HETATM   16  C   UNL     1      -9.637  14.335  71.704  1.00  0.00     5.937 A  
HETATM   17  N   UNL     1      -8.227  14.234  71.875  1.00  0.00     4.625 NA 
HETATM   18  C   UNL     1      -7.506  15.346  71.578  1.00  0.00     3.435 A  
HETATM   19  H   UNL     1      -7.784  13.376  72.202  1.00  0.00     0.000 HD 
HETATM   20  C   UNL     1      -7.593  16.127  70.442  1.00  0.00     1.660 A  
HETATM   21  C   UNL     1      -6.856  17.352  70.622  1.00  0.00     2.170 A  
HETATM   22  C   UNL     1      -6.157  17.392  71.809  1.00  0.00     2.263 A  
HETATM   23  C   UNL     1      -5.299  18.481  72.349  1.00  0.00     1.323 C  
HETATM   24  S   UNL     1      -6.377  15.961  72.708  1.00  0.00     4.025 SA 
ENDBRANCH   5   8
TORSDOF 1
ENDMDL
MODEL      193
REMARK 921   NORMALIZED FREE ENERGY PREDICTED BY IDOCK:   32.77 KCAL/MOL
REMARK 922        TOTAL FREE ENERGY PREDICTED BY IDOCK:   34.28 KCAL/MOL
REMARK 923 INTER-LIGAND FREE ENERGY PREDICTED BY IDOCK:   33.96 KCAL/MOL
REMARK 924 INTRA-LIGAND FREE ENERGY PREDICTED BY IDOCK:    0.32 KCAL/MOL
REMARK 927      BINDING AFFINITY PREDICTED BY RF-SCORE:    0.00 PKD
ROOT
HETATM    1  C   UNL     1      -6.409  17.733  72.779  1.00  0.00     4.627 C  
HETATM    2  N   UNL     1      -6.638  16.294  72.884  1.00  0.00     5.018 NA 
HETATM    3  C   UNL     1      -8.075  15.962  72.843  1.00  0.00    13.304 C  
HETATM    4  C   UNL     1      -8.764  16.153  71.473  1.00  0.00     6.711 C  
HETATM    5  N   UNL     1      -8.026  15.489  70.387  1.00  0.00     0.799 NA 
HETATM    6  C   UNL     1      -5.962  15.548  71.799  1.00  0.00     0.955 C  
HETATM    7  C   UNL     1      -6.572  15.745  70.395  1.00  0.00     0.312 C  
ENDROOT
BRANCH   5   8
HETATM    8  C   UNL     1      -8.555  14.513  69.548  1.00  0.00     0.312 C  
HETATM    9  N   UNL     1      -7.821  13.923  68.650  1.00  0.00    -0.174 NA 
HETATM   10  C   UNL     1      -8.281  12.972  67.720  1.00  0.00    -0.168 A  
HETATM   11  H   UNL     1      -6.831  14.170  68.618  1.00  0.00     0.000 HD 
HETATM   12  C   UNL     1      -7.712  13.049  66.440  1.00  0.00     1.157 A  
HETATM   13  C   UNL     1      -8.072  12.160  65.427  1.00  0.00     1.628 A  
HETATM   14  C   UNL     1      -8.995  11.155  65.686  1.00  0.00    -0.195 A  
HETATM   15  C   UNL     1      -9.547  11.035  66.961  1.00  0.00    -0.199 A  
HETATM   16  C   UNL     1      -9.201  11.935  67.989  1.00  0.00    -0.190 A  
HETATM   17  N   UNL     1      -9.905  11.841  69.223  1.00  0.00    -0.353 NA 
HETATM   18  C   UNL     1     -10.520  12.974  69.650  1.00  0.00     0.742 A  
HETATM   19  H   UNL     1      -9.944  10.973  69.756  1.00  0.00     0.000 HD 
HETATM   20  C   UNL     1      -9.983  14.244  69.733  1.00  0.00     0.532 A  
HETATM   21  C   UNL     1     -11.023  15.210  69.979  1.00  0.00    -0.291 A  
HETATM   22  C   UNL     1     -12.256  14.633  70.193  1.00  0.00    -0.335 A  
HETATM   23  C   UNL     1     -13.561  15.295  70.466  1.00  0.00    -0.035 C  
HETATM   24  S   UNL     1     -12.170  12.933  70.103  1.00  0.00    -0.199 SA 
ENDBRANCH   5   8
TORSDOF 1
ENDMDL
MODEL      194
REMARK 921   NORMALIZED FREE ENERGY PREDICTED BY IDOCK:   33.61 KCAL/MOL
REMARK 922        TOTAL FREE ENERGY PREDICTED BY IDOCK:   35.16 KCAL/MOL
REMARK 923 INTER-LIGAND FREE ENERGY PREDICTED BY IDOCK:   35.16 KCAL/MOL
REMARK 924 INTRA-LIGAND FREE ENERGY PREDICTED BY IDOCK:    0.01 KCAL/MOL
REMARK 927      BINDING AFFINITY PREDICTED BY RF-SCORE:    0.00 PKD
ROOT
HETATM    1  C   UNL     1     -12.388  10.629  64.599  1.00  0.00     4.176 C  
HETATM    2  N   UNL     1     -12.870  11.907  65.119  1.00  0.00     0.305 NA 
HETATM    3  C   UNL     1     -12.739  11.986  66.587  1.00  0.00     2.483 C  
HETATM    4  C   UNL     1     -11.294  12.107  67.122  1.00  0.00    -0.331 C  
HETATM    5  N   UNL     1     -10.548  13.186  66.455  1.00  0.00    -0.282 NA 
HETATM    6  C   UNL     1     -12.140  13.052  64.530  1.00  0.00    -0.410 C  
HETATM    7  C   UNL     1     -10.672  13.191  64.984  1.00  0.00    -0.323 C  
ENDROOT
BRANCH   5   8
HETATM    8  C   UNL     1      -9.962  14.267  67.107  1.00  0.00    -0.255 C  
HETATM    9  N   UNL     1     -10.677  15.109  67.795  1.00  0.00    -0.271 NA 
HETATM   10  C   UNL     1     -10.184  16.262  68.435  1.00  0.00    -0.249 A  
HETATM   11  H   UNL     1     -11.676  14.919  67.877  1.00  0.00     0.000 HD 
HETATM   12  C   UNL     1     -11.025  17.384  68.398  1.00  0.00    -0.118 A  
HETATM   13  C   UNL     1     -10.661  18.588  69.002  1.00  0.00     0.318 A  
HETATM   14  C   UNL     1      -9.452  18.683  69.681  1.00  0.00     0.515 A  
HETATM   15  C   UNL     1      -8.616  17.570  69.763  1.00  0.00     1.327 A  
HETATM   16  C   UNL     1      -8.966  16.353  69.146  1.00  0.00    -0.197 A  
HETATM   17  N   UNL     1      -8.006  15.301  69.149  1.00  0.00    -0.197 NA 
HETATM   18  C   UNL     1      -7.665  14.796  67.936  1.00  0.00    -0.137 A  
HETATM   19  H   UNL     1      -7.597  14.948  70.013  1.00  0.00     0.000 HD 
HETATM   20  C   UNL     1      -8.515  14.392  66.923  1.00  0.00    -0.156 A  
HETATM   21  C   UNL     1      -7.771  14.167  65.710  1.00  0.00     4.476 A  
HETATM   22  C   UNL     1      -6.409  14.285  65.881  1.00  0.00     7.600 A  
HETATM   23  C   UNL     1      -5.326  14.136  64.871  1.00  0.00    16.652 C  
HETATM   24  S   UNL     1      -6.016  14.661  67.496  1.00  0.00     0.231 SA 
ENDBRANCH   5   8
TORSDOF 1
ENDMDL
